data_PCOD9020614
_publ_section_title
;
Structure prediction by ZEFSAII (Michael W. Deem and Ramdas Pophale) SiO2 
 PCOD9020614
Probable space group: P -1
;
_chemical_formula_sum "Si O2"
_cell_formula_units_Z 12
_cell_length_a 12.712616
_cell_length_b 11.678489
_cell_length_c 10.384460
_cell_angle_alpha 143.819093
_cell_angle_beta 35.561529
_cell_angle_gamma 133.838967
_cell_volume 526.391935
_symmetry_space_group_name_H-M "P -1"
_symmetry_group_IT_number 2
_symmetry_cell_setting 'triclinic'
loop_
_space_group_symop_operation_xyz
x,y,z
-x,-y,-z
loop_
_atom_site_type_symbol
_atom_site_label
_atom_site_fract_x
_atom_site_fract_y
_atom_site_fract_z
Si Si1 0.553236 0.613287 0.916637
Si Si2 0.670188 0.976750 0.987545
Si Si3 0.080954 0.911146 0.506845
Si Si4 0.958041 0.549670 0.442458
Si Si5 0.225313 0.541152 0.975043
Si Si6 0.601547 0.777035 0.606744
O O1 0.606548 0.849511 0.062438
O O2 0.745160 0.539922 0.618757
O O3 0.384203 0.569597 0.949765
O O4 0.500000 0.500000 0.000000
O O5 0.884495 0.983969 0.753557
O O6 0.588081 0.844406 0.828264
O O7 0.579327 0.176571 0.245631
O O8 0.051296 0.773275 0.536155
O O9 0.242085 0.078851 0.489082
O O10 0.143209 0.739743 0.195533
O O11 0.000000 0.500000 0.500000
O O12 0.057614 0.435377 0.129391
O O13 0.316029 0.427350 0.670223
#
# Coordination Sequence:
#
# PCOD9020614 Si02
#       6
#     2   2   2   2   2   2
#     4  11  19  38  65  82 117 159 195 236 295 345
#     4  10  22  39  61  86 121 161 186 250 294 343
#     4   9  20  39  59  82 120 156 190 245 291 336
#     4   9  18  36  62  83 111 157 194 232 293 342
#     4  10  22  36  63  89 115 159 194 242 292 351
#     4  11  22  40  58  91 123 147 203 238 298 351
#
# _framework density 22.796703000000001
#
# number of rings (size 3 to 8) (size 9 to 14) (size 15 to 20)
#    1.000    1.000    3.333    0.500    0.000    2.667 
#    0.000    1.667    0.000    0.000    0.000    0.000 
#    0.000    0.000    0.000    0.000    0.000    0.000 
#
# Total GULP energy -66807.156880 kJ/mol
# GULP energy per Si atom -5567.263073 kJ/mol
# Density = 2.274482 g / cm^3
# Si number density = 22.796703 Si / 1000 Ang^3
#
#
#
# Elastic Constant Matrix: (Units=GPa)
#
#
# Indices 1 2 3 4 5 6 
#
# 1 37.3013 28.1084 10.8384 -5.3482 -21.1288 -16.6407
# 2 28.1084 102.9633 42.8441 -23.6119 -16.6724 -30.2562
# 3 10.8384 42.8441 136.3151 -14.1404 -35.9516 4.0766
# 4 -5.3482 -23.6119 -14.1404 37.1559 1.6503 -1.8372
# 5 -21.1288 -16.6724 -35.9516 1.6503 32.4921 0.5874
# 6 -16.6407 -30.2562 4.0766 -1.8372 0.5874 28.7720
#
#
#
# Elastic Compliance Matrix: (Units=1/GPa)
#
#
# Indices 1 2 3 4 5 6 
#
# 1 0.082442 0.001071 0.010163 0.015912 0.063745 0.047083
# 2 0.001071 0.023964 -0.005419 0.014419 0.005770 0.027391
# 3 0.010163 -0.005419 0.013426 0.002205 0.018607 -0.001962
# 4 0.015912 0.014419 0.002205 0.039717 0.017694 0.026228
# 5 0.063745 0.005770 0.018607 0.017694 0.094165 0.039507
# 6 0.047083 0.027391 -0.001962 0.026228 0.039507 0.091937
#
#
# Mechanical properties :
#
#
# Convention : Reuss Voigt Hill
#
# Bulk Modulus (GPa) = 7.60670 48.90684 28.25677
# Shear Modulus (GPa) = 13.23307 32.66994 22.95150
#
# Velocity S-wave (km/s) = 2.41193 3.78974 3.17644
# Velocity P-wave (km/s) = 3.33175 6.37570 5.08675
#
# Compressibility (1/GPa) = 0.13146308
#
# Stress axis : x y z
#
# Youngs Moduli (GPa) = 12.12976 41.72846 74.48299
#
# Poissons Ratio (x) = -0.04470 -0.75697
# Poissons Ratio (y) = -0.01299 0.40362
# Poissons Ratio (z) = -0.12328 0.22612
#
# Static dielectric constant tensor:
#      x y z
#    x 1.833690 0.015290 -0.001780 
#    y 0.015290 1.931240 0.041030 
#    z -0.001780 0.041030 1.920700 
# 
# From -- ./inp_files/264515.got.cif
#   From: 2010.05.17/outbox.cif.g08.bks.cpg/sg2_133_cif.got.tgz:264515.got - 2010.06.03 11:33:40.
