data_PCOD9020347
_publ_section_title
;
Structure prediction by ZEFSAII (Michael W. Deem and Ramdas Pophale) SiO2 
 PCOD9020347
Probable space group: P -1
;
_chemical_formula_sum "Si O2"
_cell_formula_units_Z 16
_cell_length_a 29.976081
_cell_length_b 9.331914
_cell_length_c 15.464032
_cell_angle_alpha 49.684219
_cell_angle_beta 14.292505
_cell_angle_gamma 40.940927
_cell_volume 595.391334
_symmetry_space_group_name_H-M "P -1"
_symmetry_group_IT_number 2
_symmetry_cell_setting 'triclinic'
loop_
_space_group_symop_operation_xyz
x,y,z
-x,-y,-z
loop_
_atom_site_type_symbol
_atom_site_label
_atom_site_fract_x
_atom_site_fract_y
_atom_site_fract_z
Si Si1 0.365501 0.254954 0.706860
Si Si2 0.702358 0.893662 0.472847
Si Si3 0.796026 0.729012 0.553409
Si Si4 0.185463 0.597008 0.561248
Si Si5 0.838512 0.988640 0.511736
Si Si6 0.216951 0.657350 0.280881
Si Si7 0.400828 0.626576 0.544483
Si Si8 0.806927 0.932474 0.790839
O O1 0.477954 0.384160 0.441350
O O2 0.500000 0.000000 0.500000
O O3 0.335076 0.162971 0.890701
O O4 0.084243 0.475533 0.119896
O O5 0.785996 0.832605 0.439160
O O6 0.646732 0.710362 0.630433
O O7 0.539884 0.198256 0.651766
O O8 0.933837 0.749033 0.028590
O O9 0.723847 0.906414 0.701354
O O10 0.648257 0.636382 0.871021
O O11 0.107790 0.695512 0.568669
O O12 0.289493 0.716741 0.358946
O O13 0.888994 0.888426 0.554631
O O14 0.103183 0.830379 0.029556
O O15 0.032827 0.789889 0.491712
O O16 0.339139 0.773538 0.022403
O O17 0.500000 0.500000 0.500000
#
# Coordination Sequence:
#
# PCOD9020347 Si02
#       8
#     2   2   2   2   2   2   2   2
#     4  10  22  35  50  78 111 141 176 218 268 319
#     4   9  17  32  52  76 106 141 176 220 266 304
#     4   9  18  32  53  84 109 134 180 222 259 314
#     4   8  15  27  47  76 102 133 174 211 253 306
#     4   9  18  32  53  84 109 134 180 222 259 314
#     4   8  15  27  47  76 102 133 174 211 253 306
#     4  10  22  35  50  78 111 141 176 218 268 319
#     4   9  17  32  52  76 106 141 176 220 266 304
#
# _framework density 26.873082
#
# number of rings (size 3 to 8) (size 9 to 14) (size 15 to 20)
#    0.000    3.000    0.000    0.000    0.000   19.000 
#    0.000    0.000    0.000    0.000    0.000   87.500 
#    0.000    0.000    0.000    0.000    0.000    0.000 
#
# Total GULP energy -89305.592634 kJ/mol
# GULP energy per Si atom -5581.599540 kJ/mol
# Density = 2.681192 g / cm^3
# Si number density = 26.873082 Si / 1000 Ang^3
#
#
#
# Elastic Constant Matrix: (Units=GPa)
#
#
# Indices 1 2 3 4 5 6 
#
# 1 150.2513 94.5690 21.4411 2.9788 28.8385 27.1547
# 2 94.5690 264.1902 34.3062 0.4433 2.6398 31.8365
# 3 21.4411 34.3062 66.1617 2.8896 13.5974 13.7964
# 4 2.9788 0.4433 2.8896 45.2382 7.0360 1.7977
# 5 28.8385 2.6398 13.5974 7.0360 35.9333 0.5375
# 6 27.1547 31.8365 13.7964 1.7977 0.5375 57.0815
#
#
#
# Elastic Compliance Matrix: (Units=1/GPa)
#
#
# Indices 1 2 3 4 5 6 
#
# 1 0.011153 -0.003593 0.000799 0.000801 -0.009095 -0.003435
# 2 -0.003593 0.005416 -0.002154 -0.000167 0.003345 -0.000817
# 3 0.000799 -0.002154 0.018209 0.000086 -0.007338 -0.003513
# 4 0.000801 -0.000167 0.000086 0.022885 -0.005130 -0.000981
# 5 -0.009095 0.003345 -0.007338 -0.005130 0.038604 0.004032
# 6 -0.003435 -0.000817 -0.003513 -0.000981 0.004032 0.020451
#
#
# Mechanical properties :
#
#
# Convention : Reuss Voigt Hill
#
# Bulk Modulus (GPa) = 40.18760 86.80398 63.49579
# Shear Modulus (GPa) = 37.06208 49.66972 43.36590
#
# Velocity S-wave (km/s) = 3.71772 4.30386 4.02148
# Velocity P-wave (km/s) = 5.78063 7.55442 6.72625
#
# Compressibility (1/GPa) = 0.02488330
#
# Stress axis : x y z
#
# Youngs Moduli (GPa) = 89.65950 184.62982 54.91676
#
# Poissons Ratio (x) = 0.66332 -0.04387
# Poissons Ratio (y) = 0.32212 0.11829
# Poissons Ratio (z) = -0.07162 0.39768
#
# Static dielectric constant tensor:
#      x y z
#    x 2.356290 -0.512440 0.633580 
#    y -0.512440 3.265020 -1.298460 
#    z 0.633580 -1.298460 3.648290 
# 
# From -- ./inp_files/544872.got.cif
#   From: 2010.05.17/outbox.cif.g08.bks.cpg/sg2_273_cif.got.tgz:544872.got - 2010.06.03 11:33:40.
