data_PCOD9020256
_publ_section_title
;
Structure prediction by ZEFSAII (Michael W. Deem and Ramdas Pophale) SiO2 
 PCOD9020256
Probable space group: P -1
;
_chemical_formula_sum "Si O2"
_cell_formula_units_Z 16
_cell_length_a 5.185788
_cell_length_b 25.082452
_cell_length_c 5.084921
_cell_angle_alpha 94.187576
_cell_angle_beta 87.831373
_cell_angle_gamma 114.281054
_cell_volume 601.266969
_symmetry_space_group_name_H-M "P -1"
_symmetry_group_IT_number 2
_symmetry_cell_setting 'triclinic'
loop_
_space_group_symop_operation_xyz
x,y,z
-x,-y,-z
loop_
_atom_site_type_symbol
_atom_site_label
_atom_site_fract_x
_atom_site_fract_y
_atom_site_fract_z
Si Si1 0.741045 0.491151 0.816579
Si Si2 0.362522 0.803785 0.220127
Si Si3 0.975956 0.614723 0.683359
Si Si4 0.172155 0.095957 0.058723
Si Si5 0.508279 0.291296 0.064286
Si Si6 0.692678 0.003153 0.743927
Si Si7 0.140067 0.193733 0.418458
Si Si8 0.679596 0.634660 0.226570
O O1 0.859815 0.544520 0.624230
O O2 0.591640 0.424352 0.705375
O O3 0.500000 0.500000 0.000000
O O4 0.000000 0.500000 0.000000
O O5 0.527032 0.859401 0.049290
O O6 0.311448 0.745786 0.032145
O O7 0.590660 0.804822 0.429519
O O8 0.095712 0.805594 0.374682
O O9 0.907542 0.644139 0.444923
O O10 0.804386 0.622392 0.944449
O O11 0.298766 0.649914 0.767943
O O12 0.974899 0.061270 0.811335
O O13 0.038376 0.135080 0.226548
O O14 0.212962 0.050213 0.239958
O O15 0.406647 0.312710 0.815090
O O16 0.250969 0.247944 0.231891
O O17 0.500000 0.000000 0.500000
O O18 0.500000 0.000000 0.000000
#
# Coordination Sequence:
#
# PCOD9020256 Si02
#       8
#     2   2   2   2   2   2   2   2
#     4  10  21  48  74 115 153 205 260 331 413 504
#     4  11  29  51  84 113 166 217 281 337 408 480
#     4  11  26  46  78 111 160 206 267 336 416 499
#     4  10  28  51  80 127 166 218 272 332 402 488
#     4  11  28  48  76 120 156 211 280 342 414 485
#     4  11  28  49  87 126 174 212 272 332 408 482
#     4  11  29  51  84 113 166 217 281 337 408 480
#     4  11  26  46  78 111 160 206 267 336 416 499
#
# _framework density 26.610474
#
# number of rings (size 3 to 8) (size 9 to 14) (size 15 to 20)
#    0.000    1.250    1.250    0.375   14.000    3.000 
#    0.000    8.125    0.000    0.000    0.000    0.875 
#    0.000    0.000    0.000    0.000    0.000    0.000 
#
# Total GULP energy -89924.216113 kJ/mol
# GULP energy per Si atom -5620.263507 kJ/mol
# Density = 2.654991 g / cm^3
# Si number density = 26.610474 Si / 1000 Ang^3
#
#
#
# Elastic Constant Matrix: (Units=GPa)
#
#
# Indices 1 2 3 4 5 6 
#
# 1 129.7748 31.0219 38.6320 9.3429 -11.1011 4.9214
# 2 31.0219 159.1755 33.3492 16.5831 -5.9879 -4.2275
# 3 38.6320 33.3492 155.0090 0.8886 18.1237 -5.1422
# 4 9.3429 16.5831 0.8886 18.8908 -2.2762 -0.8414
# 5 -11.1011 -5.9879 18.1237 -2.2762 62.0072 -1.9861
# 6 4.9214 -4.2275 -5.1422 -0.8414 -1.9861 20.9663
#
#
#
# Elastic Compliance Matrix: (Units=1/GPa)
#
#
# Indices 1 2 3 4 5 6 
#
# 1 0.009176 -0.000920 -0.002402 -0.003500 0.002035 -0.002876
# 2 -0.000920 0.007423 -0.001385 -0.005848 0.000781 0.001212
# 3 -0.002402 -0.001385 0.007718 0.001806 -0.002690 0.001995
# 4 -0.003500 -0.005848 0.001806 0.059896 0.000561 0.002542
# 5 0.002035 0.000781 -0.002690 0.000561 0.017396 0.000690
# 6 -0.002876 0.001212 0.001995 0.002542 0.000690 0.049272
#
#
# Mechanical properties :
#
#
# Convention : Reuss Voigt Hill
#
# Bulk Modulus (GPa) = 67.10659 72.21839 69.66249
# Shear Modulus (GPa) = 30.25479 43.10327 36.67903
#
# Velocity S-wave (km/s) = 3.37553 4.02902 3.71667
# Velocity P-wave (km/s) = 6.36122 6.98871 6.68233
#
# Compressibility (1/GPa) = 0.01490167
#
# Stress axis : x y z
#
# Youngs Moduli (GPa) = 108.98111 134.72170 129.56310
#
# Poissons Ratio (x) = 0.12397 0.31124
# Poissons Ratio (y) = 0.10028 0.17947
# Poissons Ratio (z) = 0.26180 0.18662
#
# Static dielectric constant tensor:
#      x y z
#    x 1.089140 -0.128140 0.030060 
#    y -0.128140 2.086380 0.028060 
#    z 0.030060 0.028060 2.026370 
# 
# From -- ./inp_files/12912.got.cif
#   From: 2010.05.17/outbox.cif.g08.bks.cpg/sg2_7_cif.got.tgz:12912.got - 2010.06.03 11:33:40.
