data_PCOD9020527
_publ_section_title
;
Structure prediction by ZEFSAII (Michael W. Deem and Ramdas Pophale) SiO2 
 PCOD9020527
Probable space group: P -1
;
_chemical_formula_sum "Si O2"
_cell_formula_units_Z 12
_cell_length_a 18.644849
_cell_length_b 4.900026
_cell_length_c 8.856879
_cell_angle_alpha 85.473173
_cell_angle_beta 138.279511
_cell_angle_gamma 77.942810
_cell_volume 491.139429
_symmetry_space_group_name_H-M "P -1"
_symmetry_group_IT_number 2
_symmetry_cell_setting 'triclinic'
loop_
_space_group_symop_operation_xyz
x,y,z
-x,-y,-z
loop_
_atom_site_type_symbol
_atom_site_label
_atom_site_fract_x
_atom_site_fract_y
_atom_site_fract_z
Si Si1 0.691778 0.640090 0.384906
Si Si2 0.551549 0.721185 0.752225
Si Si3 0.574227 0.197020 0.998613
Si Si4 0.869698 0.340945 0.415275
Si Si5 0.862954 0.866661 0.195740
Si Si6 0.677711 0.382369 0.682072
O O1 0.559692 0.647228 0.156874
O O2 0.793479 0.440866 0.441445
O O3 0.722086 0.523944 0.607680
O O4 0.660618 0.982946 0.269420
O O5 0.614535 0.422038 0.963949
O O6 0.610112 0.646248 0.683968
O O7 0.420609 0.731945 0.526438
O O8 0.560796 0.985861 0.851314
O O9 0.825797 0.607350 0.209542
O O10 0.005963 0.282833 0.660034
O O11 0.871572 0.045265 0.351412
O O12 0.776362 0.105530 0.934006
#
# Coordination Sequence:
#
# PCOD9020527 Si02
#       6
#     2   2   2   2   2   2
#     4  10  22  36  59  88 115 146 188 237 280 323
#     4  10  22  39  57  81 117 156 187 221 277 343
#     4  10  22  39  57  81 117 156 187 221 277 343
#     4  10  22  41  62  82 110 151 191 228 280 342
#     4  10  22  41  62  82 110 151 191 228 280 342
#     4  10  22  36  59  88 115 146 188 237 280 323
#
# _framework density 24.432979
#
# number of rings (size 3 to 8) (size 9 to 14) (size 15 to 20)
#    0.000    2.000    0.000    2.000    0.000   19.333 
#    0.000    0.000    0.000    7.000    0.000    0.000 
#    0.000    0.000    0.000    0.000    0.000    0.000 
#
# Total GULP energy -67262.557271 kJ/mol
# GULP energy per Si atom -5605.213106 kJ/mol
# Density = 2.437737 g / cm^3
# Si number density = 24.432979 Si / 1000 Ang^3
#
#
#
# Elastic Constant Matrix: (Units=GPa)
#
#
# Indices 1 2 3 4 5 6 
#
# 1 190.5795 65.6931 57.1954 -13.8067 -21.0550 -39.8462
# 2 65.6931 111.1702 10.9212 0.7614 -15.1323 -3.3964
# 3 57.1954 10.9212 121.1105 -19.5095 -23.7198 -13.6525
# 4 -13.8067 0.7614 -19.5095 33.9354 4.7605 0.2167
# 5 -21.0550 -15.1323 -23.7198 4.7605 48.6972 -7.3253
# 6 -39.8462 -3.3964 -13.6525 0.2167 -7.3253 49.3296
#
#
#
# Elastic Compliance Matrix: (Units=1/GPa)
#
#
# Indices 1 2 3 4 5 6 
#
# 1 0.009556 -0.004899 -0.002486 0.002210 0.002238 0.007016
# 2 -0.004899 0.011985 0.001004 -0.001935 0.001899 -0.002564
# 3 -0.002486 0.001004 0.011190 0.004757 0.004494 0.001805
# 4 0.002210 -0.001935 0.004757 0.033148 -0.000148 0.002801
# 5 0.002238 0.001899 0.004494 -0.000148 0.025341 0.006946
# 6 0.007016 -0.002564 0.001805 0.002801 0.006946 0.027281
#
#
# Mechanical properties :
#
#
# Convention : Reuss Voigt Hill
#
# Bulk Modulus (GPa) = 50.07599 76.71996 63.39797
# Shear Modulus (GPa) = 36.25278 45.66247 40.95763
#
# Velocity S-wave (km/s) = 3.85615 4.32775 4.09874
# Velocity P-wave (km/s) = 6.35344 7.51272 6.95727
#
# Compressibility (1/GPa) = 0.01996965
#
# Stress axis : x y z
#
# Youngs Moduli (GPa) = 104.64383 83.43879 89.36219
#
# Poissons Ratio (x) = 0.40876 0.22215
# Poissons Ratio (y) = 0.51264 -0.08972
# Poissons Ratio (z) = 0.26014 -0.08377
#
# Static dielectric constant tensor:
#      x y z
#    x 1.959350 0.002560 0.001190 
#    y 0.002560 2.031400 -0.009910 
#    z 0.001190 -0.009910 1.985500 
# 
# From -- ./inp_files/322525.got.cif
#   From: 2010.05.17/outbox.cif.g08.bks.cpg/sg2_162_cif.got.tgz:322525.got - 2010.06.03 11:33:40.
