data_PCOD9020020
_publ_section_title
;
Structure prediction by ZEFSAII (Michael W. Deem and Ramdas Pophale) SiO2 
 PCOD9020020
Probable space group: P -1
;
_chemical_formula_sum "Si O2"
_cell_formula_units_Z 16
_cell_length_a 19.481839
_cell_length_b 7.897915
_cell_length_c 5.351106
_cell_angle_alpha 116.169813
_cell_angle_beta 72.671029
_cell_angle_gamma 74.023630
_cell_volume 620.907952
_symmetry_space_group_name_H-M "P -1"
_symmetry_group_IT_number 2
_symmetry_cell_setting 'triclinic'
loop_
_space_group_symop_operation_xyz
x,y,z
-x,-y,-z
loop_
_atom_site_type_symbol
_atom_site_label
_atom_site_fract_x
_atom_site_fract_y
_atom_site_fract_z
Si Si1 0.658502 0.891353 0.495251
Si Si2 0.830281 0.602398 0.927210
Si Si3 0.869668 0.184885 0.327352
Si Si4 0.987111 0.185319 0.821657
Si Si5 0.743810 0.162722 0.724069
Si Si6 0.543403 0.309927 0.630388
Si Si7 0.883099 0.748483 0.472391
Si Si8 0.382915 0.457773 0.585943
O O1 0.638462 0.732203 0.580071
O O2 0.692365 0.033961 0.691712
O O3 0.581802 0.073930 0.550722
O O4 0.732021 0.742400 0.132476
O O5 0.858079 0.355114 0.671382
O O6 0.866035 0.674469 0.704685
O O7 0.856345 0.658982 0.201293
O O8 0.784101 0.181228 0.430625
O O9 0.941250 0.941988 0.133008
O O10 0.902717 0.263241 0.109423
O O11 0.022471 0.314874 0.709011
O O12 0.000000 0.000000 0.500000
O O13 0.825003 0.005960 0.689522
O O14 0.685158 0.393773 0.045309
O O15 0.474081 0.341157 0.527248
O O16 0.611819 0.368623 0.489361
O O17 0.500000 0.500000 0.000000
#
# Coordination Sequence:
#
# PCOD9020020 Si02
#       8
#     2   2   2   2   2   2   2   2
#     4  11  23  44  71 102 140 185 238 292 357 427
#     4  11  24  45  68 106 135 186 239 302 350 429
#     4  10  23  43  67  97 136 182 239 287 367 421
#     4  10  24  42  67  95 137 195 226 296 362 427
#     4  10  21  46  66 101 136 182 234 296 348 430
#     4  11  24  44  68 102 139 184 229 295 352 434
#     4  10  25  42  69  98 144 179 242 296 358 426
#     4  11  23  45  69  99 139 183 236 288 363 423
#
# _framework density 25.768713000000002
#
# number of rings (size 3 to 8) (size 9 to 14) (size 15 to 20)
#    0.000    1.500    2.500    1.125    8.750    1.500 
#   11.250    0.000    0.000    0.000    0.000    0.000 
#    0.000    0.000    0.000    0.000    0.000    0.000 
#
# Total GULP energy -89433.112639 kJ/mol
# GULP energy per Si atom -5589.569540 kJ/mol
# Density = 2.571006 g / cm^3
# Si number density = 25.768713 Si / 1000 Ang^3
#
#
#
# Elastic Constant Matrix: (Units=GPa)
#
#
# Indices 1 2 3 4 5 6 
#
# 1 93.6883 28.6848 25.0301 0.4353 -11.1609 25.5393
# 2 28.6848 113.5067 37.2502 6.9767 -13.4037 21.0102
# 3 25.0301 37.2502 109.2214 -4.1414 -6.8261 13.5770
# 4 0.4353 6.9767 -4.1414 49.4251 6.8328 -7.6724
# 5 -11.1609 -13.4037 -6.8261 6.8328 42.3841 3.4451
# 6 25.5393 21.0102 13.5770 -7.6724 3.4451 46.1917
#
#
#
# Elastic Compliance Matrix: (Units=1/GPa)
#
#
# Indices 1 2 3 4 5 6 
#
# 1 0.013927 -0.001010 -0.001759 -0.001810 0.003952 -0.007319
# 2 -0.001010 0.011544 -0.003015 -0.003110 0.003775 -0.004604
# 3 -0.001759 -0.003015 0.010720 0.001221 0.000163 -0.000616
# 4 -0.001810 -0.003110 0.001221 0.022497 -0.005394 0.006195
# 5 0.003952 0.003775 0.000163 -0.005394 0.027283 -0.006880
# 6 -0.007319 -0.004604 -0.000616 0.006195 -0.006880 0.029513
#
#
# Mechanical properties :
#
#
# Convention : Reuss Voigt Hill
#
# Bulk Modulus (GPa) = 40.61203 55.37185 47.99194
# Shear Modulus (GPa) = 36.96551 42.63027 39.79789
#
# Velocity S-wave (km/s) = 3.79160 4.07177 3.93418
# Velocity P-wave (km/s) = 5.91293 6.60609 6.26910
#
# Compressibility (1/GPa) = 0.02462324
#
# Stress axis : x y z
#
# Youngs Moduli (GPa) = 71.80193 86.62558 93.28063
#
# Poissons Ratio (x) = 0.08745 0.16410
# Poissons Ratio (y) = 0.07249 0.28128
# Poissons Ratio (z) = 0.12631 0.26121
#
# Static dielectric constant tensor:
#      x y z
#    x 2.101480 -0.024780 0.002020 
#    y -0.024780 2.134790 -0.027970 
#    z 0.002020 -0.027970 2.008570 
# 
# From -- ./inp_files/117338.got.cif
#   From: 2010.05.17/outbox.cif.g08.bks.cpg/sg2_59_cif.got.tgz:117338.got - 2010.06.03 11:33:40.
