data_PCOD9020711
_publ_section_title
;
Structure prediction by ZEFSAII (Michael W. Deem and Ramdas Pophale) SiO2 
 PCOD9020711
Probable space group: P -1
;
_chemical_formula_sum "Si O2"
_cell_formula_units_Z 14
_cell_length_a 18.283955
_cell_length_b 7.228856
_cell_length_c 9.515157
_cell_angle_alpha 68.519545
_cell_angle_beta 33.150344
_cell_angle_gamma 82.150328
_cell_volume 603.183074
_symmetry_space_group_name_H-M "P -1"
_symmetry_group_IT_number 2
_symmetry_cell_setting 'triclinic'
loop_
_space_group_symop_operation_xyz
x,y,z
-x,-y,-z
loop_
_atom_site_type_symbol
_atom_site_label
_atom_site_fract_x
_atom_site_fract_y
_atom_site_fract_z
Si Si1 0.979472 0.846461 0.943669
Si Si2 0.858344 0.882097 0.845477
Si Si3 0.189997 0.648966 0.657860
Si Si4 0.417734 0.128644 0.860468
Si Si5 0.723113 0.385414 0.177001
Si Si6 0.520861 0.426394 0.832655
Si Si7 0.558349 0.202901 0.248621
O O1 0.894243 0.922162 0.940456
O O2 0.124188 0.818603 0.656461
O O3 0.898200 0.595421 0.172012
O O4 0.000000 0.000000 0.000000
O O5 0.722682 0.926460 0.991211
O O6 0.807512 0.630845 0.979428
O O7 0.000000 0.000000 0.500000
O O8 0.200418 0.696204 0.797338
O O9 0.345070 0.652121 0.367030
O O10 0.557497 0.307066 0.518031
O O11 0.400151 0.232225 0.007062
O O12 0.447707 0.908916 0.861529
O O13 0.705971 0.322980 0.057897
O O14 0.527496 0.634645 0.672436
O O15 0.500000 0.500000 0.000000
O O16 0.500000 0.000000 0.500000
#
# Coordination Sequence:
#
# PCOD9020711 Si02
#       7
#     2   2   2   2   2   2   2
#     4  10  23  41  65  93 130 180 227 271 329 409
#     4  11  23  39  65  96 136 175 218 278 344 407
#     4   9  22  40  66  93 126 174 225 270 332 408
#     4  10  22  40  68  98 127 172 234 275 333 413
#     4   9  19  40  69  90 130 162 226 280 332 390
#     4  11  24  42  66  99 141 175 215 296 354 393
#     4  10  22  36  68 102 119 172 228 277 335 399
#
# _framework density 23.2102
#
# number of rings (size 3 to 8) (size 9 to 14) (size 15 to 20)
#    0.000    2.000    1.429    0.429   12.000    5.143 
#    0.000    0.714    0.000    0.000    0.000    0.000 
#    0.000    0.000    0.000    0.000    0.000    0.000 
#
# Total GULP energy -77946.159520 kJ/mol
# GULP energy per Si atom -5567.582823 kJ/mol
# Density = 2.315737 g / cm^3
# Si number density = 23.210200 Si / 1000 Ang^3
#
#
#
# Elastic Constant Matrix: (Units=GPa)
#
#
# Indices 1 2 3 4 5 6 
#
# 1 86.5372 63.6378 43.0479 4.3339 -18.2742 20.2265
# 2 63.6378 164.4898 38.3992 14.6845 -2.0141 38.8355
# 3 43.0479 38.3992 67.5760 -17.7339 -14.7782 9.0497
# 4 4.3339 14.6845 -17.7339 28.0730 0.1940 -3.0846
# 5 -18.2742 -2.0141 -14.7782 0.1940 29.7606 5.8674
# 6 20.2265 38.8355 9.0497 -3.0846 5.8674 44.4417
#
#
#
# Elastic Compliance Matrix: (Units=1/GPa)
#
#
# Indices 1 2 3 4 5 6 
#
# 1 0.025998 -0.003609 -0.014409 -0.012171 0.010208 -0.007937
# 2 -0.003609 0.011820 -0.006972 -0.010840 -0.003312 -0.007582
# 3 -0.014409 -0.006972 0.036453 0.029541 0.007346 0.006308
# 4 -0.012171 -0.010840 0.029541 0.063228 0.003502 0.012923
# 5 0.010208 -0.003312 0.007346 0.003502 0.045035 -0.008950
# 6 -0.007937 -0.007582 0.006308 0.012923 -0.008950 0.033534
#
#
# Mechanical properties :
#
#
# Convention : Reuss Voigt Hill
#
# Bulk Modulus (GPa) = 41.16637 67.64141 54.40389
# Shear Modulus (GPa) = 18.23858 32.02293 25.13076
#
# Velocity S-wave (km/s) = 2.80625 3.71845 3.29408
# Velocity P-wave (km/s) = 5.31742 6.90232 6.16105
#
# Compressibility (1/GPa) = 0.02429167
#
# Stress axis : x y z
#
# Youngs Moduli (GPa) = 38.46464 84.59954 27.43264
#
# Poissons Ratio (x) = 0.30531 0.39529
# Poissons Ratio (y) = 0.13881 0.19125
# Poissons Ratio (z) = 0.55425 0.58979
#
# Static dielectric constant tensor:
#      x y z
#    x 2.013140 0.064160 0.014740 
#    y 0.064160 1.942970 0.060760 
#    z 0.014740 0.060760 2.023490 
# 
# From -- ./inp_files/326139.got.cif
#   From: 2010.05.17/outbox.cif.g08.bks.cpg/sg2_164_cif.got.tgz:326139.got - 2010.06.03 11:33:40.
