data_PCOD9020206
_publ_section_title
;
Structure prediction by ZEFSAII (Michael W. Deem and Ramdas Pophale) SiO2 
 PCOD9020206
Probable space group: P -1
;
_chemical_formula_sum "Si O2"
_cell_formula_units_Z 15
_cell_length_a 6.754669
_cell_length_b 8.542239
_cell_length_c 12.362243
_cell_angle_alpha 82.467555
_cell_angle_beta 85.011821
_cell_angle_gamma 97.264321
_cell_volume 697.572421
_symmetry_space_group_name_H-M "P -1"
_symmetry_group_IT_number 2
_symmetry_cell_setting 'triclinic'
loop_
_space_group_symop_operation_xyz
x,y,z
-x,-y,-z
loop_
_atom_site_type_symbol
_atom_site_label
_atom_site_fract_x
_atom_site_fract_y
_atom_site_fract_z
Si Si1 0.133773 0.224332 0.200894
Si Si2 0.179194 0.731352 0.466049
Si Si3 0.453315 0.180780 0.006425
Si Si4 0.165911 0.258674 0.828286
Si Si5 0.112644 0.681955 0.982546
Si Si6 0.018525 0.489751 0.316697
Si Si7 0.100201 0.047417 0.640205
Si Si8 0.500000 0.000000 0.500000
O O1 0.306557 0.187811 0.115432
O O2 0.157356 0.392404 0.246174
O O3 0.941824 0.232704 0.132051
O O4 0.077169 0.091598 0.305736
O O5 0.156842 0.616745 0.372471
O O6 0.119161 0.625146 0.584156
O O7 0.999938 0.836633 0.444674
O O8 0.393289 0.838839 0.454215
O O9 0.653198 0.299431 0.013086
O O10 0.350561 0.245079 0.899582
O O11 0.500000 0.000000 0.000000
O O12 0.158807 0.136772 0.741689
O O13 0.129566 0.424435 0.759633
O O14 0.977089 0.227363 0.921872
O O15 0.000000 0.500000 0.000000
O O16 0.292439 0.991192 0.582124
#
# Coordination Sequence:
#
# PCOD9020206 Si02
#       8
#     2   2   2   2   2   2   2   1
#     4  11  23  43  72 100 140 179 231 277 340 405
#     4  10  24  46  69  95 140 175 235 281 340 403
#     4  11  25  44  71 104 135 185 232 272 333 421
#     4  10  23  44  70  98 141 178 227 280 344 399
#     4  11  23  44  66 103 141 172 221 281 335 408
#     4  10  21  47  70  97 138 184 218 289 344 395
#     4  11  24  44  69 101 136 183 223 292 333 406
#     4  12  24  42  68 102 130 178 236 276 336 404
#
# _framework density 21.503143000000001
#
# number of rings (size 3 to 8) (size 9 to 14) (size 15 to 20)
#    0.000    1.333    2.667    2.000    0.000    8.533 
#    2.400    7.333    0.000    0.000    0.000    0.000 
#    0.000    0.000    0.000    0.000    0.000    0.000 
#
# Total GULP energy -83581.957697 kJ/mol
# GULP energy per Si atom -5572.130513 kJ/mol
# Density = 2.145420 g / cm^3
# Si number density = 21.503143 Si / 1000 Ang^3
#
#
#
# Elastic Constant Matrix: (Units=GPa)
#
#
# Indices 1 2 3 4 5 6 
#
# 1 96.8569 56.3650 29.9183 14.0903 5.9626 23.6995
# 2 56.3650 118.8418 55.7001 12.0405 -3.6915 -4.9445
# 3 29.9183 55.7001 115.6627 9.0706 7.3762 -6.4709
# 4 14.0903 12.0405 9.0706 41.3908 -14.6209 -5.8461
# 5 5.9626 -3.6915 7.3762 -14.6209 16.5018 5.6292
# 6 23.6995 -4.9445 -6.4709 -5.8461 5.6292 36.7532
#
#
#
# Elastic Compliance Matrix: (Units=1/GPa)
#
#
# Indices 1 2 3 4 5 6 
#
# 1 0.023843 -0.011477 0.000661 -0.013556 -0.017961 -0.016207
# 2 -0.011477 0.016799 -0.006049 0.006185 0.013527 0.007508
# 3 0.000661 -0.006049 0.012762 -0.005526 -0.012911 0.002105
# 4 -0.013556 0.006185 -0.005526 0.045792 0.046326 0.008789
# 5 -0.017961 0.013527 -0.012911 0.046326 0.116721 0.000620
# 6 -0.016207 0.007508 0.002105 0.008789 0.000620 0.040343
#
#
# Mechanical properties :
#
#
# Convention : Reuss Voigt Hill
#
# Bulk Modulus (GPa) = 50.82609 68.36981 59.59795
# Shear Modulus (GPa) = 16.86073 31.55438 24.20755
#
# Velocity S-wave (km/s) = 2.80323 3.83486 3.35889
# Velocity P-wave (km/s) = 5.84511 7.17443 6.54362
#
# Compressibility (1/GPa) = 0.01967494
#
# Stress axis : x y z
#
# Youngs Moduli (GPa) = 41.94169 59.52765 78.35674
#
# Poissons Ratio (x) = 0.68320 -0.05183
# Poissons Ratio (y) = 0.48136 0.47397
# Poissons Ratio (z) = -0.02774 0.36007
#
# Static dielectric constant tensor:
#      x y z
#    x 1.727470 -0.016640 0.016300 
#    y -0.016640 1.818600 0.012370 
#    z 0.016300 0.012370 1.778750 
# 
# From -- ./inp_files/322812.got.cif
#   From: 2010.05.17/outbox.cif.g08.bks.cpg/sg2_162_cif.got.tgz:322812.got - 2010.06.03 11:33:40.
