data_PCOD9020693
_publ_section_title
;
Structure prediction by ZEFSAII (Michael W. Deem and Ramdas Pophale) SiO2 
 PCOD9020693
Probable space group: P -1
;
_chemical_formula_sum "Si O2"
_cell_formula_units_Z 16
_cell_length_a 20.351254
_cell_length_b 10.758252
_cell_length_c 11.420096
_cell_angle_alpha 55.694427
_cell_angle_beta 151.042191
_cell_angle_gamma 140.709374
_cell_volume 712.071319
_symmetry_space_group_name_H-M "P -1"
_symmetry_group_IT_number 2
_symmetry_cell_setting 'triclinic'
loop_
_space_group_symop_operation_xyz
x,y,z
-x,-y,-z
loop_
_atom_site_type_symbol
_atom_site_label
_atom_site_fract_x
_atom_site_fract_y
_atom_site_fract_z
Si Si1 0.240974 0.662551 0.536437
Si Si2 0.180645 0.743069 0.916416
Si Si3 0.445952 0.112700 0.526466
Si Si4 0.855644 0.932956 0.556277
Si Si5 0.371453 0.215140 0.944615
Si Si6 0.728368 0.178809 0.249372
Si Si7 0.553512 0.653994 0.399821
Si Si8 0.306578 0.277061 0.058706
O O1 0.205575 0.683783 0.604971
O O2 0.038227 0.446178 0.290385
O O3 0.315139 0.863013 0.469529
O O4 0.416841 0.683227 0.801616
O O5 0.212163 0.720082 0.840993
O O6 0.246860 0.967459 0.908678
O O7 0.336616 0.769589 0.217401
O O8 0.437056 0.182482 0.604294
O O9 0.383170 0.189271 0.294612
O O10 0.739976 0.799582 0.330215
O O11 0.755789 0.772320 0.594317
O O12 0.804307 0.067465 0.427026
O O13 0.079409 0.093745 0.809983
O O14 0.367454 0.313226 0.000557
O O15 0.500000 0.000000 0.000000
O O16 0.500000 0.500000 0.500000
O O17 0.393971 0.495730 0.137576
#
# Coordination Sequence:
#
# PCOD9020693 Si02
#       8
#     2   2   2   2   2   2   2   2
#     4  11  21  38  67  91 122 165 199 265 317 351
#     4  10  22  36  66  93 121 160 207 258 313 369
#     4  10  22  41  60  94 129 153 212 259 302 371
#     4  11  22  40  67  91 127 162 209 258 304 374
#     4  10  24  44  60  94 128 159 216 255 299 374
#     4  11  18  39  61  96 126 151 204 270 309 357
#     4  10  23  40  60  91 124 161 206 252 303 370
#     4  11  26  42  62  87 131 178 200 248 311 367
#
# _framework density 22.469657999999999
#
# number of rings (size 3 to 8) (size 9 to 14) (size 15 to 20)
#    0.000    1.500    5.000    0.750    1.750    9.500 
#    0.000    1.250    0.000    0.000    0.000    0.000 
#    0.000    0.000    0.000    0.000    0.000    0.000 
#
# Total GULP energy -89450.967882 kJ/mol
# GULP energy per Si atom -5590.685493 kJ/mol
# Density = 2.241852 g / cm^3
# Si number density = 22.469658 Si / 1000 Ang^3
#
#
#
# Elastic Constant Matrix: (Units=GPa)
#
#
# Indices 1 2 3 4 5 6 
#
# 1 76.9966 10.4450 3.5360 17.3470 -12.6230 -2.9557
# 2 10.4450 61.5235 38.5773 14.8199 9.6186 3.8573
# 3 3.5360 38.5773 96.9278 36.0169 11.0823 3.1588
# 4 17.3470 14.8199 36.0169 41.2826 11.5615 -3.4089
# 5 -12.6230 9.6186 11.0823 11.5615 16.1226 6.4739
# 6 -2.9557 3.8573 3.1588 -3.4089 6.4739 19.3153
#
#
#
# Elastic Compliance Matrix: (Units=1/GPa)
#
#
# Indices 1 2 3 4 5 6 
#
# 1 0.030713 -0.010941 0.010765 -0.036096 0.057266 -0.020440
# 2 -0.010941 0.026546 -0.012596 0.014957 -0.029532 0.007622
# 3 0.010765 -0.012596 0.022952 -0.028350 0.025816 -0.013247
# 4 -0.036096 0.014957 -0.028350 0.090999 -0.101507 0.046208
# 5 0.057266 -0.029532 0.025816 -0.101507 0.210912 -0.078167
# 6 -0.020440 0.007622 -0.013247 0.046208 -0.078167 0.083643
#
#
# Mechanical properties :
#
#
# Convention : Reuss Voigt Hill
#
# Bulk Modulus (GPa) = 18.29226 37.84048 28.06637
# Shear Modulus (GPa) = 9.81296 27.53675 18.67485
#
# Velocity S-wave (km/s) = 2.09205 3.50452 2.88603
# Velocity P-wave (km/s) = 3.74087 5.76653 4.86040
#
# Compressibility (1/GPa) = 0.05466794
#
# Stress axis : x y z
#
# Youngs Moduli (GPa) = 32.55901 37.67107 43.56965
#
# Poissons Ratio (x) = 0.41217 -0.46905
# Poissons Ratio (y) = 0.35624 0.54879
# Poissons Ratio (z) = -0.35051 0.47449
#
# Static dielectric constant tensor:
#      x y z
#    x 1.840210 -0.005450 -0.043600 
#    y -0.005450 1.894360 0.001330 
#    z -0.043600 0.001330 1.812500 
# 
# From -- ./inp_files/438329.got.cif
#   From: 2010.05.17/outbox.cif.g08.bks.cpg/sg2_220_cif.got.tgz:438329.got - 2010.06.03 11:33:40.
