data_PCOD9020523
_publ_section_title
;
Structure prediction by ZEFSAII (Michael W. Deem and Ramdas Pophale) SiO2 
 PCOD9020523
Probable space group: P -1
;
_chemical_formula_sum "Si O2"
_cell_formula_units_Z 16
_cell_length_a 14.211215
_cell_length_b 9.658499
_cell_length_c 14.641235
_cell_angle_alpha 88.527598
_cell_angle_beta 42.995943
_cell_angle_gamma 54.840523
_cell_volume 789.734396
_symmetry_space_group_name_H-M "P -1"
_symmetry_group_IT_number 2
_symmetry_cell_setting 'triclinic'
loop_
_space_group_symop_operation_xyz
x,y,z
-x,-y,-z
loop_
_atom_site_type_symbol
_atom_site_label
_atom_site_fract_x
_atom_site_fract_y
_atom_site_fract_z
Si Si1 0.808157 0.772334 0.385154
Si Si2 0.779659 0.386790 0.818765
Si Si3 0.449724 0.304418 0.654006
Si Si4 0.720341 0.525790 0.429467
Si Si5 0.230221 0.895249 0.873174
Si Si6 0.521604 0.523580 0.829740
Si Si7 0.017345 0.336804 0.943348
Si Si8 0.137501 0.843297 0.569393
O O1 0.773532 0.637373 0.423468
O O2 0.024176 0.660509 0.292331
O O3 0.567695 0.055524 0.573475
O O4 0.868698 0.751443 0.236016
O O5 0.635822 0.529543 0.825453
O O6 0.599801 0.501778 0.027456
O O7 0.917740 0.127044 0.709194
O O8 0.305211 0.448503 0.661329
O O9 0.260074 0.483656 0.866049
O O10 0.670536 0.226445 0.506907
O O11 0.460708 0.690271 0.647712
O O12 0.904865 0.263508 0.343560
O O13 0.320846 0.765559 0.907946
O O14 0.000000 0.000000 0.000000
O O15 0.160318 0.112630 0.908648
O O16 0.729779 0.303130 0.616878
O O17 0.000000 0.500000 0.000000
#
# Coordination Sequence:
#
# PCOD9020523 Si02
#       8
#     2   2   2   2   2   2   2   2
#     4  11  22  40  57  89 124 156 196 234 297 354
#     4  10  22  40  67  80 114 161 195 244 293 341
#     4  11  21  35  57  86 120 158 192 233 295 353
#     4  11  21  37  56  90 127 150 192 244 291 356
#     4  11  23  38  61  87 121 151 193 247 292 345
#     4  10  22  41  60  90 114 149 206 245 284 348
#     4  12  22  35  58  87 122 157 185 239 294 349
#     4  10  22  36  59  87 115 150 199 244 288 341
#
# _framework density 20.259978
#
# number of rings (size 3 to 8) (size 9 to 14) (size 15 to 20)
#    0.000    1.250    2.500    4.875    3.500    0.000 
#    0.000    2.500    0.000    9.750    0.000    0.000 
#    0.000    0.000    0.000    0.000    0.000    0.000 
#
# Total GULP energy -89435.747668 kJ/mol
# GULP energy per Si atom -5589.734229 kJ/mol
# Density = 2.021387 g / cm^3
# Si number density = 20.259978 Si / 1000 Ang^3
#
#
#
# Elastic Constant Matrix: (Units=GPa)
#
#
# Indices 1 2 3 4 5 6 
#
# 1 102.8918 46.8035 9.0559 -3.7533 -8.1937 -17.1654
# 2 46.8035 99.4350 2.0347 2.6356 -6.4638 5.4645
# 3 9.0559 2.0347 53.8204 -0.1386 -7.6653 -4.5506
# 4 -3.7533 2.6356 -0.1386 23.4900 3.5689 0.0240
# 5 -8.1937 -6.4638 -7.6653 3.5689 25.3886 4.5567
# 6 -17.1654 5.4645 -4.5506 0.0240 4.5567 30.6113
#
#
#
# Elastic Compliance Matrix: (Units=1/GPa)
#
#
# Indices 1 2 3 4 5 6 
#
# 1 0.015054 -0.007646 -0.001381 0.003195 0.000332 0.009549
# 2 -0.007646 0.014330 0.000569 -0.003291 0.003111 -0.007222
# 3 -0.001381 0.000569 0.019685 -0.001015 0.005566 0.001223
# 4 0.003195 -0.003291 -0.001015 0.044497 -0.006948 0.003228
# 5 0.000332 0.003111 0.005566 -0.006948 0.044037 -0.006092
# 6 0.009549 -0.007222 0.001223 0.003228 -0.006092 0.040398
#
#
# Mechanical properties :
#
#
# Convention : Reuss Voigt Hill
#
# Bulk Modulus (GPa) = 31.10090 41.32616 36.21353
# Shear Modulus (GPa) = 24.31486 29.11487 26.71486
#
# Velocity S-wave (km/s) = 3.46807 3.79497 3.63520
# Velocity P-wave (km/s) = 5.60543 6.29640 5.96094
#
# Compressibility (1/GPa) = 0.03215341
#
# Stress axis : x y z
#
# Youngs Moduli (GPa) = 66.42536 69.78201 50.80108
#
# Poissons Ratio (x) = 0.53353 0.07016
# Poissons Ratio (y) = 0.50787 -0.02890
# Poissons Ratio (z) = 0.09174 -0.03969
#
# Static dielectric constant tensor:
#      x y z
#    x 1.727200 0.017240 -0.010700 
#    y 0.017240 1.739150 -0.010050 
#    z -0.010700 -0.010050 1.770590 
# 
# From -- ./inp_files/273219.got.cif
#   From: 2010.05.17/outbox.cif.g08.bks.cpg/sg2_137_cif.got.tgz:273219.got - 2010.06.03 11:33:40.
