data_PCOD9020209
_publ_section_title
;
Structure prediction by ZEFSAII (Michael W. Deem and Ramdas Pophale) SiO2 
 PCOD9020209
Probable space group: P -1
;
_chemical_formula_sum "Si O2"
_cell_formula_units_Z 16
_cell_length_a 12.146717
_cell_length_b 11.761909
_cell_length_c 5.422111
_cell_angle_alpha 99.580200
_cell_angle_beta 59.850455
_cell_angle_gamma 102.403037
_cell_volume 652.644918
_symmetry_space_group_name_H-M "P -1"
_symmetry_group_IT_number 2
_symmetry_cell_setting 'triclinic'
loop_
_space_group_symop_operation_xyz
x,y,z
-x,-y,-z
loop_
_atom_site_type_symbol
_atom_site_label
_atom_site_fract_x
_atom_site_fract_y
_atom_site_fract_z
Si Si1 0.686482 0.691676 0.556094
Si Si2 0.594927 0.326021 0.190569
Si Si3 0.623448 0.111243 0.720056
Si Si4 0.064675 0.054256 0.196066
Si Si5 0.912997 0.708417 0.959934
Si Si6 0.187063 0.704231 0.685878
Si Si7 0.652529 0.909373 0.982228
Si Si8 0.236811 0.499958 0.250113
O O1 0.550579 0.672816 0.560002
O O2 0.667502 0.780949 0.827349
O O3 0.724248 0.576525 0.595412
O O4 0.803270 0.744818 0.271171
O O5 0.705072 0.333314 0.272298
O O6 0.604339 0.206655 0.987882
O O7 0.635667 0.435252 0.003982
O O8 0.744643 0.172418 0.452719
O O9 0.643414 0.992316 0.785131
O O10 0.485216 0.096268 0.732241
O O11 0.055625 0.191904 0.245187
O O12 0.215391 0.041367 0.016602
O O13 0.000000 0.000000 0.500000
O O14 0.000000 0.000000 0.000000
O O15 0.851401 0.586524 0.864780
O O16 0.046226 0.705658 0.952422
O O17 0.167716 0.606234 0.459298
#
# Coordination Sequence:
#
# PCOD9020209 Si02
#       8
#     2   2   2   2   2   2   2   2
#     4  11  24  44  71 105 143 181 240 300 363 435
#     4  10  24  43  71 103 137 186 236 298 361 427
#     4   9  22  44  72  98 143 182 237 299 354 441
#     4  12  27  46  73 107 150 194 243 303 372 442
#     4  12  27  43  70 102 141 189 235 300 365 436
#     4  11  25  44  67  99 140 183 241 291 365 430
#     4  10  21  47  71 104 136 190 240 291 369 434
#     4  11  24  45  69  99 137 186 240 300 359 436
#
# _framework density 24.515628
#
# number of rings (size 3 to 8) (size 9 to 14) (size 15 to 20)
#    0.000    1.250    1.250    3.000    3.500    7.000 
#    0.000    1.875    0.000    0.000    0.000    0.000 
#    0.000    0.000    0.000    0.000    0.000    0.000 
#
# Total GULP energy -89616.057682 kJ/mol
# GULP energy per Si atom -5601.003605 kJ/mol
# Density = 2.445983 g / cm^3
# Si number density = 24.515628 Si / 1000 Ang^3
#
#
#
# Elastic Constant Matrix: (Units=GPa)
#
#
# Indices 1 2 3 4 5 6 
#
# 1 156.6426 -0.4285 25.9927 0.7381 -37.1149 13.9966
# 2 -0.4285 106.2639 19.0528 -13.9130 -5.6141 7.8333
# 3 25.9927 19.0528 63.9994 -0.4103 -20.3426 8.9566
# 4 0.7381 -13.9130 -0.4103 33.5576 -1.2978 12.1657
# 5 -37.1149 -5.6141 -20.3426 -1.2978 38.9261 -1.3934
# 6 13.9966 7.8333 8.9566 12.1657 -1.3934 26.3904
#
#
#
# Elastic Compliance Matrix: (Units=1/GPa)
#
#
# Indices 1 2 3 4 5 6 
#
# 1 0.008963 0.001373 -0.000569 0.002796 0.008332 -0.005817
# 2 0.001373 0.011338 -0.002463 0.007029 0.001663 -0.006410
# 3 -0.000569 -0.002463 0.020564 0.001907 0.009687 -0.006314
# 4 0.002796 0.007029 0.001907 0.041190 0.005229 -0.022929
# 5 0.008332 0.001663 0.009687 0.005229 0.038804 -0.008562
# 6 -0.005817 -0.006410 -0.006314 -0.022929 -0.008562 0.055142
#
#
# Mechanical properties :
#
#
# Convention : Reuss Voigt Hill
#
# Bulk Modulus (GPa) = 26.63161 46.23777 36.43469
# Shear Modulus (GPa) = 26.06436 38.59408 32.32922
#
# Velocity S-wave (km/s) = 3.26417 3.97200 3.63536
# Velocity P-wave (km/s) = 5.00930 6.31959 5.70221
#
# Compressibility (1/GPa) = 0.03754936
#
# Stress axis : x y z
#
# Youngs Moduli (GPa) = 111.57211 88.19697 48.62842
#
# Poissons Ratio (x) = -0.12112 0.02765
# Poissons Ratio (y) = -0.15322 0.11975
# Poissons Ratio (z) = 0.06344 0.21719
#
# Static dielectric constant tensor:
#      x y z
#    x 1.985010 0.018240 0.008120 
#    y 0.018240 1.917360 0.005550 
#    z 0.008120 0.005550 1.933500 
# 
# From -- ./inp_files/70333.got.cif
#   From: 2010.05.17/outbox.cif.g08.bks.cpg/sg2_36_cif.got.tgz:70333.got - 2010.06.03 11:33:40.
