data_PCOD9020281
_publ_section_title
;
Structure prediction by ZEFSAII (Michael W. Deem and Ramdas Pophale) SiO2 
 PCOD9020281
Probable space group: P -1
;
_chemical_formula_sum "Si O2"
_cell_formula_units_Z 14
_cell_length_a 7.139314
_cell_length_b 11.080308
_cell_length_c 19.165132
_cell_angle_alpha 139.141394
_cell_angle_beta 66.038286
_cell_angle_gamma 138.307555
_cell_volume 614.275249
_symmetry_space_group_name_H-M "P -1"
_symmetry_group_IT_number 2
_symmetry_cell_setting 'triclinic'
loop_
_space_group_symop_operation_xyz
x,y,z
-x,-y,-z
loop_
_atom_site_type_symbol
_atom_site_label
_atom_site_fract_x
_atom_site_fract_y
_atom_site_fract_z
Si Si1 0.514791 0.510002 0.828509
Si Si2 0.211052 0.968292 0.468876
Si Si3 0.949364 0.411004 0.259848
Si Si4 0.134942 0.692993 0.492215
Si Si5 0.591979 0.820713 0.829821
Si Si6 0.235835 0.209178 0.947414
Si Si7 0.952418 0.076321 0.280506
O O1 0.437408 0.583807 0.806059
O O2 0.793478 0.566324 0.785687
O O3 0.249935 0.209305 0.771348
O O4 0.657944 0.734894 0.965390
O O5 0.223426 0.927865 0.531637
O O6 0.081409 0.695006 0.335828
O O7 0.556446 0.214062 0.502065
O O8 0.000000 0.000000 0.500000
O O9 0.635205 0.179423 0.166045
O O10 0.926011 0.447243 0.361351
O O11 0.033225 0.726190 0.592119
O O12 0.718927 0.788187 0.729775
O O13 0.908527 0.091387 0.936371
O O14 0.195978 0.012686 0.813951
O O15 0.500000 0.500000 0.000000
#
# Coordination Sequence:
#
# PCOD9020281 Si02
#       7
#     2   2   2   2   2   2   2
#     4  11  19  41  65  78 124 156 189 253 293 334
#     4   9  18  32  57  87 117 158 200 225 286 355
#     4  10  22  32  59  95 116 152 202 240 285 354
#     4   9  18  35  56  84 125 155 186 239 292 342
#     4  10  23  36  60  95 109 156 203 234 300 347
#     4   8  19  38  65  81 114 159 192 245 294 345
#     4   9  19  38  59  86 118 154 197 232 291 354
#
# _framework density 22.791087000000001
#
# number of rings (size 3 to 8) (size 9 to 14) (size 15 to 20)
#    1.714    0.857    1.429    0.429    4.000    1.143 
#    0.000    3.571    0.000    3.429    0.000    0.000 
#    0.000    0.000    0.000    0.000    0.000    0.000 
#
# Total GULP energy -77966.440298 kJ/mol
# GULP energy per Si atom -5569.031450 kJ/mol
# Density = 2.273921 g / cm^3
# Si number density = 22.791087 Si / 1000 Ang^3
#
#
#
# Elastic Constant Matrix: (Units=GPa)
#
#
# Indices 1 2 3 4 5 6 
#
# 1 105.2040 24.3487 32.1754 -6.8165 13.3672 3.6454
# 2 24.3487 101.1649 27.3402 -8.2102 18.1236 -17.6080
# 3 32.1754 27.3402 109.5505 -11.3491 8.0698 -9.6471
# 4 -6.8165 -8.2102 -11.3491 39.3575 -1.5128 6.0759
# 5 13.3672 18.1236 8.0698 -1.5128 28.4294 3.9322
# 6 3.6454 -17.6080 -9.6471 6.0759 3.9322 13.3891
#
#
#
# Elastic Compliance Matrix: (Units=1/GPa)
#
#
# Indices 1 2 3 4 5 6 
#
# 1 0.011973 -0.003626 -0.003327 0.002050 -0.000723 -0.011144
# 2 -0.003626 0.018463 -0.000017 -0.002026 -0.014372 0.030396
# 3 -0.003327 -0.000017 0.011256 0.001117 -0.002850 0.009324
# 4 0.002050 -0.002026 0.001117 0.028338 0.003786 -0.016390
# 5 -0.000723 -0.014372 -0.002850 0.003786 0.050862 -0.037413
# 6 -0.011144 0.030396 0.009324 -0.016390 -0.037413 0.142839
#
#
# Mechanical properties :
#
#
# Convention : Reuss Voigt Hill
#
# Bulk Modulus (GPa) = 36.03460 53.73868 44.88664
# Shear Modulus (GPa) = 17.42622 31.70553 24.56588
#
# Velocity S-wave (km/s) = 2.76815 3.73384 3.28666
# Velocity P-wave (km/s) = 5.10510 6.49760 5.84298
#
# Compressibility (1/GPa) = 0.02775110
#
# Stress axis : x y z
#
# Youngs Moduli (GPa) = 83.52075 54.16182 88.83801
#
# Poissons Ratio (x) = 0.19641 0.29559
# Poissons Ratio (y) = 0.30287 0.00153
# Poissons Ratio (z) = 0.27789 0.00094
#
# Static dielectric constant tensor:
#      x y z
#    x 1.828970 -0.063440 0.009430 
#    y -0.063440 1.945600 0.034260 
#    z 0.009430 0.034260 1.906630 
# 
# From -- ./inp_files/583311.got.cif
#   From: 2010.05.17/outbox.cif.g08.bks.cpg/sg2_292_cif.got.tgz:583311.got - 2010.06.03 11:33:40.
