data_PCOD9020304
_publ_section_title
;
Structure prediction by ZEFSAII (Michael W. Deem and Ramdas Pophale) SiO2 
 PCOD9020304
Probable space group: P -1
;
_chemical_formula_sum "Si O2"
_cell_formula_units_Z 12
_cell_length_a 10.919435
_cell_length_b 17.060114
_cell_length_c 11.701152
_cell_angle_alpha 19.518651
_cell_angle_beta 120.391462
_cell_angle_gamma 132.249505
_cell_volume 461.522822
_symmetry_space_group_name_H-M "P -1"
_symmetry_group_IT_number 2
_symmetry_cell_setting 'triclinic'
loop_
_space_group_symop_operation_xyz
x,y,z
-x,-y,-z
loop_
_atom_site_type_symbol
_atom_site_label
_atom_site_fract_x
_atom_site_fract_y
_atom_site_fract_z
Si Si1 0.188535 0.718908 0.953431
Si Si2 0.126753 0.418397 0.793975
Si Si3 0.250452 0.775911 0.647054
Si Si4 0.552005 0.893189 0.951532
Si Si5 0.706802 0.678055 0.796735
Si Si6 0.087098 0.909773 0.080407
O O1 0.277088 0.878764 0.648644
O O2 0.324834 0.677663 0.131608
O O3 0.216047 0.987509 0.669242
O O4 0.970116 0.421604 0.223104
O O5 0.351357 0.763490 0.415980
O O6 0.036398 0.580147 0.543005
O O7 0.017124 0.177935 0.968675
O O8 0.151838 0.259218 0.123820
O O9 0.372287 0.020884 0.263074
O O10 0.290470 0.540118 0.986723
O O11 0.678088 0.836752 0.152900
O O12 0.500000 0.500000 0.000000
O O13 0.000000 0.000000 0.000000
#
# Coordination Sequence:
#
# PCOD9020304 Si02
#       6
#     2   2   2   2   2   2
#     4  11  21  35  54  79 114 139 170 220 261 315
#     4   8  18  30  48  81 102 126 181 211 251 316
#     4  10  22  34  51  83 110 139 177 211 263 316
#     4   9  18  36  53  77 105 137 177 214 256 315
#     4  11  19  33  57  81 107 142 171 212 268 319
#     4   9  17  31  53  75  97 138 176 215 259 301
#
# _framework density 26.000879999999999
#
# number of rings (size 3 to 8) (size 9 to 14) (size 15 to 20)
#    1.000    1.333    3.333    1.000    2.333    0.000 
#    0.000    0.000    0.000   10.000    0.000    0.000 
#    0.000    0.000    0.000    0.000    0.000    0.000 
#
# Total GULP energy -66974.484959 kJ/mol
# GULP energy per Si atom -5581.207080 kJ/mol
# Density = 2.594170 g / cm^3
# Si number density = 26.000880 Si / 1000 Ang^3
#
#
#
# Elastic Constant Matrix: (Units=GPa)
#
#
# Indices 1 2 3 4 5 6 
#
# 1 124.5425 56.2708 26.6822 -23.2448 21.1150 29.7167
# 2 56.2708 141.7769 8.9946 -27.3409 -5.3411 27.7199
# 3 26.6822 8.9946 72.1278 8.9417 12.7935 22.4066
# 4 -23.2448 -27.3409 8.9417 29.0926 10.4976 -5.6843
# 5 21.1150 -5.3411 12.7935 10.4976 40.4197 -11.0246
# 6 29.7167 27.7199 22.4066 -5.6843 -11.0246 65.4333
#
#
#
# Elastic Compliance Matrix: (Units=1/GPa)
#
#
# Indices 1 2 3 4 5 6 
#
# 1 0.016720 -0.002708 -0.003399 0.015609 -0.013775 -0.006247
# 2 -0.002708 0.009877 -0.000502 0.006653 0.000576 -0.002107
# 3 -0.003399 -0.000502 0.018801 -0.008852 -0.003594 -0.006056
# 4 0.015609 0.006653 -0.008852 0.062819 -0.022195 -0.005158
# 5 -0.013775 0.000576 -0.003594 -0.022195 0.042308 0.012443
# 6 -0.006247 -0.002107 -0.006056 -0.005158 0.012443 0.022735
#
#
# Mechanical properties :
#
#
# Convention : Reuss Voigt Hill
#
# Bulk Modulus (GPa) = 31.07544 58.03804 44.55674
# Shear Modulus (GPa) = 25.35450 43.42241 34.38846
#
# Velocity S-wave (km/s) = 3.12611 4.09104 3.64069
# Velocity P-wave (km/s) = 5.00077 6.68472 5.90310
#
# Compressibility (1/GPa) = 0.03217976
#
# Stress axis : x y z
#
# Youngs Moduli (GPa) = 59.80742 101.24803 53.19002
#
# Poissons Ratio (x) = 0.27418 0.18078
# Poissons Ratio (y) = 0.16196 0.02671
# Poissons Ratio (z) = 0.20327 0.05085
#
# Static dielectric constant tensor:
#      x y z
#    x 2.182350 -0.002980 -0.069380 
#    y -0.002980 1.979320 0.000900 
#    z -0.069380 0.000900 2.131590 
# 
# From -- ./inp_files/268709.got.cif
#   From: 2010.05.17/outbox.cif.g08.bks.cpg/sg2_135_cif.got.tgz:268709.got - 2010.06.03 11:33:40.
