data_PCOD9020969
_publ_section_title
;
Structure prediction by ZEFSAII (Michael W. Deem and Ramdas Pophale) SiO2 
 PCOD9020969
Probable space group: P -1
;
_chemical_formula_sum "Si O2"
_cell_formula_units_Z 12
_cell_length_a 21.950913
_cell_length_b 7.415626
_cell_length_c 5.077898
_cell_angle_alpha 120.390964
_cell_angle_beta 97.217128
_cell_angle_gamma 46.510056
_cell_volume 483.467194
_symmetry_space_group_name_H-M "P -1"
_symmetry_group_IT_number 2
_symmetry_cell_setting 'triclinic'
loop_
_space_group_symop_operation_xyz
x,y,z
-x,-y,-z
loop_
_atom_site_type_symbol
_atom_site_label
_atom_site_fract_x
_atom_site_fract_y
_atom_site_fract_z
Si Si1 0.361841 0.240682 0.468442
Si Si2 0.413870 0.859846 0.691138
Si Si3 0.112286 0.456173 0.182879
Si Si4 0.999352 0.253539 0.164747
Si Si5 0.285502 0.824538 0.665063
Si Si6 0.827524 0.247763 0.412814
O O1 0.360044 0.494827 0.604896
O O2 0.254178 0.466900 0.602463
O O3 0.415443 0.028867 0.590697
O O4 0.393589 0.031349 0.077627
O O5 0.500000 0.500000 0.500000
O O6 0.333902 0.894502 0.603153
O O7 0.925051 0.500418 0.092848
O O8 0.128058 0.668236 0.356989
O O9 0.036073 0.589920 0.454090
O O10 0.210742 0.114667 0.026158
O O11 0.096680 0.049695 0.941128
O O12 0.000000 0.000000 0.000000
O O13 0.226064 0.789699 0.466557
#
# Coordination Sequence:
#
# PCOD9020969 Si02
#       6
#     2   2   2   2   2   2
#     4  10  26  45  69 100 133 170 221 270 333 398
#     4  12  26  48  73  99 131 170 217 276 341 404
#     4  11  22  40  64  92 136 178 221 265 324 376
#     4  10  22  37  63  93 132 181 220 271 312 373
#     4  10  24  44  69 100 133 180 212 280 327 393
#     4   9  21  44  62  98 132 177 221 269 319 384
#
# _framework density 24.820712
#
# number of rings (size 3 to 8) (size 9 to 14) (size 15 to 20)
#    1.000    0.667    1.667    2.500    4.667    6.667 
#    0.000    0.000    0.000    0.000    0.000    0.000 
#    0.000    0.000    0.000    0.000    0.000    0.000 
#
# Total GULP energy -67018.446534 kJ/mol
# GULP energy per Si atom -5584.870545 kJ/mol
# Density = 2.476422 g / cm^3
# Si number density = 24.820712 Si / 1000 Ang^3
#
#
#
# Elastic Constant Matrix: (Units=GPa)
#
#
# Indices 1 2 3 4 5 6 
#
# 1 76.9889 -7.1979 11.7152 0.0440 1.5362 8.3696
# 2 -7.1979 134.0620 62.0343 25.6158 -14.4288 11.3092
# 3 11.7152 62.0343 123.0341 29.7503 2.2740 -2.7227
# 4 0.0440 25.6158 29.7503 49.9064 0.4148 -0.2694
# 5 1.5362 -14.4288 2.2740 0.4148 16.8023 4.9692
# 6 8.3696 11.3092 -2.7227 -0.2694 4.9692 33.7336
#
#
#
# Elastic Compliance Matrix: (Units=1/GPa)
#
#
# Indices 1 2 3 4 5 6 
#
# 1 0.014230 0.002907 -0.003058 0.000264 0.003144 -0.005213
# 2 0.002907 0.013667 -0.006875 -0.003086 0.014865 -0.008072
# 3 -0.003058 -0.006875 0.013192 -0.004230 -0.008904 0.005406
# 4 0.000264 -0.003086 -0.004230 0.024175 -0.003076 0.001274
# 5 0.003144 0.014865 -0.008904 -0.003076 0.078623 -0.018089
# 6 -0.005213 -0.008072 0.005406 0.001274 -0.018089 0.036755
#
#
# Mechanical properties :
#
#
# Convention : Reuss Voigt Hill
#
# Bulk Modulus (GPa) = 36.98636 51.90982 44.44809
# Shear Modulus (GPa) = 24.54509 37.92402 31.23456
#
# Velocity S-wave (km/s) = 3.14808 3.91310 3.55125
# Velocity P-wave (km/s) = 5.30544 6.43240 5.89591
#
# Compressibility (1/GPa) = 0.02703700
#
# Stress axis : x y z
#
# Youngs Moduli (GPa) = 70.27542 73.16901 75.80217
#
# Poissons Ratio (x) = -0.21267 0.23179
# Poissons Ratio (y) = -0.20426 0.52112
# Poissons Ratio (z) = 0.21489 0.50302
#
# Static dielectric constant tensor:
#      x y z
#    x 2.049360 0.037900 0.036950 
#    y 0.037900 1.962960 0.034000 
#    z 0.036950 0.034000 1.932570 
# 
# From -- ./inp_files/122736.got.cif
#   From: 2010.05.17/outbox.cif.g08.bks.cpg/sg2_62_cif.got.tgz:122736.got - 2010.06.03 11:33:40.
