data_PCOD9020729
_publ_section_title
;
Structure prediction by ZEFSAII (Michael W. Deem and Ramdas Pophale) SiO2 
 PCOD9020729
Probable space group: P -1
;
_chemical_formula_sum "Si O2"
_cell_formula_units_Z 14
_cell_length_a 5.582434
_cell_length_b 20.886876
_cell_length_c 4.882296
_cell_angle_alpha 105.368469
_cell_angle_beta 93.062112
_cell_angle_gamma 75.751474
_cell_volume 531.988654
_symmetry_space_group_name_H-M "P -1"
_symmetry_group_IT_number 2
_symmetry_cell_setting 'triclinic'
loop_
_space_group_symop_operation_xyz
x,y,z
-x,-y,-z
loop_
_atom_site_type_symbol
_atom_site_label
_atom_site_fract_x
_atom_site_fract_y
_atom_site_fract_z
Si Si1 0.433924 0.568451 0.397226
Si Si2 0.054360 0.923631 0.817559
Si Si3 0.545026 0.919753 0.505515
Si Si4 0.855281 0.217101 0.154083
Si Si5 0.599853 0.680230 0.826313
Si Si6 0.821967 0.770320 0.291299
Si Si7 0.070288 0.431135 0.611610
O O1 0.500000 0.500000 0.500000
O O2 0.429590 0.627246 0.690706
O O3 0.672117 0.568192 0.222909
O O4 0.171385 0.574889 0.249305
O O5 0.287014 0.914836 0.619211
O O6 0.130303 0.863074 0.969437
O O7 0.788960 0.916331 0.695430
O O8 0.000000 0.000000 0.000000
O O9 0.648940 0.845390 0.280721
O O10 0.500000 0.000000 0.500000
O O11 0.575204 0.253566 0.254948
O O12 0.055033 0.227810 0.403083
O O13 0.939948 0.243557 0.907758
O O14 0.847461 0.635073 0.652166
O O15 0.677855 0.711972 0.145829
O O16 0.000000 0.500000 0.500000
#
# Coordination Sequence:
#
# PCOD9020729 Si02
#       7
#     2   2   2   2   2   2   2
#     4   8  15  31  57  97 132 181 232 291 352 427
#     4  11  25  44  72 105 145 190 244 302 361 432
#     4  11  25  44  72 105 145 190 244 302 361 432
#     4  11  27  46  71 108 149 191 248 301 369 436
#     4  10  22  36  74  96 152 186 244 298 368 432
#     4  11  27  46  71 108 149 191 248 301 369 436
#     4   8  15  31  57  97 132 181 232 291 352 427
#
# _framework density 26.316355000000001
#
# number of rings (size 3 to 8) (size 9 to 14) (size 15 to 20)
#    0.857    1.143    0.000    2.571   10.000    0.000 
#    0.000    0.000    0.000    1.714    0.000    0.000 
#    0.000    0.000    0.000    0.000    0.000    0.000 
#
# Total GULP energy -78047.698245 kJ/mol
# GULP energy per Si atom -5574.835589 kJ/mol
# Density = 2.625646 g / cm^3
# Si number density = 26.316355 Si / 1000 Ang^3
#
#
#
# Elastic Constant Matrix: (Units=GPa)
#
#
# Indices 1 2 3 4 5 6 
#
# 1 421.7426 -32.2311 -42.9274 17.4094 -10.1704 32.0637
# 2 -32.2311 152.6135 42.4797 37.3526 12.7927 -18.4053
# 3 -42.9274 42.4797 98.9222 21.3003 16.9864 -20.2365
# 4 17.4094 37.3526 21.3003 46.4912 -2.1414 3.5256
# 5 -10.1704 12.7927 16.9864 -2.1414 34.5120 -1.6781
# 6 32.0637 -18.4053 -20.2365 3.5256 -1.6781 60.0949
#
#
#
# Elastic Compliance Matrix: (Units=1/GPa)
#
#
# Indices 1 2 3 4 5 6 
#
# 1 0.002678 0.000662 0.001211 -0.002046 -0.000213 -0.000704
# 2 0.000662 0.009436 -0.001050 -0.007686 -0.003139 0.002546
# 3 0.001211 -0.001050 0.014564 -0.006904 -0.006648 0.004156
# 4 -0.002046 -0.007686 -0.006904 0.032355 0.007395 -0.005279
# 5 -0.000213 -0.003139 -0.006648 0.007395 0.033682 -0.002580
# 6 -0.000704 0.002546 0.004156 -0.005279 -0.002580 0.019433
#
#
# Mechanical properties :
#
#
# Convention : Reuss Voigt Hill
#
# Bulk Modulus (GPa) = 35.30592 67.54674 51.42633
# Shear Modulus (GPa) = 41.68708 75.28345 58.48526
#
# Velocity S-wave (km/s) = 3.98436 5.35436 4.71934
# Velocity P-wave (km/s) = 5.88319 7.99678 7.01999
#
# Compressibility (1/GPa) = 0.02832386
#
# Stress axis : x y z
#
# Youngs Moduli (GPa) = 373.43912 105.97815 68.66457
#
# Poissons Ratio (x) = -0.07018 -0.08314
# Poissons Ratio (y) = -0.24731 0.07208
# Poissons Ratio (z) = -0.45217 0.11125
#
# Static dielectric constant tensor:
#      x y z
#    x 2.104360 0.017160 -0.036250 
#    y 0.017160 2.131600 0.021330 
#    z -0.036250 0.021330 2.035780 
# 
# From -- ./inp_files/11828.got.cif
#   From: 2010.05.17/outbox.cif.g08.bks.cpg/sg2_6_cif.got.tgz:11828.got - 2010.06.03 11:33:40.
