data_PCOD9020202
_publ_section_title
;
Structure prediction by ZEFSAII (Michael W. Deem and Ramdas Pophale) SiO2 
 PCOD9020202
Probable space group: P -1
;
_chemical_formula_sum "Si O2"
_cell_formula_units_Z 15
_cell_length_a 4.965823
_cell_length_b 15.276167
_cell_length_c 12.889313
_cell_angle_alpha 35.539220
_cell_angle_beta 96.137496
_cell_angle_gamma 100.650597
_cell_volume 556.925979
_symmetry_space_group_name_H-M "P -1"
_symmetry_group_IT_number 2
_symmetry_cell_setting 'triclinic'
loop_
_space_group_symop_operation_xyz
x,y,z
-x,-y,-z
loop_
_atom_site_type_symbol
_atom_site_label
_atom_site_fract_x
_atom_site_fract_y
_atom_site_fract_z
Si Si1 0.747541 0.865018 0.633201
Si Si2 0.083341 0.481353 0.805846
Si Si3 0.000000 0.500000 0.500000
Si Si4 0.174452 0.829709 0.011437
Si Si5 0.546055 0.988527 0.696214
Si Si6 0.958737 0.237826 0.594565
Si Si7 0.668020 0.543859 0.860908
Si Si8 0.284486 0.224211 0.799369
O O1 0.658182 0.857617 0.758202
O O2 0.814139 0.713369 0.731558
O O3 0.521421 0.906709 0.503012
O O4 0.000000 0.000000 0.500000
O O5 0.969039 0.340401 0.864692
O O6 0.901151 0.447177 0.934560
O O7 0.972032 0.631863 0.614881
O O8 0.410521 0.519377 0.793090
O O9 0.144009 0.654116 0.424802
O O10 0.249295 0.402592 0.630317
O O11 0.437410 0.811415 0.108313
O O12 0.947468 0.868024 0.045117
O O13 0.290949 0.918961 0.825964
O O14 0.761576 0.096483 0.672720
O O15 0.214748 0.183636 0.715510
O O16 0.500000 0.500000 0.000000
#
# Coordination Sequence:
#
# PCOD9020202 Si02
#       8
#     2   2   1   2   2   2   2   2
#     4  11  26  47  68 101 138 189 233 290 344 424
#     4  12  24  43  72 101 135 186 231 286 350 407
#     4   8  20  44  70 102 140 178 230 284 344 402
#     4  12  25  44  69 106 143 182 228 292 346 414
#     4  11  26  44  70  97 143 186 233 281 357 416
#     4  10  21  47  70 103 139 187 229 286 342 422
#     4  12  27  44  71 103 137 179 239 295 341 403
#     4  10  24  43  70 103 143 177 231 288 345 407
#
# _framework density 26.933565000000002
#
# number of rings (size 3 to 8) (size 9 to 14) (size 15 to 20)
#    0.800    0.267    2.667    2.800    5.600    4.267 
#    2.400    0.000    0.000    0.000    0.000    0.000 
#    0.000    0.000    0.000    0.000    0.000    0.000 
#
# Total GULP energy -83636.834023 kJ/mol
# GULP energy per Si atom -5575.788935 kJ/mol
# Density = 2.687226 g / cm^3
# Si number density = 26.933565 Si / 1000 Ang^3
#
#
#
# Elastic Constant Matrix: (Units=GPa)
#
#
# Indices 1 2 3 4 5 6 
#
# 1 130.8714 72.2344 20.6787 4.9621 -15.2864 20.1887
# 2 72.2344 190.9667 38.2467 -13.5054 -10.5563 24.2131
# 3 20.6787 38.2467 74.6937 7.0885 -16.1426 16.0531
# 4 4.9621 -13.5054 7.0885 41.7171 4.3362 -2.6400
# 5 -15.2864 -10.5563 -16.1426 4.3362 38.2424 7.7112
# 6 20.1887 24.2131 16.0531 -2.6400 7.7112 53.1119
#
#
#
# Elastic Compliance Matrix: (Units=1/GPa)
#
#
# Indices 1 2 3 4 5 6 
#
# 1 0.010837 -0.003845 0.001115 -0.003454 0.004855 -0.003580
# 2 -0.003845 0.007623 -0.003256 0.003545 -0.001068 -0.000698
# 3 0.001115 -0.003256 0.018636 -0.005714 0.009313 -0.006208
# 4 -0.003454 0.003545 -0.005714 0.027433 -0.006682 0.003758
# 5 0.004855 -0.001068 0.009313 -0.006682 0.034399 -0.009500
# 6 -0.003580 -0.000698 -0.006208 0.003758 -0.009500 0.023950
#
#
# Mechanical properties :
#
#
# Convention : Reuss Voigt Hill
#
# Bulk Modulus (GPa) = 39.80185 73.20568 56.50376
# Shear Modulus (GPa) = 34.91009 44.30574 39.60791
#
# Velocity S-wave (km/s) = 3.60412 4.06026 3.83897
# Velocity P-wave (km/s) = 5.66829 7.01570 6.37768
#
# Compressibility (1/GPa) = 0.02512446
#
# Stress axis : x y z
#
# Youngs Moduli (GPa) = 92.27417 131.17980 53.65969
#
# Poissons Ratio (x) = 0.50432 -0.05982
# Poissons Ratio (y) = 0.35475 0.17473
# Poissons Ratio (z) = -0.10287 0.42715
#
# Static dielectric constant tensor:
#      x y z
#    x 2.216490 -0.103880 -0.016880 
#    y -0.103880 2.231500 0.085600 
#    z -0.016880 0.085600 2.398280 
# 
# From -- ./inp_files/485164.got.cif
#   From: 2010.05.17/outbox.cif.g08.bks.cpg/sg2_243_cif.got.tgz:485164.got - 2010.06.03 11:33:40.
