data_PCOD9020383
_publ_section_title
;
Structure prediction by ZEFSAII (Michael W. Deem and Ramdas Pophale) SiO2 
 PCOD9020383
Probable space group: P -1
;
_chemical_formula_sum "Si O2"
_cell_formula_units_Z 14
_cell_length_a 13.738035
_cell_length_b 13.743586
_cell_length_c 6.535837
_cell_angle_alpha 93.001137
_cell_angle_beta 98.054949
_cell_angle_gamma 30.765729
_cell_volume 619.348041
_symmetry_space_group_name_H-M "P -1"
_symmetry_group_IT_number 2
_symmetry_cell_setting 'triclinic'
loop_
_space_group_symop_operation_xyz
x,y,z
-x,-y,-z
loop_
_atom_site_type_symbol
_atom_site_label
_atom_site_fract_x
_atom_site_fract_y
_atom_site_fract_z
Si Si1 0.032789 0.073777 0.905363
Si Si2 0.455430 0.637210 0.867806
Si Si3 0.374450 0.972574 0.396149
Si Si4 0.674507 0.632398 0.112105
Si Si5 0.802103 0.233760 0.487734
Si Si6 0.617620 0.850461 0.831072
Si Si7 0.018164 0.755571 0.716009
O O1 0.845148 0.241385 0.722140
O O2 0.251718 0.868354 0.875776
O O3 0.030418 0.167091 0.062925
O O4 0.000000 0.000000 0.000000
O O5 0.393661 0.653845 0.622322
O O6 0.500000 0.500000 0.000000
O O7 0.606029 0.592806 0.968756
O O8 0.513471 0.801165 0.252436
O O9 0.487846 0.911592 0.622489
O O10 0.290277 0.138023 0.264486
O O11 0.191259 0.067302 0.429655
O O12 0.866619 0.442304 0.272187
O O13 0.721110 0.675059 0.962871
O O14 0.839409 0.287506 0.344979
O O15 0.000000 0.000000 0.500000
O O16 0.500000 0.000000 0.000000
#
# Coordination Sequence:
#
# PCOD9020383 Si02
#       7
#     2   2   2   2   2   2   2
#     4  11  21  38  59  86 125 173 214 252 308 366
#     4  11  20  39  58  87 133 163 207 264 295 361
#     4  10  23  43  68  90 124 164 201 261 324 372
#     4  11  23  40  63  95 126 162 213 259 304 375
#     4  10  22  35  58  85 125 170 212 249 305 361
#     4   9  22  45  68  94 121 158 208 258 321 381
#     4  12  23  39  63  92 126 165 210 260 311 372
#
# _framework density 22.604414999999999
#
# number of rings (size 3 to 8) (size 9 to 14) (size 15 to 20)
#    0.000    1.429    5.714    0.000    4.000    1.714 
#    0.000    7.857    0.000    0.000    0.000    0.000 
#    0.000    0.000    0.000    0.000    0.000    0.000 
#
# Total GULP energy -77974.301840 kJ/mol
# GULP energy per Si atom -5569.592989 kJ/mol
# Density = 2.255297 g / cm^3
# Si number density = 22.604415 Si / 1000 Ang^3
#
#
#
# Elastic Constant Matrix: (Units=GPa)
#
#
# Indices 1 2 3 4 5 6 
#
# 1 30.4206 27.0923 3.0590 5.1221 9.6555 9.9383
# 2 27.0923 85.0354 23.8989 -11.7707 2.2017 8.9696
# 3 3.0590 23.8989 87.0055 -4.4570 13.3888 9.1701
# 4 5.1221 -11.7707 -4.4570 29.7004 9.5822 -0.7851
# 5 9.6555 2.2017 13.3888 9.5822 41.3307 -10.9516
# 6 9.9383 8.9696 9.1701 -0.7851 -10.9516 33.5284
#
#
#
# Elastic Compliance Matrix: (Units=1/GPa)
#
#
# Indices 1 2 3 4 5 6 
#
# 1 0.070070 -0.023719 0.009164 -0.013887 -0.021268 -0.024203
# 2 -0.023719 0.021767 -0.005916 0.010286 0.005173 0.004756
# 3 0.009164 -0.005916 0.015130 0.001084 -0.009161 -0.008239
# 4 -0.013887 0.010286 0.001084 0.042772 -0.007688 -0.000441
# 5 -0.021268 0.005173 -0.009161 -0.007688 0.038928 0.019961
# 6 -0.024203 0.004756 -0.008239 -0.000441 0.019961 0.044490
#
#
# Mechanical properties :
#
#
# Convention : Reuss Voigt Hill
#
# Bulk Modulus (GPa) = 15.14527 34.50687 24.82607
# Shear Modulus (GPa) = 16.88575 30.80600 23.84588
#
# Velocity S-wave (km/s) = 2.73612 3.69566 3.25148
# Velocity P-wave (km/s) = 4.08613 5.78871 5.01027
#
# Compressibility (1/GPa) = 0.06602721
#
# Stress axis : x y z
#
# Youngs Moduli (GPa) = 14.27134 45.94042 66.09439
#
# Poissons Ratio (x) = 1.08964 -0.60568
# Poissons Ratio (y) = 0.33850 0.39099
# Poissons Ratio (z) = -0.13078 0.27176
#
# Static dielectric constant tensor:
#      x y z
#    x 1.892510 -0.054320 0.035060 
#    y -0.054320 1.983990 -0.018540 
#    z 0.035060 -0.018540 1.944910 
# 
# From -- ./inp_files/98127.got.cif
#   From: 2010.05.17/outbox.cif.g08.bks.cpg/sg2_50_cif.got.tgz:98127.got - 2010.06.03 11:33:40.
