data_PCOD9020647
_publ_section_title
;
Structure prediction by ZEFSAII (Michael W. Deem and Ramdas Pophale) SiO2 
 PCOD9020647
Probable space group: P -1
;
_chemical_formula_sum "Si O2"
_cell_formula_units_Z 14
_cell_length_a 9.058480
_cell_length_b 12.243337
_cell_length_c 23.269000
_cell_angle_alpha 26.595369
_cell_angle_beta 32.249453
_cell_angle_gamma 41.512811
_cell_volume 616.194143
_symmetry_space_group_name_H-M "P -1"
_symmetry_group_IT_number 2
_symmetry_cell_setting 'triclinic'
loop_
_space_group_symop_operation_xyz
x,y,z
-x,-y,-z
loop_
_atom_site_type_symbol
_atom_site_label
_atom_site_fract_x
_atom_site_fract_y
_atom_site_fract_z
Si Si1 0.697235 0.151389 0.789764
Si Si2 0.293674 0.644789 0.826500
Si Si3 0.753384 0.250219 0.893193
Si Si4 0.181803 0.541495 0.101259
Si Si5 0.786510 0.692820 0.530831
Si Si6 0.233762 0.843628 0.620737
Si Si7 0.066230 0.935269 0.860593
O O1 0.699517 0.410976 0.699166
O O2 0.921962 0.231743 0.629616
O O3 0.813527 0.966221 0.885371
O O4 0.430885 0.005405 0.922240
O O5 0.540520 0.457999 0.844990
O O6 0.247037 0.751007 0.727065
O O7 0.301579 0.850673 0.777965
O O8 0.000000 0.500000 0.000000
O O9 0.842861 0.336272 0.886340
O O10 0.019945 0.179618 0.799512
O O11 0.007985 0.289730 0.270931
O O12 0.500000 0.500000 0.000000
O O13 0.058482 0.717698 0.010887
O O14 0.536731 0.772993 0.533895
O O15 0.789202 0.866711 0.503738
#
# Coordination Sequence:
#
# PCOD9020647 Si02
#       7
#     2   2   2   2   2   2   2
#     4  11  21  40  62  94 121 160 211 257 303 361
#     4  12  20  38  64  94 125 159 206 265 308 357
#     4  12  24  39  66  98 130 157 201 264 325 372
#     4  12  23  40  64  93 130 162 196 264 329 370
#     4  10  22  36  64  89 123 165 210 256 289 367
#     4  11  21  40  63  94 122 164 210 251 310 367
#     4  12  23  38  63  95 127 161 205 264 315 361
#
# _framework density 22.720110999999999
#
# number of rings (size 3 to 8) (size 9 to 14) (size 15 to 20)
#    0.000    0.571    5.714    3.429    0.000    0.000 
#    0.000    0.000    0.000   29.143    0.000    0.000 
#    0.000    0.000    0.000    0.000    0.000    0.000 
#
# Total GULP energy -77980.214729 kJ/mol
# GULP energy per Si atom -5570.015338 kJ/mol
# Density = 2.266840 g / cm^3
# Si number density = 22.720111 Si / 1000 Ang^3
#
#
#
# Elastic Constant Matrix: (Units=GPa)
#
#
# Indices 1 2 3 4 5 6 
#
# 1 80.0374 32.5558 42.3983 -24.0945 -7.3456 25.7782
# 2 32.5558 168.8181 33.8039 -20.3156 -3.7481 14.7740
# 3 42.3983 33.8039 105.1277 -22.8743 -14.5401 3.8714
# 4 -24.0945 -20.3156 -22.8743 39.7687 7.0009 3.5946
# 5 -7.3456 -3.7481 -14.5401 7.0009 36.8673 -1.2301
# 6 25.7782 14.7740 3.8714 3.5946 -1.2301 38.9453
#
#
#
# Elastic Compliance Matrix: (Units=1/GPa)
#
#
# Indices 1 2 3 4 5 6 
#
# 1 0.025864 -0.000517 -0.006851 0.013166 -0.000685 -0.017479
# 2 -0.000517 0.006820 -0.001389 0.002682 -0.000546 -0.002371
# 3 -0.006851 -0.001389 0.013505 0.001949 0.003572 0.003652
# 4 0.013166 0.002682 0.001949 0.037523 -0.003912 -0.013513
# 5 -0.000685 -0.000546 0.003572 -0.003912 0.029137 0.001587
# 6 -0.017479 -0.002371 0.003652 -0.013513 0.001587 0.039080
#
#
# Mechanical properties :
#
#
# Convention : Reuss Voigt Hill
#
# Bulk Modulus (GPa) = 34.87366 63.49989 49.18678
# Shear Modulus (GPa) = 27.93271 39.46462 33.69866
#
# Velocity S-wave (km/s) = 3.51012 4.17224 3.85542
# Velocity P-wave (km/s) = 5.64008 7.15679 6.44322
#
# Compressibility (1/GPa) = 0.02867494
#
# Stress axis : x y z
#
# Youngs Moduli (GPa) = 38.66395 146.63762 74.04401
#
# Poissons Ratio (x) = 0.07582 0.50728
# Poissons Ratio (y) = 0.01999 0.10284
# Poissons Ratio (z) = 0.26489 0.20366
#
# Static dielectric constant tensor:
#      x y z
#    x 1.825390 0.023090 0.070300 
#    y 0.023090 2.077500 0.036980 
#    z 0.070300 0.036980 1.914170 
# 
# From -- ./inp_files/263431.got.cif
#   From: 2010.05.17/outbox.cif.g08.bks.cpg/sg2_132_cif.got.tgz:263431.got - 2010.06.03 11:33:40.
