data_PCOD9020637
_publ_section_title
;
Structure prediction by ZEFSAII (Michael W. Deem and Ramdas Pophale) SiO2 
 PCOD9020637
Probable space group: P -1
;
_chemical_formula_sum "Si O2"
_cell_formula_units_Z 15
_cell_length_a 7.737234
_cell_length_b 6.955163
_cell_length_c 15.977658
_cell_angle_alpha 85.384999
_cell_angle_beta 46.529498
_cell_angle_gamma 92.137177
_cell_volume 616.848633
_symmetry_space_group_name_H-M "P -1"
_symmetry_group_IT_number 2
_symmetry_cell_setting 'triclinic'
loop_
_space_group_symop_operation_xyz
x,y,z
-x,-y,-z
loop_
_atom_site_type_symbol
_atom_site_label
_atom_site_fract_x
_atom_site_fract_y
_atom_site_fract_z
Si Si1 0.755167 0.617802 0.908768
Si Si2 0.749449 0.443847 0.323592
Si Si3 0.034754 0.229194 0.659710
Si Si4 0.791845 0.147226 0.468203
Si Si5 0.000000 0.500000 0.500000
Si Si6 0.909081 0.934455 0.943039
Si Si7 0.422404 0.890651 0.717734
Si Si8 0.584440 0.962759 0.853601
O O1 0.724896 0.800077 0.852949
O O2 0.981410 0.528383 0.803563
O O3 0.817406 0.705707 0.976412
O O4 0.500000 0.500000 0.000000
O O5 0.756576 0.656828 0.354432
O O6 0.719525 0.284665 0.412779
O O7 0.586479 0.331404 0.308426
O O8 0.009282 0.380586 0.588879
O O9 0.102186 0.030326 0.605484
O O10 0.768380 0.161684 0.788299
O O11 0.962495 0.289591 0.466646
O O12 0.584747 0.039972 0.600134
O O13 0.666039 0.033110 0.013037
O O14 0.149108 0.948507 0.805998
O O15 0.000000 0.000000 0.000000
O O16 0.514606 0.911954 0.781847
#
# Coordination Sequence:
#
# PCOD9020637 Si02
#       8
#     2   2   2   2   1   2   2   2
#     4  11  22  41  67  94 131 169 225 279 319 391
#     4  10  23  41  63  99 135 171 221 268 336 388
#     4  11  22  38  67  97 130 172 222 269 321 392
#     4  11  21  41  68  94 138 172 222 264 334 388
#     4  10  22  36  64 102 126 172 214 280 312 384
#     4   9  21  41  63  93 128 168 218 265 336 384
#     4  10  22  40  65  94 138 174 213 275 332 394
#     4  11  21  41  70  95 127 175 223 272 332 386
#
# _framework density 24.317146999999999
#
# number of rings (size 3 to 8) (size 9 to 14) (size 15 to 20)
#    0.000    1.600    2.667    2.000    0.000    0.533 
#    0.000    7.333    8.800    0.000    0.000    0.000 
#    0.000    0.000    0.000    0.000    0.000    0.000 
#
# Total GULP energy -83537.279797 kJ/mol
# GULP energy per Si atom -5569.151986 kJ/mol
# Density = 2.426180 g / cm^3
# Si number density = 24.317147 Si / 1000 Ang^3
#
#
#
# Elastic Constant Matrix: (Units=GPa)
#
#
# Indices 1 2 3 4 5 6 
#
# 1 82.8096 44.8828 25.4493 1.4406 6.0665 34.0585
# 2 44.8828 170.0852 45.6061 -0.3593 5.9832 44.5673
# 3 25.4493 45.6061 106.4617 0.5195 -2.7747 24.4234
# 4 1.4406 -0.3593 0.5195 29.2030 3.4232 2.5512
# 5 6.0665 5.9832 -2.7747 3.4232 32.3718 6.1174
# 6 34.0585 44.5673 24.4234 2.5512 6.1174 38.1555
#
#
#
# Elastic Compliance Matrix: (Units=1/GPa)
#
#
# Indices 1 2 3 4 5 6 
#
# 1 0.019213 -0.000725 -0.000673 0.000506 -0.000590 -0.015813
# 2 -0.000725 0.008763 -0.001614 0.000935 -0.000095 -0.008603
# 3 -0.000673 -0.001614 0.011518 -0.000013 0.002409 -0.005272
# 4 0.000506 0.000935 -0.000013 0.034912 -0.003330 -0.003335
# 5 -0.000590 -0.000095 0.002409 -0.003330 0.032697 -0.005924
# 6 -0.015813 -0.008603 -0.005272 -0.003335 -0.005924 0.054919
#
#
# Mechanical properties :
#
#
# Convention : Reuss Voigt Hill
#
# Bulk Modulus (GPa) = 29.87672 65.69255 47.78464
# Shear Modulus (GPa) = 27.90157 36.17396 32.03777
#
# Velocity S-wave (km/s) = 3.39101 3.86111 3.63367
# Velocity P-wave (km/s) = 5.25784 6.85209 6.10721
#
# Compressibility (1/GPa) = 0.03347087
#
# Stress axis : x y z
#
# Youngs Moduli (GPa) = 52.04752 114.11741 86.82337
#
# Poissons Ratio (x) = 0.08268 0.05841
# Poissons Ratio (y) = 0.03771 0.14015
# Poissons Ratio (z) = 0.03502 0.18420
#
# Static dielectric constant tensor:
#      x y z
#    x 1.983360 0.053380 -0.028390 
#    y 0.053380 1.983650 0.101840 
#    z -0.028390 0.101840 2.026890 
# 
# From -- ./inp_files/553584.got.cif
#   From: 2010.05.17/outbox.cif.g08.bks.cpg/sg2_277_cif.got.tgz:553584.got - 2010.06.03 11:33:40.
