data_PCOD9020472
_publ_section_title
;
Structure prediction by ZEFSAII (Michael W. Deem and Ramdas Pophale) SiO2 
 PCOD9020472
Probable space group: P -1
;
_chemical_formula_sum "Si O2"
_cell_formula_units_Z 16
_cell_length_a 5.902894
_cell_length_b 16.871789
_cell_length_c 8.800106
_cell_angle_alpha 131.051004
_cell_angle_beta 110.706562
_cell_angle_gamma 81.099501
_cell_volume 614.497738
_symmetry_space_group_name_H-M "P -1"
_symmetry_group_IT_number 2
_symmetry_cell_setting 'triclinic'
loop_
_space_group_symop_operation_xyz
x,y,z
-x,-y,-z
loop_
_atom_site_type_symbol
_atom_site_label
_atom_site_fract_x
_atom_site_fract_y
_atom_site_fract_z
Si Si1 0.518992 0.304921 0.535428
Si Si2 0.970224 0.609546 0.215503
Si Si3 0.573340 0.940264 0.596435
Si Si4 0.226654 0.165806 0.091617
Si Si5 0.670324 0.171751 0.984103
Si Si6 0.922572 0.051244 0.387142
Si Si7 0.477236 0.313868 0.896548
Si Si8 0.233681 0.484228 0.636120
O O1 0.530784 0.329092 0.749586
O O2 0.414749 0.397834 0.526138
O O3 0.800988 0.313569 0.576964
O O4 0.347130 0.198848 0.322866
O O5 0.806205 0.672027 0.144425
O O6 0.852217 0.566793 0.289177
O O7 0.000000 0.500000 0.000000
O O8 0.657836 0.046219 0.850182
O O9 0.315140 0.893532 0.551914
O O10 0.826632 0.892838 0.554259
O O11 0.500000 0.000000 0.500000
O O12 0.458531 0.208082 0.090784
O O13 0.165534 0.045803 0.869436
O O14 0.960723 0.210114 0.093064
O O15 0.568671 0.207368 0.843119
O O16 0.000000 0.000000 0.500000
O O17 0.617178 0.404816 0.147251
O O18 0.000000 0.500000 0.500000
#
# Coordination Sequence:
#
# PCOD9020472 Si02
#       8
#     2   2   2   2   2   2   2   2
#     4  11  23  38  55  75 112 152 191 234 290 346
#     4  11  21  40  56  73 104 155 198 230 290 348
#     4   8  14  28  51  79 110 139 173 221 279 333
#     4  10  22  36  56  87 115 142 187 241 284 330
#     4  10  22  37  56  88 117 141 189 241 285 330
#     4   8  14  28  50  78 109 137 173 220 278 332
#     4  11  23  37  55  78 112 151 191 239 287 347
#     4  11  23  37  55  79 103 141 199 244 286 330
#
# _framework density 26.037527000000001
#
# number of rings (size 3 to 8) (size 9 to 14) (size 15 to 20)
#    0.000    2.000    2.500    1.500    7.000    1.500 
#    0.000    0.000    0.000    0.000    0.000   28.000 
#    0.000    0.000    0.000    0.000    0.000    0.000 
#
# Total GULP energy -89243.735602 kJ/mol
# GULP energy per Si atom -5577.733475 kJ/mol
# Density = 2.597826 g / cm^3
# Si number density = 26.037527 Si / 1000 Ang^3
#
#
#
# Elastic Constant Matrix: (Units=GPa)
#
#
# Indices 1 2 3 4 5 6 
#
# 1 230.3411 55.7995 44.2503 -9.6239 36.7681 -21.8519
# 2 55.7995 86.4611 32.0535 -2.4023 11.7428 -18.3279
# 3 44.2503 32.0535 137.5463 8.1408 35.8047 -22.1642
# 4 -9.6239 -2.4023 8.1408 40.1046 -8.8572 10.5370
# 5 36.7681 11.7428 35.8047 -8.8572 46.8993 -8.1346
# 6 -21.8519 -18.3279 -22.1642 10.5370 -8.1346 38.1367
#
#
#
# Elastic Compliance Matrix: (Units=1/GPa)
#
#
# Indices 1 2 3 4 5 6 
#
# 1 0.005739 -0.002977 -0.000098 0.000188 -0.003468 0.001009
# 2 -0.002977 0.015097 -0.001983 -0.000466 0.000794 0.004695
# 3 -0.000098 -0.001983 0.011001 -0.005501 -0.007961 0.005206
# 4 0.000188 -0.000466 -0.005501 0.030505 0.008197 -0.009993
# 5 -0.003468 0.000794 -0.007961 0.008197 0.031147 -0.001853
# 6 0.001009 0.004695 0.005206 -0.009993 -0.001853 0.034447
#
#
# Mechanical properties :
#
#
# Convention : Reuss Voigt Hill
#
# Bulk Modulus (GPa) = 46.04102 79.83947 62.94025
# Shear Modulus (GPa) = 34.41365 46.51113 40.46239
#
# Velocity S-wave (km/s) = 3.63946 4.23106 3.94636
# Velocity P-wave (km/s) = 5.94826 7.38911 6.70749
#
# Compressibility (1/GPa) = 0.02171976
#
# Stress axis : x y z
#
# Youngs Moduli (GPa) = 174.25956 66.23932 90.90237
#
# Poissons Ratio (x) = 0.19720 0.00892
# Poissons Ratio (y) = 0.51878 0.18026
# Poissons Ratio (z) = 0.01711 0.13135
#
# Static dielectric constant tensor:
#      x y z
#    x 2.210660 -0.043950 -0.053940 
#    y -0.043950 2.189240 -0.203170 
#    z -0.053940 -0.203170 2.306500 
# 
# From -- ./inp_files/41959.got.cif
#   From: 2010.05.17/outbox.cif.g08.bks.cpg/sg2_21_cif.got.tgz:41959.got - 2010.06.03 11:33:40.
