data_PCOD9020238
_publ_section_title
;
Structure prediction by ZEFSAII (Michael W. Deem and Ramdas Pophale) SiO2 
 PCOD9020238
Probable space group: P -1
;
_chemical_formula_sum "Si O2"
_cell_formula_units_Z 16
_cell_length_a 12.515306
_cell_length_b 9.248636
_cell_length_c 8.453370
_cell_angle_alpha 109.370536
_cell_angle_beta 134.906324
_cell_angle_gamma 72.675071
_cell_volume 650.813626
_symmetry_space_group_name_H-M "P -1"
_symmetry_group_IT_number 2
_symmetry_cell_setting 'triclinic'
loop_
_space_group_symop_operation_xyz
x,y,z
-x,-y,-z
loop_
_atom_site_type_symbol
_atom_site_label
_atom_site_fract_x
_atom_site_fract_y
_atom_site_fract_z
Si Si1 0.307445 0.123043 0.507053
Si Si2 0.227490 0.820209 0.138623
Si Si3 0.459213 0.335438 0.493821
Si Si4 0.729784 0.762289 0.012126
Si Si5 0.835635 0.592747 0.368609
Si Si6 0.373087 0.899374 0.990870
Si Si7 0.693938 0.375740 0.389065
Si Si8 0.027260 0.678974 0.108980
O O1 0.372797 0.218349 0.467831
O O2 0.183386 0.239861 0.506942
O O3 0.245006 0.972623 0.315946
O O4 0.460133 0.086576 0.757587
O O5 0.366672 0.699273 0.293425
O O6 0.079784 0.747819 0.023203
O O7 0.262146 0.857074 0.005209
O O8 0.604624 0.495662 0.458029
O O9 0.408027 0.289052 0.251665
O O10 0.773917 0.636573 0.146498
O O11 0.873352 0.762479 0.045635
O O12 0.690390 0.937408 0.088009
O O13 0.735839 0.484399 0.326256
O O14 0.000000 0.500000 0.500000
O O15 0.379710 0.763990 0.820786
O O16 0.842600 0.310815 0.618940
O O17 0.000000 0.500000 0.000000
#
# Coordination Sequence:
#
# PCOD9020238 Si02
#       8
#     2   2   2   2   2   2   2   2
#     4  10  22  47  76 110 149 186 245 306 368 441
#     4  11  24  46  78 109 148 195 242 299 382 430
#     4  10  21  47  77 106 147 192 244 302 365 445
#     4  12  24  47  77 105 151 193 245 306 361 438
#     4  11  26  44  72 100 152 200 241 296 373 425
#     4  11  25  46  78 117 145 183 249 311 365 437
#     4  11  26  46  71 109 151 191 248 302 366 436
#     4  12  28  46  69 106 148 195 249 301 355 445
#
# _framework density 24.584610000000001
#
# number of rings (size 3 to 8) (size 9 to 14) (size 15 to 20)
#    0.000    1.000    5.000    0.750    3.500    8.500 
#    0.000    0.000    0.000    0.000    0.000    0.000 
#    0.000    0.000    0.000    0.000    0.000    0.000 
#
# Total GULP energy -89717.498520 kJ/mol
# GULP energy per Si atom -5607.343658 kJ/mol
# Density = 2.452865 g / cm^3
# Si number density = 24.584610 Si / 1000 Ang^3
#
#
#
# Elastic Constant Matrix: (Units=GPa)
#
#
# Indices 1 2 3 4 5 6 
#
# 1 113.3729 39.6841 6.7069 6.1504 -21.9246 6.9922
# 2 39.6841 141.3698 29.2200 9.0850 -6.2006 -15.6923
# 3 6.7069 29.2200 74.5160 -3.2493 -22.2839 -0.0690
# 4 6.1504 9.0850 -3.2493 55.4061 1.0595 -9.0844
# 5 -21.9246 -6.2006 -22.2839 1.0595 24.7769 -0.7409
# 6 6.9922 -15.6923 -0.0690 -9.0844 -0.7409 52.8544
#
#
#
# Elastic Compliance Matrix: (Units=1/GPa)
#
#
# Indices 1 2 3 4 5 6 
#
# 1 0.013196 -0.004322 0.004934 -0.001250 0.014996 -0.003027
# 2 -0.004322 0.009488 -0.005139 -0.000744 -0.005945 0.003171
# 3 0.004934 -0.005139 0.021780 0.000864 0.022582 -0.001685
# 4 -0.001250 -0.000744 0.000864 0.018904 -0.001228 0.003178
# 5 0.014996 -0.005945 0.022582 -0.001228 0.072417 -0.002916
# 6 -0.003027 0.003171 -0.001685 0.003178 -0.002916 0.020765
#
#
# Mechanical properties :
#
#
# Convention : Reuss Voigt Hill
#
# Bulk Modulus (GPa) = 28.24020 53.38674 40.81347
# Shear Modulus (GPa) = 28.18376 43.51730 35.85053
#
# Velocity S-wave (km/s) = 3.38952 4.21182 3.82285
# Velocity P-wave (km/s) = 5.17980 6.73909 6.01023
#
# Compressibility (1/GPa) = 0.03541051
#
# Stress axis : x y z
#
# Youngs Moduli (GPa) = 75.78121 105.39518 45.91350
#
# Poissons Ratio (x) = 0.45553 -0.22655
# Poissons Ratio (y) = 0.32753 0.23595
# Poissons Ratio (z) = -0.37393 0.54163
#
# Static dielectric constant tensor:
#      x y z
#    x 2.003650 0.036790 -0.008470 
#    y 0.036790 1.929170 -0.014050 
#    z -0.008470 -0.014050 1.921920 
# 
# From -- ./inp_files/244781.got.cif
#   From: 2010.05.17/outbox.cif.g08.bks.cpg/sg2_123_cif.got.tgz:244781.got - 2010.06.03 11:33:40.
