data_PCOD9020393
_publ_section_title
;
Structure prediction by ZEFSAII (Michael W. Deem and Ramdas Pophale) SiO2 
 PCOD9020393
Probable space group: P -1
;
_chemical_formula_sum "Si O2"
_cell_formula_units_Z 16
_cell_length_a 5.090614
_cell_length_b 14.484226
_cell_length_c 18.030305
_cell_angle_alpha 41.636349
_cell_angle_beta 109.085547
_cell_angle_gamma 107.838017
_cell_volume 830.654577
_symmetry_space_group_name_H-M "P -1"
_symmetry_group_IT_number 2
_symmetry_cell_setting 'triclinic'
loop_
_space_group_symop_operation_xyz
x,y,z
-x,-y,-z
loop_
_atom_site_type_symbol
_atom_site_label
_atom_site_fract_x
_atom_site_fract_y
_atom_site_fract_z
Si Si1 0.290676 0.788650 0.867010
Si Si2 0.842778 0.860185 0.602716
Si Si3 0.926792 0.528867 0.313293
Si Si4 0.447133 0.420018 0.888944
Si Si5 0.768500 0.939965 0.718106
Si Si6 0.478030 0.506744 0.581559
Si Si7 0.045828 0.595405 0.835700
Si Si8 0.349417 0.759593 0.506721
O O1 0.501557 0.873675 0.778588
O O2 0.136533 0.655134 0.888831
O O3 0.047284 0.882508 0.810244
O O4 0.463418 0.726013 0.985901
O O5 0.753906 0.889062 0.661628
O O6 0.580306 0.813904 0.555066
O O7 0.039794 0.734709 0.701736
O O8 0.000000 0.000000 0.500000
O O9 0.740110 0.588514 0.196963
O O10 0.802318 0.561743 0.363018
O O11 0.864404 0.359832 0.404616
O O12 0.256073 0.560112 0.319773
O O13 0.262293 0.492384 0.889049
O O14 0.734035 0.519913 0.845956
O O15 0.780672 0.106750 0.617144
O O16 0.500000 0.500000 0.500000
O O17 0.484853 0.668026 0.511300
#
# Coordination Sequence:
#
# PCOD9020393 Si02
#       8
#     2   2   2   2   2   2   2   2
#     4  11  24  36  52  76 113 158 202 237 268 318
#     4  11  22  35  54  83 123 160 193 232 276 340
#     4  10  22  35  61  86 113 140 186 228 303 336
#     4  12  21  38  55  79 110 152 198 241 277 327
#     4  11  24  37  52  81 117 159 199 225 274 331
#     4  10  22  39  61  90 117 137 180 236 305 360
#     4  11  21  34  52  76 110 153 205 236 278 314
#     4  10  22  35  59  82 118 148 188 234 289 339
#
# _framework density 19.261918000000001
#
# number of rings (size 3 to 8) (size 9 to 14) (size 15 to 20)
#    0.750    0.500    1.250    6.750    5.250    0.000 
#    0.000    0.000    0.000    0.000    0.000    5.250 
#    0.000    0.000    0.000    0.000    0.000    0.000 
#
# Total GULP energy -89370.720722 kJ/mol
# GULP energy per Si atom -5585.670045 kJ/mol
# Density = 1.921808 g / cm^3
# Si number density = 19.261918 Si / 1000 Ang^3
#
#
#
# Elastic Constant Matrix: (Units=GPa)
#
#
# Indices 1 2 3 4 5 6 
#
# 1 85.3999 6.8745 3.9847 -4.6289 23.1493 -4.0542
# 2 6.8745 26.2621 11.8295 10.3988 6.1238 -14.3689
# 3 3.9847 11.8295 85.4929 2.4665 28.5275 -2.7870
# 4 -4.6289 10.3988 2.4665 15.6157 1.7603 -3.7837
# 5 23.1493 6.1238 28.5275 1.7603 36.3038 -4.7470
# 6 -4.0542 -14.3689 -2.7870 -3.7837 -4.7470 21.9740
#
#
#
# Elastic Compliance Matrix: (Units=1/GPa)
#
#
# Indices 1 2 3 4 5 6 
#
# 1 0.016350 -0.009682 0.004623 0.011181 -0.013452 -0.003709
# 2 -0.009682 0.091071 -0.012183 -0.050645 0.009315 0.049512
# 3 0.004623 -0.012183 0.018243 0.006715 -0.016496 -0.007207
# 4 0.011181 -0.050645 0.006715 0.097406 -0.010643 -0.015729
# 5 -0.013452 0.009315 -0.016496 -0.010643 0.049384 0.010353
# 6 -0.003709 0.049512 -0.007207 -0.015729 0.010353 0.075814
#
#
# Mechanical properties :
#
#
# Convention : Reuss Voigt Hill
#
# Bulk Modulus (GPa) = 10.96744 26.94801 18.95773
# Shear Modulus (GPa) = 12.10226 26.40977 19.25601
#
# Velocity S-wave (km/s) = 2.50931 3.70684 3.16522
# Velocity P-wave (km/s) = 3.75523 5.68696 4.81888
#
# Compressibility (1/GPa) = 0.09117894
#
# Stress axis : x y z
#
# Youngs Moduli (GPa) = 61.16309 10.98044 54.81582
#
# Poissons Ratio (x) = 0.10631 -0.25341
# Poissons Ratio (y) = 0.59219 0.66783
# Poissons Ratio (z) = -0.28275 0.13378
#
# Static dielectric constant tensor:
#      x y z
#    x 1.706870 0.013880 -0.029600 
#    y 0.013880 1.773640 -0.124630 
#    z -0.029600 -0.124630 1.867270 
# 
# From -- ./inp_files/549808.got.cif
#   From: 2010.05.17/outbox.cif.g08.bks.cpg/sg2_275_cif.got.tgz:549808.got - 2010.06.03 11:33:40.
