data_PCOD9020728
_publ_section_title
;
Structure prediction by ZEFSAII (Michael W. Deem and Ramdas Pophale) SiO2 
 PCOD9020728
Probable space group: P -1
;
_chemical_formula_sum "Si O2"
_cell_formula_units_Z 16
_cell_length_a 9.036744
_cell_length_b 10.906788
_cell_length_c 8.737726
_cell_angle_alpha 90.886467
_cell_angle_beta 97.180683
_cell_angle_gamma 131.087872
_cell_volume 638.491229
_symmetry_space_group_name_H-M "P -1"
_symmetry_group_IT_number 2
_symmetry_cell_setting 'triclinic'
loop_
_space_group_symop_operation_xyz
x,y,z
-x,-y,-z
loop_
_atom_site_type_symbol
_atom_site_label
_atom_site_fract_x
_atom_site_fract_y
_atom_site_fract_z
Si Si1 0.970448 0.606325 0.396854
Si Si2 0.660054 0.444646 0.912630
Si Si3 0.292231 0.930003 0.894193
Si Si4 0.372043 0.723986 0.802181
Si Si5 0.752326 0.839625 0.279141
Si Si6 0.007161 0.223083 0.865245
Si Si7 0.763523 0.571299 0.633736
Si Si8 0.624741 0.750658 0.595647
O O1 0.769857 0.459097 0.282075
O O2 0.084578 0.732548 0.273665
O O3 0.925651 0.678615 0.525209
O O4 0.000000 0.500000 0.500000
O O5 0.445073 0.347586 0.802769
O O6 0.799628 0.502028 0.781291
O O7 0.613118 0.309225 0.020299
O O8 0.787181 0.613303 0.026717
O O9 0.262235 0.793507 0.782822
O O10 0.279107 0.043150 0.792289
O O11 0.141371 0.867359 0.013609
O O12 0.500000 0.000000 0.000000
O O13 0.563132 0.816764 0.716634
O O14 0.933764 0.867393 0.221458
O O15 0.752755 0.852050 0.463532
O O16 0.714531 0.680279 0.689181
O O17 0.577644 0.409952 0.516149
#
# Coordination Sequence:
#
# PCOD9020728 Si02
#       8
#     2   2   2   2   2   2   2   2
#     4  10  22  38  66  99 133 165 214 283 337 384
#     4  10  22  36  73 100 131 161 223 282 331 384
#     4  12  27  45  65  92 141 184 221 269 332 397
#     4  10  23  40  61 101 129 175 220 267 332 400
#     4  11  22  45  67  98 133 181 217 274 334 396
#     4  11  25  42  70 102 129 172 229 279 330 394
#     4   9  18  33  60  98 130 162 202 273 338 378
#     4   9  19  36  62  91 132 166 216 263 324 399
#
# _framework density 25.059075
#
# number of rings (size 3 to 8) (size 9 to 14) (size 15 to 20)
#    0.000    1.750    2.500    0.750   10.500    2.500 
#    0.000    0.000    0.000    2.250    0.000    0.000 
#    0.000    0.000    0.000    0.000    0.000    0.000 
#
# Total GULP energy -89141.366065 kJ/mol
# GULP energy per Si atom -5571.335379 kJ/mol
# Density = 2.500204 g / cm^3
# Si number density = 25.059075 Si / 1000 Ang^3
#
#
#
# Elastic Constant Matrix: (Units=GPa)
#
#
# Indices 1 2 3 4 5 6 
#
# 1 84.6467 46.7682 56.6072 -20.2810 -23.1184 -16.8416
# 2 46.7682 58.5779 58.0146 -18.3836 -19.3493 -12.6209
# 3 56.6072 58.0146 166.9062 -43.0376 -11.7783 -21.5684
# 4 -20.2810 -18.3836 -43.0376 44.3758 5.6017 9.2579
# 5 -23.1184 -19.3493 -11.7783 5.6017 38.5148 0.4195
# 6 -16.8416 -12.6209 -21.5684 9.2579 0.4195 37.4623
#
#
#
# Elastic Compliance Matrix: (Units=1/GPa)
#
#
# Indices 1 2 3 4 5 6 
#
# 1 0.023464 -0.013179 -0.001903 0.001640 0.006593 0.004534
# 2 -0.013179 0.039409 -0.008050 0.000821 0.009280 0.002410
# 3 -0.001903 -0.008050 0.011117 0.006674 -0.002770 0.001215
# 4 0.001640 0.000821 0.006674 0.030797 -0.001011 -0.002743
# 5 0.006593 0.009280 -0.002770 -0.001011 0.033836 0.004366
# 6 0.004534 0.002410 0.001215 -0.002743 0.004366 0.030872
#
#
# Mechanical properties :
#
#
# Convention : Reuss Voigt Hill
#
# Bulk Modulus (GPa) = 36.06873 70.32343 53.19608
# Shear Modulus (GPa) = 22.22217 33.98664 28.10440
#
# Velocity S-wave (km/s) = 2.98113 3.68674 3.35255
# Velocity P-wave (km/s) = 5.12584 6.80049 6.02167
#
# Compressibility (1/GPa) = 0.02772485
#
# Stress axis : x y z
#
# Youngs Moduli (GPa) = 42.61885 25.37521 89.95117
#
# Poissons Ratio (x) = 0.33443 0.17116
# Poissons Ratio (y) = 0.56169 0.72411
# Poissons Ratio (z) = 0.08109 0.20427
#
# Static dielectric constant tensor:
#      x y z
#    x 2.095340 0.038620 -0.022190 
#    y 0.038620 2.089900 0.084240 
#    z -0.022190 0.084240 2.102350 
# 
# From -- ./inp_files/179142.got.cif
#   From: 2010.05.17/outbox.cif.g08.bks.cpg/sg2_90_cif.got.tgz:179142.got - 2010.06.03 11:33:40.
