data_PCOD9020889
_publ_section_title
;
Structure prediction by ZEFSAII (Michael W. Deem and Ramdas Pophale) SiO2 
 PCOD9020889
Probable space group: P -1
;
_chemical_formula_sum "Si O2"
_cell_formula_units_Z 16
_cell_length_a 13.076080
_cell_length_b 17.114069
_cell_length_c 25.004215
_cell_angle_alpha 20.004369
_cell_angle_beta 22.340204
_cell_angle_gamma 20.924183
_cell_volume 630.439277
_symmetry_space_group_name_H-M "P -1"
_symmetry_group_IT_number 2
_symmetry_cell_setting 'triclinic'
loop_
_space_group_symop_operation_xyz
x,y,z
-x,-y,-z
loop_
_atom_site_type_symbol
_atom_site_label
_atom_site_fract_x
_atom_site_fract_y
_atom_site_fract_z
Si Si1 0.770093 0.395308 0.303865
Si Si2 0.616833 0.084881 0.209763
Si Si3 0.641006 0.154712 0.863619
Si Si4 0.688108 0.221514 0.251485
Si Si5 0.000199 0.634846 0.125366
Si Si6 0.757167 0.895217 0.522815
Si Si7 0.316157 0.335357 0.631435
Si Si8 0.762554 0.679373 0.951857
O O1 0.508027 0.571222 0.273411
O O2 0.645517 0.270454 0.488283
O O3 0.849114 0.588754 0.175417
O O4 0.069181 0.216840 0.236314
O O5 0.312526 0.345828 0.167115
O O6 0.465355 0.005430 0.382547
O O7 0.766585 0.851666 0.244093
O O8 0.851445 0.176992 0.059109
O O9 0.538336 0.154507 0.974102
O O10 0.007107 0.009307 0.774834
O O11 0.500000 0.000000 0.000000
O O12 0.390834 0.230579 0.364643
O O13 0.684851 0.491927 0.074590
O O14 0.737018 0.135109 0.345216
O O15 0.754676 0.699093 0.251104
O O16 0.096165 0.651714 0.526650
O O17 0.000000 0.500000 0.000000
#
# Coordination Sequence:
#
# PCOD9020889 Si02
#       8
#     2   2   2   2   2   2   2   2
#     4  11  22  41  66  93 130 162 211 258 311 370
#     4  10  23  42  67  87 128 163 212 263 318 371
#     4  11  22  39  62  92 130 167 203 255 311 373
#     4  11  21  41  59  92 130 170 208 249 306 378
#     4  10  23  46  62  92 123 166 211 263 316 379
#     4  10  24  38  64  89 129 167 207 258 311 369
#     4  11  23  42  65  97 122 165 212 266 313 367
#     4  10  22  37  61  91 125 164 205 252 302 378
#
# _framework density 25.37913
#
# number of rings (size 3 to 8) (size 9 to 14) (size 15 to 20)
#    0.000    1.500    3.750    1.500    3.500    1.500 
#    2.250    2.500    0.000    0.000    0.000    0.000 
#    0.000    0.000    0.000    0.000    0.000    0.000 
#
# Total GULP energy -89486.360568 kJ/mol
# GULP energy per Si atom -5592.897535 kJ/mol
# Density = 2.532137 g / cm^3
# Si number density = 25.379130 Si / 1000 Ang^3
#
#
#
# Elastic Constant Matrix: (Units=GPa)
#
#
# Indices 1 2 3 4 5 6 
#
# 1 92.6721 39.0297 28.0540 12.0797 12.9913 21.1700
# 2 39.0297 85.7900 22.9827 26.8350 7.9705 15.6243
# 3 28.0540 22.9827 114.0434 31.2891 14.1488 11.8180
# 4 12.0797 26.8350 31.2891 43.4237 19.1392 3.8062
# 5 12.9913 7.9705 14.1488 19.1392 44.5171 12.2747
# 6 21.1700 15.6243 11.8180 3.8062 12.2747 41.4990
#
#
#
# Elastic Compliance Matrix: (Units=1/GPa)
#
#
# Indices 1 2 3 4 5 6 
#
# 1 0.015052 -0.006078 -0.002517 0.002893 -0.002598 -0.004170
# 2 -0.006078 0.018242 0.000965 -0.011881 0.004489 -0.004281
# 3 -0.002517 0.000965 0.011609 -0.008572 0.001087 -0.001921
# 4 0.002893 -0.011881 -0.008572 0.042182 -0.015854 0.006259
# 5 -0.002598 0.004489 0.001087 -0.015854 0.031219 -0.008454
# 6 -0.004170 -0.004281 -0.001921 0.006259 -0.008454 0.030310
#
#
# Mechanical properties :
#
#
# Convention : Reuss Voigt Hill
#
# Bulk Modulus (GPa) = 33.73341 52.51535 43.12438
# Shear Modulus (GPa) = 28.77614 39.38391 34.08002
#
# Velocity S-wave (km/s) = 3.37092 3.94359 3.66845
# Velocity P-wave (km/s) = 5.33587 6.43996 5.91374
#
# Compressibility (1/GPa) = 0.02964420
#
# Stress axis : x y z
#
# Youngs Moduli (GPa) = 66.43546 54.81931 86.13755
#
# Poissons Ratio (x) = 0.33317 0.21683
# Poissons Ratio (y) = 0.40377 -0.08315
# Poissons Ratio (z) = 0.16723 -0.05292
#
# Static dielectric constant tensor:
#      x y z
#    x 1.999970 -0.015860 0.033460 
#    y -0.015860 2.026730 -0.021310 
#    z 0.033460 -0.021310 2.008360 
# 
# From -- ./inp_files/619720.got.cif
#   From: 2010.05.17/outbox.cif.g08.bks.cpg/sg2_310_cif.got.tgz:619720.got - 2010.06.03 11:33:40.
