data_PCOD9020827
_publ_section_title
;
Structure prediction by ZEFSAII (Michael W. Deem and Ramdas Pophale) SiO2 
 PCOD9020827
Probable space group: P -1
;
_chemical_formula_sum "Si O2"
_cell_formula_units_Z 16
_cell_length_a 9.260149
_cell_length_b 13.954946
_cell_length_c 13.906872
_cell_angle_alpha 41.982120
_cell_angle_beta 45.070300
_cell_angle_gamma 77.728846
_cell_volume 639.527191
_symmetry_space_group_name_H-M "P -1"
_symmetry_group_IT_number 2
_symmetry_cell_setting 'triclinic'
loop_
_space_group_symop_operation_xyz
x,y,z
-x,-y,-z
loop_
_atom_site_type_symbol
_atom_site_label
_atom_site_fract_x
_atom_site_fract_y
_atom_site_fract_z
Si Si1 0.540302 0.387865 0.942280
Si Si2 0.919800 0.262685 0.114936
Si Si3 0.755490 0.016805 0.653612
Si Si4 0.283377 0.024926 0.076711
Si Si5 0.833958 0.822308 0.281363
Si Si6 0.438382 0.028693 0.660387
Si Si7 0.511855 0.409463 0.725411
Si Si8 0.176724 0.467598 0.106673
O O1 0.441663 0.505739 0.915466
O O2 0.293414 0.158867 0.245259
O O3 0.622672 0.406751 0.778989
O O4 0.762398 0.464802 0.861620
O O5 0.702205 0.112793 0.409161
O O6 0.814853 0.144273 0.153256
O O7 0.898323 0.423389 0.994013
O O8 0.220345 0.347496 0.930455
O O9 0.471504 0.963758 0.794967
O O10 0.951890 0.241273 0.374894
O O11 0.810278 0.000351 0.750131
O O12 0.445248 0.245716 0.810593
O O13 0.031352 0.880517 0.234207
O O14 0.500000 0.000000 0.000000
O O15 0.590960 0.814985 0.433367
O O16 0.715703 0.626019 0.434851
O O17 0.000000 0.000000 0.000000
#
# Coordination Sequence:
#
# PCOD9020827 Si02
#       8
#     2   2   2   2   2   2   2   2
#     4  10  22  37  59  94 133 174 221 268 329 403
#     4  11  23  41  69 101 141 182 224 281 345 410
#     4  11  22  40  64  90 133 172 225 275 335 396
#     4  11  26  48  68  99 134 181 232 291 343 405
#     4  12  26  47  73 104 137 179 233 288 343 411
#     4  11  23  43  67 102 141 180 228 283 338 406
#     4  11  24  46  71 101 136 182 228 282 352 410
#     4  11  21  37  60  95 131 177 219 267 334 406
#
# _framework density 25.018481000000001
#
# number of rings (size 3 to 8) (size 9 to 14) (size 15 to 20)
#    0.000    1.000    2.500    4.125    0.000    4.500 
#    2.250    0.000    0.000    0.000    0.000    0.000 
#    0.000    0.000    0.000    0.000    0.000    0.000 
#
# Total GULP energy -89523.316764 kJ/mol
# GULP energy per Si atom -5595.207298 kJ/mol
# Density = 2.496154 g / cm^3
# Si number density = 25.018481 Si / 1000 Ang^3
#
#
#
# Elastic Constant Matrix: (Units=GPa)
#
#
# Indices 1 2 3 4 5 6 
#
# 1 116.5479 7.3965 15.5337 -10.1222 -6.9191 5.1706
# 2 7.3965 57.8437 23.7575 -27.8559 -4.3982 -23.7364
# 3 15.5337 23.7575 88.0739 -32.5661 5.0886 3.2895
# 4 -10.1222 -27.8559 -32.5661 42.4563 -3.3963 6.7818
# 5 -6.9191 -4.3982 5.0886 -3.3963 30.2224 -14.1709
# 6 5.1706 -23.7364 3.2895 6.7818 -14.1709 44.7722
#
#
#
# Elastic Compliance Matrix: (Units=1/GPa)
#
#
# Indices 1 2 3 4 5 6 
#
# 1 0.009017 0.000036 -0.001135 0.001556 0.002213 -0.000474
# 2 0.000036 0.042389 -0.006083 0.020643 0.022076 0.026776
# 3 -0.001135 -0.006083 0.017566 0.009955 -0.006748 -0.008028
# 4 0.001556 0.020643 0.009955 0.044872 0.009681 0.006300
# 5 0.002213 0.022076 -0.006748 0.009681 0.051603 0.026810
# 6 -0.000474 0.026776 -0.008028 0.006300 0.026810 0.044707
#
#
# Mechanical properties :
#
#
# Convention : Reuss Voigt Hill
#
# Bulk Modulus (GPa) = 18.31244 39.53786 28.92515
# Shear Modulus (GPa) = 20.59984 37.87538 29.23761
#
# Velocity S-wave (km/s) = 2.87258 3.89510 3.42225
# Velocity P-wave (km/s) = 4.28226 6.00557 5.21558
#
# Compressibility (1/GPa) = 0.05460768
#
# Stress axis : x y z
#
# Youngs Moduli (GPa) = 110.90571 23.59080 56.92908
#
# Poissons Ratio (x) = -0.00085 0.06462
# Poissons Ratio (y) = -0.00401 0.34631
# Poissons Ratio (z) = 0.12588 0.14351
#
# Static dielectric constant tensor:
#      x y z
#    x 1.973100 -0.008000 0.005100 
#    y -0.008000 2.025220 0.061930 
#    z 0.005100 0.061930 2.042180 
# 
# From -- ./inp_files/505244.got.cif
#   From: 2010.05.17/outbox.cif.g08.bks.cpg/sg2_253_cif.got.tgz:505244.got - 2010.06.03 11:33:40.
