data_PCOD9020488
_publ_section_title
;
Structure prediction by ZEFSAII (Michael W. Deem and Ramdas Pophale) SiO2 
 PCOD9020488
Probable space group: P -1
;
_chemical_formula_sum "Si O2"
_cell_formula_units_Z 16
_cell_length_a 5.215184
_cell_length_b 11.391521
_cell_length_c 15.865114
_cell_angle_alpha 57.871360
_cell_angle_beta 86.696441
_cell_angle_gamma 74.461660
_cell_volume 764.844868
_symmetry_space_group_name_H-M "P -1"
_symmetry_group_IT_number 2
_symmetry_cell_setting 'triclinic'
loop_
_space_group_symop_operation_xyz
x,y,z
-x,-y,-z
loop_
_atom_site_type_symbol
_atom_site_label
_atom_site_fract_x
_atom_site_fract_y
_atom_site_fract_z
Si Si1 0.129159 0.390345 0.113886
Si Si2 0.264786 0.103810 0.687087
Si Si3 0.667702 0.846925 0.141083
Si Si4 0.678935 0.258754 0.577879
Si Si5 0.965574 0.435595 0.777891
Si Si6 0.262881 0.783251 0.860896
Si Si7 0.749625 0.128571 0.986214
Si Si8 0.463165 0.486849 0.646473
O O1 0.445374 0.325370 0.118847
O O2 0.075815 0.474083 0.170795
O O3 0.972830 0.268231 0.158125
O O4 0.000000 0.500000 0.000000
O O5 0.267896 0.169892 0.755366
O O6 0.517865 0.138364 0.625377
O O7 0.991791 0.186349 0.614468
O O8 0.268650 0.938651 0.765224
O O9 0.932497 0.737015 0.136906
O O10 0.429895 0.800039 0.117179
O O11 0.579344 0.020782 0.068137
O O12 0.571358 0.365378 0.618850
O O13 0.618105 0.360649 0.458757
O O14 0.205914 0.465207 0.707550
O O15 0.700965 0.476402 0.711514
O O16 0.213944 0.790289 0.960576
O O17 0.000000 0.000000 0.000000
#
# Coordination Sequence:
#
# PCOD9020488 Si02
#       8
#     2   2   2   2   2   2   2   2
#     4  12  27  47  66  91 129 183 222 272 304 369
#     4  11  22  39  68  93 135 166 204 268 325 403
#     4  10  22  36  56  97 120 169 207 256 332 374
#     4  11  21  40  64 104 137 162 202 262 356 383
#     4  12  24  41  68  91 132 170 223 263 315 387
#     4  11  26  44  64  93 127 174 227 258 327 373
#     4  10  24  36  63  87 133 163 205 277 314 398
#     4  11  23  39  66 101 136 165 206 271 323 415
#
# _framework density 20.919274000000001
#
# number of rings (size 3 to 8) (size 9 to 14) (size 15 to 20)
#    0.000    1.000    2.500    3.375   12.250    2.000 
#    0.000    0.000    0.000   15.000    0.000    0.000 
#    0.000    0.000    0.000    0.000    0.000    0.000 
#
# Total GULP energy -89369.056941 kJ/mol
# GULP energy per Si atom -5585.566059 kJ/mol
# Density = 2.087166 g / cm^3
# Si number density = 20.919274 Si / 1000 Ang^3
#
#
#
# Elastic Constant Matrix: (Units=GPa)
#
#
# Indices 1 2 3 4 5 6 
#
# 1 103.6841 8.6943 28.3355 6.5504 21.7147 3.4846
# 2 8.6943 79.0336 36.2024 11.4066 -0.3580 3.8744
# 3 28.3355 36.2024 84.7580 2.0361 18.5724 10.0057
# 4 6.5504 11.4066 2.0361 22.2441 -3.1545 -4.4698
# 5 21.7147 -0.3580 18.5724 -3.1545 35.9136 -5.4322
# 6 3.4846 3.8744 10.0057 -4.4698 -5.4322 32.7040
#
#
#
# Elastic Compliance Matrix: (Units=1/GPa)
#
#
# Indices 1 2 3 4 5 6 
#
# 1 0.012096 0.000581 -0.002361 -0.005123 -0.006913 -0.002484
# 2 0.000581 0.017516 -0.008197 -0.007962 0.003338 -0.000163
# 3 -0.002361 -0.008197 0.018797 0.000671 -0.009219 -0.005968
# 4 -0.005123 -0.007962 0.000671 0.053785 0.008926 0.010117
# 5 -0.006913 0.003338 -0.009219 0.008926 0.039258 0.010902
# 6 -0.002484 -0.000163 -0.005968 0.010117 0.010902 0.035881
#
#
# Mechanical properties :
#
#
# Convention : Reuss Voigt Hill
#
# Bulk Modulus (GPa) = 35.14307 45.99336 40.56821
# Shear Modulus (GPa) = 24.18138 31.12189 27.65164
#
# Velocity S-wave (km/s) = 3.40360 3.86127 3.63964
# Velocity P-wave (km/s) = 5.68171 6.47403 6.09077
#
# Compressibility (1/GPa) = 0.02845512
#
# Stress axis : x y z
#
# Youngs Moduli (GPa) = 82.67168 57.09143 53.20028
#
# Poissons Ratio (x) = -0.03315 0.12560
# Poissons Ratio (y) = -0.04800 0.43606
# Poissons Ratio (z) = 0.19517 0.46795
#
# Static dielectric constant tensor:
#      x y z
#    x 1.858090 0.059690 -0.123580 
#    y 0.059690 1.751540 -0.064430 
#    z -0.123580 -0.064430 1.853650 
# 
# From -- ./inp_files/482091.got.cif
#   From: 2010.05.17/outbox.cif.g08.bks.cpg/sg2_242_cif.got.tgz:482091.got - 2010.06.03 11:33:40.
