data_PCOD9020560
_publ_section_title
;
Structure prediction by ZEFSAII (Michael W. Deem and Ramdas Pophale) SiO2 
 PCOD9020560
Probable space group: P -1
;
_chemical_formula_sum "Si O2"
_cell_formula_units_Z 15
_cell_length_a 8.385394
_cell_length_b 8.801700
_cell_length_c 23.356329
_cell_angle_alpha 29.041942
_cell_angle_beta 126.629424
_cell_angle_gamma 113.162400
_cell_volume 634.116494
_symmetry_space_group_name_H-M "P -1"
_symmetry_group_IT_number 2
_symmetry_cell_setting 'triclinic'
loop_
_space_group_symop_operation_xyz
x,y,z
-x,-y,-z
loop_
_atom_site_type_symbol
_atom_site_label
_atom_site_fract_x
_atom_site_fract_y
_atom_site_fract_z
Si Si1 0.102632 0.275956 0.283061
Si Si2 0.118329 0.382129 0.124103
Si Si3 0.500000 0.500000 0.500000
Si Si4 0.884409 0.354894 0.331126
Si Si5 0.428056 0.751605 0.104387
Si Si6 0.355535 0.757133 0.207156
Si Si7 0.761872 0.494642 0.451612
Si Si8 0.831490 0.242456 0.721878
O O1 0.017226 0.393375 0.161685
O O2 0.281327 0.441082 0.280995
O O3 0.940419 0.350791 0.276776
O O4 0.207216 0.885531 0.429724
O O5 0.276405 0.586512 0.096003
O O6 0.224459 0.980680 0.266621
O O7 0.000000 0.500000 0.000000
O O8 0.663587 0.604329 0.456883
O O9 0.628529 0.564424 0.563969
O O10 0.641341 0.455597 0.260572
O O11 0.967258 0.648232 0.276309
O O12 0.000000 0.000000 0.500000
O O13 0.329864 0.928778 0.083835
O O14 0.500000 0.000000 0.000000
O O15 0.587746 0.701072 0.300277
O O16 0.191981 0.917809 0.169961
O O17 0.000000 0.500000 0.500000
#
# Coordination Sequence:
#
# PCOD9020560 Si02
#       8
#     2   2   1   2   2   2   2   2
#     4  10  22  41  61  91 130 172 217 273 334 406
#     4  11  24  43  67  90 129 180 221 271 339 403
#     4  10  22  36  60  92 136 168 206 272 340 392
#     4  11  25  40  68 100 133 170 223 278 336 400
#     4  11  25  44  67  94 132 172 228 279 334 405
#     4   9  22  41  62  88 126 177 210 271 336 404
#     4  11  22  35  62  96 134 169 223 276 341 399
#     4  10  22  41  63  91 129 170 215 264 336 404
#
# _framework density 23.654959000000002
#
# number of rings (size 3 to 8) (size 9 to 14) (size 15 to 20)
#    0.000    1.600    1.333    2.000    5.600    5.333 
#    0.000    5.333    0.000    0.000    0.000    0.000 
#    0.000    0.000    0.000    0.000    0.000    0.000 
#
# Total GULP energy -83533.108739 kJ/mol
# GULP energy per Si atom -5568.873916 kJ/mol
# Density = 2.360112 g / cm^3
# Si number density = 23.654959 Si / 1000 Ang^3
#
#
#
# Elastic Constant Matrix: (Units=GPa)
#
#
# Indices 1 2 3 4 5 6 
#
# 1 135.7965 67.6312 12.9628 12.3389 -15.6585 -4.5614
# 2 67.6312 127.9990 34.3223 18.7522 -12.5911 -10.4844
# 3 12.9628 34.3223 58.7013 8.6704 -13.9586 1.8899
# 4 12.3389 18.7522 8.6704 38.1713 -1.6920 4.6536
# 5 -15.6585 -12.5911 -13.9586 -1.6920 43.1409 10.5015
# 6 -4.5614 -10.4844 1.8899 4.6536 10.5015 33.3705
#
#
#
# Elastic Compliance Matrix: (Units=1/GPa)
#
#
# Indices 1 2 3 4 5 6 
#
# 1 0.010394 -0.005716 0.001910 -0.000689 0.003021 -0.001338
# 2 -0.005716 0.013396 -0.006532 -0.003912 -0.001612 0.004850
# 3 0.001910 -0.006532 0.022562 -0.001584 0.007275 -0.005138
# 4 -0.000689 -0.003912 -0.001584 0.029402 0.000592 -0.005520
# 5 0.003021 -0.001612 0.007275 0.000592 0.028510 -0.009560
# 6 -0.001338 0.004850 -0.005138 -0.005520 -0.009560 0.035377
#
#
# Mechanical properties :
#
#
# Convention : Reuss Voigt Hill
#
# Bulk Modulus (GPa) = 38.94576 61.36992 50.15784
# Shear Modulus (GPa) = 29.60749 36.77523 33.19136
#
# Velocity S-wave (km/s) = 3.54169 3.94719 3.74992
# Velocity P-wave (km/s) = 5.76408 6.83914 6.32449
#
# Compressibility (1/GPa) = 0.02567673
#
# Stress axis : x y z
#
# Youngs Moduli (GPa) = 96.20720 74.64944 44.32152
#
# Poissons Ratio (x) = 0.42667 -0.08464
# Poissons Ratio (y) = 0.54988 0.28951
# Poissons Ratio (z) = -0.18373 0.48762
#
# Static dielectric constant tensor:
#      x y z
#    x 1.930990 0.010000 -0.092750 
#    y 0.010000 1.916920 0.104610 
#    z -0.092750 0.104610 1.712790 
# 
# From -- ./inp_files/221355.got.cif
#   From: 2010.05.17/outbox.cif.g08.bks.cpg/sg2_111_cif.got.tgz:221355.got - 2010.06.03 11:33:40.
