data_PCOD9020459
_publ_section_title
;
Structure prediction by ZEFSAII (Michael W. Deem and Ramdas Pophale) SiO2 
 PCOD9020459
Probable space group: P -1
;
_chemical_formula_sum "Si O2"
_cell_formula_units_Z 14
_cell_length_a 5.126420
_cell_length_b 23.974735
_cell_length_c 11.153322
_cell_angle_alpha 140.888258
_cell_angle_beta 92.482309
_cell_angle_gamma 109.609231
_cell_volume 700.166967
_symmetry_space_group_name_H-M "P -1"
_symmetry_group_IT_number 2
_symmetry_cell_setting 'triclinic'
loop_
_space_group_symop_operation_xyz
x,y,z
-x,-y,-z
loop_
_atom_site_type_symbol
_atom_site_label
_atom_site_fract_x
_atom_site_fract_y
_atom_site_fract_z
Si Si1 0.354530 0.753101 0.027221
Si Si2 0.250830 0.835269 0.825371
Si Si3 0.260737 0.100840 0.494842
Si Si4 0.104383 0.945443 0.813689
Si Si5 0.217751 0.485014 0.390955
Si Si6 0.544270 0.715631 0.716550
Si Si7 0.530339 0.969828 0.315642
O O1 0.554515 0.809330 0.247194
O O2 0.310834 0.838597 0.101818
O O3 0.520653 0.730917 0.884811
O O4 0.021396 0.639007 0.864683
O O5 0.208536 0.875955 0.764730
O O6 0.911898 0.789725 0.804778
O O7 0.430391 0.041879 0.370547
O O8 0.580855 0.947869 0.066048
O O9 0.177303 0.127977 0.409796
O O10 0.900133 0.012245 0.386371
O O11 0.000000 0.000000 0.000000
O O12 0.500000 0.500000 0.500000
O O13 0.384021 0.588183 0.478031
O O14 0.000000 0.500000 0.500000
O O15 0.340299 0.750525 0.701018
O O16 0.500000 0.000000 0.500000
#
# Coordination Sequence:
#
# PCOD9020459 Si02
#       7
#     2   2   2   2   2   2   2
#     4  10  22  39  60  88 125 153 188 242 294 352
#     4  11  24  39  61  86 118 156 196 247 287 344
#     4  11  25  37  57  86 121 157 190 233 295 352
#     4  11  25  40  60  86 117 156 204 239 287 349
#     4  10  22  37  59  88 120 155 195 236 289 350
#     4  11  22  38  62  89 117 153 196 242 296 346
#     4  10  22  36  54  88 122 153 182 225 296 365
#
# _framework density 19.995231
#
# number of rings (size 3 to 8) (size 9 to 14) (size 15 to 20)
#    0.000    1.429    1.429    4.286    6.000   11.429 
#    0.000    0.000    0.000    1.714    0.000    0.000 
#    0.000    0.000    0.000    0.000    0.000    0.000 
#
# Total GULP energy -78036.701101 kJ/mol
# GULP energy per Si atom -5574.050079 kJ/mol
# Density = 1.994972 g / cm^3
# Si number density = 19.995231 Si / 1000 Ang^3
#
#
#
# Elastic Constant Matrix: (Units=GPa)
#
#
# Indices 1 2 3 4 5 6 
#
# 1 124.7157 41.5978 43.9938 11.7726 12.0925 -18.9707
# 2 41.5978 80.6899 55.4737 23.7002 13.9803 -14.2283
# 3 43.9938 55.4737 120.0363 22.4289 20.3341 -16.6920
# 4 11.7726 23.7002 22.4289 27.7316 -7.1460 2.8987
# 5 12.0925 13.9803 20.3341 -7.1460 29.8975 -8.2354
# 6 -18.9707 -14.2283 -16.6920 2.8987 -8.2354 50.6402
#
#
#
# Elastic Compliance Matrix: (Units=1/GPa)
#
#
# Indices 1 2 3 4 5 6 
#
# 1 0.010209 -0.003450 -0.001556 -0.000615 -0.000995 0.002216
# 2 -0.003450 0.025880 -0.004371 -0.020502 -0.011579 0.003829
# 3 -0.001556 -0.004371 0.014616 -0.009983 -0.009075 0.002102
# 4 -0.000615 -0.020502 -0.009983 0.070841 0.031285 -0.008249
# 5 -0.000995 -0.011579 -0.009075 0.031285 0.052971 0.000207
# 6 0.002216 0.003829 0.002102 -0.008249 0.000207 0.022852
#
#
# Mechanical properties :
#
#
# Convention : Reuss Voigt Hill
#
# Bulk Modulus (GPa) = 31.29711 67.50803 49.40257
# Shear Modulus (GPa) = 22.04855 33.94564 27.99710
#
# Velocity S-wave (km/s) = 3.32428 4.12477 3.74597
# Velocity P-wave (km/s) = 5.51550 7.51800 6.59322
#
# Compressibility (1/GPa) = 0.03195183
#
# Stress axis : x y z
#
# Youngs Moduli (GPa) = 97.94996 38.64035 68.41786
#
# Poissons Ratio (x) = 0.13330 0.10645
# Poissons Ratio (y) = 0.33789 0.29906
# Poissons Ratio (z) = 0.15240 0.16890
#
# Static dielectric constant tensor:
#      x y z
#    x 1.717700 0.066740 -0.061260 
#    y 0.066740 1.795500 -0.081680 
#    z -0.061260 -0.081680 1.821250 
# 
# From -- ./inp_files/371602.got.cif
#   From: 2010.05.17/outbox.cif.g08.bks.cpg/sg2_186_cif.got.tgz:371602.got - 2010.06.03 11:33:40.
