data_PCOD9020333
_publ_section_title
;
Structure prediction by ZEFSAII (Michael W. Deem and Ramdas Pophale) SiO2 
 PCOD9020333
Probable space group: P -1
;
_chemical_formula_sum "Si O2"
_cell_formula_units_Z 12
_cell_length_a 18.133086
_cell_length_b 14.833564
_cell_length_c 15.210489
_cell_angle_alpha 157.730185
_cell_angle_beta 156.157888
_cell_angle_gamma 23.530468
_cell_volume 556.600587
_symmetry_space_group_name_H-M "P -1"
_symmetry_group_IT_number 2
_symmetry_cell_setting 'triclinic'
loop_
_space_group_symop_operation_xyz
x,y,z
-x,-y,-z
loop_
_atom_site_type_symbol
_atom_site_label
_atom_site_fract_x
_atom_site_fract_y
_atom_site_fract_z
Si Si1 0.125758 0.989022 0.539034
Si Si2 0.559136 0.072470 0.484152
Si Si3 0.127105 0.485877 0.037560
Si Si4 0.667510 0.189947 0.899911
Si Si5 0.986272 0.675428 0.558153
Si Si6 0.156785 0.505894 0.408152
O O1 0.242129 0.169819 0.850445
O O2 0.953276 0.180484 0.454126
O O3 0.000000 0.000000 0.500000
O O4 0.228567 0.682878 0.341593
O O5 0.411135 0.945331 0.235085
O O6 0.751148 0.872810 0.456936
O O7 0.654586 0.096608 0.703179
O O8 0.401706 0.357445 0.530434
O O9 0.957306 0.605019 0.882391
O O10 0.000000 0.500000 0.000000
O O11 0.500000 0.500000 0.000000
O O12 0.888587 0.162341 0.136709
O O13 0.000000 0.500000 0.500000
O O14 0.101323 0.489022 0.433322
#
# Coordination Sequence:
#
# PCOD9020333 Si02
#       6
#     2   2   2   2   2   2
#     4   8  16  33  57  87 115 158 202 249 319 373
#     4  11  23  38  59  88 117 164 214 257 311 363
#     4   8  16  32  58  88 114 158 203 248 319 373
#     4  11  21  41  59  77 124 165 208 258 304 360
#     4  12  23  40  59  87 125 168 208 251 313 373
#     4  10  22  34  60  88 120 159 208 257 307 374
#
# _framework density 21.559445
#
# number of rings (size 3 to 8) (size 9 to 14) (size 15 to 20)
#    1.000    1.000    3.333    1.500    2.333    0.000 
#    0.000    0.000    0.000    2.000    0.000    0.000 
#    0.000    0.000    0.000    0.000    0.000    0.000 
#
# Total GULP energy -66828.098532 kJ/mol
# GULP energy per Si atom -5569.008211 kJ/mol
# Density = 2.151037 g / cm^3
# Si number density = 21.559445 Si / 1000 Ang^3
#
#
#
# Elastic Constant Matrix: (Units=GPa)
#
#
# Indices 1 2 3 4 5 6 
#
# 1 51.0942 19.7736 15.5638 -12.3868 -8.2384 11.2678
# 2 19.7736 77.2785 27.0201 9.7944 13.1306 -15.3452
# 3 15.5638 27.0201 122.2708 25.2012 2.6526 -5.5983
# 4 -12.3868 9.7944 25.2012 37.3783 1.2697 4.3912
# 5 -8.2384 13.1306 2.6526 1.2697 22.0403 -2.8037
# 6 11.2678 -15.3452 -5.5983 4.3912 -2.8037 24.2099
#
#
#
# Elastic Compliance Matrix: (Units=1/GPa)
#
#
# Indices 1 2 3 4 5 6 
#
# 1 0.076336 -0.042310 -0.015623 0.053740 0.043535 -0.070665
# 2 -0.042310 0.041325 0.006193 -0.033737 -0.032924 0.049624
# 3 -0.015623 0.006193 0.013326 -0.017452 -0.008027 0.016514
# 4 0.053740 -0.033737 -0.017452 0.071155 0.030581 -0.059796
# 5 0.043535 -0.032924 -0.008027 0.030581 0.075400 -0.039801
# 6 -0.070665 0.049624 0.016514 -0.059796 -0.039801 0.115703
#
#
# Mechanical properties :
#
#
# Convention : Reuss Voigt Hill
#
# Bulk Modulus (GPa) = 36.35465 41.70651 39.03058
# Shear Modulus (GPa) = 9.88349 29.27810 19.58079
#
# Velocity S-wave (km/s) = 2.14342 3.68913 3.01694
# Velocity P-wave (km/s) = 4.79842 6.12643 5.50263
#
# Compressibility (1/GPa) = 0.02750679
#
# Stress axis : x y z
#
# Youngs Moduli (GPa) = 13.09994 24.19866 75.04152
#
# Poissons Ratio (x) = 1.02385 1.17239
# Poissons Ratio (y) = 0.55426 -0.46475
# Poissons Ratio (z) = 0.20466 -0.14987
#
# Static dielectric constant tensor:
#      x y z
#    x 1.715080 -0.022410 -0.033440 
#    y -0.022410 1.997890 0.117370 
#    z -0.033440 0.117370 1.833910 
# 
# From -- ./inp_files/578431.got.cif
#   From: 2010.05.17/outbox.cif.g08.bks.cpg/sg2_290_cif.got.tgz:578431.got - 2010.06.03 11:33:40.
