data_PCOD9020188
_publ_section_title
;
Structure prediction by ZEFSAII (Michael W. Deem and Ramdas Pophale) SiO2 
 PCOD9020188
Probable space group: P -1
;
_chemical_formula_sum "Si O2"
_cell_formula_units_Z 14
_cell_length_a 8.557790
_cell_length_b 11.978671
_cell_length_c 19.961935
_cell_angle_alpha 40.986945
_cell_angle_beta 34.802764
_cell_angle_gamma 66.862574
_cell_volume 609.297824
_symmetry_space_group_name_H-M "P -1"
_symmetry_group_IT_number 2
_symmetry_cell_setting 'triclinic'
loop_
_space_group_symop_operation_xyz
x,y,z
-x,-y,-z
loop_
_atom_site_type_symbol
_atom_site_label
_atom_site_fract_x
_atom_site_fract_y
_atom_site_fract_z
Si Si1 0.666507 0.992401 0.876570
Si Si2 0.271357 0.826513 0.600799
Si Si3 0.723647 0.853398 0.109196
Si Si4 0.705569 0.789700 0.740105
Si Si5 0.420407 0.435576 0.887885
Si Si6 0.779054 0.131015 0.172929
Si Si7 0.406963 0.390904 0.396471
O O1 0.512241 0.070602 0.844327
O O2 0.557954 0.756084 0.015627
O O3 0.073265 0.172657 0.642325
O O4 0.500000 0.000000 0.000000
O O5 0.286228 0.631726 0.698193
O O6 0.903267 0.777464 0.738683
O O7 0.500000 0.000000 0.500000
O O8 0.477287 0.930535 0.411789
O O9 0.500942 0.597346 0.310114
O O10 0.955396 0.898311 0.941652
O O11 0.000000 0.000000 0.000000
O O12 0.551598 0.593506 0.832068
O O13 0.401831 0.814344 0.842365
O O14 0.000000 0.000000 0.500000
O O15 0.631825 0.567305 0.686544
O O16 0.023864 0.314885 0.058610
#
# Coordination Sequence:
#
# PCOD9020188 Si02
#       7
#     2   2   2   2   2   2   2
#     4  12  23  46  68 101 135 184 236 276 350 410
#     4  11  23  42  68 103 136 178 229 282 348 417
#     4  11  26  43  68 102 139 182 235 285 337 415
#     4  10  23  41  70 101 137 178 229 279 355 412
#     4  11  23  43  74  98 138 183 225 289 350 406
#     4  10  21  47  65  98 144 176 225 290 339 405
#     4  11  23  44  70  98 138 181 231 283 348 408
#
# _framework density 22.977267999999999
#
# number of rings (size 3 to 8) (size 9 to 14) (size 15 to 20)
#    0.000    1.143    4.286    2.571    2.000    4.571 
#    0.000    5.000    0.000    0.000    0.000    0.000 
#    0.000    0.000    0.000    0.000    0.000    0.000 
#
# Total GULP energy -78211.290027 kJ/mol
# GULP energy per Si atom -5586.520716 kJ/mol
# Density = 2.292497 g / cm^3
# Si number density = 22.977268 Si / 1000 Ang^3
#
#
#
# Elastic Constant Matrix: (Units=GPa)
#
#
# Indices 1 2 3 4 5 6 
#
# 1 131.1839 62.7667 10.0233 -13.1955 -30.2211 -31.2191
# 2 62.7667 105.6988 15.8334 -16.1279 5.0130 -33.0059
# 3 10.0233 15.8334 101.2165 -0.6882 19.4507 -10.4443
# 4 -13.1955 -16.1279 -0.6882 31.8397 -9.9228 -2.7669
# 5 -30.2211 5.0130 19.4507 -9.9228 34.9703 8.3898
# 6 -31.2191 -33.0059 -10.4443 -2.7669 8.3898 53.5051
#
#
#
# Elastic Compliance Matrix: (Units=1/GPa)
#
#
# Indices 1 2 3 4 5 6 
#
# 1 0.019586 -0.010128 -0.004725 0.010360 0.023687 0.001079
# 2 -0.010128 0.018716 0.001583 0.001731 -0.013792 0.008197
# 3 -0.004725 0.001583 0.012932 -0.004860 -0.013509 0.002611
# 4 0.010360 0.001731 -0.004860 0.043976 0.022717 0.004876
# 5 0.023687 -0.013792 -0.013509 0.022717 0.066583 -0.006590
# 6 0.001079 0.008197 0.002611 0.004876 -0.006590 0.026171
#
#
# Mechanical properties :
#
#
# Convention : Reuss Voigt Hill
#
# Bulk Modulus (GPa) = 40.49665 57.26069 48.87867
# Shear Modulus (GPa) = 22.44809 40.69473 31.57141
#
# Velocity S-wave (km/s) = 3.12904 4.21299 3.71081
# Velocity P-wave (km/s) = 5.54233 6.97427 6.29912
#
# Compressibility (1/GPa) = 0.02469340
#
# Stress axis : x y z
#
# Youngs Moduli (GPa) = 51.05800 53.43036 77.32475
#
# Poissons Ratio (x) = 0.54115 0.36538
# Poissons Ratio (y) = 0.51713 -0.12242
# Poissons Ratio (z) = 0.24126 -0.08459
#
# Static dielectric constant tensor:
#      x y z
#    x 2.244160 0.025000 -0.012010 
#    y 0.025000 1.889760 0.029740 
#    z -0.012010 0.029740 1.894630 
# 
# From -- ./inp_files/589429.got.cif
#   From: 2010.05.17/outbox.cif.g08.bks.cpg/sg2_295_cif.got.tgz:589429.got - 2010.06.03 11:33:40.
