data_PCOD9020955
_publ_section_title
;
Structure prediction by ZEFSAII (Michael W. Deem and Ramdas Pophale) SiO2 
 PCOD9020955
Probable space group: P -1
;
_chemical_formula_sum "Si O2"
_cell_formula_units_Z 16
_cell_length_a 10.976422
_cell_length_b 5.509590
_cell_length_c 16.336016
_cell_angle_alpha 62.964433
_cell_angle_beta 54.361524
_cell_angle_gamma 53.172219
_cell_volume 634.201243
_symmetry_space_group_name_H-M "P -1"
_symmetry_group_IT_number 2
_symmetry_cell_setting 'triclinic'
loop_
_space_group_symop_operation_xyz
x,y,z
-x,-y,-z
loop_
_atom_site_type_symbol
_atom_site_label
_atom_site_fract_x
_atom_site_fract_y
_atom_site_fract_z
Si Si1 0.458418 0.264096 0.715677
Si Si2 0.282813 0.875831 0.900690
Si Si3 0.618814 0.776818 0.419454
Si Si4 0.919106 0.147901 0.422511
Si Si5 0.168279 0.934309 0.697866
Si Si6 0.990763 0.818227 0.923482
Si Si7 0.751624 0.873310 0.778627
Si Si8 0.616054 0.377670 0.890904
O O1 0.333904 0.144050 0.823836
O O2 0.497701 0.144659 0.626256
O O3 0.342569 0.620990 0.688117
O O4 0.623253 0.129338 0.726601
O O5 0.453622 0.571236 0.863887
O O6 0.197249 0.931490 0.016069
O O7 0.132740 0.875558 0.906034
O O8 0.731128 0.433166 0.461397
O O9 0.500000 0.000000 0.500000
O O10 0.775621 0.833359 0.319712
O O11 0.886415 0.960657 0.389858
O O12 0.061767 0.214627 0.312458
O O13 0.000000 0.000000 0.500000
O O14 0.034201 0.860656 0.808129
O O15 0.000000 0.500000 0.000000
O O16 0.698220 0.044261 0.863053
O O17 0.722062 0.572657 0.824143
O O18 0.500000 0.500000 0.000000
#
# Coordination Sequence:
#
# PCOD9020955 Si02
#       8
#     2   2   2   2   2   2   2   2
#     4  10  22  44  70 106 142 195 255 311 382 453
#     4  10  22  37  63 101 141 188 244 303 373 443
#     4  11  27  47  78 108 144 199 260 330 381 464
#     4  11  30  49  72 111 151 202 257 323 396 461
#     4  11  24  44  73 102 150 186 260 305 387 451
#     4  11  21  36  67 103 141 189 239 312 371 448
#     4  11  27  47  77 107 154 205 255 321 388 462
#     4  11  26  46  71 107 152 204 257 308 384 471
#
# _framework density 25.228580999999998
#
# number of rings (size 3 to 8) (size 9 to 14) (size 15 to 20)
#    0.000    1.250    2.500    1.125   10.500    2.500 
#    0.000    0.000    0.000    0.000    0.000    0.000 
#    0.000    0.000    0.000    0.000    0.000    0.000 
#
# Total GULP energy -89247.721085 kJ/mol
# GULP energy per Si atom -5577.982568 kJ/mol
# Density = 2.517116 g / cm^3
# Si number density = 25.228581 Si / 1000 Ang^3
#
#
#
# Elastic Constant Matrix: (Units=GPa)
#
#
# Indices 1 2 3 4 5 6 
#
# 1 92.7640 5.8124 32.8374 20.6492 0.3817 0.7442
# 2 5.8124 59.8948 25.6997 27.0765 -2.7776 3.4770
# 3 32.8374 25.6997 130.4557 17.8813 4.3471 7.6380
# 4 20.6492 27.0765 17.8813 32.9069 6.1551 -0.1953
# 5 0.3817 -2.7776 4.3471 6.1551 64.1698 1.5260
# 6 0.7442 3.4770 7.6380 -0.1953 1.5260 16.0344
#
#
#
# Elastic Compliance Matrix: (Units=1/GPa)
#
#
# Indices 1 2 3 4 5 6 
#
# 1 0.014187 0.005482 -0.003006 -0.012070 0.001531 -0.000708
# 2 0.005482 0.030699 -0.003424 -0.027684 0.004327 -0.006029
# 3 -0.003006 -0.003424 0.009363 -0.000283 -0.000654 -0.003519
# 4 -0.012070 -0.027684 -0.000283 0.062305 -0.007277 0.008149
# 5 0.001531 0.004327 -0.000654 -0.007277 0.016560 -0.002363
# 6 -0.000708 -0.006029 -0.003519 0.008149 -0.002363 0.065707
#
#
# Mechanical properties :
#
#
# Convention : Reuss Voigt Hill
#
# Bulk Modulus (GPa) = 19.10154 45.75706 32.42930
# Shear Modulus (GPa) = 22.91809 37.20656 30.06233
#
# Velocity S-wave (km/s) = 3.01727 3.84445 3.45570
# Velocity P-wave (km/s) = 4.44144 6.15490 5.36699
#
# Compressibility (1/GPa) = 0.05235179
#
# Stress axis : x y z
#
# Youngs Moduli (GPa) = 70.48806 32.57451 106.80062
#
# Poissons Ratio (x) = -0.17856 0.32105
# Poissons Ratio (y) = -0.38638 0.36569
# Poissons Ratio (z) = 0.21189 0.11154
#
# Static dielectric constant tensor:
#      x y z
#    x 2.094000 0.034640 0.065000 
#    y 0.034640 2.099740 -0.037830 
#    z 0.065000 -0.037830 2.091090 
# 
# From -- ./inp_files/124725.got.cif
#   From: 2010.05.17/outbox.cif.g08.bks.cpg/sg2_63_cif.got.tgz:124725.got - 2010.06.03 11:33:40.
