data_PCOD9020430
_publ_section_title
;
Structure prediction by ZEFSAII (Michael W. Deem and Ramdas Pophale) SiO2 
 PCOD9020430
Probable space group: P -1
;
_chemical_formula_sum "Si O2"
_cell_formula_units_Z 14
_cell_length_a 5.478414
_cell_length_b 12.251372
_cell_length_c 11.501017
_cell_angle_alpha 100.802455
_cell_angle_beta 74.048556
_cell_angle_gamma 67.182065
_cell_volume 645.379652
_symmetry_space_group_name_H-M "P -1"
_symmetry_group_IT_number 2
_symmetry_cell_setting 'triclinic'
loop_
_space_group_symop_operation_xyz
x,y,z
-x,-y,-z
loop_
_atom_site_type_symbol
_atom_site_label
_atom_site_fract_x
_atom_site_fract_y
_atom_site_fract_z
Si Si1 0.292734 0.393147 0.990161
Si Si2 0.916926 0.638287 0.487750
Si Si3 0.354724 0.646037 0.585690
Si Si4 0.223270 0.805426 0.837490
Si Si5 0.788233 0.389456 0.802160
Si Si6 0.157624 0.194817 0.909784
Si Si7 0.607644 0.940736 0.846322
O O1 0.338524 0.466652 0.106348
O O2 0.522974 0.361523 0.851819
O O3 0.261668 0.271361 0.998478
O O4 0.000000 0.500000 0.000000
O O5 0.048875 0.700465 0.572408
O O6 0.077581 0.624169 0.343111
O O7 0.000000 0.500000 0.500000
O O8 0.574831 0.698052 0.528655
O O9 0.500000 0.500000 0.500000
O O10 0.327985 0.671507 0.732507
O O11 0.470129 0.848082 0.817965
O O12 0.948500 0.889405 0.806582
O O13 0.089416 0.816996 0.985952
O O14 0.021386 0.287763 0.838389
O O15 0.423591 0.063320 0.816022
O O16 0.500000 0.000000 0.000000
#
# Coordination Sequence:
#
# PCOD9020430 Si02
#       7
#     2   2   2   2   2   2   2
#     4   9  21  35  55  91 126 159 199 249 330 380
#     4  10  23  39  62  84 126 161 213 248 309 366
#     4  10  23  40  62  92 119 169 209 255 312 366
#     4  11  23  40  66  93 134 157 213 266 308 374
#     4  10  22  37  58  90 128 162 207 258 315 381
#     4  10  22  35  65  90 127 163 202 255 331 373
#     4  10  22  40  62  97 128 165 207 258 319 378
#
# _framework density 21.692657000000001
#
# number of rings (size 3 to 8) (size 9 to 14) (size 15 to 20)
#    0.000    2.000    0.000    2.571   14.000    5.714 
#    0.000    0.000    0.000    5.143    0.000    0.000 
#    0.000    0.000    0.000    0.000    0.000    0.000 
#
# Total GULP energy -78024.594250 kJ/mol
# GULP energy per Si atom -5573.185304 kJ/mol
# Density = 2.164328 g / cm^3
# Si number density = 21.692657 Si / 1000 Ang^3
#
#
#
# Elastic Constant Matrix: (Units=GPa)
#
#
# Indices 1 2 3 4 5 6 
#
# 1 166.8349 25.2626 31.2152 -7.4132 -4.4008 7.3439
# 2 25.2626 68.2597 13.2630 -8.6662 12.6780 -7.3594
# 3 31.2152 13.2630 85.4672 -14.0763 7.5122 -5.5201
# 4 -7.4132 -8.6662 -14.0763 25.0896 5.7270 5.0368
# 5 -4.4008 12.6780 7.5122 5.7270 26.4394 5.0627
# 6 7.3439 -7.3594 -5.5201 5.0368 5.0627 27.3263
#
#
#
# Elastic Compliance Matrix: (Units=1/GPa)
#
#
# Indices 1 2 3 4 5 6 
#
# 1 0.007379 -0.003642 -0.003001 -0.001012 0.004867 -0.004286
# 2 -0.003642 0.020220 0.001276 0.008250 -0.013935 0.007743
# 3 -0.003001 0.001276 0.015063 0.009051 -0.008124 0.004030
# 4 -0.001012 0.008250 0.009051 0.051892 -0.017556 -0.001990
# 5 0.004867 -0.013935 -0.008124 -0.017556 0.054005 -0.013472
# 6 -0.004286 0.007743 0.004030 -0.001990 -0.013472 0.043509
#
#
# Mechanical properties :
#
#
# Convention : Reuss Voigt Hill
#
# Bulk Modulus (GPa) = 31.32034 51.11596 41.21815
# Shear Modulus (GPa) = 23.42509 32.49244 27.95876
#
# Velocity S-wave (km/s) = 3.28969 3.87441 3.59396
# Velocity P-wave (km/s) = 5.37578 6.60527 6.02199
#
# Compressibility (1/GPa) = 0.03192814
#
# Stress axis : x y z
#
# Youngs Moduli (GPa) = 135.51825 49.45484 66.38615
#
# Poissons Ratio (x) = 0.18014 0.19924
# Poissons Ratio (y) = 0.49362 -0.08472
# Poissons Ratio (z) = 0.40671 -0.06312
#
# Static dielectric constant tensor:
#      x y z
#    x 1.865190 -0.008700 0.016970 
#    y -0.008700 1.838350 0.029790 
#    z 0.016970 0.029790 1.801210 
# 
# From -- ./inp_files/123424.got.cif
#   From: 2010.05.17/outbox.cif.g08.bks.cpg/sg2_62_cif.got.tgz:123424.got - 2010.06.03 11:33:40.
