data_PCOD9020587
_publ_section_title
;
Structure prediction by ZEFSAII (Michael W. Deem and Ramdas Pophale) SiO2 
 PCOD9020587
Probable space group: P -1
;
_chemical_formula_sum "Si O2"
_cell_formula_units_Z 14
_cell_length_a 5.151585
_cell_length_b 9.537151
_cell_length_c 14.340991
_cell_angle_alpha 70.511405
_cell_angle_beta 76.311775
_cell_angle_gamma 111.686936
_cell_volume 562.703888
_symmetry_space_group_name_H-M "P -1"
_symmetry_group_IT_number 2
_symmetry_cell_setting 'triclinic'
loop_
_space_group_symop_operation_xyz
x,y,z
-x,-y,-z
loop_
_atom_site_type_symbol
_atom_site_label
_atom_site_fract_x
_atom_site_fract_y
_atom_site_fract_z
Si Si1 0.456327 0.682374 0.671396
Si Si2 0.082222 0.136503 0.652844
Si Si3 0.853979 0.128195 0.411525
Si Si4 0.116639 0.288832 0.006410
Si Si5 0.302480 0.293909 0.784085
Si Si6 0.261941 0.677695 0.402104
Si Si7 0.554861 0.297201 0.114369
O O1 0.190329 0.711223 0.644200
O O2 0.352417 0.483564 0.720854
O O3 0.470388 0.737014 0.766299
O O4 0.813013 0.798571 0.581676
O O5 0.063420 0.159978 0.760152
O O6 0.435660 0.282941 0.574279
O O7 0.842743 0.179818 0.613795
O O8 0.093863 0.971144 0.655961
O O9 0.500000 0.000000 0.500000
O O10 0.209510 0.245512 0.909011
O O11 0.276053 0.495837 0.950094
O O12 0.252634 0.237185 0.093036
O O13 0.762125 0.227844 0.064752
O O14 0.623804 0.313652 0.715709
O O15 0.000000 0.500000 0.500000
#
# Coordination Sequence:
#
# PCOD9020587 Si02
#       7
#     2   2   2   2   2   2   2
#     4  11  24  40  62  92 118 158 203 250 291 355
#     4  10  24  40  58  85 120 162 190 245 300 347
#     4  12  27  41  62  85 126 163 201 238 300 357
#     4   9  17  32  56  89 115 147 188 244 301 350
#     4   9  24  35  68  90 120 151 207 247 296 347
#     4  10  22  36  62  86 118 152 201 249 295 343
#     4   9  18  33  56  84 122 146 185 246 304 342
#
# _framework density 24.87987
#
# number of rings (size 3 to 8) (size 9 to 14) (size 15 to 20)
#    0.857    1.143    0.000    2.571    8.000    2.286 
#    0.000    0.000    0.000    5.143    0.000    0.000 
#    0.000    0.000    0.000    0.000    0.000    0.000 
#
# Total GULP energy -78170.419395 kJ/mol
# GULP energy per Si atom -5583.601385 kJ/mol
# Density = 2.482324 g / cm^3
# Si number density = 24.879870 Si / 1000 Ang^3
#
#
#
# Elastic Constant Matrix: (Units=GPa)
#
#
# Indices 1 2 3 4 5 6 
#
# 1 152.7234 21.8963 23.5340 9.8875 -7.6327 -19.7481
# 2 21.8963 91.8721 33.7130 31.0542 -8.1560 -14.8728
# 3 23.5340 33.7130 82.0337 30.0351 -17.8707 -10.4682
# 4 9.8875 31.0542 30.0351 47.0280 3.5651 -11.5757
# 5 -7.6327 -8.1560 -17.8707 3.5651 18.6320 8.8283
# 6 -19.7481 -14.8728 -10.4682 -11.5757 8.8283 40.8760
#
#
#
# Elastic Compliance Matrix: (Units=1/GPa)
#
#
# Indices 1 2 3 4 5 6 
#
# 1 0.007278 -0.001023 -0.001979 0.001298 -0.001154 0.003254
# 2 -0.001023 0.015511 -0.000799 -0.009925 0.007233 0.000572
# 3 -0.001979 -0.000799 0.026254 -0.019869 0.031074 -0.006861
# 4 0.001298 -0.009925 -0.019869 0.046386 -0.038037 0.013279
# 5 -0.001154 0.007233 0.031074 -0.038037 0.104490 -0.023308
# 6 0.003254 0.000572 -0.006861 0.013279 -0.023308 0.033282
#
#
# Mechanical properties :
#
#
# Convention : Reuss Voigt Hill
#
# Bulk Modulus (GPa) = 24.12963 53.87953 39.00458
# Shear Modulus (GPa) = 19.63732 37.80626 28.72179
#
# Velocity S-wave (km/s) = 2.81247 3.90237 3.40136
# Velocity P-wave (km/s) = 4.50180 6.48132 5.58004
#
# Compressibility (1/GPa) = 0.04144283
#
# Stress axis : x y z
#
# Youngs Moduli (GPa) = 137.39152 64.47050 38.08883
#
# Poissons Ratio (x) = 0.06594 0.07538
# Poissons Ratio (y) = 0.14052 0.03042
# Poissons Ratio (z) = 0.27190 0.05149
#
# Static dielectric constant tensor:
#      x y z
#    x 1.974200 0.030330 0.046050 
#    y 0.030330 1.980740 -0.026810 
#    z 0.046050 -0.026810 2.096890 
# 
# From -- ./inp_files/547046.got.cif
#   From: 2010.05.17/outbox.cif.g08.bks.cpg/sg2_274_cif.got.tgz:547046.got - 2010.06.03 11:33:40.
