data_PCOD9020210
_publ_section_title
;
Structure prediction by ZEFSAII (Michael W. Deem and Ramdas Pophale) SiO2 
 PCOD9020210
Probable space group: P -1
;
_chemical_formula_sum "Si O2"
_cell_formula_units_Z 16
_cell_length_a 14.430895
_cell_length_b 12.983932
_cell_length_c 9.443756
_cell_angle_alpha 89.248781
_cell_angle_beta 103.370138
_cell_angle_gamma 26.928189
_cell_volume 676.217034
_symmetry_space_group_name_H-M "P -1"
_symmetry_group_IT_number 2
_symmetry_cell_setting 'triclinic'
loop_
_space_group_symop_operation_xyz
x,y,z
-x,-y,-z
loop_
_atom_site_type_symbol
_atom_site_label
_atom_site_fract_x
_atom_site_fract_y
_atom_site_fract_z
Si Si1 0.033622 0.862883 0.927903
Si Si2 0.272356 0.489547 0.209171
Si Si3 0.622908 0.099563 0.805649
Si Si4 0.764639 0.793095 0.629962
Si Si5 0.189692 0.107912 0.594920
Si Si6 0.848241 0.068037 0.561039
Si Si7 0.672015 0.464714 0.480975
Si Si8 0.120127 0.268339 0.875750
O O1 0.811453 0.007433 0.890001
O O2 0.035146 0.881244 0.761234
O O3 0.270953 0.571033 0.078894
O O4 0.000000 0.000000 0.000000
O O5 0.207314 0.612678 0.330302
O O6 0.082159 0.590287 0.108544
O O7 0.523728 0.184319 0.323119
O O8 0.378708 0.398926 0.659679
O O9 0.700460 0.952576 0.704034
O O10 0.638836 0.002947 0.944745
O O11 0.887799 0.722643 0.537730
O O12 0.976916 0.515731 0.785919
O O13 0.500000 0.000000 0.500000
O O14 0.145748 0.187595 0.735839
O O15 0.113299 0.067556 0.526487
O O16 0.789234 0.240459 0.476631
O O17 0.595928 0.294919 0.553753
#
# Coordination Sequence:
#
# PCOD9020210 Si02
#       8
#     2   2   2   2   2   2   2   2
#     4  10  17  30  60  93 119 160 201 246 301 361
#     4  10  19  36  61  85 124 158 205 243 305 360
#     4  10  21  37  60  90 125 160 202 252 305 357
#     4  12  21  42  68  87 115 167 205 249 313 361
#     4  11  22  41  61  91 122 162 204 250 302 369
#     4   9  17  31  58  90 121 157 204 243 302 360
#     4   9  15  32  59  84 116 166 195 244 297 365
#     4  11  24  39  62  89 125 158 203 260 300 353
#
# _framework density 23.661045000000001
#
# number of rings (size 3 to 8) (size 9 to 14) (size 15 to 20)
#    0.000    1.750    6.250    0.750    1.750    0.000 
#    0.000    4.375    0.000    0.000    0.000    0.000 
#    0.000    0.000    0.000    0.000    0.000    0.000 
#
# Total GULP energy -89203.694543 kJ/mol
# GULP energy per Si atom -5575.230909 kJ/mol
# Density = 2.360719 g / cm^3
# Si number density = 23.661045 Si / 1000 Ang^3
#
#
#
# Elastic Constant Matrix: (Units=GPa)
#
#
# Indices 1 2 3 4 5 6 
#
# 1 49.5875 6.5754 12.9156 -4.1460 -11.0029 17.9776
# 2 6.5754 114.8203 22.4322 -4.3333 -9.1152 34.7183
# 3 12.9156 22.4322 110.7352 -14.2708 -28.3461 20.3152
# 4 -4.1460 -4.3333 -14.2708 37.6335 22.3682 -10.8805
# 5 -11.0029 -9.1152 -28.3461 22.3682 43.6714 -9.8714
# 6 17.9776 34.7183 20.3152 -10.8805 -9.8714 28.2338
#
#
#
# Elastic Compliance Matrix: (Units=1/GPa)
#
#
# Indices 1 2 3 4 5 6 
#
# 1 0.030837 0.007444 0.001337 -0.008619 0.007742 -0.030366
# 2 0.007444 0.016185 0.000661 -0.006552 0.003030 -0.026584
# 3 0.001337 0.000661 0.011908 -0.002080 0.007357 -0.008462
# 4 -0.008619 -0.006552 -0.002080 0.044221 -0.022028 0.024382
# 5 0.007742 0.003030 0.007357 -0.022028 0.039596 -0.008594
# 6 -0.030366 -0.026584 -0.008462 0.024382 -0.008594 0.099923
#
#
# Mechanical properties :
#
#
# Convention : Reuss Voigt Hill
#
# Bulk Modulus (GPa) = 12.85099 39.88768 26.36934
# Shear Modulus (GPa) = 20.02199 37.45574 28.73887
#
# Velocity S-wave (km/s) = 2.91211 3.98303 3.48890
# Velocity P-wave (km/s) = 4.09271 6.16824 5.23438
#
# Compressibility (1/GPa) = 0.07781500
#
# Stress axis : x y z
#
# Youngs Moduli (GPa) = 32.42850 61.78485 83.97520
#
# Poissons Ratio (x) = -0.45991 -0.11229
# Poissons Ratio (y) = -0.24139 -0.05553
# Poissons Ratio (z) = -0.04336 -0.04086
#
# Static dielectric constant tensor:
#      x y z
#    x 2.016220 -0.044850 -0.052660 
#    y -0.044850 1.944730 -0.105230 
#    z -0.052660 -0.105230 2.013450 
# 
# From -- ./inp_files/216666.got.cif
#   From: 2010.05.17/outbox.cif.g08.bks.cpg/sg2_109_cif.got.tgz:216666.got - 2010.06.03 11:33:40.
