data_PCOD9020273
_publ_section_title
;
Structure prediction by ZEFSAII (Michael W. Deem and Ramdas Pophale) SiO2 
 PCOD9020273
Probable space group: P -1
;
_chemical_formula_sum "Si O2"
_cell_formula_units_Z 16
_cell_length_a 29.307345
_cell_length_b 5.300426
_cell_length_c 17.764290
_cell_angle_alpha 110.800350
_cell_angle_beta 20.487508
_cell_angle_gamma 111.332964
_cell_volume 898.796387
_symmetry_space_group_name_H-M "P -1"
_symmetry_group_IT_number 2
_symmetry_cell_setting 'triclinic'
loop_
_space_group_symop_operation_xyz
x,y,z
-x,-y,-z
loop_
_atom_site_type_symbol
_atom_site_label
_atom_site_fract_x
_atom_site_fract_y
_atom_site_fract_z
Si Si1 0.572551 0.843025 0.695438
Si Si2 0.022986 0.207778 0.057235
Si Si3 0.221870 0.549172 0.702997
Si Si4 0.241095 0.637689 0.509057
Si Si5 0.272791 0.082402 0.754305
Si Si6 0.624040 0.918258 0.251428
Si Si7 0.542156 0.296231 0.294745
Si Si8 0.552611 0.706064 0.874458
O O1 0.696222 0.708666 0.454912
O O2 0.475896 0.839888 0.774167
O O3 0.520778 0.668348 0.829758
O O4 0.635790 0.133661 0.657317
O O5 0.888698 0.253061 0.312294
O O6 0.088983 0.483231 0.946464
O O7 0.137269 0.130983 0.928447
O O8 0.000000 0.000000 0.000000
O O9 0.200907 0.611987 0.655655
O O10 0.306191 0.794784 0.638533
O O11 0.293724 0.357580 0.370808
O O12 0.264125 0.065882 0.855830
O O13 0.397897 0.285863 0.557168
O O14 0.597091 0.607562 0.235066
O O15 0.500000 0.000000 0.500000
O O16 0.630234 0.125898 0.194604
O O17 0.500000 0.500000 0.000000
O O18 0.500000 0.000000 0.000000
#
# Coordination Sequence:
#
# PCOD9020273 Si02
#       8
#     2   2   2   2   2   2   2   2
#     4  11  20  34  60  77 109 142 185 223 271 325
#     4  12  21  32  48  78 114 151 193 218 253 322
#     4  11  19  31  49  73 117 147 193 216 256 306
#     4  11  22  35  53  80 107 151 185 220 267 323
#     4  11  21  30  47  72 111 154 190 224 257 298
#     4  10  22  31  49  69 105 149 193 227 259 294
#     4  11  20  35  50  75 103 146 193 222 260 315
#     4  11  24  40  58  79 108 139 175 231 287 329
#
# _framework density 17.801584999999999
#
# number of rings (size 3 to 8) (size 9 to 14) (size 15 to 20)
#    0.000    1.000    6.250    3.375    3.500    0.000 
#    0.000    0.000    0.000    0.000    0.000    0.000 
#    0.000    6.000    0.000    0.000    0.000    0.000 
#
# Total GULP energy -89086.256463 kJ/mol
# GULP energy per Si atom -5567.891029 kJ/mol
# Density = 1.776107 g / cm^3
# Si number density = 17.801585 Si / 1000 Ang^3
#
#
#
# Elastic Constant Matrix: (Units=GPa)
#
#
# Indices 1 2 3 4 5 6 
#
# 1 130.4889 14.7051 39.9661 -3.6387 -8.2974 -18.2184
# 2 14.7051 78.0104 28.5991 12.9079 -5.5703 -13.0035
# 3 39.9661 28.5991 57.7836 17.9670 -1.9797 1.1672
# 4 -3.6387 12.9079 17.9670 21.5768 -6.4875 2.3419
# 5 -8.2974 -5.5703 -1.9797 -6.4875 26.2440 -4.1085
# 6 -18.2184 -13.0035 1.1672 2.3419 -4.1085 25.9323
#
#
#
# Elastic Compliance Matrix: (Units=1/GPa)
#
#
# Indices 1 2 3 4 5 6 
#
# 1 0.016025 0.004013 -0.018386 0.017389 0.011065 0.014281
# 2 0.004013 0.019494 -0.012427 -0.000181 0.006651 0.014224
# 3 -0.018386 -0.012427 0.048025 -0.038719 -0.017625 -0.020605
# 4 0.017389 -0.000181 -0.038719 0.088344 0.025942 0.010000
# 5 0.011065 0.006651 -0.017625 0.025942 0.050855 0.017616
# 6 0.014281 0.014224 -0.020605 0.010000 0.017616 0.058542
#
#
# Mechanical properties :
#
#
# Convention : Reuss Voigt Hill
#
# Bulk Modulus (GPa) = 33.39567 48.09151 40.74359
# Shear Modulus (GPa) = 14.49841 26.95144 20.72493
#
# Velocity S-wave (km/s) = 2.85694 3.89523 3.41577
# Velocity P-wave (km/s) = 5.44826 6.87781 6.20435
#
# Compressibility (1/GPa) = 0.02994400
#
# Stress axis : x y z
#
# Youngs Moduli (GPa) = 62.40354 51.29787 20.82265
#
# Poissons Ratio (x) = -0.20586 0.38284
# Poissons Ratio (y) = -0.25042 0.25876
# Poissons Ratio (z) = 1.14734 0.63747
#
# Static dielectric constant tensor:
#      x y z
#    x 1.711840 -0.043400 -0.041050 
#    y -0.043400 1.709430 -0.006890 
#    z -0.041050 -0.006890 1.641210 
# 
# From -- ./inp_files/580022.got.cif
#   From: 2010.05.17/outbox.cif.g08.bks.cpg/sg2_291_cif.got.tgz:580022.got - 2010.06.03 11:33:40.
