data_PCOD9020559
_publ_section_title
;
Structure prediction by ZEFSAII (Michael W. Deem and Ramdas Pophale) SiO2 
 PCOD9020559
Probable space group: P -1
;
_chemical_formula_sum "Si O2"
_cell_formula_units_Z 15
_cell_length_a 14.916950
_cell_length_b 11.892609
_cell_length_c 12.025637
_cell_angle_alpha 37.359056
_cell_angle_beta 49.379671
_cell_angle_gamma 30.614494
_cell_volume 655.485085
_symmetry_space_group_name_H-M "P -1"
_symmetry_group_IT_number 2
_symmetry_cell_setting 'triclinic'
loop_
_space_group_symop_operation_xyz
x,y,z
-x,-y,-z
loop_
_atom_site_type_symbol
_atom_site_label
_atom_site_fract_x
_atom_site_fract_y
_atom_site_fract_z
Si Si1 0.645631 0.249609 0.496558
Si Si2 0.000000 0.000000 0.500000
Si Si3 0.435906 0.613025 0.175036
Si Si4 0.346506 0.106041 0.961147
Si Si5 0.157471 0.486887 0.634470
Si Si6 0.123508 0.717307 0.259894
Si Si7 0.775708 0.365447 0.002254
Si Si8 0.838823 0.645887 0.873393
O O1 0.500000 0.500000 0.500000
O O2 0.817923 0.175988 0.433822
O O3 0.558068 0.353631 0.364632
O O4 0.713389 0.967081 0.695716
O O5 0.892115 0.259594 0.469508
O O6 0.268803 0.700432 0.193209
O O7 0.577225 0.517692 0.044921
O O8 0.365417 0.868567 0.104034
O O9 0.337047 0.216347 0.762781
O O10 0.175801 0.351225 0.983331
O O11 0.500000 0.000000 0.000000
O O12 0.144397 0.529447 0.480444
O O13 0.020072 0.493602 0.786079
O O14 0.171053 0.613850 0.176341
O O15 0.927433 0.036653 0.166986
O O16 0.780308 0.521006 0.967695
#
# Coordination Sequence:
#
# PCOD9020559 Si02
#       8
#     2   1   2   2   2   2   2   2
#     4  11  22  39  63  99 137 174 216 267 339 404
#     4  10  22  36  60  92 134 170 210 264 334 398
#     4  12  24  43  72  99 137 178 227 283 340 405
#     4  12  24  40  65 103 142 170 216 282 346 408
#     4  11  25  41  64 101 134 178 223 275 341 402
#     4  11  27  47  71  96 135 183 234 283 329 401
#     4  11  25  49  70  97 133 183 233 280 338 397
#     4  11  24  42  68 100 137 179 219 279 340 410
#
# _framework density 22.883814999999998
#
# number of rings (size 3 to 8) (size 9 to 14) (size 15 to 20)
#    0.000    0.800    2.667    4.800    5.600    0.533 
#    0.000    4.000    0.000    0.000    0.000    0.000 
#    0.000    0.000    0.000    0.000    0.000    0.000 
#
# Total GULP energy -83627.830700 kJ/mol
# GULP energy per Si atom -5575.188713 kJ/mol
# Density = 2.283173 g / cm^3
# Si number density = 22.883815 Si / 1000 Ang^3
#
#
#
# Elastic Constant Matrix: (Units=GPa)
#
#
# Indices 1 2 3 4 5 6 
#
# 1 62.5689 24.4642 6.8195 3.3086 8.8709 -15.0223
# 2 24.4642 62.6594 0.4195 11.2266 -0.2307 -11.1470
# 3 6.8195 0.4195 89.7651 15.2562 32.6464 7.5164
# 4 3.3086 11.2266 15.2562 30.3869 -1.7154 -2.2040
# 5 8.8709 -0.2307 32.6464 -1.7154 33.4924 3.7002
# 6 -15.0223 -11.1470 7.5164 -2.2040 3.7002 37.9882
#
#
#
# Elastic Compliance Matrix: (Units=1/GPa)
#
#
# Indices 1 2 3 4 5 6 
#
# 1 0.021372 -0.007197 0.000174 0.000376 -0.006631 0.006973
# 2 -0.007197 0.020520 0.001541 -0.007400 -0.000105 0.002451
# 3 0.000174 0.001541 0.021060 -0.012513 -0.020946 -0.002332
# 4 0.000376 -0.007400 -0.012513 0.042792 0.014065 0.001566
# 5 -0.006631 -0.000105 -0.020946 0.014065 0.053067 -0.002861
# 6 0.006973 0.002451 -0.002332 0.001566 -0.002861 0.030632
#
#
# Mechanical properties :
#
#
# Convention : Reuss Voigt Hill
#
# Bulk Modulus (GPa) = 19.23518 30.93331 25.08424
# Shear Modulus (GPa) = 22.96374 32.59285 27.77829
#
# Velocity S-wave (km/s) = 3.17123 3.77805 3.48786
# Velocity P-wave (km/s) = 4.67256 5.70775 5.21590
#
# Compressibility (1/GPa) = 0.05198808
#
# Stress axis : x y z
#
# Youngs Moduli (GPa) = 46.79107 48.73233 47.48408
#
# Poissons Ratio (x) = 0.35071 -0.00825
# Poissons Ratio (y) = 0.33674 -0.07318
# Poissons Ratio (z) = -0.00813 -0.07511
#
# Static dielectric constant tensor:
#      x y z
#    x 1.828940 -0.082960 -0.008650 
#    y -0.082960 1.919250 0.036820 
#    z -0.008650 0.036820 1.975290 
# 
# From -- ./inp_files/450984.got.cif
#   From: 2010.05.17/outbox.cif.g08.bks.cpg/sg2_226_cif.got.tgz:450984.got - 2010.06.03 11:33:40.
