data_PCOD9020802
_publ_section_title
;
Structure prediction by ZEFSAII (Michael W. Deem and Ramdas Pophale) SiO2 
 PCOD9020802
Probable space group: P -1
;
_chemical_formula_sum "Si O2"
_cell_formula_units_Z 14
_cell_length_a 23.683402
_cell_length_b 23.208447
_cell_length_c 12.134238
_cell_angle_alpha 23.611959
_cell_angle_beta 156.732748
_cell_angle_gamma 167.652888
_cell_volume 549.160236
_symmetry_space_group_name_H-M "P -1"
_symmetry_group_IT_number 2
_symmetry_cell_setting 'triclinic'
loop_
_space_group_symop_operation_xyz
x,y,z
-x,-y,-z
loop_
_atom_site_type_symbol
_atom_site_label
_atom_site_fract_x
_atom_site_fract_y
_atom_site_fract_z
Si Si1 0.859792 0.172955 0.027100
Si Si2 0.558262 0.567386 0.250438
Si Si3 0.069051 0.175385 0.196829
Si Si4 0.807186 0.173405 0.387465
Si Si5 0.080881 0.489339 0.552447
Si Si6 0.394064 0.561509 0.743926
Si Si7 0.602281 0.294398 0.813623
O O1 0.910176 0.088491 0.176286
O O2 0.168900 0.473032 0.091640
O O3 0.680757 0.982884 0.145742
O O4 0.738939 0.223231 0.679355
O O5 0.374219 0.377008 0.363883
O O6 0.581965 0.429263 0.479913
O O7 0.428267 0.562985 0.934654
O O8 0.849006 0.886330 0.246052
O O9 0.131113 0.380335 0.890604
O O10 0.880331 0.275011 0.467787
O O11 0.084143 0.338373 0.550845
O O12 0.578649 0.855979 0.529015
O O13 0.712997 0.244483 0.042711
O O14 0.000000 0.500000 0.500000
O O15 0.500000 0.500000 0.000000
#
# Coordination Sequence:
#
# PCOD9020802 Si02
#       7
#     2   2   2   2   2   2   2
#     4  10  22  37  58  93 130 176 215 248 304 385
#     4  12  24  41  62  93 127 165 214 269 320 373
#     4  11  22  36  62  90 131 170 216 263 305 364
#     4  11  22  44  66  93 128 170 207 263 326 376
#     4   9  18  35  60  93 126 163 209 251 303 373
#     4  12  25  45  71  95 120 163 222 276 325 374
#     4  11  24  40  62  91 133 172 205 254 320 385
#
# _framework density 25.493469999999999
#
# number of rings (size 3 to 8) (size 9 to 14) (size 15 to 20)
#    0.000    1.143    2.857    3.857    0.000    3.429 
#    0.000    7.857    0.000    0.000    0.000    0.000 
#    0.000    0.000    0.000    0.000    0.000    0.000 
#
# Total GULP energy -78067.087915 kJ/mol
# GULP energy per Si atom -5576.220565 kJ/mol
# Density = 2.543545 g / cm^3
# Si number density = 25.493470 Si / 1000 Ang^3
#
#
#
# Elastic Constant Matrix: (Units=GPa)
#
#
# Indices 1 2 3 4 5 6 
#
# 1 64.9139 50.1510 10.8996 -3.7726 19.1298 -5.0148
# 2 50.1510 -8.5642 15.3100 15.8463 41.0021 59.7410
# 3 10.8996 15.3100 172.1318 -17.0991 28.9139 19.2430
# 4 -3.7726 15.8463 -17.0991 30.8811 -10.6096 4.9128
# 5 19.1298 41.0021 28.9139 -10.6096 24.7914 -1.6403
# 6 -5.0148 59.7410 19.2430 4.9128 -1.6403 15.7478
#
#
#
# Elastic Compliance Matrix: (Units=1/GPa)
#
#
# Indices 1 2 3 4 5 6 
#
# 1 0.020250 0.001149 0.001987 -0.004291 -0.021764 -0.001268
# 2 0.001149 -0.002149 -0.002199 0.000257 0.006119 0.011762
# 3 0.001987 -0.002199 0.007261 0.004021 -0.004753 -0.001648
# 4 -0.004291 0.000257 0.004021 0.042089 0.014964 -0.018825
# 5 -0.021764 0.006119 -0.004753 0.014964 0.057434 -0.023022
# 6 -0.001268 0.011762 -0.001648 -0.018825 -0.023022 0.023967
#
#
# Mechanical properties :
#
#
# Convention : Reuss Voigt Hill
#
# Bulk Modulus (GPa) = 36.71470 42.35586 39.53528
# Shear Modulus (GPa) = 32.03962 24.42546 28.23254
#
# Velocity S-wave (km/s) = 3.54895 3.09869 3.33144
# Velocity P-wave (km/s) = 5.58805 5.42706 5.50814
#
# Compressibility (1/GPa) = 0.02723704
#
# Stress axis : x y z
#
# Youngs Moduli (GPa) = 49.38329 -465.40068 137.71458
#
# Poissons Ratio (x) = 0.53495 -0.27361
# Poissons Ratio (y) = -0.05676 0.30282
# Poissons Ratio (z) = -0.09811 -1.02338
#
# Static dielectric constant tensor:
#      x y z
#    x 2.073380 0.051290 0.140190 
#    y 0.051290 1.924300 0.103950 
#    z 0.140190 0.103950 2.189200 
# 
# From -- ./inp_files/544573.got.cif
#   From: 2010.05.17/outbox.cif.g08.bks.cpg/sg2_273_cif.got.tgz:544573.got - 2010.06.03 11:33:40.
