data_PCOD9020101
_publ_section_title
;
Structure prediction by ZEFSAII (Michael W. Deem and Ramdas Pophale) SiO2 
 PCOD9020101
Probable space group: P -1
;
_chemical_formula_sum "Si O2"
_cell_formula_units_Z 16
_cell_length_a 14.493194
_cell_length_b 8.864934
_cell_length_c 14.634479
_cell_angle_alpha 73.433922
_cell_angle_beta 31.841689
_cell_angle_gamma 95.727034
_cell_volume 700.359390
_symmetry_space_group_name_H-M "P -1"
_symmetry_group_IT_number 2
_symmetry_cell_setting 'triclinic'
loop_
_space_group_symop_operation_xyz
x,y,z
-x,-y,-z
loop_
_atom_site_type_symbol
_atom_site_label
_atom_site_fract_x
_atom_site_fract_y
_atom_site_fract_z
Si Si1 0.389607 0.763483 0.120476
Si Si2 0.711695 0.749336 0.764427
Si Si3 0.973274 0.507335 0.369380
Si Si4 0.925096 0.815593 0.902327
Si Si5 0.829693 0.533188 0.178348
Si Si6 0.050936 0.852750 0.599292
Si Si7 0.414669 0.911109 0.484390
Si Si8 0.894638 0.152636 0.943503
O O1 0.227001 0.601184 0.366361
O O2 0.224729 0.650646 0.187798
O O3 0.631141 0.817562 0.898580
O O4 0.500000 0.000000 0.000000
O O5 0.940841 0.799468 0.599151
O O6 0.756852 0.887366 0.614502
O O7 0.500000 0.500000 0.000000
O O8 0.902168 0.305374 0.408509
O O9 0.993401 0.666645 0.258302
O O10 0.875487 0.783272 0.842086
O O11 0.189448 0.891942 0.665078
O O12 0.912647 0.982656 0.925605
O O13 0.762844 0.600762 0.136896
O O14 0.644053 0.311471 0.425384
O O15 0.964036 0.728610 0.101849
O O16 0.000000 0.500000 0.000000
O O17 0.500000 0.000000 0.500000
O O18 0.628352 0.053775 0.207618
#
# Coordination Sequence:
#
# PCOD9020101 Si02
#       8
#     2   2   2   2   2   2   2   2
#     4  11  24  43  68  95 133 177 226 277 337 401
#     4  11  24  44  69  95 132 180 223 276 341 397
#     4  11  25  42  67  99 135 177 222 282 338 398
#     4  11  26  45  69 104 139 172 231 284 325 406
#     4  10  21  46  70  97 139 173 217 284 333 397
#     4  11  25  44  66  99 138 173 224 281 336 402
#     4  11  24  45  74  96 133 184 219 271 352 395
#     4  12  26  45  69 102 140 175 228 280 332 405
#
# _framework density 22.845412
#
# number of rings (size 3 to 8) (size 9 to 14) (size 15 to 20)
#    0.000    1.000    5.000    1.875    5.250    1.500 
#    0.000    0.000    0.000    0.000    0.000    0.000 
#    0.000    0.000    0.000    0.000    0.000    0.000 
#
# Total GULP energy -89157.709664 kJ/mol
# GULP energy per Si atom -5572.356854 kJ/mol
# Density = 2.279341 g / cm^3
# Si number density = 22.845412 Si / 1000 Ang^3
#
#
#
# Elastic Constant Matrix: (Units=GPa)
#
#
# Indices 1 2 3 4 5 6 
#
# 1 67.7235 13.6442 18.4855 -2.7941 22.7360 -12.5330
# 2 13.6442 128.5871 9.5438 -7.9423 18.6866 -19.7568
# 3 18.4855 9.5438 88.8342 -15.4971 17.2004 -12.7103
# 4 -2.7941 -7.9423 -15.4971 38.1194 -5.8599 10.7537
# 5 22.7360 18.6866 17.2004 -5.8599 37.6843 -7.8206
# 6 -12.5330 -19.7568 -12.7103 10.7537 -7.8206 37.4443
#
#
#
# Elastic Compliance Matrix: (Units=1/GPa)
#
#
# Indices 1 2 3 4 5 6 
#
# 1 0.019445 0.000126 -0.001786 -0.002115 -0.010394 0.004405
# 2 0.000126 0.008920 0.000376 0.000310 -0.003793 0.003995
# 3 -0.001786 0.000376 0.013419 0.004175 -0.004151 0.002089
# 4 -0.002115 0.000310 0.004175 0.030275 0.002405 -0.007319
# 5 -0.010394 -0.003793 -0.004151 0.002405 0.036987 0.000145
# 6 0.004405 0.003995 0.002089 -0.007319 0.000145 0.033130
#
#
# Mechanical properties :
#
#
# Convention : Reuss Voigt Hill
#
# Bulk Modulus (GPa) = 25.50016 40.94353 33.22185
# Shear Modulus (GPa) = 31.68223 38.88103 35.28163
#
# Velocity S-wave (km/s) = 3.72803 4.12991 3.93410
# Velocity P-wave (km/s) = 5.45135 6.37984 5.93379
#
# Compressibility (1/GPa) = 0.03921544
#
# Stress axis : x y z
#
# Youngs Moduli (GPa) = 51.42584 112.11075 74.51965
#
# Poissons Ratio (x) = -0.01412 0.13310
# Poissons Ratio (y) = -0.00648 -0.02799
# Poissons Ratio (z) = 0.09185 -0.04212
#
# Static dielectric constant tensor:
#      x y z
#    x 2.150570 -0.031370 0.001530 
#    y -0.031370 1.842840 -0.073190 
#    z 0.001530 -0.073190 1.906130 
# 
# From -- ./inp_files/529540.got.cif
#   From: 2010.05.17/outbox.cif.g08.bks.cpg/sg2_265_cif.got.tgz:529540.got - 2010.06.03 11:33:40.
