data_PCOD9020175
_publ_section_title
;
Structure prediction by ZEFSAII (Michael W. Deem and Ramdas Pophale) SiO2 
 PCOD9020175
Probable space group: P -1
;
_chemical_formula_sum "Si O2"
_cell_formula_units_Z 16
_cell_length_a 9.534148
_cell_length_b 10.677737
_cell_length_c 22.438337
_cell_angle_alpha 24.644211
_cell_angle_beta 49.458936
_cell_angle_gamma 48.681749
_cell_volume 706.250213
_symmetry_space_group_name_H-M "P -1"
_symmetry_group_IT_number 2
_symmetry_cell_setting 'triclinic'
loop_
_space_group_symop_operation_xyz
x,y,z
-x,-y,-z
loop_
_atom_site_type_symbol
_atom_site_label
_atom_site_fract_x
_atom_site_fract_y
_atom_site_fract_z
Si Si1 0.021220 0.647325 0.588595
Si Si2 0.652191 0.108279 0.452926
Si Si3 0.744633 0.894008 0.731256
Si Si4 0.892931 0.325308 0.859217
Si Si5 0.682010 0.944154 0.013951
Si Si6 0.092778 0.672267 0.812993
Si Si7 0.459483 0.730609 0.273963
Si Si8 0.960321 0.250463 0.667253
O O1 0.042907 0.499623 0.712036
O O2 0.023847 0.383202 0.653102
O O3 0.808041 0.855432 0.552359
O O4 0.162532 0.863468 0.436639
O O5 0.772224 0.245724 0.311080
O O6 0.541227 0.367194 0.415646
O O7 0.500000 0.000000 0.500000
O O8 0.754396 0.583722 0.825030
O O9 0.887980 0.758106 0.803691
O O10 0.571363 0.089328 0.732741
O O11 0.770557 0.229750 0.881096
O O12 0.000000 0.000000 0.000000
O O13 0.835049 0.690220 0.045917
O O14 0.607207 0.848780 0.139580
O O15 0.500000 0.000000 0.000000
O O16 0.083890 0.910154 0.766151
O O17 0.260998 0.754776 0.281127
O O18 0.000000 0.500000 0.500000
#
# Coordination Sequence:
#
# PCOD9020175 Si02
#       8
#     2   2   2   2   2   2   2   2
#     4  11  22  38  67  98 123 170 227 269 317 395
#     4  10  17  30  59  95 130 162 198 267 337 370
#     4  10  21  43  66  92 123 174 223 268 315 393
#     4  12  26  46  67  88 133 187 223 259 322 402
#     4  11  24  43  64  95 132 171 219 270 333 391
#     4   9  19  34  61  91 129 163 209 263 322 380
#     4  10  20  36  64  94 134 164 210 277 331 375
#     4  11  16  34  63 102 132 158 211 274 331 380
#
# _framework density 22.654861
#
# number of rings (size 3 to 8) (size 9 to 14) (size 15 to 20)
#    0.000    1.500    6.250    1.125    1.750    0.500 
#    2.250    2.500    0.000    0.000    0.000    0.000 
#    0.000    0.000    0.000    0.000    0.000    0.000 
#
# Total GULP energy -89294.365377 kJ/mol
# GULP energy per Si atom -5580.897836 kJ/mol
# Density = 2.260330 g / cm^3
# Si number density = 22.654861 Si / 1000 Ang^3
#
#
#
# Elastic Constant Matrix: (Units=GPa)
#
#
# Indices 1 2 3 4 5 6 
#
# 1 43.7581 15.5713 14.9525 -11.4811 -6.7520 11.1411
# 2 15.5713 166.3803 59.2369 -50.5236 -1.4588 19.1765
# 3 14.9525 59.2369 86.5843 -18.1334 -1.8582 12.2486
# 4 -11.4811 -50.5236 -18.1334 49.1280 14.0784 -13.5782
# 5 -6.7520 -1.4588 -1.8582 14.0784 26.2915 -2.5763
# 6 11.1411 19.1765 12.2486 -13.5782 -2.5763 27.9069
#
#
#
# Elastic Compliance Matrix: (Units=1/GPa)
#
#
# Indices 1 2 3 4 5 6 
#
# 1 0.027210 -0.000003 -0.003110 0.001418 0.005193 -0.008326
# 2 -0.000003 0.011369 -0.005489 0.011191 -0.005799 -0.000492
# 3 -0.003110 -0.005489 0.015937 -0.001345 0.000490 -0.002591
# 4 0.001418 0.011191 -0.001345 0.040085 -0.019592 0.010029
# 5 0.005193 -0.005799 0.000490 -0.019592 0.049250 -0.003289
# 6 -0.008326 -0.000492 -0.002591 0.010029 -0.003289 0.045209
#
#
# Mechanical properties :
#
#
# Convention : Reuss Voigt Hill
#
# Bulk Modulus (GPa) = 26.80149 52.91600 39.85874
# Shear Modulus (GPa) = 22.86223 34.46276 28.66249
#
# Velocity S-wave (km/s) = 3.18016 3.90450 3.56080
# Velocity P-wave (km/s) = 5.03395 6.61324 5.87689
#
# Compressibility (1/GPa) = 0.03731136
#
# Stress axis : x y z
#
# Youngs Moduli (GPa) = 36.75092 87.95924 62.74748
#
# Poissons Ratio (x) = 0.00029 0.19517
# Poissons Ratio (y) = 0.00012 0.34440
# Poissons Ratio (z) = 0.11431 0.48277
#
# Static dielectric constant tensor:
#      x y z
#    x 1.782580 0.046620 -0.017990 
#    y 0.046620 1.888710 0.006860 
#    z -0.017990 0.006860 1.901630 
# 
# From -- ./inp_files/618346.got.cif
#   From: 2010.05.17/outbox.cif.g08.bks.cpg/sg2_310_cif.got.tgz:618346.got - 2010.06.03 11:33:40.
