data_PCOD9020660
_publ_section_title
;
Structure prediction by ZEFSAII (Michael W. Deem and Ramdas Pophale) SiO2 
 PCOD9020660
Probable space group: P -1
;
_chemical_formula_sum "Si O2"
_cell_formula_units_Z 15
_cell_length_a 28.070255
_cell_length_b 25.786764
_cell_length_c 14.379241
_cell_angle_alpha 22.208451
_cell_angle_beta 22.936406
_cell_angle_gamma 9.862048
_cell_volume 667.558567
_symmetry_space_group_name_H-M "P -1"
_symmetry_group_IT_number 2
_symmetry_cell_setting 'triclinic'
loop_
_space_group_symop_operation_xyz
x,y,z
-x,-y,-z
loop_
_atom_site_type_symbol
_atom_site_label
_atom_site_fract_x
_atom_site_fract_y
_atom_site_fract_z
Si Si1 0.340479 0.537317 0.171774
Si Si2 0.834793 0.097512 0.275947
Si Si3 0.974414 0.620363 0.117871
Si Si4 0.500000 0.500000 0.500000
Si Si5 0.987229 0.089698 0.190136
Si Si6 0.199553 0.170942 0.712544
Si Si7 0.339850 0.506948 0.610379
Si Si8 0.500818 0.081583 0.582090
O O1 0.480945 0.247853 0.392433
O O2 0.500000 0.500000 0.000000
O O3 0.296828 0.639868 0.976638
O O4 0.039160 0.821959 0.291349
O O5 0.027048 0.966080 0.229558
O O6 0.587743 0.260676 0.497641
O O7 0.801391 0.842869 0.151600
O O8 0.770963 0.740634 0.216768
O O9 0.226713 0.270635 0.283815
O O10 0.128196 0.594353 0.838008
O O11 0.664573 0.401722 0.279446
O O12 0.459566 0.397752 0.680286
O O13 0.147868 0.838254 0.396535
O O14 0.077770 0.152928 0.921137
O O15 0.000000 0.500000 0.500000
O O16 0.472660 0.919792 0.575321
#
# Coordination Sequence:
#
# PCOD9020660 Si02
#       8
#     2   2   2   1   2   2   2   2
#     4  11  24  46  73  99 128 173 233 295 349 398
#     4  10  24  40  73  97 130 170 231 292 341 403
#     4  11  26  43  66 100 143 186 221 280 342 420
#     4  10  22  36  64  94 138 178 232 268 332 402
#     4  11  22  40  64 102 135 181 227 282 338 408
#     4  10  22  39  63  97 142 183 226 275 342 409
#     4  11  23  41  65  99 139 182 230 278 338 410
#     4  11  26  44  68 100 138 180 230 285 347 410
#
# _framework density 22.469937000000002
#
# number of rings (size 3 to 8) (size 9 to 14) (size 15 to 20)
#    0.000    1.333    1.333    3.200   11.200    0.000 
#    2.400    1.333    0.000    0.000    0.000    0.000 
#    0.000    0.000    0.000    0.000    0.000    0.000 
#
# Total GULP energy -83597.622382 kJ/mol
# GULP energy per Si atom -5573.174825 kJ/mol
# Density = 2.241879 g / cm^3
# Si number density = 22.469937 Si / 1000 Ang^3
#
#
#
# Elastic Constant Matrix: (Units=GPa)
#
#
# Indices 1 2 3 4 5 6 
#
# 1 -67.2297 191.3610 -22.9323 93.7424 16.3258 42.6548
# 2 191.3610 -179.3089 107.5791 -119.0277 -53.1389 -53.5299
# 3 -22.9323 107.5791 94.6180 43.6426 -20.7641 27.0535
# 4 93.7424 -119.0277 43.6426 -20.9677 -24.5412 -26.8125
# 5 16.3258 -53.1389 -20.7641 -24.5412 32.0878 -0.2528
# 6 42.6548 -53.5299 27.0535 -26.8125 -0.2528 14.0101
#
#
#
# Elastic Compliance Matrix: (Units=1/GPa)
#
#
# Indices 1 2 3 4 5 6 
#
# 1 0.013441 0.006456 -0.006028 0.003858 0.002926 0.002824
# 2 0.006456 0.007024 -0.000831 -0.007622 0.001933 -0.005769
# 3 -0.006028 -0.000831 0.013933 0.002078 0.012236 -0.007531
# 4 0.003858 -0.007622 0.002078 0.020734 0.002575 -0.005157
# 5 0.002926 0.001933 0.012236 0.002575 0.042612 -0.019452
# 6 0.002824 -0.005769 -0.007531 -0.005157 -0.019452 0.045060
#
#
# Mechanical properties :
#
#
# Convention : Reuss Voigt Hill
#
# Bulk Modulus (GPa) = 29.76980 44.45500 37.11240
# Shear Modulus (GPa) = 32.29837 -23.50253 4.39792
#
# Velocity S-wave (km/s) = 3.79542 -3.23763 1.40053
# Velocity P-wave (km/s) = 5.69952 2.41885 4.37809
#
# Compressibility (1/GPa) = 0.03359109
#
# Stress axis : x y z
#
# Youngs Moduli (GPa) = 74.40055 142.37869 71.77180
#
# Poissons Ratio (x) = -0.91923 0.43264
# Poissons Ratio (y) = -0.48035 0.05967
# Poissons Ratio (z) = 0.44849 0.11837
#
# Static dielectric constant tensor:
#      x y z
#    x 1.884240 -0.086320 0.013270 
#    y -0.086320 1.952410 -0.001460 
#    z 0.013270 -0.001460 1.796240 
# 
# From -- ./inp_files/80693.got.cif
#   From: 2010.05.17/outbox.cif.g08.bks.cpg/sg2_41_cif.got.tgz:80693.got - 2010.06.03 11:33:40.
