data_PCOD9020158
_publ_section_title
;
Structure prediction by ZEFSAII (Michael W. Deem and Ramdas Pophale) SiO2 
 PCOD9020158
Probable space group: P -1
;
_chemical_formula_sum "Si O2"
_cell_formula_units_Z 14
_cell_length_a 9.040094
_cell_length_b 9.245253
_cell_length_c 9.095136
_cell_angle_alpha 65.686340
_cell_angle_beta 63.353366
_cell_angle_gamma 48.331962
_cell_volume 500.133996
_symmetry_space_group_name_H-M "P -1"
_symmetry_group_IT_number 2
_symmetry_cell_setting 'triclinic'
loop_
_space_group_symop_operation_xyz
x,y,z
-x,-y,-z
loop_
_atom_site_type_symbol
_atom_site_label
_atom_site_fract_x
_atom_site_fract_y
_atom_site_fract_z
Si Si1 0.351209 0.983836 0.748128
Si Si2 0.771270 0.764670 0.843717
Si Si3 0.868891 0.556397 0.388733
Si Si4 0.788343 0.228805 0.918813
Si Si5 0.434917 0.708760 0.557415
Si Si6 0.837379 0.081428 0.668742
Si Si7 0.679432 0.501840 0.102783
O O1 0.239843 0.214974 0.695732
O O2 0.571106 0.870415 0.782166
O O3 0.391221 0.882912 0.611999
O O4 0.216034 0.930764 0.919265
O O5 0.974287 0.602517 0.732361
O O6 0.804076 0.924617 0.814106
O O7 0.735261 0.653534 0.031803
O O8 0.678047 0.550135 0.513337
O O9 0.000000 0.500000 0.500000
O O10 0.904168 0.151638 0.745519
O O11 0.554004 0.373001 0.902591
O O12 0.187770 0.640671 0.033918
O O13 0.367811 0.770730 0.394233
O O14 0.314370 0.630278 0.716676
O O15 0.000000 0.000000 0.500000
#
# Coordination Sequence:
#
# PCOD9020158 Si02
#       7
#     2   2   2   2   2   2   2
#     4  10  21  46  75 107 140 198 251 306 358 440
#     4  11  24  46  74 107 145 194 252 294 373 441
#     4  12  23  38  76 112 146 189 251 315 363 429
#     4   9  22  45  74 103 149 193 243 302 374 436
#     4  11  23  46  73 110 150 191 247 313 371 429
#     4  12  28  47  71 110 160 195 236 309 385 438
#     4   9  22  45  79 104 136 200 259 299 356 442
#
# _framework density 27.992498000000001
#
# number of rings (size 3 to 8) (size 9 to 14) (size 15 to 20)
#    0.000    1.429    2.857    2.143    2.000    5.143 
#    0.000    4.286    0.000    0.000    0.000    0.000 
#    0.000    0.000    0.000    0.000    0.000    0.000 
#
# Total GULP energy -78649.609874 kJ/mol
# GULP energy per Si atom -5617.829277 kJ/mol
# Density = 2.792879 g / cm^3
# Si number density = 27.992498 Si / 1000 Ang^3
#
#
#
# Elastic Constant Matrix: (Units=GPa)
#
#
# Indices 1 2 3 4 5 6 
#
# 1 121.5384 49.5750 51.3755 -9.9327 4.4993 -5.4872
# 2 49.5750 133.2746 52.8109 -6.4610 14.2597 -7.1432
# 3 51.3755 52.8109 136.0726 -9.8784 -2.3575 13.0206
# 4 -9.9327 -6.4610 -9.8784 63.1899 4.6124 -8.6239
# 5 4.4993 14.2597 -2.3575 4.6124 57.5267 -0.0942
# 6 -5.4872 -7.1432 13.0206 -8.6239 -0.0942 57.8489
#
#
#
# Elastic Compliance Matrix: (Units=1/GPa)
#
#
# Indices 1 2 3 4 5 6 
#
# 1 0.010796 -0.002580 -0.003148 0.001189 -0.000427 0.001591
# 2 -0.002580 0.010082 -0.003111 0.000562 -0.002467 0.001780
# 3 -0.003148 -0.003111 0.010067 0.000261 0.001404 -0.002907
# 4 0.001189 0.000562 0.000261 0.016577 -0.001547 0.002592
# 5 -0.000427 -0.002467 0.001404 -0.001547 0.018208 -0.000862
# 6 0.001591 0.001780 -0.002907 0.002592 -0.000862 0.018697
#
#
# Mechanical properties :
#
#
# Convention : Reuss Voigt Hill
#
# Bulk Modulus (GPa) = 75.37820 77.60090 76.48955
# Shear Modulus (GPa) = 46.93636 51.52138 49.22887
#
# Velocity S-wave (km/s) = 4.09925 4.29481 4.19817
# Velocity P-wave (km/s) = 7.02792 7.23713 7.13329
#
# Compressibility (1/GPa) = 0.01326643
#
# Stress axis : x y z
#
# Youngs Moduli (GPa) = 92.63017 99.18223 99.33792
#
# Poissons Ratio (x) = 0.25586 0.31272
# Poissons Ratio (y) = 0.23896 0.30908
# Poissons Ratio (z) = 0.29160 0.30859
#
# Static dielectric constant tensor:
#      x y z
#    x 2.160480 -0.051970 -0.021660 
#    y -0.051970 2.297380 0.015370 
#    z -0.021660 0.015370 2.109420 
# 
# From -- ./inp_files/427511.got.cif
#   From: 2010.05.17/outbox.cif.g08.bks.cpg/sg2_214_cif.got.tgz:427511.got - 2010.06.03 11:33:40.
