data_PCOD9020681
_publ_section_title
;
Structure prediction by ZEFSAII (Michael W. Deem and Ramdas Pophale) SiO2 
 PCOD9020681
Probable space group: P -1
;
_chemical_formula_sum "Si O2"
_cell_formula_units_Z 16
_cell_length_a 11.561245
_cell_length_b 9.488468
_cell_length_c 9.639144
_cell_angle_alpha 137.303963
_cell_angle_beta 82.062182
_cell_angle_gamma 101.009596
_cell_volume 703.831180
_symmetry_space_group_name_H-M "P -1"
_symmetry_group_IT_number 2
_symmetry_cell_setting 'triclinic'
loop_
_space_group_symop_operation_xyz
x,y,z
-x,-y,-z
loop_
_atom_site_type_symbol
_atom_site_label
_atom_site_fract_x
_atom_site_fract_y
_atom_site_fract_z
Si Si1 0.601481 0.295175 0.263279
Si Si2 0.746872 0.942046 0.072782
Si Si3 0.954776 0.651686 0.233495
Si Si4 0.295733 0.518663 0.870877
Si Si5 0.436339 0.264013 0.825159
Si Si6 0.121469 0.936437 0.600756
Si Si7 0.666912 0.782607 0.684256
Si Si8 0.318901 0.888205 0.322602
O O1 0.615746 0.319520 0.114023
O O2 0.644046 0.533897 0.476814
O O3 0.469544 0.193219 0.243494
O O4 0.689846 0.150798 0.204285
O O5 0.652822 0.797278 0.079267
O O6 0.859191 0.011998 0.202674
O O7 0.748411 0.834887 0.843965
O O8 0.828457 0.540018 0.225334
O O9 0.037845 0.734836 0.408400
O O10 0.926550 0.860325 0.309173
O O11 0.000000 0.500000 0.000000
O O12 0.356636 0.312284 0.741211
O O13 0.270637 0.652505 0.106375
O O14 0.540879 0.121613 0.693820
O O15 0.500000 0.500000 0.000000
O O16 0.248929 0.913232 0.494382
O O17 0.707605 0.944968 0.670794
#
# Coordination Sequence:
#
# PCOD9020681 Si02
#       8
#     2   2   2   2   2   2   2   2
#     4  11  24  40  66  97 138 185 221 261 342 410
#     4  12  23  43  62  99 142 173 218 278 327 398
#     4  11  23  46  69  95 132 173 233 288 332 385
#     4  11  21  42  70 100 134 180 224 281 338 393
#     4  10  22  36  66 102 139 171 218 269 337 399
#     4  11  26  41  71 102 128 177 232 278 338 393
#     4  11  23  39  65  95 143 186 216 262 337 414
#     4  11  21  41  69 102 140 178 218 275 339 408
#
# _framework density 22.732724000000001
#
# number of rings (size 3 to 8) (size 9 to 14) (size 15 to 20)
#    0.000    1.000    5.000    2.625    0.000    5.500 
#    0.000    0.625    0.000    7.500    0.000    0.000 
#    0.000    0.000    0.000    0.000    0.000    0.000 
#
# Total GULP energy -89288.842462 kJ/mol
# GULP energy per Si atom -5580.552654 kJ/mol
# Density = 2.268098 g / cm^3
# Si number density = 22.732724 Si / 1000 Ang^3
#
#
#
# Elastic Constant Matrix: (Units=GPa)
#
#
# Indices 1 2 3 4 5 6 
#
# 1 51.1510 0.1313 19.5580 -7.7943 17.8573 3.6612
# 2 0.1313 82.2260 2.5849 -2.7419 1.3133 -12.1473
# 3 19.5580 2.5849 126.5142 -5.5606 28.2674 -10.3446
# 4 -7.7943 -2.7419 -5.5606 32.1750 -6.1177 5.8738
# 5 17.8573 1.3133 28.2674 -6.1177 39.9283 0.6770
# 6 3.6612 -12.1473 -10.3446 5.8738 0.6770 23.4813
#
#
#
# Elastic Compliance Matrix: (Units=1/GPa)
#
#
# Indices 1 2 3 4 5 6 
#
# 1 0.024565 -0.000565 -0.002146 0.005009 -0.008578 -0.006073
# 2 -0.000565 0.013222 0.000568 -0.000390 -0.000768 0.007298
# 3 -0.002146 0.000568 0.010067 -0.000955 -0.006425 0.005488
# 4 0.005009 -0.000390 -0.000955 0.034706 0.003939 -0.010199
# 5 -0.008578 -0.000768 -0.006425 0.003939 0.034124 -0.003860
# 6 -0.006073 0.007298 0.005488 -0.010199 -0.003860 0.052390
#
#
# Mechanical properties :
#
#
# Convention : Reuss Voigt Hill
#
# Bulk Modulus (GPa) = 22.95227 33.82661 28.38944
# Shear Modulus (GPa) = 26.61265 34.95806 30.78535
#
# Velocity S-wave (km/s) = 3.42523 3.92572 3.68398
# Velocity P-wave (km/s) = 5.07557 5.95489 5.53273
#
# Compressibility (1/GPa) = 0.04356867
#
# Stress axis : x y z
#
# Youngs Moduli (GPa) = 40.70910 75.63111 99.33771
#
# Poissons Ratio (x) = 0.04273 0.21316
# Poissons Ratio (y) = 0.02300 -0.05647
# Poissons Ratio (z) = 0.08735 -0.04299
#
# Static dielectric constant tensor:
#      x y z
#    x 1.933280 -0.033480 0.038360 
#    y -0.033480 1.849830 -0.018330 
#    z 0.038360 -0.018330 1.981710 
# 
# From -- ./inp_files/245984.got.cif
#   From: 2010.05.17/outbox.cif.g08.bks.cpg/sg2_123_cif.got.tgz:245984.got - 2010.06.03 11:33:40.
