data_PCOD9020591
_publ_section_title
;
Structure prediction by ZEFSAII (Michael W. Deem and Ramdas Pophale) SiO2 
 PCOD9020591
Probable space group: P -1
;
_chemical_formula_sum "Si O2"
_cell_formula_units_Z 16
_cell_length_a 5.350779
_cell_length_b 10.771465
_cell_length_c 15.218494
_cell_angle_alpha 125.134797
_cell_angle_beta 96.239663
_cell_angle_gamma 65.585660
_cell_volume 643.270281
_symmetry_space_group_name_H-M "P -1"
_symmetry_group_IT_number 2
_symmetry_cell_setting 'triclinic'
loop_
_space_group_symop_operation_xyz
x,y,z
-x,-y,-z
loop_
_atom_site_type_symbol
_atom_site_label
_atom_site_fract_x
_atom_site_fract_y
_atom_site_fract_z
Si Si1 0.341613 0.917196 0.402209
Si Si2 0.929600 0.690856 0.009924
Si Si3 0.237734 0.206658 0.764779
Si Si4 0.327540 0.942033 0.902916
Si Si5 0.776251 0.361923 0.659931
Si Si6 0.958009 0.268005 0.449738
Si Si7 0.503892 0.813442 0.672837
Si Si8 0.403436 0.646627 0.887269
O O1 0.482906 0.804574 0.275322
O O2 0.316608 0.786933 0.415566
O O3 0.500000 0.000000 0.500000
O O4 0.092095 0.078936 0.418765
O O5 0.897550 0.680268 0.109163
O O6 0.888547 0.884498 0.076396
O O7 0.666652 0.666757 0.949909
O O8 0.216675 0.599319 0.929204
O O9 0.021833 0.278322 0.706359
O O10 0.342116 0.008468 0.710964
O O11 0.520744 0.835299 0.786746
O O12 0.221951 0.823651 0.903359
O O13 0.500000 0.000000 0.000000
O O14 0.534390 0.515620 0.760636
O O15 0.881596 0.389611 0.580978
O O16 0.200224 0.270166 0.398307
O O17 0.687226 0.281972 0.393380
#
# Coordination Sequence:
#
# PCOD9020591 Si02
#       8
#     2   2   2   2   2   2   2   2
#     4  11  21  38  61  90 127 171 213 248 301 373
#     4  10  24  43  65  93 122 162 216 263 308 370
#     4  10  22  36  62  90 126 166 208 255 311 368
#     4   9  21  46  71  92 120 162 215 264 313 374
#     4  12  24  38  61  91 134 168 206 250 318 381
#     4  11  22  38  60  94 124 164 208 255 305 367
#     4  10  22  38  65  94 120 157 215 263 301 359
#     4  11  26  42  64  92 126 167 207 261 322 371
#
# _framework density 24.872906
#
# number of rings (size 3 to 8) (size 9 to 14) (size 15 to 20)
#    0.000    1.500    2.500    2.250    3.500    8.000 
#    0.000    1.250    0.000    0.000    0.000    0.000 
#    0.000    0.000    0.000    0.000    0.000    0.000 
#
# Total GULP energy -89405.863764 kJ/mol
# GULP energy per Si atom -5587.866485 kJ/mol
# Density = 2.481629 g / cm^3
# Si number density = 24.872906 Si / 1000 Ang^3
#
#
#
# Elastic Constant Matrix: (Units=GPa)
#
#
# Indices 1 2 3 4 5 6 
#
# 1 132.5730 18.4317 82.8767 -18.1908 -27.6782 14.1586
# 2 18.4317 73.0449 23.6179 -5.9110 -7.2932 12.0209
# 3 82.8767 23.6179 200.2029 -39.7980 -47.6361 2.6375
# 4 -18.1908 -5.9110 -39.7980 37.4264 0.8874 -8.6850
# 5 -27.6782 -7.2932 -47.6361 0.8874 51.0964 -7.2270
# 6 14.1586 12.0209 2.6375 -8.6850 -7.2270 20.4694
#
#
#
# Elastic Compliance Matrix: (Units=1/GPa)
#
#
# Indices 1 2 3 4 5 6 
#
# 1 0.011201 -0.000170 -0.004561 -0.001137 0.000783 -0.007266
# 2 -0.000170 0.015951 -0.002650 -0.002829 -0.001754 -0.010728
# 3 -0.004561 -0.002650 0.011798 0.012435 0.009612 0.011860
# 4 -0.001137 -0.002829 0.012435 0.044268 0.013242 0.024303
# 5 0.000783 -0.001754 0.009612 0.013242 0.030698 0.015706
# 6 -0.007266 -0.010728 0.011860 0.024303 0.015706 0.074508
#
#
# Mechanical properties :
#
#
# Convention : Reuss Voigt Hill
#
# Bulk Modulus (GPa) = 41.33908 72.85262 57.09585
# Shear Modulus (GPa) = 23.66868 40.52474 32.09671
#
# Velocity S-wave (km/s) = 3.08812 4.04080 3.59615
# Velocity P-wave (km/s) = 5.41955 7.15013 6.34413
#
# Compressibility (1/GPa) = 0.02419018
#
# Stress axis : x y z
#
# Youngs Moduli (GPa) = 89.27499 62.69078 84.75769
#
# Poissons Ratio (x) = 0.01064 0.38656
# Poissons Ratio (y) = 0.01516 0.22459
# Poissons Ratio (z) = 0.40717 0.16612
#
# Static dielectric constant tensor:
#      x y z
#    x 1.633290 -0.055890 -0.016700 
#    y -0.055890 2.031720 0.029670 
#    z -0.016700 0.029670 1.992890 
# 
# From -- ./inp_files/80227.got.cif
#   From: 2010.05.17/outbox.cif.g08.bks.cpg/sg2_41_cif.got.tgz:80227.got - 2010.06.03 11:33:40.
