data_PCOD9020585
_publ_section_title
;
Structure prediction by ZEFSAII (Michael W. Deem and Ramdas Pophale) SiO2 
 PCOD9020585
Probable space group: P -1
;
_chemical_formula_sum "Si O2"
_cell_formula_units_Z 16
_cell_length_a 10.782843
_cell_length_b 11.560944
_cell_length_c 11.117804
_cell_angle_alpha 111.481939
_cell_angle_beta 150.990503
_cell_angle_gamma 70.644627
_cell_volume 625.238259
_symmetry_space_group_name_H-M "P -1"
_symmetry_group_IT_number 2
_symmetry_cell_setting 'triclinic'
loop_
_space_group_symop_operation_xyz
x,y,z
-x,-y,-z
loop_
_atom_site_type_symbol
_atom_site_label
_atom_site_fract_x
_atom_site_fract_y
_atom_site_fract_z
Si Si1 0.313321 0.900120 0.255633
Si Si2 0.980904 0.066935 0.198356
Si Si3 0.837041 0.686741 0.647698
Si Si4 0.913147 0.303563 0.900258
Si Si5 0.237693 0.577784 0.784018
Si Si6 0.580890 0.237895 0.193608
Si Si7 0.451157 0.490055 0.312998
Si Si8 0.032238 0.141554 0.705403
O O1 0.337799 0.768074 0.289944
O O2 0.066130 0.953072 0.139958
O O3 0.500000 0.000000 0.500000
O O4 0.274671 0.893576 0.077845
O O5 0.970017 0.995415 0.287066
O O6 0.166265 0.185373 0.386081
O O7 0.650422 0.571862 0.438167
O O8 0.114521 0.629781 0.821503
O O9 0.864358 0.723591 0.824598
O O10 0.826997 0.445376 0.904971
O O11 0.971293 0.247837 0.797549
O O12 0.300375 0.693283 0.794456
O O13 0.000000 0.500000 0.500000
O O14 0.500000 0.500000 0.000000
O O15 0.487409 0.351398 0.244193
O O16 0.804342 0.161631 0.424141
O O17 0.321905 0.165376 0.916844
O O18 0.500000 0.500000 0.500000
#
# Coordination Sequence:
#
# PCOD9020585 Si02
#       8
#     2   2   2   2   2   2   2   2
#     4   9  17  32  59  88 132 176 224 263 330 402
#     4   9  21  38  61  94 132 179 225 280 328 407
#     4  11  24  43  66 101 132 178 236 280 340 402
#     4  10  22  36  61  99 137 176 216 278 340 408
#     4  12  26  49  74  97 136 183 232 283 335 403
#     4  12  26  44  68  99 136 183 230 279 340 409
#     4  12  23  36  64  99 137 171 216 283 344 405
#     4  11  25  44  67 100 142 182 221 275 352 403
#
# _framework density 25.590244999999999
#
# number of rings (size 3 to 8) (size 9 to 14) (size 15 to 20)
#    0.000    1.250    2.500    3.750    5.250    1.000 
#    0.000    1.250    0.000    0.000    0.000    0.000 
#    0.000    0.000    0.000    0.000    0.000    0.000 
#
# Total GULP energy -89303.190187 kJ/mol
# GULP energy per Si atom -5581.449387 kJ/mol
# Density = 2.553200 g / cm^3
# Si number density = 25.590245 Si / 1000 Ang^3
#
#
#
# Elastic Constant Matrix: (Units=GPa)
#
#
# Indices 1 2 3 4 5 6 
#
# 1 99.7820 46.4657 22.2264 -9.2015 1.5796 23.6772
# 2 46.4657 99.2780 68.0987 -1.7471 19.0829 28.0061
# 3 22.2264 68.0987 129.9372 -11.3524 16.4895 31.9077
# 4 -9.2015 -1.7471 -11.3524 43.0980 7.7543 -0.6317
# 5 1.5796 19.0829 16.4895 7.7543 33.0401 16.2513
# 6 23.6772 28.0061 31.9077 -0.6317 16.2513 55.4430
#
#
#
# Elastic Compliance Matrix: (Units=1/GPa)
#
#
# Indices 1 2 3 4 5 6 
#
# 1 0.014492 -0.007962 0.002562 0.002575 0.004439 -0.004913
# 2 -0.007962 0.021376 -0.009102 -0.001997 -0.006871 -0.000168
# 3 0.002562 -0.009102 0.013401 0.003729 -0.000443 -0.004036
# 4 0.002575 -0.001997 0.003729 0.025908 -0.006959 0.000098
# 5 0.004439 -0.006871 -0.000443 -0.006959 0.040915 -0.010242
# 6 -0.004913 -0.000168 -0.004036 0.000098 -0.010242 0.025546
#
#
# Mechanical properties :
#
#
# Convention : Reuss Voigt Hill
#
# Bulk Modulus (GPa) = 49.34690 66.95319 58.15005
# Shear Modulus (GPa) = 28.18539 39.12997 33.65768
#
# Velocity S-wave (km/s) = 3.32235 3.91461 3.63058
# Velocity P-wave (km/s) = 5.83461 6.83027 6.35198
#
# Compressibility (1/GPa) = 0.02026470
#
# Stress axis : x y z
#
# Youngs Moduli (GPa) = 69.00341 46.78173 74.61921
#
# Poissons Ratio (x) = 0.37249 -0.19119
# Poissons Ratio (y) = 0.54942 0.67920
# Poissons Ratio (z) = -0.17680 0.42582
#
# Static dielectric constant tensor:
#      x y z
#    x 2.118690 -0.027250 0.088770 
#    y -0.027250 2.320360 -0.222030 
#    z 0.088770 -0.222030 2.184570 
# 
# From -- ./inp_files/426266.got.cif
#   From: 2010.05.17/outbox.cif.g08.bks.cpg/sg2_214_cif.got.tgz:426266.got - 2010.06.03 11:33:40.
