data_PCOD9020592
_publ_section_title
;
Structure prediction by ZEFSAII (Michael W. Deem and Ramdas Pophale) SiO2 
 PCOD9020592
Probable space group: P -1
;
_chemical_formula_sum "Si O2"
_cell_formula_units_Z 14
_cell_length_a 8.615289
_cell_length_b 23.199878
_cell_length_c 5.263267
_cell_angle_alpha 99.540186
_cell_angle_beta 95.803814
_cell_angle_gamma 30.891159
_cell_volume 530.872069
_symmetry_space_group_name_H-M "P -1"
_symmetry_group_IT_number 2
_symmetry_cell_setting 'triclinic'
loop_
_space_group_symop_operation_xyz
x,y,z
-x,-y,-z
loop_
_atom_site_type_symbol
_atom_site_label
_atom_site_fract_x
_atom_site_fract_y
_atom_site_fract_z
Si Si1 0.723825 0.876046 0.859341
Si Si2 0.037262 0.354695 0.726729
Si Si3 0.504806 0.159649 0.036893
Si Si4 0.541630 0.280543 0.517747
Si Si5 0.193876 0.454396 0.242753
Si Si6 0.975124 0.955527 0.653034
Si Si7 0.095552 0.736449 0.331096
O O1 0.903360 0.828091 0.594513
O O2 0.567235 0.863181 0.772416
O O3 0.944662 0.792481 0.072061
O O4 0.500000 0.000000 0.000000
O O5 0.217329 0.286112 0.972363
O O6 0.305542 0.304837 0.580298
O O7 0.906665 0.331728 0.642918
O O8 0.769772 0.487955 0.744011
O O9 0.781931 0.111578 0.127756
O O10 0.641231 0.069255 0.789498
O O11 0.476025 0.321881 0.246534
O O12 0.868243 0.148004 0.536199
O O13 0.583021 0.332560 0.680706
O O14 0.000000 0.500000 0.500000
O O15 0.000000 0.500000 0.000000
O O16 0.000000 0.000000 0.500000
#
# Coordination Sequence:
#
# PCOD9020592 Si02
#       7
#     2   2   2   2   2   2   2
#     4  11  24  41  62  91 138 176 223 271 324 395
#     4  10  22  45  67  96 134 170 226 270 334 395
#     4  10  22  36  62  90 127 178 210 272 329 392
#     4  11  23  42  69  93 135 168 223 275 327 398
#     4  10  23  42  71  99 127 176 219 275 334 390
#     4  11  21  34  59  95 127 166 219 264 329 390
#     4  11  26  41  66  99 129 179 220 273 333 390
#
# _framework density 26.371701000000002
#
# number of rings (size 3 to 8) (size 9 to 14) (size 15 to 20)
#    0.000    1.429    1.429    3.000    4.000    7.429 
#    0.000    0.000    0.000   11.143    0.000    0.000 
#    0.000    0.000    0.000    0.000    0.000    0.000 
#
# Total GULP energy -78027.325634 kJ/mol
# GULP energy per Si atom -5573.380402 kJ/mol
# Density = 2.631168 g / cm^3
# Si number density = 26.371701 Si / 1000 Ang^3
#
#
#
# Elastic Constant Matrix: (Units=GPa)
#
#
# Indices 1 2 3 4 5 6 
#
# 1 165.6517 37.8299 23.9302 -9.5450 0.8322 34.7793
# 2 37.8299 133.7419 17.1447 -21.6414 -3.8095 48.2976
# 3 23.9302 17.1447 94.2229 -16.5197 -1.1364 3.6586
# 4 -9.5450 -21.6414 -16.5197 35.5956 -1.8059 -8.0297
# 5 0.8322 -3.8095 -1.1364 -1.8059 40.7250 -7.2557
# 6 34.7793 48.2976 3.6586 -8.0297 -7.2557 50.0495
#
#
#
# Elastic Compliance Matrix: (Units=1/GPa)
#
#
# Indices 1 2 3 4 5 6 
#
# 1 0.007369 -0.000065 -0.001684 -0.000054 -0.001116 -0.005105
# 2 -0.000065 0.012377 -0.001025 0.004471 -0.000667 -0.011203
# 3 -0.001684 -0.001025 0.012039 0.005059 0.000894 0.002221
# 4 -0.000054 0.004471 0.005059 0.033495 0.002233 0.001051
# 5 -0.001116 -0.000667 0.000894 0.002233 0.025606 0.005424
# 6 -0.005105 -0.011203 0.002221 0.001051 0.005424 0.035131
#
#
# Mechanical properties :
#
#
# Convention : Reuss Voigt Hill
#
# Bulk Modulus (GPa) = 38.11509 61.26958 49.69233
# Shear Modulus (GPa) = 35.63497 46.25480 40.94488
#
# Velocity S-wave (km/s) = 3.67993 4.19257 3.94459
# Velocity P-wave (km/s) = 5.70441 6.83523 6.29526
#
# Compressibility (1/GPa) = 0.02623633
#
# Stress axis : x y z
#
# Youngs Moduli (GPa) = 135.69683 80.79457 83.06427
#
# Poissons Ratio (x) = 0.00529 0.13991
# Poissons Ratio (y) = 0.00888 0.08511
# Poissons Ratio (z) = 0.22856 0.08279
#
# Static dielectric constant tensor:
#      x y z
#    x 2.330350 -0.207970 -0.019130 
#    y -0.207970 2.443960 0.264990 
#    z -0.019130 0.264990 2.248440 
# 
# From -- ./inp_files/51509.got.cif
#   From: 2010.05.17/outbox.cif.g08.bks.cpg/sg2_26_cif.got.tgz:51509.got - 2010.06.03 11:33:40.
