data_PCOD9020364
_publ_section_title
;
Structure prediction by ZEFSAII (Michael W. Deem and Ramdas Pophale) SiO2 
 PCOD9020364
Probable space group: P -1
;
_chemical_formula_sum "Si O2"
_cell_formula_units_Z 14
_cell_length_a 14.150309
_cell_length_b 5.326743
_cell_length_c 27.941118
_cell_angle_alpha 61.737240
_cell_angle_beta 161.842438
_cell_angle_gamma 118.185753
_cell_volume 576.145282
_symmetry_space_group_name_H-M "P -1"
_symmetry_group_IT_number 2
_symmetry_cell_setting 'triclinic'
loop_
_space_group_symop_operation_xyz
x,y,z
-x,-y,-z
loop_
_atom_site_type_symbol
_atom_site_label
_atom_site_fract_x
_atom_site_fract_y
_atom_site_fract_z
Si Si1 0.764176 0.079390 0.837602
Si Si2 0.923247 0.212706 0.793227
Si Si3 0.903757 0.610215 0.293594
Si Si4 0.068280 0.329289 0.595483
Si Si5 0.288176 0.772264 0.948704
Si Si6 0.357553 0.528624 0.181164
Si Si7 0.223056 0.146533 0.441046
O O1 0.615897 0.353097 0.762928
O O2 0.901303 0.143778 0.845776
O O3 0.552332 0.789657 0.756196
O O4 0.000000 0.000000 0.000000
O O5 0.101221 0.526904 0.850201
O O6 0.583002 0.214707 0.608163
O O7 0.083987 0.960812 0.866693
O O8 0.957196 0.497047 0.383125
O O9 0.046503 0.426767 0.338165
O O10 0.078516 0.929758 0.350660
O O11 0.543930 0.616641 0.114768
O O12 0.422393 0.265619 0.764260
O O13 0.000000 0.500000 0.500000
O O14 0.864481 0.043346 0.536400
O O15 0.500000 0.000000 0.000000
O O16 0.000000 0.500000 0.000000
#
# Coordination Sequence:
#
# PCOD9020364 Si02
#       7
#     2   2   2   2   2   2   2
#     4  10  23  34  59  95 135 176 226 269 335 404
#     4  12  25  46  75 103 142 183 239 295 355 434
#     4  10  25  44  68  98 144 178 235 291 363 404
#     4  10  24  39  65  93 148 189 238 273 347 414
#     4  12  28  50  77 105 135 182 244 308 366 416
#     4  10  22  35  55  92 132 183 233 270 322 405
#     4  10  24  44  68 104 143 187 230 284 358 424
#
# _framework density 24.299427000000001
#
# number of rings (size 3 to 8) (size 9 to 14) (size 15 to 20)
#    0.857    0.571    0.000    3.857   12.000    0.571 
#    0.000    4.286    0.000    0.000    0.000    0.000 
#    0.000    0.000    0.000    0.000    0.000    0.000 
#
# Total GULP energy -78165.506631 kJ/mol
# GULP energy per Si atom -5583.250474 kJ/mol
# Density = 2.424412 g / cm^3
# Si number density = 24.299427 Si / 1000 Ang^3
#
#
#
# Elastic Constant Matrix: (Units=GPa)
#
#
# Indices 1 2 3 4 5 6 
#
# 1 88.9077 35.0032 36.0331 5.2817 7.4453 -27.1930
# 2 35.0032 140.6871 50.1920 32.6716 10.1310 -40.4763
# 3 36.0331 50.1920 104.0661 28.0162 28.0323 -13.3896
# 4 5.2817 32.6716 28.0162 35.0627 10.0439 2.5114
# 5 7.4453 10.1310 28.0323 10.0439 36.5830 -4.9132
# 6 -27.1930 -40.4763 -13.3896 2.5114 -4.9132 59.9824
#
#
#
# Elastic Compliance Matrix: (Units=1/GPa)
#
#
# Indices 1 2 3 4 5 6 
#
# 1 0.014948 -0.001105 -0.004828 0.001969 0.001089 0.004960
# 2 -0.001105 0.013244 -0.002553 -0.011563 0.002841 0.008583
# 3 -0.004828 -0.002553 0.017053 -0.007816 -0.009304 -0.000540
# 4 0.001969 -0.011563 -0.007816 0.047702 -0.005800 -0.011127
# 5 0.001089 0.002841 -0.009304 -0.005800 0.035517 0.003486
# 6 0.004960 0.008583 -0.000540 -0.011127 0.003486 0.025343
#
#
# Mechanical properties :
#
#
# Convention : Reuss Voigt Hill
#
# Bulk Modulus (GPa) = 35.36933 64.01304 49.69119
# Shear Modulus (GPa) = 27.74637 40.48780 34.11708
#
# Velocity S-wave (km/s) = 3.38280 4.08634 3.75110
# Velocity P-wave (km/s) = 5.46306 6.97602 6.26538
#
# Compressibility (1/GPa) = 0.02827308
#
# Stress axis : x y z
#
# Youngs Moduli (GPa) = 66.89677 75.50789 58.63928
#
# Poissons Ratio (x) = 0.08346 0.28311
# Poissons Ratio (y) = 0.07394 0.14970
# Poissons Ratio (z) = 0.32298 0.19277
#
# Static dielectric constant tensor:
#      x y z
#    x 1.996620 -0.023400 -0.044210 
#    y -0.023400 2.093220 -0.269270 
#    z -0.044210 -0.269270 2.935430 
# 
# From -- ./inp_files/618972.got.cif
#   From: 2010.05.17/outbox.cif.g08.bks.cpg/sg2_310_cif.got.tgz:618972.got - 2010.06.03 11:33:40.
