data_PCOD9020243
_publ_section_title
;
Structure prediction by ZEFSAII (Michael W. Deem and Ramdas Pophale) SiO2 
 PCOD9020243
Probable space group: P -1
;
_chemical_formula_sum "Si O2"
_cell_formula_units_Z 14
_cell_length_a 11.256469
_cell_length_b 19.690738
_cell_length_c 5.007795
_cell_angle_alpha 107.322392
_cell_angle_beta 85.083934
_cell_angle_gamma 149.460107
_cell_volume 503.978474
_symmetry_space_group_name_H-M "P -1"
_symmetry_group_IT_number 2
_symmetry_cell_setting 'triclinic'
loop_
_space_group_symop_operation_xyz
x,y,z
-x,-y,-z
loop_
_atom_site_type_symbol
_atom_site_label
_atom_site_fract_x
_atom_site_fract_y
_atom_site_fract_z
Si Si1 0.294171 0.417476 0.733074
Si Si2 0.167236 0.209509 0.343369
Si Si3 0.818795 0.189188 0.919237
Si Si4 0.742776 0.831999 0.239799
Si Si5 0.119490 0.456227 0.549435
Si Si6 0.672767 0.307947 0.576017
Si Si7 0.623643 0.957593 0.047786
O O1 0.733859 0.658839 0.574911
O O2 0.310862 0.506721 0.728937
O O3 0.500000 0.500000 0.000000
O O4 0.019064 0.273850 0.757831
O O5 0.294409 0.251005 0.638316
O O6 0.211707 0.175388 0.067003
O O7 0.869334 0.057413 0.257528
O O8 0.573187 0.106392 0.794991
O O9 0.965134 0.318708 0.242781
O O10 0.723083 0.069989 0.955154
O O11 0.505594 0.759160 0.232381
O O12 0.000000 0.000000 0.500000
O O13 0.237599 0.576840 0.475864
O O14 0.920409 0.393027 0.699934
O O15 0.509769 0.172676 0.253978
#
# Coordination Sequence:
#
# PCOD9020243 Si02
#       7
#     2   2   2   2   2   2   2
#     4  12  29  50  81 118 161 215 275 342 409 492
#     4  12  27  50  79 121 160 214 274 337 413 482
#     4  10  23  47  76 117 156 213 271 335 412 479
#     4  12  27  49  78 120 165 216 264 339 419 492
#     4  10  24  52  77 115 159 216 271 332 410 491
#     4  10  24  48  81 115 164 212 267 333 411 496
#     4  10  21  47  79 115 160 205 274 339 404 490
#
# _framework density 27.778967000000002
#
# number of rings (size 3 to 8) (size 9 to 14) (size 15 to 20)
#    0.000    1.143    2.857    1.286    2.000    4.571 
#    2.571    4.286    0.000    0.857    0.000    0.000 
#    0.000    0.000    0.000    0.000    0.000    0.000 
#
# Total GULP energy -78701.588707 kJ/mol
# GULP energy per Si atom -5621.542050 kJ/mol
# Density = 2.771574 g / cm^3
# Si number density = 27.778967 Si / 1000 Ang^3
#
#
#
# Elastic Constant Matrix: (Units=GPa)
#
#
# Indices 1 2 3 4 5 6 
#
# 1 221.0977 78.0544 71.7415 3.2673 -4.5029 32.7133
# 2 78.0544 142.2001 27.7626 8.7158 -15.3598 -0.0326
# 3 71.7415 27.7626 119.3051 7.2673 -10.9504 6.8314
# 4 3.2673 8.7158 7.2673 36.6677 4.2182 -7.9117
# 5 -4.5029 -15.3598 -10.9504 4.2182 45.7636 7.2764
# 6 32.7133 -0.0326 6.8314 -7.9117 7.2764 87.8706
#
#
#
# Elastic Compliance Matrix: (Units=1/GPa)
#
#
# Indices 1 2 3 4 5 6 
#
# 1 0.007165 -0.003380 -0.003508 0.000479 -0.000952 -0.002274
# 2 -0.003380 0.009288 0.000220 -0.002108 0.002902 0.000815
# 3 -0.003508 0.000220 0.010797 -0.002153 0.002500 0.000066
# 4 0.000479 -0.002108 -0.002153 0.029302 -0.004351 0.002987
# 5 -0.000952 0.002902 0.002500 -0.004351 0.024085 -0.002225
# 6 -0.002274 0.000815 0.000066 0.002987 -0.002225 0.012675
#
#
# Mechanical properties :
#
#
# Convention : Reuss Voigt Hill
#
# Bulk Modulus (GPa) = 71.88145 93.08003 82.48074
# Shear Modulus (GPa) = 44.92907 54.39668 49.66288
#
# Velocity S-wave (km/s) = 4.02603 4.42995 4.23281
# Velocity P-wave (km/s) = 6.89523 7.72956 7.32429
#
# Compressibility (1/GPa) = 0.01391180
#
# Stress axis : x y z
#
# Youngs Moduli (GPa) = 139.57685 107.66719 92.61804
#
# Poissons Ratio (x) = 0.36396 0.32490
# Poissons Ratio (y) = 0.47183 -0.02034
# Poissons Ratio (z) = 0.48962 -0.02364
#
# Static dielectric constant tensor:
#      x y z
#    x 2.176430 -0.019440 -0.000020 
#    y -0.019440 2.223030 0.005840 
#    z -0.000020 0.005840 2.058980 
# 
# From -- ./inp_files/82737.got.cif
#   From: 2010.05.17/outbox.cif.g08.bks.cpg/sg2_42_cif.got.tgz:82737.got - 2010.06.03 11:33:40.
