data_PCOD9020230
_publ_section_title
;
Structure prediction by ZEFSAII (Michael W. Deem and Ramdas Pophale) SiO2 
 PCOD9020230
Probable space group: P -1
;
_chemical_formula_sum "Si O2"
_cell_formula_units_Z 16
_cell_length_a 7.696555
_cell_length_b 13.404520
_cell_length_c 8.057047
_cell_angle_alpha 67.512552
_cell_angle_beta 121.816421
_cell_angle_gamma 95.563618
_cell_volume 646.799086
_symmetry_space_group_name_H-M "P -1"
_symmetry_group_IT_number 2
_symmetry_cell_setting 'triclinic'
loop_
_space_group_symop_operation_xyz
x,y,z
-x,-y,-z
loop_
_atom_site_type_symbol
_atom_site_label
_atom_site_fract_x
_atom_site_fract_y
_atom_site_fract_z
Si Si1 0.160895 0.120086 0.424028
Si Si2 0.320181 0.216833 0.119766
Si Si3 0.005011 0.410995 0.706031
Si Si4 0.512025 0.166188 0.758849
Si Si5 0.207966 0.990151 0.213553
Si Si6 0.466831 0.612388 0.505944
Si Si7 0.301473 0.512166 0.016156
Si Si8 0.717345 0.235573 0.140363
O O1 0.232885 0.205243 0.268680
O O2 0.312131 0.107542 0.664806
O O3 0.938115 0.172968 0.333094
O O4 0.173725 0.014469 0.376770
O O5 0.552103 0.240128 0.201006
O O6 0.318140 0.091977 0.141073
O O7 0.174948 0.302725 0.877262
O O8 0.782166 0.368776 0.612911
O O9 0.000000 0.500000 0.500000
O O10 0.088684 0.481252 0.853286
O O11 0.657547 0.119090 0.709412
O O12 0.451376 0.293545 0.615719
O O13 0.633064 0.167381 0.990105
O O14 0.000000 0.000000 0.000000
O O15 0.500000 0.500000 0.500000
O O16 0.612510 0.581458 0.754122
O O17 0.270320 0.637754 0.981379
O O18 0.500000 0.500000 0.000000
#
# Coordination Sequence:
#
# PCOD9020230 Si02
#       8
#     2   2   2   2   2   2   2   2
#     4  10  25  45  72 101 134 185 228 285 350 407
#     4  10  24  44  72 101 135 186 230 282 353 406
#     4  12  24  43  68  98 137 181 229 280 347 409
#     4  12  24  45  70 101 142 177 234 287 344 419
#     4  10  21  47  74  97 139 183 229 287 350 409
#     4  12  26  42  69 105 135 184 232 284 349 415
#     4  12  25  45  67 100 144 184 227 288 344 421
#     4  12  24  45  69 103 139 179 233 287 346 409
#
# _framework density 24.737204999999999
#
# number of rings (size 3 to 8) (size 9 to 14) (size 15 to 20)
#    0.750    0.000    5.000    2.625    1.750    1.000 
#    0.000    3.125    0.000    0.000    0.000    0.000 
#    0.000    0.000    0.000    0.000    0.000    0.000 
#
# Total GULP energy -89348.964658 kJ/mol
# GULP energy per Si atom -5584.310291 kJ/mol
# Density = 2.468090 g / cm^3
# Si number density = 24.737205 Si / 1000 Ang^3
#
#
#
# Elastic Constant Matrix: (Units=GPa)
#
#
# Indices 1 2 3 4 5 6 
#
# 1 60.4809 8.0298 16.8462 -9.2051 22.9574 2.9758
# 2 8.0298 121.6322 13.5990 6.2452 7.4865 -4.2865
# 3 16.8462 13.5990 93.3948 15.0331 34.2348 4.8786
# 4 -9.2051 6.2452 15.0331 43.2032 12.4545 10.5733
# 5 22.9574 7.4865 34.2348 12.4545 38.2949 -9.7601
# 6 2.9758 -4.2865 4.8786 10.5733 -9.7601 35.9407
#
#
#
# Elastic Compliance Matrix: (Units=1/GPa)
#
#
# Indices 1 2 3 4 5 6 
#
# 1 0.032990 -0.002302 0.005111 0.020575 -0.035533 -0.019402
# 2 -0.002302 0.008624 -0.001558 -0.002706 0.002723 0.002966
# 3 0.005111 -0.001558 0.018453 0.004251 -0.023369 -0.010711
# 4 0.020575 -0.002706 0.004251 0.042915 -0.035931 -0.024986
# 5 -0.035533 0.002723 -0.023369 -0.035931 0.090026 0.041457
# 6 -0.019402 0.002966 -0.010711 -0.024986 0.041457 0.049847
#
#
# Mechanical properties :
#
#
# Convention : Reuss Voigt Hill
#
# Bulk Modulus (GPa) = 15.98244 39.16198 27.57221
# Shear Modulus (GPa) = 19.14174 39.28995 29.21585
#
# Velocity S-wave (km/s) = 2.78475 3.98966 3.44037
# Velocity P-wave (km/s) = 4.10057 6.09006 5.19151
#
# Compressibility (1/GPa) = 0.06256867
#
# Stress axis : x y z
#
# Youngs Moduli (GPa) = 30.31228 115.96149 54.19033
#
# Poissons Ratio (x) = 0.26700 -0.27698
# Poissons Ratio (y) = 0.06979 0.08443
# Poissons Ratio (z) = -0.15494 0.18066
#
# Static dielectric constant tensor:
#      x y z
#    x 1.988000 -0.029010 -0.078650 
#    y -0.029010 2.342790 0.366590 
#    z -0.078650 0.366590 2.192360 
# 
# From -- ./inp_files/201088.got.cif
#   From: 2010.05.17/outbox.cif.g08.bks.cpg/sg2_101_cif.got.tgz:201088.got - 2010.06.03 11:33:40.
