data_PCOD9020139
_publ_section_title
;
Structure prediction by ZEFSAII (Michael W. Deem and Ramdas Pophale) SiO2 
 PCOD9020139
Probable space group: P -1
;
_chemical_formula_sum "Si O2"
_cell_formula_units_Z 14
_cell_length_a 15.780317
_cell_length_b 6.932916
_cell_length_c 4.946032
_cell_angle_alpha 116.884410
_cell_angle_beta 94.551742
_cell_angle_gamma 80.704153
_cell_volume 476.280076
_symmetry_space_group_name_H-M "P -1"
_symmetry_group_IT_number 2
_symmetry_cell_setting 'triclinic'
loop_
_space_group_symop_operation_xyz
x,y,z
-x,-y,-z
loop_
_atom_site_type_symbol
_atom_site_label
_atom_site_fract_x
_atom_site_fract_y
_atom_site_fract_z
Si Si1 0.544992 0.566599 0.274268
Si Si2 0.192875 0.485764 0.095922
Si Si3 0.765197 0.966263 0.874161
Si Si4 0.421836 0.917753 0.377219
Si Si5 0.046580 0.061708 0.274957
Si Si6 0.313178 0.695095 0.575224
Si Si7 0.073510 0.586112 0.628754
O O1 0.500000 0.500000 0.500000
O O2 0.539427 0.843873 0.461135
O O3 0.644016 0.500143 0.350782
O O4 0.544036 0.341673 0.914334
O O5 0.218837 0.244521 0.065575
O O6 0.276568 0.600368 0.237697
O O7 0.119039 0.586340 0.347987
O O8 0.151191 0.506268 0.809241
O O9 0.847986 0.966666 0.706572
O O10 0.669510 0.003539 0.750360
O O11 0.763326 0.164576 0.204767
O O12 0.381805 0.856003 0.615419
O O13 0.034062 0.341723 0.473298
O O14 0.000000 0.000000 0.500000
O O15 0.042232 0.842485 0.918629
#
# Coordination Sequence:
#
# PCOD9020139 Si02
#       7
#     2   2   2   2   2   2   2
#     4  10  21  46  73 105 151 202 251 323 396 472
#     4  12  29  49  80 118 160 218 271 335 405 485
#     4  12  28  49  82 120 164 211 281 339 406 491
#     4  11  26  49  77 115 161 213 272 339 412 490
#     4  12  29  48  82 117 160 211 269 332 406 483
#     4  11  27  49  80 117 164 210 279 335 411 489
#     4  12  27  52  77 110 168 211 267 334 412 482
#
# _framework density 29.394466999999999
#
# number of rings (size 3 to 8) (size 9 to 14) (size 15 to 20)
#    0.000    0.571    2.857    3.000   12.000    0.571 
#    5.143    0.000    0.000    0.000    0.000    0.000 
#    0.000    0.000    0.000    0.000    0.000    0.000 
#
# Total GULP energy -78278.621458 kJ/mol
# GULP energy per Si atom -5591.330104 kJ/mol
# Density = 2.932756 g / cm^3
# Si number density = 29.394467 Si / 1000 Ang^3
#
#
#
# Elastic Constant Matrix: (Units=GPa)
#
#
# Indices 1 2 3 4 5 6 
#
# 1 216.6766 93.6935 90.4587 12.7086 24.2443 0.2031
# 2 93.6935 275.7164 69.7749 35.2854 1.7753 -24.7368
# 3 90.4587 69.7749 151.0229 -3.3568 1.4763 -1.3334
# 4 12.7086 35.2854 -3.3568 64.7065 -8.0900 -5.3919
# 5 24.2443 1.7753 1.4763 -8.0900 81.0182 -3.0541
# 6 0.2031 -24.7368 -1.3334 -5.3919 -3.0541 77.2087
#
#
#
# Elastic Compliance Matrix: (Units=1/GPa)
#
#
# Indices 1 2 3 4 5 6 
#
# 1 0.007010 -0.001381 -0.003571 -0.001134 -0.002141 -0.000686
# 2 -0.001381 0.004892 -0.001474 -0.002338 0.000152 0.001388
# 3 -0.003571 -0.001474 0.009477 0.002130 0.001137 -0.000106
# 4 -0.001134 -0.002338 0.002130 0.017375 0.002109 0.000587
# 5 -0.002141 0.000152 0.001137 0.002109 0.013198 0.000743
# 6 -0.000686 0.001388 -0.000106 0.000587 0.000743 0.013467
#
#
# Mechanical properties :
#
#
# Convention : Reuss Voigt Hill
#
# Bulk Modulus (GPa) = 117.28382 127.91887 122.60135
# Shear Modulus (GPa) = 61.64128 70.55260 66.09694
#
# Velocity S-wave (km/s) = 4.58431 4.90450 4.74710
# Velocity P-wave (km/s) = 8.24668 8.69969 8.47621
#
# Compressibility (1/GPa) = 0.00852633
#
# Stress axis : x y z
#
# Youngs Moduli (GPa) = 142.65379 204.40962 105.52007
#
# Poissons Ratio (x) = 0.28231 0.37682
# Poissons Ratio (y) = 0.19702 0.15556
# Poissons Ratio (z) = 0.50942 0.30134
#
# Static dielectric constant tensor:
#      x y z
#    x 2.299120 -0.091060 0.099620 
#    y -0.091060 2.339380 0.100870 
#    z 0.099620 0.100870 2.265110 
# 
# From -- ./inp_files/105811.got.cif
#   From: 2010.05.17/outbox.cif.g08.bks.cpg/sg2_53_cif.got.tgz:105811.got - 2010.06.03 11:33:40.
