data_PCOD9020594
_publ_section_title
;
Structure prediction by ZEFSAII (Michael W. Deem and Ramdas Pophale) SiO2 
 PCOD9020594
Probable space group: P -1
;
_chemical_formula_sum "Si O2"
_cell_formula_units_Z 16
_cell_length_a 15.369129
_cell_length_b 26.758031
_cell_length_c 17.553934
_cell_angle_alpha 158.319421
_cell_angle_beta 22.886495
_cell_angle_gamma 161.564401
_cell_volume 793.175717
_symmetry_space_group_name_H-M "P -1"
_symmetry_group_IT_number 2
_symmetry_cell_setting 'triclinic'
loop_
_space_group_symop_operation_xyz
x,y,z
-x,-y,-z
loop_
_atom_site_type_symbol
_atom_site_label
_atom_site_fract_x
_atom_site_fract_y
_atom_site_fract_z
Si Si1 0.214513 0.421803 0.522075
Si Si2 0.206297 0.530378 0.149366
Si Si3 0.956741 0.089195 0.548759
Si Si4 0.052733 0.588006 0.500899
Si Si5 0.702894 0.072439 0.132839
Si Si6 0.159060 0.865994 0.064583
Si Si7 0.226685 0.210989 0.339308
Si Si8 0.502623 0.525711 0.284067
O O1 0.125150 0.274535 0.446259
O O2 0.457355 0.612977 0.636278
O O3 0.379240 0.421932 0.316351
O O4 0.955946 0.413605 0.686219
O O5 0.275286 0.607181 0.288288
O O6 0.456382 0.569161 0.948655
O O7 0.993928 0.319512 0.035004
O O8 0.016640 0.128520 0.465502
O O9 0.201123 0.277944 0.658763
O O10 0.015850 0.954099 0.326962
O O11 0.634579 0.012320 0.721278
O O12 0.741848 0.465773 0.536150
O O13 0.000000 0.500000 0.500000
O O14 0.154676 0.778859 0.707204
O O15 0.855503 0.156096 0.046381
O O16 0.731487 0.924772 0.915728
O O17 0.500000 0.000000 0.000000
#
# Coordination Sequence:
#
# PCOD9020594 Si02
#       8
#     2   2   2   2   2   2   2   2
#     4   9  19  38  61  90 119 151 192 248 297 346
#     4  11  22  36  57  83 116 158 200 232 287 352
#     4  10  22  36  62  92 115 151 198 245 290 353
#     4  11  24  41  56  81 123 163 195 237 288 351
#     4  11  23  39  59  88 120 155 195 243 293 341
#     4  11  21  34  56  85 120 150 187 241 297 344
#     4   9  19  38  62  88 121 150 193 247 299 342
#     4  10  22  39  59  86 118 157 198 238 296 347
#
# _framework density 20.172075
#
# number of rings (size 3 to 8) (size 9 to 14) (size 15 to 20)
#    0.000    1.750    1.250    4.500    1.750    4.500 
#    0.000    6.250    0.000    4.500    0.000    0.000 
#    0.000    0.000    0.000    0.000    0.000    0.000 
#
# Total GULP energy -89388.931287 kJ/mol
# GULP energy per Si atom -5586.808205 kJ/mol
# Density = 2.012616 g / cm^3
# Si number density = 20.172075 Si / 1000 Ang^3
#
#
#
# Elastic Constant Matrix: (Units=GPa)
#
#
# Indices 1 2 3 4 5 6 
#
# 1 95.1120 13.7033 42.8999 11.7581 4.5124 -19.7846
# 2 13.7033 35.9396 18.5527 0.0258 -0.3004 -5.4453
# 3 42.8999 18.5527 117.4367 4.6558 18.1550 -25.0543
# 4 11.7581 0.0258 4.6558 25.4471 0.4179 -3.9115
# 5 4.5124 -0.3004 18.1550 0.4179 42.0698 3.7528
# 6 -19.7846 -5.4453 -25.0543 -3.9115 3.7528 16.9779
#
#
#
# Elastic Compliance Matrix: (Units=1/GPa)
#
#
# Indices 1 2 3 4 5 6 
#
# 1 0.015203 -0.002871 -0.001653 -0.004568 -0.002121 0.013773
# 2 -0.002871 0.031181 -0.004236 0.002090 0.002304 0.000376
# 3 -0.001653 -0.004236 0.015845 0.001448 -0.008699 0.022354
# 4 -0.004568 0.002090 0.001448 0.042313 -0.001209 0.007500
# 5 -0.002121 0.002304 -0.008699 -0.001209 0.029690 -0.021411
# 6 0.013773 0.000376 0.022354 0.007500 -0.021411 0.114519
#
#
# Mechanical properties :
#
#
# Convention : Reuss Voigt Hill
#
# Bulk Modulus (GPa) = 22.36702 44.31110 33.33906
# Shear Modulus (GPa) = 17.78260 28.45445 23.11853
#
# Velocity S-wave (km/s) = 2.97230 3.75985 3.38903
# Velocity P-wave (km/s) = 4.78452 6.39241 5.64600
#
# Compressibility (1/GPa) = 0.04470868
#
# Stress axis : x y z
#
# Youngs Moduli (GPa) = 65.77461 32.07119 63.11304
#
# Poissons Ratio (x) = 0.09209 0.10431
# Poissons Ratio (y) = 0.18886 0.26734
# Poissons Ratio (z) = 0.10871 0.13585
#
# Static dielectric constant tensor:
#      x y z
#    x 1.732910 0.004290 0.039420 
#    y 0.004290 1.700220 -0.005940 
#    z 0.039420 -0.005940 1.721690 
# 
# From -- ./inp_files/349529.got.cif
#   From: 2010.05.17/outbox.cif.g08.bks.cpg/sg2_175_cif.got.tgz:349529.got - 2010.06.03 11:33:40.
