data_PCOD9020877
_publ_section_title
;
Structure prediction by ZEFSAII (Michael W. Deem and Ramdas Pophale) SiO2 
 PCOD9020877
Probable space group: P -1
;
_chemical_formula_sum "Si O2"
_cell_formula_units_Z 16
_cell_length_a 18.626797
_cell_length_b 9.241790
_cell_length_c 12.053092
_cell_angle_alpha 81.902587
_cell_angle_beta 137.974393
_cell_angle_gamma 131.823921
_cell_volume 728.306665
_symmetry_space_group_name_H-M "P -1"
_symmetry_group_IT_number 2
_symmetry_cell_setting 'triclinic'
loop_
_space_group_symop_operation_xyz
x,y,z
-x,-y,-z
loop_
_atom_site_type_symbol
_atom_site_label
_atom_site_fract_x
_atom_site_fract_y
_atom_site_fract_z
Si Si1 0.112556 0.547009 0.793274
Si Si2 0.698551 0.989200 0.896723
Si Si3 0.344767 0.546033 0.993248
Si Si4 0.262757 0.906980 0.720769
Si Si5 0.633435 0.778421 0.492365
Si Si6 0.960257 0.282979 0.957659
Si Si7 0.659395 0.481830 0.611978
Si Si8 0.298222 0.215431 0.863833
O O1 0.209429 0.729980 0.773201
O O2 0.874148 0.281971 0.523115
O O3 0.196237 0.742588 0.966973
O O4 0.201622 0.487827 0.903412
O O5 0.485341 0.766755 0.615761
O O6 0.671210 0.850434 0.984946
O O7 0.838158 0.086301 0.948285
O O8 0.512016 0.664148 0.252449
O O9 0.217904 0.275612 0.812491
O O10 0.498297 0.808442 0.058510
O O11 0.192260 0.982954 0.681580
O O12 0.708879 0.698339 0.594738
O O13 0.468048 0.624401 0.413814
O O14 0.821382 0.095739 0.710859
O O15 0.156974 0.410929 0.161320
O O16 0.000000 0.500000 0.000000
O O17 0.500000 0.500000 0.000000
#
# Coordination Sequence:
#
# PCOD9020877 Si02
#       8
#     2   2   2   2   2   2   2   2
#     4  10  22  37  61  87 124 158 198 249 301 365
#     4  10  22  41  60  92 124 163 200 248 307 362
#     4  11  21  36  65  90 113 161 202 249 302 360
#     4   9  21  40  57  86 124 155 198 251 302 360
#     4  10  23  40  64  91 121 158 208 250 306 365
#     4  11  26  40  63  93 126 162 205 251 307 367
#     4  10  22  44  63  86 125 163 200 259 302 357
#     4   9  19  41  64  87 122 155 203 251 300 361
#
# _framework density 21.968769000000002
#
# number of rings (size 3 to 8) (size 9 to 14) (size 15 to 20)
#    0.000    2.000    1.250    0.750    5.250    1.500 
#    2.250    6.250    0.000    0.000    0.000    0.000 
#    0.000    0.000    0.000    0.000    0.000    0.000 
#
# Total GULP energy -89305.421625 kJ/mol
# GULP energy per Si atom -5581.588852 kJ/mol
# Density = 2.191877 g / cm^3
# Si number density = 21.968769 Si / 1000 Ang^3
#
#
#
# Elastic Constant Matrix: (Units=GPa)
#
#
# Indices 1 2 3 4 5 6 
#
# 1 84.2214 15.2334 29.3635 -4.4371 -7.1452 -18.1323
# 2 15.2334 59.6273 14.3512 -4.7141 -2.1609 -7.0657
# 3 29.3635 14.3512 62.1654 2.3331 -3.1792 -16.5192
# 4 -4.4371 -4.7141 2.3331 23.4163 -10.0156 -10.2140
# 5 -7.1452 -2.1609 -3.1792 -10.0156 42.5573 -3.1578
# 6 -18.1323 -7.0657 -16.5192 -10.2140 -3.1578 48.6885
#
#
#
# Elastic Compliance Matrix: (Units=1/GPa)
#
#
# Indices 1 2 3 4 5 6 
#
# 1 0.016193 -0.001251 -0.005886 0.007850 0.004493 0.005790
# 2 -0.001251 0.018687 -0.003165 0.005824 0.002061 0.002528
# 3 -0.005886 -0.003165 0.020742 -0.001983 0.000230 0.003985
# 4 0.007850 0.005824 -0.001983 0.060100 0.016856 0.016797
# 5 0.004493 0.002061 0.000230 0.016856 0.028894 0.007460
# 6 0.005790 0.002528 0.003985 0.016797 0.007460 0.028422
#
#
# Mechanical properties :
#
#
# Convention : Reuss Voigt Hill
#
# Bulk Modulus (GPa) = 28.55601 35.99001 32.27301
# Shear Modulus (GPa) = 24.35295 32.73682 28.54488
#
# Velocity S-wave (km/s) = 3.33307 3.86444 3.60855
# Velocity P-wave (km/s) = 5.27628 6.02742 5.66431
#
# Compressibility (1/GPa) = 0.03501890
#
# Stress axis : x y z
#
# Youngs Moduli (GPa) = 61.75400 53.51394 48.21103
#
# Poissons Ratio (x) = 0.06693 0.28378
# Poissons Ratio (y) = 0.07723 0.15257
# Poissons Ratio (z) = 0.36350 0.16935
#
# Static dielectric constant tensor:
#      x y z
#    x 1.804830 0.016290 -0.011150 
#    y 0.016290 1.868660 0.018860 
#    z -0.011150 0.018860 1.769800 
# 
# From -- ./inp_files/37436.got.cif
#   From: 2010.05.17/outbox.cif.g08.bks.cpg/sg2_19_cif.got.tgz:37436.got - 2010.06.03 11:33:40.
