data_PCOD9020268
_publ_section_title
;
Structure prediction by ZEFSAII (Michael W. Deem and Ramdas Pophale) SiO2 
 PCOD9020268
Probable space group: P -1
;
_chemical_formula_sum "Si O2"
_cell_formula_units_Z 16
_cell_length_a 5.167914
_cell_length_b 5.414591
_cell_length_c 23.927006
_cell_angle_alpha 68.172074
_cell_angle_beta 95.628716
_cell_angle_gamma 88.076917
_cell_volume 616.750505
_symmetry_space_group_name_H-M "P -1"
_symmetry_group_IT_number 2
_symmetry_cell_setting 'triclinic'
loop_
_space_group_symop_operation_xyz
x,y,z
-x,-y,-z
loop_
_atom_site_type_symbol
_atom_site_label
_atom_site_fract_x
_atom_site_fract_y
_atom_site_fract_z
Si Si1 0.607504 0.998701 0.064956
Si Si2 0.050157 0.279746 0.195292
Si Si3 0.900923 0.720966 0.934676
Si Si4 0.805293 0.962135 0.364440
Si Si5 0.870592 0.581241 0.628322
Si Si6 0.452830 0.422084 0.806175
Si Si7 0.741084 0.679037 0.496679
Si Si8 0.574784 0.185601 0.719431
O O1 0.557756 0.748260 0.123217
O O2 0.410001 0.226027 0.070168
O O3 0.913833 0.040419 0.067654
O O4 0.500000 0.000000 0.000000
O O5 0.037847 0.327593 0.124593
O O6 0.262522 0.476751 0.203816
O O7 0.172758 0.987616 0.237827
O O8 0.770563 0.345742 0.209941
O O9 0.000000 0.500000 0.000000
O O10 0.721174 0.910647 0.430940
O O11 0.557732 0.977531 0.317795
O O12 0.967584 0.690513 0.368045
O O13 0.968977 0.219891 0.348743
O O14 0.771972 0.742636 0.557169
O O15 0.643810 0.460510 0.669051
O O16 0.401333 0.249106 0.765164
O O17 0.500000 0.500000 0.500000
O O18 0.000000 0.500000 0.500000
#
# Coordination Sequence:
#
# PCOD9020268 Si02
#       8
#     2   2   2   2   2   2   2   2
#     4  12  24  46  75 111 151 197 263 333 406 487
#     4  12  29  50  78 111 158 208 265 336 408 488
#     4  12  24  46  75 111 151 197 263 333 406 487
#     4  11  27  49  81 118 164 216 276 343 416 499
#     4  11  27  49  81 118 164 216 276 343 416 499
#     4  12  29  50  78 111 158 208 265 336 408 488
#     4  10  21  50  80 119 159 209 272 345 413 490
#     4  12  30  49  76 116 166 210 284 324 422 502
#
# _framework density 25.942419000000001
#
# number of rings (size 3 to 8) (size 9 to 14) (size 15 to 20)
#    0.000    0.500    2.500    4.125    7.000    0.000 
#    0.000    2.500    0.000    0.000    0.000    0.875 
#    0.000    0.000    0.000    0.000    0.000    0.000 
#
# Total GULP energy -89773.090978 kJ/mol
# GULP energy per Si atom -5610.818186 kJ/mol
# Density = 2.588337 g / cm^3
# Si number density = 25.942419 Si / 1000 Ang^3
#
#
#
# Elastic Constant Matrix: (Units=GPa)
#
#
# Indices 1 2 3 4 5 6 
#
# 1 89.3414 27.4083 31.3785 9.4404 3.3052 -0.5324
# 2 27.4083 124.1540 49.6124 13.6655 -0.6088 23.0703
# 3 31.3785 49.6124 201.5565 5.6683 1.7805 4.6951
# 4 9.4404 13.6655 5.6683 38.9916 12.4725 -3.4971
# 5 3.3052 -0.6088 1.7805 12.4725 26.5568 -2.5913
# 6 -0.5324 23.0703 4.6951 -3.4971 -2.5913 60.4382
#
#
#
# Elastic Compliance Matrix: (Units=1/GPa)
#
#
# Indices 1 2 3 4 5 6 
#
# 1 0.012571 -0.002200 -0.001381 -0.001801 -0.000586 0.000929
# 2 -0.002200 0.010554 -0.002071 -0.003895 0.002091 -0.004023
# 3 -0.001381 -0.002071 0.005671 0.000397 -0.000409 0.000343
# 4 -0.001801 -0.003895 0.000397 0.032376 -0.014836 0.002677
# 5 -0.000586 0.002091 -0.000409 -0.014836 0.044800 0.000291
# 6 0.000929 -0.004023 0.000343 0.002677 0.000291 0.018230
#
#
# Mechanical properties :
#
#
# Convention : Reuss Voigt Hill
#
# Bulk Modulus (GPa) = 57.17197 70.20560 63.68879
# Shear Modulus (GPa) = 35.37678 45.64084 40.50881
#
# Velocity S-wave (km/s) = 3.69679 4.19897 3.95586
# Velocity P-wave (km/s) = 6.34882 7.11542 6.74303
#
# Compressibility (1/GPa) = 0.01749109
#
# Stress axis : x y z
#
# Youngs Moduli (GPa) = 79.55034 94.74913 176.35080
#
# Poissons Ratio (x) = 0.20849 0.24358
# Poissons Ratio (y) = 0.17504 0.36514
# Poissons Ratio (z) = 0.10988 0.19618
#
# Static dielectric constant tensor:
#      x y z
#    x 2.025340 -0.027100 -0.001620 
#    y -0.027100 2.072900 0.003000 
#    z -0.001620 0.003000 2.031730 
# 
# From -- ./inp_files/603165.got.cif
#   From: 2010.05.17/outbox.cif.g08.bks.cpg/sg2_302_cif.got.tgz:603165.got - 2010.06.03 11:33:40.
