data_PCOD9020791
_publ_section_title
;
Structure prediction by ZEFSAII (Michael W. Deem and Ramdas Pophale) SiO2 
 PCOD9020791
Probable space group: P -1
;
_chemical_formula_sum "Si O2"
_cell_formula_units_Z 8
_cell_length_a 8.351439
_cell_length_b 7.056445
_cell_length_c 5.229960
_cell_angle_alpha 78.736461
_cell_angle_beta 82.903365
_cell_angle_gamma 69.438799
_cell_volume 282.510254
_symmetry_space_group_name_H-M "P -1"
_symmetry_group_IT_number 2
_symmetry_cell_setting 'triclinic'
loop_
_space_group_symop_operation_xyz
x,y,z
-x,-y,-z
loop_
_atom_site_type_symbol
_atom_site_label
_atom_site_fract_x
_atom_site_fract_y
_atom_site_fract_z
Si Si1 0.465981 0.138503 0.724010
Si Si2 0.748537 0.268454 0.873308
Si Si3 0.144519 0.091302 0.669513
Si Si4 0.889237 0.594070 0.751726
O O1 0.595161 0.261684 0.720204
O O2 0.259788 0.218977 0.736083
O O3 0.500000 0.000000 0.500000
O O4 0.500000 0.000000 0.000000
O O5 0.731794 0.507928 0.831230
O O6 0.943147 0.163767 0.755025
O O7 0.767834 0.137859 0.169293
O O8 0.151191 0.163583 0.353162
O O9 0.000000 0.500000 0.500000
O O10 0.000000 0.500000 0.000000
#
# Coordination Sequence:
#
# PCOD9020791 Si02
#       4
#     2   2   2   2
#     4  10  22  37  58  89 115 148 199 235 280 353
#     4   9  20  39  62  86 118 155 190 239 292 338
#     4   9  20  38  62  84 118 155 190 239 292 336
#     4  10  22  37  58  89 115 148 199 235 280 353
#
# _framework density 28.317553
#
# number of rings (size 3 to 8) (size 9 to 14) (size 15 to 20)
#    0.000    2.500    0.000    0.000    0.000   21.000 
#    0.000    0.000    0.000   24.000    0.000    0.000 
#    0.000    0.000    0.000    0.000    0.000    0.000 
#
# Total GULP energy -44613.319829 kJ/mol
# GULP energy per Si atom -5576.664979 kJ/mol
# Density = 2.825310 g / cm^3
# Si number density = 28.317553 Si / 1000 Ang^3
#
#
#
# Elastic Constant Matrix: (Units=GPa)
#
#
# Indices 1 2 3 4 5 6 
#
# 1 213.9625 54.7696 50.5168 8.4488 15.5294 46.1079
# 2 54.7696 109.3757 63.8951 -18.6877 -6.6351 38.7931
# 3 50.5168 63.8951 228.4202 -31.9928 3.9895 16.5244
# 4 8.4488 -18.6877 -31.9928 58.6669 6.7092 -3.9485
# 5 15.5294 -6.6351 3.9895 6.7092 46.8620 -2.7975
# 6 46.1079 38.7931 16.5244 -3.9485 -2.7975 73.5582
#
#
#
# Elastic Compliance Matrix: (Units=1/GPa)
#
#
# Indices 1 2 3 4 5 6 
#
# 1 0.006252 -0.002125 -0.000823 -0.001964 -0.002189 -0.002802
# 2 -0.002125 0.014362 -0.002817 0.002724 0.002266 -0.005377
# 3 -0.000823 -0.002817 0.005648 0.002461 -0.000910 0.000830
# 4 -0.001964 0.002724 0.002461 0.019781 -0.001991 0.000228
# 5 -0.002189 0.002266 -0.000910 -0.001991 0.022816 0.001142
# 6 -0.002802 -0.005377 0.000830 0.000228 0.001142 0.018056
#
#
# Mechanical properties :
#
#
# Convention : Reuss Voigt Hill
#
# Bulk Modulus (GPa) = 67.86556 98.90237 83.38397
# Shear Modulus (GPa) = 48.37652 61.32253 54.84953
#
# Velocity S-wave (km/s) = 4.13771 4.65857 4.40585
# Velocity P-wave (km/s) = 6.84438 7.99615 7.44258
#
# Compressibility (1/GPa) = 0.01473501
#
# Stress axis : x y z
#
# Youngs Moduli (GPa) = 159.94687 69.62675 177.04418
#
# Poissons Ratio (x) = 0.14793 0.14562
# Poissons Ratio (y) = 0.33983 0.49868
# Poissons Ratio (z) = 0.13156 0.19612
#
# Static dielectric constant tensor:
#      x y z
#    x 2.437110 -0.022090 0.079920 
#    y -0.022090 2.484760 0.017320 
#    z 0.079920 0.017320 2.492020 
# 
# From -- ./inp_files/15089.got.cif
#   From: 2010.05.17/outbox.cif.g08.bks.cpg/sg2_8_cif.got.tgz:15089.got - 2010.06.03 11:33:40.
