data_PCOD9020784
_publ_section_title
;
Structure prediction by ZEFSAII (Michael W. Deem and Ramdas Pophale) SiO2 
 PCOD9020784
Probable space group: P -1
;
_chemical_formula_sum "Si O2"
_cell_formula_units_Z 16
_cell_length_a 13.614613
_cell_length_b 24.237570
_cell_length_c 14.466356
_cell_angle_alpha 20.091640
_cell_angle_beta 151.631426
_cell_angle_gamma 151.599379
_cell_volume 736.486195
_symmetry_space_group_name_H-M "P -1"
_symmetry_group_IT_number 2
_symmetry_cell_setting 'triclinic'
loop_
_space_group_symop_operation_xyz
x,y,z
-x,-y,-z
loop_
_atom_site_type_symbol
_atom_site_label
_atom_site_fract_x
_atom_site_fract_y
_atom_site_fract_z
Si Si1 0.082944 0.640415 0.688526
Si Si2 0.076398 0.159940 0.883320
Si Si3 0.558249 0.279290 0.782174
Si Si4 0.432577 0.800230 0.276606
Si Si5 0.665404 0.127078 0.725224
Si Si6 0.534171 0.871870 0.620524
Si Si7 0.798821 0.689567 0.677776
Si Si8 0.197922 0.763178 0.786755
O O1 0.896453 0.676105 0.416774
O O2 0.299881 0.792863 0.597134
O O3 0.068323 0.663878 0.748533
O O4 0.142423 0.471563 0.985834
O O5 0.888285 0.146775 0.824148
O O6 0.289161 0.169824 0.103370
O O7 0.000000 0.000000 0.000000
O O8 0.686974 0.289217 0.775562
O O9 0.370130 0.355417 0.478093
O O10 0.694626 0.337323 0.896268
O O11 0.441072 0.075177 0.023035
O O12 0.313440 0.771978 0.320206
O O13 0.659974 0.756990 0.529689
O O14 0.500000 0.000000 0.000000
O O15 0.510139 0.185259 0.433528
O O16 0.617659 0.074421 0.356970
O O17 0.025429 0.815929 0.625728
#
# Coordination Sequence:
#
# PCOD9020784 Si02
#       8
#     2   2   2   2   2   2   2   2
#     4  11  24  36  56  86 125 150 186 237 289 338
#     4  11  22  35  59  84 114 155 194 233 273 344
#     4   8  19  33  57  84 114 145 188 236 281 339
#     4   8  17  38  59  81 114 152 183 241 284 335
#     4   9  18  37  58  87 111 144 199 236 278 332
#     4  10  22  37  58  87 111 154 196 230 276 343
#     4  10  22  38  56  87 120 150 184 241 291 331
#     4  11  20  36  59  89 114 152 194 229 283 350
#
# _framework density 21.724779000000002
#
# number of rings (size 3 to 8) (size 9 to 14) (size 15 to 20)
#    0.750    1.500    1.250    1.500    3.500    1.500 
#    2.250    4.375    0.000    1.500    0.000    0.000 
#    0.000    0.000    0.000    0.000    0.000    0.000 
#
# Total GULP energy -89088.620422 kJ/mol
# GULP energy per Si atom -5568.038776 kJ/mol
# Density = 2.167533 g / cm^3
# Si number density = 21.724779 Si / 1000 Ang^3
#
#
#
# Elastic Constant Matrix: (Units=GPa)
#
#
# Indices 1 2 3 4 5 6 
#
# 1 102.7777 10.8861 23.5651 -3.7670 -14.0255 -6.8733
# 2 10.8861 46.6605 19.0330 14.3276 -10.0673 -2.0051
# 3 23.5651 19.0330 137.0451 26.1352 -10.9753 -15.8531
# 4 -3.7670 14.3276 26.1352 34.5678 -10.2995 -6.3364
# 5 -14.0255 -10.0673 -10.9753 -10.2995 36.0335 8.6981
# 6 -6.8733 -2.0051 -15.8531 -6.3364 8.6981 27.7368
#
#
#
# Elastic Compliance Matrix: (Units=1/GPa)
#
#
# Indices 1 2 3 4 5 6 
#
# 1 0.011353 -0.002444 -0.002147 0.005395 0.004313 0.001289
# 2 -0.002444 0.026203 -0.001450 -0.009389 0.003950 -0.002924
# 3 -0.002147 -0.001450 0.009423 -0.006415 -0.001079 0.003622
# 4 0.005395 -0.009389 -0.006415 0.041478 0.008457 0.003815
# 5 0.004313 0.003950 -0.001079 0.008457 0.034598 -0.008180
# 6 0.001289 -0.002924 0.003622 0.003815 -0.008180 0.041668
#
#
# Mechanical properties :
#
#
# Convention : Reuss Voigt Hill
#
# Bulk Modulus (GPa) = 28.65503 43.71687 36.18595
# Shear Modulus (GPa) = 26.53404 35.20088 30.86746
#
# Velocity S-wave (km/s) = 3.49860 4.02967 3.77349
# Velocity P-wave (km/s) = 5.43498 6.46667 5.97314
#
# Compressibility (1/GPa) = 0.03489788
#
# Stress axis : x y z
#
# Youngs Moduli (GPa) = 88.07917 38.16403 106.11827
#
# Poissons Ratio (x) = 0.09325 0.22785
# Poissons Ratio (y) = 0.21522 0.15389
# Poissons Ratio (z) = 0.18912 0.05535
#
# Static dielectric constant tensor:
#      x y z
#    x 1.822290 0.008740 -0.039960 
#    y 0.008740 1.872940 0.012610 
#    z -0.039960 0.012610 1.824340 
# 
# From -- ./inp_files/535614.got.cif
#   From: 2010.05.17/outbox.cif.g08.bks.cpg/sg2_268_cif.got.tgz:535614.got - 2010.06.03 11:33:40.
