data_PCOD9020841
_publ_section_title
;
Structure prediction by ZEFSAII (Michael W. Deem and Ramdas Pophale) SiO2 
 PCOD9020841
Probable space group: P -1
;
_chemical_formula_sum "Si O2"
_cell_formula_units_Z 14
_cell_length_a 5.711403
_cell_length_b 21.918056
_cell_length_c 5.213363
_cell_angle_alpha 112.267130
_cell_angle_beta 94.737354
_cell_angle_gamma 107.044955
_cell_volume 563.425507
_symmetry_space_group_name_H-M "P -1"
_symmetry_group_IT_number 2
_symmetry_cell_setting 'triclinic'
loop_
_space_group_symop_operation_xyz
x,y,z
-x,-y,-z
loop_
_atom_site_type_symbol
_atom_site_label
_atom_site_fract_x
_atom_site_fract_y
_atom_site_fract_z
Si Si1 0.117175 0.946619 0.298669
Si Si2 0.876631 0.684826 0.201402
Si Si3 0.994765 0.578300 0.758518
Si Si4 0.396257 0.150428 0.943380
Si Si5 0.499248 0.079754 0.334347
Si Si6 0.471384 0.549914 0.850196
Si Si7 0.133120 0.720898 0.777337
O O1 0.257382 0.923260 0.502913
O O2 0.897118 0.879487 0.062400
O O3 0.305500 0.999105 0.197223
O O4 0.000000 0.000000 0.500000
O O5 0.010661 0.625842 0.091062
O O6 0.978571 0.729773 0.027339
O O7 0.587906 0.633173 0.083309
O O8 0.982259 0.729523 0.530173
O O9 0.178497 0.535171 0.742789
O O10 0.108517 0.639204 0.659305
O O11 0.690675 0.551832 0.667190
O O12 0.411382 0.125817 0.611938
O O13 0.579002 0.230293 0.108116
O O14 0.511996 0.112123 0.106498
O O15 0.500000 0.500000 0.000000
#
# Coordination Sequence:
#
# PCOD9020841 Si02
#       7
#     2   2   2   2   2   2   2
#     4   9  21  39  59  84 120 150 198 255 312 360
#     4   8  20  36  59  80 123 152 201 242 314 343
#     4   8  20  35  59  87 124 159 202 253 314 352
#     4  11  21  38  60  84 121 151 213 236 312 365
#     4  10  22  37  60  88 114 155 197 258 308 361
#     4   9  17  37  63  91 121 161 209 254 309 372
#     4   9  19  41  54  85 115 162 192 255 294 380
#
# _framework density 24.848002999999999
#
# number of rings (size 3 to 8) (size 9 to 14) (size 15 to 20)
#    1.714    0.857    0.000    1.714    0.000    7.429 
#   12.857    3.571    0.000    0.000    0.000    0.000 
#    0.000    0.000    0.000    0.000    0.000    0.000 
#
# Total GULP energy -77986.173878 kJ/mol
# GULP energy per Si atom -5570.440991 kJ/mol
# Density = 2.479145 g / cm^3
# Si number density = 24.848003 Si / 1000 Ang^3
#
#
#
# Elastic Constant Matrix: (Units=GPa)
#
#
# Indices 1 2 3 4 5 6 
#
# 1 87.2741 31.3644 17.2880 24.3803 34.8642 18.1416
# 2 31.3644 71.7058 22.8109 5.9462 13.5002 25.8727
# 3 17.2880 22.8109 72.2782 0.9629 13.9851 19.8761
# 4 24.3803 5.9462 0.9629 29.8542 15.2811 11.6386
# 5 34.8642 13.5002 13.9851 15.2811 34.9043 17.5873
# 6 18.1416 25.8727 19.8761 11.6386 17.5873 29.2985
#
#
#
# Elastic Compliance Matrix: (Units=1/GPa)
#
#
# Indices 1 2 3 4 5 6 
#
# 1 0.024323 -0.009343 -0.001918 -0.011948 -0.020497 0.011541
# 2 -0.009343 0.024517 -0.000829 0.007456 0.008775 -0.023532
# 3 -0.001918 -0.000829 0.018119 0.006808 -0.002029 -0.011859
# 4 -0.011948 0.007456 0.006808 0.052966 -0.006232 -0.021105
# 5 -0.020497 0.008775 -0.002029 -0.006232 0.064282 -0.029792
# 6 0.011541 -0.023532 -0.011859 -0.021105 -0.029792 0.082078
#
#
# Mechanical properties :
#
#
# Convention : Reuss Voigt Hill
#
# Bulk Modulus (GPa) = 23.37616 41.57607 32.47611
# Shear Modulus (GPa) = 16.40834 29.46438 22.93636
#
# Velocity S-wave (km/s) = 2.57251 3.44726 3.04150
# Velocity P-wave (km/s) = 4.27222 5.71080 5.04307
#
# Compressibility (1/GPa) = 0.04277863
#
# Stress axis : x y z
#
# Youngs Moduli (GPa) = 41.11419 40.78879 55.19156
#
# Poissons Ratio (x) = 0.38110 0.10583
# Poissons Ratio (y) = 0.38414 0.04574
# Poissons Ratio (z) = 0.07884 0.03380
#
# Static dielectric constant tensor:
#      x y z
#    x 2.030700 0.035510 -0.034180 
#    y 0.035510 1.963850 0.113680 
#    z -0.034180 0.113680 2.009780 
# 
# From -- ./inp_files/12486.got.cif
#   From: 2010.05.17/outbox.cif.g08.bks.cpg/sg2_7_cif.got.tgz:12486.got - 2010.06.03 11:33:40.
