data_PCOD9020921
_publ_section_title
;
Structure prediction by ZEFSAII (Michael W. Deem and Ramdas Pophale) SiO2 
 PCOD9020921
Probable space group: P -1
;
_chemical_formula_sum "Si O2"
_cell_formula_units_Z 16
_cell_length_a 8.225690
_cell_length_b 9.555016
_cell_length_c 10.634295
_cell_angle_alpha 119.900921
_cell_angle_beta 82.549045
_cell_angle_gamma 119.124025
_cell_volume 625.875507
_symmetry_space_group_name_H-M "P -1"
_symmetry_group_IT_number 2
_symmetry_cell_setting 'triclinic'
loop_
_space_group_symop_operation_xyz
x,y,z
-x,-y,-z
loop_
_atom_site_type_symbol
_atom_site_label
_atom_site_fract_x
_atom_site_fract_y
_atom_site_fract_z
Si Si1 0.547769 0.611382 0.235250
Si Si2 0.623126 0.323737 0.974108
Si Si3 0.305590 0.424215 0.407327
Si Si4 0.372035 0.057647 0.458284
Si Si5 0.272004 0.961504 0.955818
Si Si6 0.055054 0.956022 0.745556
Si Si7 0.113411 0.818923 0.177466
Si Si8 0.726799 0.251785 0.352916
O O1 0.476871 0.667172 0.141535
O O2 0.367480 0.475183 0.279063
O O3 0.652523 0.790240 0.394345
O O4 0.642498 0.489393 0.133051
O O5 0.818180 0.331973 0.920837
O O6 0.473342 0.132027 0.971554
O O7 0.500000 0.500000 0.500000
O O8 0.153968 0.209485 0.338068
O O9 0.206903 0.542445 0.515719
O O10 0.508150 0.150672 0.366238
O O11 0.500000 0.000000 0.500000
O O12 0.191304 0.891851 0.341444
O O13 0.252211 0.774764 0.808768
O O14 0.122943 0.984727 0.895258
O O15 0.216638 0.939620 0.095145
O O16 0.183458 0.866027 0.644798
O O17 0.067676 0.149696 0.793374
#
# Coordination Sequence:
#
# PCOD9020921 Si02
#       8
#     2   2   2   2   2   2   2   2
#     4  10  23  37  61  91 124 158 207 262 326 346
#     4  11  22  39  63  90 123 164 212 263 309 378
#     4  11  22  38  66  94 125 163 214 264 304 381
#     4  11  20  40  63  89 122 163 211 259 303 372
#     4  10  22  37  62  89 124 163 207 261 318 365
#     4  10  22  38  59  95 124 165 208 259 320 367
#     4  12  21  36  64  91 122 163 218 253 305 378
#     4   9  21  36  59  91 127 159 201 256 328 348
#
# _framework density 25.564187
#
# number of rings (size 3 to 8) (size 9 to 14) (size 15 to 20)
#    0.750    0.750    2.500    3.375    1.750    0.000 
#    0.000    0.625    2.750    6.750    0.000    0.000 
#    0.000    0.000    0.000    0.000    0.000    0.000 
#
# Total GULP energy -89247.668987 kJ/mol
# GULP energy per Si atom -5577.979312 kJ/mol
# Density = 2.550600 g / cm^3
# Si number density = 25.564187 Si / 1000 Ang^3
#
#
#
# Elastic Constant Matrix: (Units=GPa)
#
#
# Indices 1 2 3 4 5 6 
#
# 1 129.0302 13.2757 54.7782 16.8664 -19.8199 -33.7873
# 2 13.2757 55.5331 23.6239 7.9943 -10.0402 -8.2710
# 3 54.7782 23.6239 165.9164 19.5925 -40.6038 -15.5854
# 4 16.8664 7.9943 19.5925 47.0133 -22.4348 -4.0118
# 5 -19.8199 -10.0402 -40.6038 -22.4348 57.9906 9.7706
# 6 -33.7873 -8.2710 -15.5854 -4.0118 9.7706 46.8389
#
#
#
# Elastic Compliance Matrix: (Units=1/GPa)
#
#
# Indices 1 2 3 4 5 6 
#
# 1 0.010988 -0.000150 -0.002751 -0.002300 -0.000239 0.006837
# 2 -0.000150 0.019702 -0.002132 -0.001846 0.000758 0.002345
# 3 -0.002751 -0.002132 0.008313 0.000043 0.004621 -0.000555
# 4 -0.002300 -0.001846 0.000043 0.026822 0.009583 -0.001673
# 5 -0.000239 0.000758 0.004621 0.009583 0.024714 -0.002835
# 6 0.006837 0.002345 -0.000555 -0.001673 -0.002835 0.026959
#
#
# Mechanical properties :
#
#
# Convention : Reuss Voigt Hill
#
# Bulk Modulus (GPa) = 34.55837 59.31503 46.93670
# Shear Modulus (GPa) = 36.44059 47.62200 42.03130
#
# Velocity S-wave (km/s) = 3.77962 4.32075 4.05921
# Velocity P-wave (km/s) = 5.70920 6.93863 6.35372
#
# Compressibility (1/GPa) = 0.02893655
#
# Stress axis : x y z
#
# Youngs Moduli (GPa) = 91.01060 50.75579 120.29981
#
# Poissons Ratio (x) = 0.00763 0.33092
# Poissons Ratio (y) = 0.01367 0.25647
# Poissons Ratio (z) = 0.25035 0.10821
#
# Static dielectric constant tensor:
#      x y z
#    x 2.097460 -0.005190 -0.015490 
#    y -0.005190 2.098980 0.030250 
#    z -0.015490 0.030250 1.981630 
# 
# From -- ./inp_files/388422.got.cif
#   From: 2010.05.17/outbox.cif.g08.bks.cpg/sg2_195_cif.got.tgz:388422.got - 2010.06.03 11:33:40.
