data_PCOD9020348
_publ_section_title
;
Structure prediction by ZEFSAII (Michael W. Deem and Ramdas Pophale) SiO2 
 PCOD9020348
Probable space group: P -1
;
_chemical_formula_sum "Si O2"
_cell_formula_units_Z 14
_cell_length_a 14.648569
_cell_length_b 13.625682
_cell_length_c 13.622010
_cell_angle_alpha 45.087181
_cell_angle_beta 29.997732
_cell_angle_gamma 66.640872
_cell_volume 764.951635
_symmetry_space_group_name_H-M "P -1"
_symmetry_group_IT_number 2
_symmetry_cell_setting 'triclinic'
loop_
_space_group_symop_operation_xyz
x,y,z
-x,-y,-z
loop_
_atom_site_type_symbol
_atom_site_label
_atom_site_fract_x
_atom_site_fract_y
_atom_site_fract_z
Si Si1 0.966803 0.535245 0.747257
Si Si2 0.201321 0.173804 0.820255
Si Si3 0.359326 0.818188 0.817682
Si Si4 0.012567 0.665072 0.407331
Si Si5 0.688102 0.373406 0.294934
Si Si6 0.244789 0.213140 0.518456
Si Si7 0.145764 0.434946 0.798964
O O1 0.032352 0.665253 0.505916
O O2 0.173483 0.564464 0.596727
O O3 0.829013 0.340588 0.965714
O O4 0.791375 0.511184 0.010297
O O5 0.435408 0.212471 0.613615
O O6 0.229927 0.220275 0.645237
O O7 0.177502 0.301984 0.815015
O O8 0.972640 0.977981 0.179158
O O9 0.529013 0.772216 0.723252
O O10 0.500000 0.000000 0.500000
O O11 0.225001 0.817190 0.036763
O O12 0.000000 0.500000 0.500000
O O13 0.793421 0.655525 0.587805
O O14 0.702258 0.461898 0.320896
O O15 0.879017 0.339385 0.147103
#
# Coordination Sequence:
#
# PCOD9020348 Si02
#       7
#     2   2   2   2   2   2   2
#     4   9  18  36  51  79 107 136 180 226 261 321
#     4  11  19  32  54  83 108 134 178 229 268 317
#     4  11  20  35  55  80 113 146 176 220 274 327
#     4  10  22  35  51  78 116 147 179 216 271 331
#     4   9  19  34  54  83 101 139 185 230 261 312
#     4  11  22  32  53  84 112 144 175 215 280 331
#     4   9  18  34  56  79 104 138 186 228 269 304
#
# _framework density 18.301812000000002
#
# number of rings (size 3 to 8) (size 9 to 14) (size 15 to 20)
#    0.857    1.143    1.429    4.714    0.000    2.286 
#    2.571    0.714    0.000    1.714    0.000    0.000 
#    0.000    0.000    0.000    0.000    0.000    0.000 
#
# Total GULP energy -77965.634992 kJ/mol
# GULP energy per Si atom -5568.973928 kJ/mol
# Density = 1.826016 g / cm^3
# Si number density = 18.301812 Si / 1000 Ang^3
#
#
#
# Elastic Constant Matrix: (Units=GPa)
#
#
# Indices 1 2 3 4 5 6 
#
# 1 117.8997 28.7923 35.7417 -3.2071 1.1308 13.8070
# 2 28.7923 61.1911 8.7146 8.3685 -7.3558 -5.7272
# 3 35.7417 8.7146 54.0468 4.7088 3.3673 6.0335
# 4 -3.2071 8.3685 4.7088 20.0781 -0.9110 -1.6825
# 5 1.1308 -7.3558 3.3673 -0.9110 20.1052 -3.3297
# 6 13.8070 -5.7272 6.0335 -1.6825 -3.3297 29.9449
#
#
#
# Elastic Compliance Matrix: (Units=1/GPa)
#
#
# Indices 1 2 3 4 5 6 
#
# 1 0.013298 -0.006930 -0.007376 0.006120 -0.002753 -0.005933
# 2 -0.006930 0.022777 0.000249 -0.009551 0.009578 0.008030
# 3 -0.007376 0.000249 0.024525 -0.007431 -0.004334 -0.002392
# 4 0.006120 -0.009551 -0.007431 0.056507 -0.000030 0.000020
# 5 -0.002753 0.009578 -0.004334 -0.000030 0.055808 0.010179
# 6 -0.005933 0.008030 -0.002392 0.000020 0.010179 0.039281
#
#
# Mechanical properties :
#
#
# Convention : Reuss Voigt Hill
#
# Bulk Modulus (GPa) = 30.78263 42.18163 36.48213
# Shear Modulus (GPa) = 19.90949 24.68492 22.29720
#
# Velocity S-wave (km/s) = 3.30182 3.67654 3.49421
# Velocity P-wave (km/s) = 5.60286 6.41252 6.02131
#
# Compressibility (1/GPa) = 0.03248585
#
# Stress axis : x y z
#
# Youngs Moduli (GPa) = 75.20013 43.90477 40.77535
#
# Poissons Ratio (x) = 0.30425 0.30076
# Poissons Ratio (y) = 0.52112 -0.01016
# Poissons Ratio (z) = 0.55467 -0.01094
#
# Static dielectric constant tensor:
#      x y z
#    x 1.656600 -0.015130 0.024360 
#    y -0.015130 1.651400 0.019530 
#    z 0.024360 0.019530 1.663230 
# 
# From -- ./inp_files/533210.got.cif
#   From: 2010.05.17/outbox.cif.g08.bks.cpg/sg2_267_cif.got.tgz:533210.got - 2010.06.03 11:33:40.
