data_PCOD9020362
_publ_section_title
;
Structure prediction by ZEFSAII (Michael W. Deem and Ramdas Pophale) SiO2 
 PCOD9020362
Probable space group: P -1
;
_chemical_formula_sum "Si O2"
_cell_formula_units_Z 16
_cell_length_a 9.805511
_cell_length_b 17.803877
_cell_length_c 11.694993
_cell_angle_alpha 28.781691
_cell_angle_beta 120.926789
_cell_angle_gamma 104.680180
_cell_volume 741.116153
_symmetry_space_group_name_H-M "P -1"
_symmetry_group_IT_number 2
_symmetry_cell_setting 'triclinic'
loop_
_space_group_symop_operation_xyz
x,y,z
-x,-y,-z
loop_
_atom_site_type_symbol
_atom_site_label
_atom_site_fract_x
_atom_site_fract_y
_atom_site_fract_z
Si Si1 0.760854 0.932041 0.030940
Si Si2 0.301540 0.280806 0.895177
Si Si3 0.634198 0.637492 0.786866
Si Si4 0.504514 0.619745 0.988155
Si Si5 0.760682 0.761742 0.488539
Si Si6 0.964295 0.323717 0.833922
Si Si7 0.149221 0.757439 0.331756
Si Si8 0.997883 0.370831 0.032168
O O1 0.659902 0.875336 0.968367
O O2 0.718542 0.894165 0.190617
O O3 0.974507 0.793745 0.281103
O O4 0.771401 0.111980 0.780141
O O5 0.479395 0.270304 0.045747
O O6 0.181271 0.468578 0.527223
O O7 0.162483 0.285503 0.926911
O O8 0.630297 0.463438 0.967275
O O9 0.603189 0.778871 0.484346
O O10 0.834916 0.591016 0.974921
O O11 0.508593 0.701022 0.759132
O O12 0.696426 0.440595 0.318639
O O13 0.921361 0.747191 0.661515
O O14 0.834583 0.562652 0.735724
O O15 0.907751 0.219724 0.856708
O O16 0.963655 0.287098 0.016351
#
# Coordination Sequence:
#
# PCOD9020362 Si02
#       8
#     2   2   2   2   2   2   2   2
#     4  10  17  31  45  72  92 121 149 183 233 272
#     4   9  15  24  48  66  92 115 149 189 222 259
#     4   9  18  28  48  70  91 118 153 187 222 269
#     4  10  17  31  47  73  89 116 154 192 219 262
#     4   9  17  27  47  71  92 119 148 186 229 268
#     4   9  14  26  44  72  88 112 153 190 222 256
#     4   9  20  28  48  70  96 115 148 193 228 261
#     4   9  15  27  47  70  88 116 146 193 221 260
#
# _framework density 21.589058000000001
#
# number of rings (size 3 to 8) (size 9 to 14) (size 15 to 20)
#    0.750    2.000    2.500    1.500    0.000    0.000 
#    0.000    1.875    0.000    3.000    3.250    0.000 
#    0.000    0.000    0.000    0.000    0.000    0.000 
#
# Total GULP energy -89142.152254 kJ/mol
# GULP energy per Si atom -5571.384516 kJ/mol
# Density = 2.153992 g / cm^3
# Si number density = 21.589058 Si / 1000 Ang^3
#
#
#
# Elastic Constant Matrix: (Units=GPa)
#
#
# Indices 1 2 3 4 5 6 
#
# 1 44.5705 15.6121 13.1872 7.2543 -15.6112 -0.3873
# 2 15.6121 140.9550 37.6345 15.8361 -19.0431 1.3617
# 3 13.1872 37.6345 55.3924 12.1298 -18.1909 -7.8422
# 4 7.2543 15.8361 12.1298 27.0912 -3.0479 -8.4276
# 5 -15.6112 -19.0431 -18.1909 -3.0479 24.9711 6.9805
# 6 -0.3873 1.3617 -7.8422 -8.4276 6.9805 29.5960
#
#
#
# Elastic Compliance Matrix: (Units=1/GPa)
#
#
# Indices 1 2 3 4 5 6 
#
# 1 0.030729 0.000340 -0.000022 -0.008233 0.020340 -0.006761
# 2 0.000340 0.009425 -0.004588 -0.004253 0.004644 -0.003951
# 3 -0.000022 -0.004588 0.028231 -0.007625 0.015609 0.001839
# 4 -0.008233 -0.004253 -0.007625 0.048211 -0.012159 0.014664
# 5 0.020340 0.004644 0.015609 -0.012159 0.070645 -0.015936
# 6 -0.006761 -0.003951 0.001839 0.014664 -0.015936 0.042303
#
#
# Mechanical properties :
#
#
# Convention : Reuss Voigt Hill
#
# Bulk Modulus (GPa) = 16.70923 41.53170 29.12047
# Shear Modulus (GPa) = 19.37758 27.96393 23.67075
#
# Velocity S-wave (km/s) = 2.99919 3.60291 3.31482
# Velocity P-wave (km/s) = 4.44410 6.04872 5.30740
#
# Compressibility (1/GPa) = 0.05984717
#
# Stress axis : x y z
#
# Youngs Moduli (GPa) = 32.54270 106.10057 35.42218
#
# Poissons Ratio (x) = -0.03612 0.00077
# Poissons Ratio (y) = -0.01108 0.16250
# Poissons Ratio (z) = 0.00071 0.48674
#
# Static dielectric constant tensor:
#      x y z
#    x 1.810070 -0.007240 0.031620 
#    y -0.007240 1.824920 0.029730 
#    z 0.031620 0.029730 1.796010 
# 
# From -- ./inp_files/257996.got.cif
#   From: 2010.05.17/outbox.cif.g08.bks.cpg/sg2_129_cif.got.tgz:257996.got - 2010.06.03 11:33:40.
