data_PCOD9020307
_publ_section_title
;
Structure prediction by ZEFSAII (Michael W. Deem and Ramdas Pophale) SiO2 
 PCOD9020307
Probable space group: P -1
;
_chemical_formula_sum "Si O2"
_cell_formula_units_Z 16
_cell_length_a 9.737123
_cell_length_b 13.134694
_cell_length_c 9.206057
_cell_angle_alpha 119.876620
_cell_angle_beta 86.092711
_cell_angle_gamma 64.695979
_cell_volume 861.607525
_symmetry_space_group_name_H-M "P -1"
_symmetry_group_IT_number 2
_symmetry_cell_setting 'triclinic'
loop_
_space_group_symop_operation_xyz
x,y,z
-x,-y,-z
loop_
_atom_site_type_symbol
_atom_site_label
_atom_site_fract_x
_atom_site_fract_y
_atom_site_fract_z
Si Si1 0.586863 0.825526 0.772950
Si Si2 0.782416 0.053570 0.199840
Si Si3 0.082621 0.561468 0.136048
Si Si4 0.169882 0.147233 0.702564
Si Si5 0.085175 0.364755 0.490857
Si Si6 0.970430 0.870039 0.787916
Si Si7 0.357397 0.263048 0.955985
Si Si8 0.685161 0.009094 0.720517
O O1 0.721994 0.701665 0.575173
O O2 0.640153 0.771746 0.896539
O O3 0.610986 0.949050 0.801737
O O4 0.403180 0.872204 0.786457
O O5 0.807125 0.983159 0.303729
O O6 0.854423 0.151511 0.256712
O O7 0.896527 0.927652 0.992016
O O8 0.265511 0.428709 0.052215
O O9 0.016149 0.718923 0.198619
O O10 0.991358 0.596007 0.319417
O O11 0.000000 0.500000 0.000000
O O12 0.254986 0.086300 0.496110
O O13 0.264972 0.203290 0.828906
O O14 0.000000 0.500000 0.500000
O O15 0.044049 0.258173 0.345892
O O16 0.844659 0.989552 0.770481
O O17 0.543419 0.167508 0.820987
#
# Coordination Sequence:
#
# PCOD9020307 Si02
#       8
#     2   2   2   2   2   2   2   2
#     4  11  20  34  61  86 112 151 204 246 289 332
#     4  11  23  38  60  87 121 156 193 249 294 351
#     4  10  22  34  53  89 123 149 187 243 303 350
#     4  11  21  35  57  87 123 152 192 247 304 341
#     4  11  21  37  61  87 114 153 199 247 286 348
#     4  10  23  40  58  88 118 155 204 238 294 352
#     4  11  20  33  57  88 117 152 197 250 289 341
#     4  11  20  34  59  89 117 148 202 253 287 343
#
# _framework density 18.569939999999999
#
# number of rings (size 3 to 8) (size 9 to 14) (size 15 to 20)
#    0.000    1.250    6.250    2.250    1.750    0.500 
#    0.000    0.625    0.000    0.750    0.000    0.000 
#    0.000    0.000    0.000    0.000    0.000    0.000 
#
# Total GULP energy -89123.062402 kJ/mol
# GULP energy per Si atom -5570.191400 kJ/mol
# Density = 1.852767 g / cm^3
# Si number density = 18.569940 Si / 1000 Ang^3
#
#
#
# Elastic Constant Matrix: (Units=GPa)
#
#
# Indices 1 2 3 4 5 6 
#
# 1 83.8033 16.1244 20.4514 0.8572 -3.0859 -10.7306
# 2 16.1244 94.5295 30.2704 10.1216 -4.0486 -20.6020
# 3 20.4514 30.2704 69.0589 6.8921 2.7683 -1.9795
# 4 0.8572 10.1216 6.8921 37.2042 -9.2328 -7.2673
# 5 -3.0859 -4.0486 2.7683 -9.2328 9.6204 4.9346
# 6 -10.7306 -20.6020 -1.9795 -7.2673 4.9346 20.7429
#
#
#
# Elastic Compliance Matrix: (Units=1/GPa)
#
#
# Indices 1 2 3 4 5 6 
#
# 1 0.014073 0.000591 -0.004754 0.003161 0.005460 0.007222
# 2 0.000591 0.016049 -0.006836 0.000189 0.001207 0.015372
# 3 -0.004754 -0.006836 0.019814 -0.006104 -0.012632 -0.006492
# 4 0.003161 0.000189 -0.006104 0.038061 0.036335 0.005931
# 5 0.005460 0.001207 -0.012632 0.036335 0.155739 -0.021501
# 6 0.007222 0.015372 -0.006492 0.005931 -0.021501 0.073787
#
#
# Mechanical properties :
#
#
# Convention : Reuss Voigt Hill
#
# Bulk Modulus (GPa) = 35.79429 42.34267 39.06848
# Shear Modulus (GPa) = 14.33352 25.54988 19.94170
#
# Velocity S-wave (km/s) = 2.78126 3.71330 3.28055
# Velocity P-wave (km/s) = 5.44345 6.42153 5.95261
#
# Compressibility (1/GPa) = 0.02793742
#
# Stress axis : x y z
#
# Youngs Moduli (GPa) = 71.05996 62.31033 50.46875
#
# Poissons Ratio (x) = -0.03684 0.23993
# Poissons Ratio (y) = -0.04202 0.34502
# Poissons Ratio (z) = 0.33782 0.42597
#
# Static dielectric constant tensor:
#      x y z
#    x 1.625020 -0.006650 -0.028240 
#    y -0.006650 1.740880 0.011210 
#    z -0.028240 0.011210 1.652470 
# 
# From -- ./inp_files/208709.got.cif
#   From: 2010.05.17/outbox.cif.g08.bks.cpg/sg2_105_cif.got.tgz:208709.got - 2010.06.03 11:33:40.
