data_PCOD9020271
_publ_section_title
;
Structure prediction by ZEFSAII (Michael W. Deem and Ramdas Pophale) SiO2 
 PCOD9020271
Probable space group: P -1
;
_chemical_formula_sum "Si O2"
_cell_formula_units_Z 16
_cell_length_a 5.164506
_cell_length_b 27.516244
_cell_length_c 5.049798
_cell_angle_alpha 51.647201
_cell_angle_beta 83.742608
_cell_angle_gamma 95.787256
_cell_volume 546.185433
_symmetry_space_group_name_H-M "P -1"
_symmetry_group_IT_number 2
_symmetry_cell_setting 'triclinic'
loop_
_space_group_symop_operation_xyz
x,y,z
-x,-y,-z
loop_
_atom_site_type_symbol
_atom_site_label
_atom_site_fract_x
_atom_site_fract_y
_atom_site_fract_z
Si Si1 0.208452 0.774145 0.610996
Si Si2 0.512865 0.574312 0.210269
Si Si3 0.902196 0.425322 0.205360
Si Si4 0.134576 0.327449 0.386557
Si Si5 0.546943 0.328055 0.798982
Si Si6 0.076865 0.148442 0.328007
Si Si7 0.366101 0.117897 0.931437
Si Si8 0.778551 0.013234 0.774973
O O1 0.026237 0.789239 0.815292
O O2 0.331681 0.847114 0.269740
O O3 0.052332 0.731382 0.544493
O O4 0.411249 0.734814 0.840146
O O5 0.500000 0.500000 0.500000
O O6 0.662744 0.651492 0.000601
O O7 0.270282 0.580008 0.025233
O O8 0.798940 0.588747 0.912824
O O9 0.647658 0.411178 0.522602
O O10 0.877109 0.345156 0.557991
O O11 0.000000 0.500000 0.000000
O O12 0.357728 0.315372 0.607348
O O13 0.212564 0.129375 0.643781
O O14 0.858552 0.087423 0.452131
O O15 0.291426 0.157789 0.044035
O O16 0.278296 0.042469 0.251363
O O17 0.500000 0.000000 0.000000
O O18 0.000000 0.000000 0.000000
#
# Coordination Sequence:
#
# PCOD9020271 Si02
#       8
#     2   2   2   2   2   2   2   2
#     4  12  28  51  77 114 164 223 277 341 437 516
#     4  11  24  45  72 105 142 190 263 331 410 502
#     4  11  24  43  73 107 140 197 259 332 420 500
#     4  11  27  47  70 105 149 199 265 338 418 497
#     4  11  27  47  70 105 149 200 263 343 409 506
#     4  11  27  51  82 121 169 224 282 356 422 514
#     4  11  27  51  81 124 167 222 290 349 424 516
#     4  10  21  50  86 128 173 228 293 366 432 515
#
# _framework density 29.294083000000001
#
# number of rings (size 3 to 8) (size 9 to 14) (size 15 to 20)
#    0.000    1.000    2.500    1.875    5.250    7.000 
#    0.000    2.500    0.000    0.000    0.000    0.875 
#    0.000    0.000    0.000    0.000    0.000    0.000 
#
# Total GULP energy -89552.730610 kJ/mol
# GULP energy per Si atom -5597.045663 kJ/mol
# Density = 2.922741 g / cm^3
# Si number density = 29.294083 Si / 1000 Ang^3
#
#
#
# Elastic Constant Matrix: (Units=GPa)
#
#
# Indices 1 2 3 4 5 6 
#
# 1 160.8587 50.8627 43.6448 -6.4223 3.8107 6.0616
# 2 50.8627 264.9507 45.7878 -8.8655 -6.8985 -3.5006
# 3 43.6448 45.7878 140.0449 -5.9386 -1.6821 22.1521
# 4 -6.4223 -8.8655 -5.9386 75.6608 1.2340 3.1800
# 5 3.8107 -6.8985 -1.6821 1.2340 82.2061 -15.8223
# 6 6.0616 -3.5006 22.1521 3.1800 -15.8223 100.3242
#
#
#
# Elastic Compliance Matrix: (Units=1/GPa)
#
#
# Indices 1 2 3 4 5 6 
#
# 1 0.007075 -0.001045 -0.001831 0.000349 -0.000487 -0.000147
# 2 -0.001045 0.004196 -0.001111 0.000286 0.000474 0.000520
# 3 -0.001831 -0.001111 0.008380 0.000452 -0.000195 -0.001823
# 4 0.000349 0.000286 0.000452 0.013345 -0.000295 -0.000580
# 5 -0.000487 0.000474 -0.000195 -0.000295 0.012630 0.002090
# 6 -0.000147 0.000520 -0.001823 -0.000580 0.002090 0.010745
#
#
# Mechanical properties :
#
#
# Convention : Reuss Voigt Hill
#
# Bulk Modulus (GPa) = 85.63713 94.04943 89.84328
# Shear Modulus (GPa) = 73.27655 80.00883 76.64269
#
# Velocity S-wave (km/s) = 5.00684 5.23179 5.12055
# Velocity P-wave (km/s) = 7.91970 8.28676 8.10531
#
# Compressibility (1/GPa) = 0.01167718
#
# Stress axis : x y z
#
# Youngs Moduli (GPa) = 141.34760 238.34744 119.33764
#
# Poissons Ratio (x) = 0.24899 0.21851
# Poissons Ratio (y) = 0.14766 0.13254
# Poissons Ratio (z) = 0.25881 0.26472
#
# Static dielectric constant tensor:
#      x y z
#    x 2.399480 -0.290930 -0.202770 
#    y -0.290930 2.397510 0.043420 
#    z -0.202770 0.043420 2.294700 
# 
# From -- ./inp_files/14309.got.cif
#   From: 2010.05.17/outbox.cif.g08.bks.cpg/sg2_8_cif.got.tgz:14309.got - 2010.06.03 11:33:40.
