data_PCOD9020739
_publ_section_title
;
Structure prediction by ZEFSAII (Michael W. Deem and Ramdas Pophale) SiO2 
 PCOD9020739
Probable space group: P -1
;
_chemical_formula_sum "Si O2"
_cell_formula_units_Z 14
_cell_length_a 20.303778
_cell_length_b 9.498741
_cell_length_c 9.498421
_cell_angle_alpha 117.641138
_cell_angle_beta 142.171456
_cell_angle_gamma 33.460103
_cell_volume 506.048147
_symmetry_space_group_name_H-M "P -1"
_symmetry_group_IT_number 2
_symmetry_cell_setting 'triclinic'
loop_
_space_group_symop_operation_xyz
x,y,z
-x,-y,-z
loop_
_atom_site_type_symbol
_atom_site_label
_atom_site_fract_x
_atom_site_fract_y
_atom_site_fract_z
Si Si1 0.324248 0.316366 0.051600
Si Si2 0.795593 0.801872 0.586039
Si Si3 0.617538 0.100591 0.022211
Si Si4 0.077655 0.028383 0.263217
Si Si5 0.929114 0.782026 0.081406
Si Si6 0.666482 0.582847 0.560805
Si Si7 0.768228 0.223691 0.202519
O O1 0.341177 0.340908 0.259189
O O2 0.558642 0.051594 0.267970
O O3 0.274381 0.196017 0.875383
O O4 0.122971 0.680668 0.840872
O O5 0.859251 0.879908 0.647644
O O6 0.974393 0.436973 0.723754
O O7 0.806516 0.833967 0.785356
O O8 0.535896 0.140253 0.750581
O O9 0.407775 0.419911 0.901833
O O10 0.733231 0.119734 0.202465
O O11 0.283049 0.668808 0.486290
O O12 0.000000 0.000000 0.000000
O O13 0.135341 0.587813 0.261422
O O14 0.774877 0.120950 0.019455
O O15 0.000000 0.000000 0.500000
#
# Coordination Sequence:
#
# PCOD9020739 Si02
#       7
#     2   2   2   2   2   2   2
#     4  11  21  37  62  87 121 152 195 241 288 353
#     4  11  21  36  60  91 120 155 193 237 296 348
#     4  11  23  38  62  90 112 157 202 242 286 341
#     4  10  22  37  53  88 130 154 181 237 304 347
#     4  11  21  36  62  91 117 153 198 243 288 343
#     4  11  21  39  59  92 123 150 190 243 299 344
#     4  11  22  38  58  88 121 149 197 252 287 335
#
# _framework density 27.665351000000001
#
# number of rings (size 3 to 8) (size 9 to 14) (size 15 to 20)
#    0.000    1.143    5.714    2.143    2.000    2.286 
#    2.571    0.000    0.000    8.571    0.000    0.000 
#    0.000    0.000    0.000    0.000    0.000    0.000 
#
# Total GULP energy -78396.312600 kJ/mol
# GULP energy per Si atom -5599.736614 kJ/mol
# Density = 2.760238 g / cm^3
# Si number density = 27.665351 Si / 1000 Ang^3
#
#
#
# Elastic Constant Matrix: (Units=GPa)
#
#
# Indices 1 2 3 4 5 6 
#
# 1 78.7051 45.1825 21.4515 -0.4464 15.7020 15.4671
# 2 45.1825 214.6316 30.1197 -12.8788 11.2246 11.8913
# 3 21.4515 30.1197 116.4304 -6.2128 27.9903 5.5504
# 4 -0.4464 -12.8788 -6.2128 44.0750 -0.4699 -5.8436
# 5 15.7020 11.2246 27.9903 -0.4699 46.4051 10.1030
# 6 15.4671 11.8913 5.5504 -5.8436 10.1030 55.0987
#
#
#
# Elastic Compliance Matrix: (Units=1/GPa)
#
#
# Indices 1 2 3 4 5 6 
#
# 1 0.016024 -0.002916 -0.001343 -0.001349 -0.003204 -0.003289
# 2 -0.002916 0.005475 -0.000849 0.001431 0.000225 -0.000167
# 3 -0.001343 -0.000849 0.010484 0.001247 -0.005804 0.000701
# 4 -0.001349 0.001431 0.001247 0.023607 -0.000975 0.002627
# 5 -0.003204 0.000225 -0.005804 -0.000975 0.026852 -0.003591
# 6 -0.003289 -0.000167 0.000701 0.002627 -0.003591 0.019975
#
#
# Mechanical properties :
#
#
# Convention : Reuss Voigt Hill
#
# Bulk Modulus (GPa) = 45.93928 67.03050 56.48489
# Shear Modulus (GPa) = 41.70539 49.98332 45.84436
#
# Velocity S-wave (km/s) = 3.88686 4.25515 4.07517
# Velocity P-wave (km/s) = 6.06506 6.95869 6.52719
#
# Compressibility (1/GPa) = 0.02176786
#
# Stress axis : x y z
#
# Youngs Moduli (GPa) = 62.40823 182.63279 95.38037
#
# Poissons Ratio (x) = 0.53253 0.12808
# Poissons Ratio (y) = 0.18197 0.08098
# Poissons Ratio (z) = 0.08380 0.15506
#
# Static dielectric constant tensor:
#      x y z
#    x 2.307410 0.069500 -0.025130 
#    y 0.069500 2.203510 -0.002300 
#    z -0.025130 -0.002300 2.204460 
# 
# From -- ./inp_files/454170.got.cif
#   From: 2010.05.17/outbox.cif.g08.bks.cpg/sg2_228_cif.got.tgz:454170.got - 2010.06.03 11:33:40.
