data_PCOD9020670
_publ_section_title
;
Structure prediction by ZEFSAII (Michael W. Deem and Ramdas Pophale) SiO2 
 PCOD9020670
Probable space group: P -1
;
_chemical_formula_sum "Si O2"
_cell_formula_units_Z 16
_cell_length_a 18.764165
_cell_length_b 8.939391
_cell_length_c 7.873777
_cell_angle_alpha 79.561462
_cell_angle_beta 34.779686
_cell_angle_gamma 79.177067
_cell_volume 739.127049
_symmetry_space_group_name_H-M "P -1"
_symmetry_group_IT_number 2
_symmetry_cell_setting 'triclinic'
loop_
_space_group_symop_operation_xyz
x,y,z
-x,-y,-z
loop_
_atom_site_type_symbol
_atom_site_label
_atom_site_fract_x
_atom_site_fract_y
_atom_site_fract_z
Si Si1 0.085443 0.705102 0.339289
Si Si2 0.423214 0.400779 0.797158
Si Si3 0.867902 0.600630 0.241255
Si Si4 0.634489 0.420654 0.801911
Si Si5 0.984953 0.155117 0.221858
Si Si6 0.839247 0.646759 0.673127
Si Si7 0.849410 0.137104 0.133959
Si Si8 0.419736 0.859890 0.236817
O O1 0.111352 0.530647 0.377751
O O2 0.100352 0.807998 0.454779
O O3 0.942150 0.732430 0.553135
O O4 0.163279 0.732731 0.011221
O O5 0.500000 0.500000 0.500000
O O6 0.505765 0.265061 0.759704
O O7 0.360287 0.527058 0.025359
O O8 0.299082 0.329351 0.984773
O O9 0.749840 0.498158 0.467547
O O10 0.842403 0.681112 0.458260
O O11 0.901540 0.731931 0.020172
O O12 0.000000 0.500000 0.000000
O O13 0.622371 0.245504 0.815927
O O14 0.500000 0.500000 0.000000
O O15 0.906717 0.181499 0.194367
O O16 0.052007 0.988988 0.111128
O O17 0.712517 0.078732 0.438802
O O18 0.500000 0.000000 0.000000
#
# Coordination Sequence:
#
# PCOD9020670 Si02
#       8
#     2   2   2   2   2   2   2   2
#     4  11  22  40  63 101 127 165 216 274 331 395
#     4  10  22  43  67  95 131 175 220 277 327 390
#     4  11  19  37  64  95 124 166 219 270 328 383
#     4   9  22  38  66  92 125 171 223 263 322 404
#     4  11  24  39  67  94 133 174 210 270 337 402
#     4  10  22  36  65  95 129 162 220 273 330 393
#     4  11  25  42  64  92 137 174 215 267 341 395
#     4  11  25  44  66  95 132 175 225 272 331 400
#
# _framework density 21.647158000000001
#
# number of rings (size 3 to 8) (size 9 to 14) (size 15 to 20)
#    0.000    1.500    2.500    1.875    7.000    2.000 
#    0.000    0.625    0.000    0.000    0.000    0.000 
#    0.000    0.000    0.000    0.000    0.000    0.000 
#
# Total GULP energy -89254.693182 kJ/mol
# GULP energy per Si atom -5578.418324 kJ/mol
# Density = 2.159789 g / cm^3
# Si number density = 21.647158 Si / 1000 Ang^3
#
#
#
# Elastic Constant Matrix: (Units=GPa)
#
#
# Indices 1 2 3 4 5 6 
#
# 1 68.1510 26.5742 44.7903 -11.4357 -1.4081 8.4449
# 2 26.5742 80.4679 26.5132 -7.0992 -3.0880 0.8554
# 3 44.7903 26.5132 141.6552 -24.8938 -18.6946 -2.7182
# 4 -11.4357 -7.0992 -24.8938 39.1595 4.8271 -0.8104
# 5 -1.4081 -3.0880 -18.6946 4.8271 36.4505 -3.0240
# 6 8.4449 0.8554 -2.7182 -0.8104 -3.0240 21.4023
#
#
#
# Elastic Compliance Matrix: (Units=1/GPa)
#
#
# Indices 1 2 3 4 5 6 
#
# 1 0.022420 -0.005143 -0.006536 0.001744 -0.003980 -0.009968
# 2 -0.005143 0.014470 -0.000881 0.000514 0.000627 0.001447
# 3 -0.006536 -0.000881 0.010802 0.004277 0.005050 0.004862
# 4 0.001744 0.000514 0.004277 0.029056 -0.001483 0.000725
# 5 -0.003980 0.000627 0.005050 -0.001483 0.030657 0.006462
# 6 -0.009968 0.001447 0.004862 0.000725 0.006462 0.052157
#
#
# Mechanical properties :
#
#
# Convention : Reuss Voigt Hill
#
# Bulk Modulus (GPa) = 44.30505 54.00327 49.15416
# Shear Modulus (GPa) = 26.01349 32.22889 29.12119
#
# Velocity S-wave (km/s) = 3.47032 3.86272 3.67177
# Velocity P-wave (km/s) = 6.04722 6.70040 6.38217
#
# Compressibility (1/GPa) = 0.02257079
#
# Stress axis : x y z
#
# Youngs Moduli (GPa) = 44.60239 69.10721 92.57163
#
# Poissons Ratio (x) = 0.35545 0.60509
# Poissons Ratio (y) = 0.22941 0.08158
# Poissons Ratio (z) = 0.29154 0.06090
#
# Static dielectric constant tensor:
#      x y z
#    x 1.946010 0.031900 -0.038740 
#    y 0.031900 1.824470 -0.014280 
#    z -0.038740 -0.014280 1.823860 
# 
# From -- ./inp_files/342660.got.cif
#   From: 2010.05.17/outbox.cif.g08.bks.cpg/sg2_172_cif.got.tgz:342660.got - 2010.06.03 11:33:40.
