data_PCOD9020923
_publ_section_title
;
Structure prediction by ZEFSAII (Michael W. Deem and Ramdas Pophale) SiO2 
 PCOD9020923
Probable space group: P -1
;
_chemical_formula_sum "Si O2"
_cell_formula_units_Z 16
_cell_length_a 13.206776
_cell_length_b 7.521050
_cell_length_c 16.378615
_cell_angle_alpha 128.287294
_cell_angle_beta 35.131646
_cell_angle_gamma 107.223012
_cell_volume 650.033093
_symmetry_space_group_name_H-M "P -1"
_symmetry_group_IT_number 2
_symmetry_cell_setting 'triclinic'
loop_
_space_group_symop_operation_xyz
x,y,z
-x,-y,-z
loop_
_atom_site_type_symbol
_atom_site_label
_atom_site_fract_x
_atom_site_fract_y
_atom_site_fract_z
Si Si1 0.266562 0.233270 0.367576
Si Si2 0.011007 0.188107 0.128284
Si Si3 0.306329 0.596452 0.714592
Si Si4 0.183326 0.881619 0.197001
Si Si5 0.568437 0.524440 0.871694
Si Si6 0.144955 0.293947 0.222948
Si Si7 0.233143 0.009068 0.483276
Si Si8 0.639949 0.313120 0.534807
O O1 0.267032 0.009518 0.246188
O O2 0.359182 0.430523 0.353670
O O3 0.036746 0.433823 0.564924
O O4 0.325404 0.128337 0.391545
O O5 0.150976 0.254519 0.112032
O O6 0.876844 0.413186 0.216195
O O7 0.827951 0.205228 0.313947
O O8 0.171225 0.904338 0.909860
O O9 0.500000 0.500000 0.500000
O O10 0.422466 0.424981 0.667092
O O11 0.108954 0.078386 0.228177
O O12 0.003378 0.828915 0.322547
O O13 0.373787 0.623981 0.974189
O O14 0.664265 0.712746 0.864527
O O15 0.731178 0.254393 0.657914
O O16 0.500000 0.500000 0.000000
O O17 0.317147 0.909991 0.490254
#
# Coordination Sequence:
#
# PCOD9020923 Si02
#       8
#     2   2   2   2   2   2   2   2
#     4  11  21  38  59  85 126 166 202 246 294 348
#     4   9  19  37  60  90 116 148 201 250 304 362
#     4   9  19  37  63  90 118 148 190 255 311 363
#     4  12  22  39  57  82 125 165 206 249 287 348
#     4  12  25  37  53  88 125 169 208 245 296 348
#     4  11  22  38  61  88 117 165 209 246 299 358
#     4  12  23  40  59  87 128 168 203 251 294 350
#     4  10  22  37  62  91 116 158 204 245 304 358
#
# _framework density 24.614131
#
# number of rings (size 3 to 8) (size 9 to 14) (size 15 to 20)
#    0.000    1.250    5.000    2.625    3.500    0.000 
#    0.000    0.000    0.000   12.000    0.000   24.500 
#    0.000    0.000    0.000    0.000    0.000    0.000 
#
# Total GULP energy -89113.214947 kJ/mol
# GULP energy per Si atom -5569.575934 kJ/mol
# Density = 2.455811 g / cm^3
# Si number density = 24.614131 Si / 1000 Ang^3
#
#
#
# Elastic Constant Matrix: (Units=GPa)
#
#
# Indices 1 2 3 4 5 6 
#
# 1 60.5455 7.9241 48.0430 9.5175 -3.8560 -24.2199
# 2 7.9241 94.9463 12.5911 8.2961 -13.1952 -34.2797
# 3 48.0430 12.5911 97.6958 4.4051 -33.9940 -9.6446
# 4 9.5175 8.2961 4.4051 21.0728 -9.5223 -4.2947
# 5 -3.8560 -13.1952 -33.9940 -9.5223 20.6402 16.3797
# 6 -24.2199 -34.2797 -9.6446 -4.2947 16.3797 35.4608
#
#
#
# Elastic Compliance Matrix: (Units=1/GPa)
#
#
# Indices 1 2 3 4 5 6 
#
# 1 -0.002725 -0.004466 0.014822 0.015996 0.045140 -0.021060
# 2 -0.004466 0.013779 0.006424 0.003630 0.016331 0.004913
# 3 0.014822 0.006424 -0.005222 -0.016580 -0.030967 0.027209
# 4 0.015996 0.003630 -0.016580 0.035652 -0.026605 0.026532
# 5 0.045140 0.016331 -0.030967 -0.026605 -0.037428 0.052262
# 6 -0.021060 0.004913 0.027209 0.026532 0.052262 0.005039
#
#
# Mechanical properties :
#
#
# Convention : Reuss Voigt Hill
#
# Bulk Modulus (GPa) = 25.38565 43.36713 34.37639
# Shear Modulus (GPa) = -441.14570 27.74339 -206.70115
#
# Velocity S-wave (km/s) = -13.40200 3.36092 -9.17382
# Velocity P-wave (km/s) = 15.13767 5.71997 9.91037
#
# Compressibility (1/GPa) = 0.03939234
#
# Stress axis : x y z
#
# Youngs Moduli (GPa) = -367.03571 72.57180 -191.47975
#
# Poissons Ratio (x) = 0.32412 2.83808
# Poissons Ratio (y) = -1.63926 1.23013
# Poissons Ratio (z) = 5.44014 -0.46622
#
# Static dielectric constant tensor:
#      x y z
#    x 2.143730 0.036120 -0.018650 
#    y 0.036120 2.075020 -0.124360 
#    z -0.018650 -0.124360 2.214310 
# 
# From -- ./inp_files/267539.got.cif
#   From: 2010.05.17/outbox.cif.g08.bks.cpg/sg2_134_cif.got.tgz:267539.got - 2010.06.03 11:33:40.
