data_PCOD9020516
_publ_section_title
;
Structure prediction by ZEFSAII (Michael W. Deem and Ramdas Pophale) SiO2 
 PCOD9020516
Probable space group: P -1
;
_chemical_formula_sum "Si O2"
_cell_formula_units_Z 14
_cell_length_a 7.382750
_cell_length_b 20.725658
_cell_length_c 17.403682
_cell_angle_alpha 24.099235
_cell_angle_beta 35.270800
_cell_angle_gamma 35.221765
_cell_volume 598.180080
_symmetry_space_group_name_H-M "P -1"
_symmetry_group_IT_number 2
_symmetry_cell_setting 'triclinic'
loop_
_space_group_symop_operation_xyz
x,y,z
-x,-y,-z
loop_
_atom_site_type_symbol
_atom_site_label
_atom_site_fract_x
_atom_site_fract_y
_atom_site_fract_z
Si Si1 0.795266 0.843067 0.047835
Si Si2 0.805974 0.830531 0.305313
Si Si3 0.313371 0.815144 0.009563
Si Si4 0.101838 0.378387 0.232273
Si Si5 0.661306 0.337809 0.570228
Si Si6 0.222298 0.659146 0.982880
Si Si7 0.468921 0.540806 0.751775
O O1 0.669703 0.708621 0.282431
O O2 0.131917 0.862076 0.939830
O O3 0.877884 0.780822 0.000392
O O4 0.500000 0.000000 0.000000
O O5 0.631362 0.686264 0.519818
O O6 0.028000 0.825828 0.158741
O O7 0.076805 0.782318 0.332324
O O8 0.573960 0.021985 0.187990
O O9 0.479586 0.617740 0.151967
O O10 0.146192 0.553516 0.054395
O O11 0.868328 0.342391 0.417857
O O12 0.923092 0.376790 0.214813
O O13 0.483472 0.266932 0.220609
O O14 0.500000 0.500000 0.500000
O O15 0.374356 0.537192 0.136115
#
# Coordination Sequence:
#
# PCOD9020516 Si02
#       7
#     2   2   2   2   2   2   2
#     4  11  21  38  62  90 127 164 206 263 323 367
#     4  11  21  36  57  93 131 160 210 267 312 375
#     4  10  22  36  58  93 130 161 211 262 318 377
#     4  11  22  40  66  92 127 168 214 259 323 373
#     4  12  20  36  62  93 122 163 213 260 310 377
#     4  10  23  40  62  97 124 166 216 260 312 389
#     4  11  21  40  65  89 124 170 211 259 316 379
#
# _framework density 23.404325
#
# number of rings (size 3 to 8) (size 9 to 14) (size 15 to 20)
#    0.000    1.143    4.286    3.429    0.000    0.000 
#    0.000    0.714    0.000    9.429    0.000    0.000 
#    0.000    0.000    0.000    0.000    0.000    0.000 
#
# Total GULP energy -77935.948961 kJ/mol
# GULP energy per Si atom -5566.853497 kJ/mol
# Density = 2.335106 g / cm^3
# Si number density = 23.404325 Si / 1000 Ang^3
#
#
#
# Elastic Constant Matrix: (Units=GPa)
#
#
# Indices 1 2 3 4 5 6 
#
# 1 87.7727 0.4621 24.5680 -7.2599 -8.1379 -8.0085
# 2 0.4621 91.0548 50.9922 7.5750 -10.8692 5.3212
# 3 24.5680 50.9922 91.4797 -13.2370 -19.2239 15.0519
# 4 -7.2599 7.5750 -13.2370 37.6038 2.5849 2.2655
# 5 -8.1379 -10.8692 -19.2239 2.5849 24.9328 12.2890
# 6 -8.0085 5.3212 15.0519 2.2655 12.2890 26.2006
#
#
#
# Elastic Compliance Matrix: (Units=1/GPa)
#
#
# Indices 1 2 3 4 5 6 
#
# 1 0.014623 0.004197 -0.010415 -0.001959 -0.007857 0.013455
# 2 0.004197 0.019610 -0.016950 -0.009260 -0.007874 0.011532
# 3 -0.010415 -0.016950 0.041463 0.015825 0.041397 -0.044346
# 4 -0.001959 -0.009260 0.015825 0.033807 0.012110 -0.016413
# 5 -0.007857 -0.007874 0.041397 0.012110 0.100682 -0.072855
# 6 0.013455 0.011532 -0.044346 -0.016413 -0.072855 0.101004
#
#
# Mechanical properties :
#
#
# Convention : Reuss Voigt Hill
#
# Bulk Modulus (GPa) = 34.06052 46.92799 40.49426
# Shear Modulus (GPa) = 13.61235 30.69977 22.15606
#
# Velocity S-wave (km/s) = 2.41429 3.62569 3.08013
# Velocity P-wave (km/s) = 4.72826 6.13368 5.47624
#
# Compressibility (1/GPa) = 0.02935950
#
# Stress axis : x y z
#
# Youngs Moduli (GPa) = 68.38320 50.99428 24.11808
#
# Poissons Ratio (x) = -0.21404 0.25120
# Poissons Ratio (y) = -0.28703 0.40881
# Poissons Ratio (z) = 0.71224 0.86437
#
# Static dielectric constant tensor:
#      x y z
#    x 1.909670 -0.112320 0.104630 
#    y -0.112320 1.930360 0.042500 
#    z 0.104630 0.042500 1.831800 
# 
# From -- ./inp_files/342837.got.cif
#   From: 2010.05.17/outbox.cif.g08.bks.cpg/sg2_172_cif.got.tgz:342837.got - 2010.06.03 11:33:40.
