data_PCOD9020265
_publ_section_title
;
Structure prediction by ZEFSAII (Michael W. Deem and Ramdas Pophale) SiO2 
 PCOD9020265
Probable space group: P -1
;
_chemical_formula_sum "Si O2"
_cell_formula_units_Z 15
_cell_length_a 9.396594
_cell_length_b 9.097922
_cell_length_c 9.540701
_cell_angle_alpha 97.084625
_cell_angle_beta 53.499881
_cell_angle_gamma 96.538915
_cell_volume 649.802868
_symmetry_space_group_name_H-M "P -1"
_symmetry_group_IT_number 2
_symmetry_cell_setting 'triclinic'
loop_
_space_group_symop_operation_xyz
x,y,z
-x,-y,-z
loop_
_atom_site_type_symbol
_atom_site_label
_atom_site_fract_x
_atom_site_fract_y
_atom_site_fract_z
Si Si1 0.000000 0.000000 0.500000
Si Si2 0.750545 0.704523 0.515963
Si Si3 0.287370 0.222614 0.969472
Si Si4 0.298183 0.770181 0.344279
Si Si5 0.070700 0.358676 0.861554
Si Si6 0.420746 0.840973 0.579242
Si Si7 0.151821 0.919862 0.986856
Si Si8 0.686391 0.533110 0.812871
O O1 0.823534 0.096144 0.599589
O O2 0.121309 0.156003 0.494262
O O3 0.848407 0.605493 0.332653
O O4 0.583901 0.758235 0.533685
O O5 0.671317 0.614917 0.683938
O O6 0.497983 0.212733 0.826948
O O7 0.208863 0.275367 0.872590
O O8 0.225824 0.060950 0.047320
O O9 0.219094 0.346505 0.127692
O O10 0.319982 0.761628 0.498930
O O11 0.227340 0.619226 0.293299
O O12 0.000000 0.500000 0.000000
O O13 0.920278 0.226764 0.911723
O O14 0.290030 0.871177 0.786028
O O15 0.500000 0.000000 0.500000
O O16 0.000000 0.000000 0.000000
O O17 0.500000 0.500000 0.000000
#
# Coordination Sequence:
#
# PCOD9020265 Si02
#       8
#     1   2   2   2   2   2   2   2
#     4  12  28  42  76 116 150 198 256 316 382 458
#     4  12  27  49  76 113 151 204 259 312 390 462
#     4  10  21  49  73 102 152 199 248 308 385 454
#     4  11  24  47  74 108 152 197 256 309 383 450
#     4  11  26  44  72 114 151 194 256 316 377 457
#     4  12  21  46  79 109 146 199 259 319 371 466
#     4  10  22  39  69 104 143 191 244 307 374 437
#     4  10  27  49  74 108 152 201 249 320 385 456
#
# _framework density 23.083926000000002
#
# number of rings (size 3 to 8) (size 9 to 14) (size 15 to 20)
#    0.000    1.067    4.000    0.800    5.600    4.267 
#    2.400    3.333    0.000    0.000    0.000    0.000 
#    0.000    0.000    0.000    0.000    0.000    0.000 
#
# Total GULP energy -83570.759725 kJ/mol
# GULP energy per Si atom -5571.383982 kJ/mol
# Density = 2.303139 g / cm^3
# Si number density = 23.083926 Si / 1000 Ang^3
#
#
#
# Elastic Constant Matrix: (Units=GPa)
#
#
# Indices 1 2 3 4 5 6 
#
# 1 84.6040 40.6646 35.9982 13.8249 -7.6369 -15.6241
# 2 40.6646 143.9411 60.0471 19.8409 2.6471 3.5984
# 3 35.9982 60.0471 122.5191 -0.6182 16.7231 -0.2251
# 4 13.8249 19.8409 -0.6182 36.6695 -2.2962 6.5131
# 5 -7.6369 2.6471 16.7231 -2.2962 29.8956 9.6511
# 6 -15.6241 3.5984 -0.2251 6.5131 9.6511 31.2200
#
#
#
# Elastic Compliance Matrix: (Units=1/GPa)
#
#
# Indices 1 2 3 4 5 6 
#
# 1 0.018348 -0.002570 -0.004673 -0.007095 0.003840 0.009738
# 2 -0.002570 0.010102 -0.004389 -0.004139 0.001231 -0.001999
# 3 -0.004673 -0.004389 0.012737 0.003917 -0.007557 -0.000222
# 4 -0.007095 -0.004139 0.003917 0.034365 0.002555 -0.011004
# 5 0.003840 0.001231 -0.007557 0.002555 0.042613 -0.011981
# 6 0.009738 -0.001999 -0.000222 -0.011004 -0.011981 0.043132
#
#
# Mechanical properties :
#
#
# Convention : Reuss Voigt Hill
#
# Bulk Modulus (GPa) = 55.79511 69.38712 62.59111
# Shear Modulus (GPa) = 26.24191 33.84730 30.04460
#
# Velocity S-wave (km/s) = 3.37531 3.83335 3.61160
# Velocity P-wave (km/s) = 6.27800 7.05100 6.67570
#
# Compressibility (1/GPa) = 0.01792272
#
# Stress axis : x y z
#
# Youngs Moduli (GPa) = 54.50263 98.99160 78.51234
#
# Poissons Ratio (x) = 0.25440 0.36692
# Poissons Ratio (y) = 0.14007 0.34455
# Poissons Ratio (z) = 0.25471 0.43443
#
# Static dielectric constant tensor:
#      x y z
#    x 1.924890 0.084210 0.031690 
#    y 0.084210 1.875720 -0.024880 
#    z 0.031690 -0.024880 1.880340 
# 
# From -- ./inp_files/158418.got.cif
#   From: 2010.05.17/outbox.cif.g08.bks.cpg/sg2_80_cif.got.tgz:158418.got - 2010.06.03 11:33:40.
