data_PCOD9020150
_publ_section_title
;
Structure prediction by ZEFSAII (Michael W. Deem and Ramdas Pophale) SiO2 
 PCOD9020150
Probable space group: P -1
;
_chemical_formula_sum "Si O2"
_cell_formula_units_Z 14
_cell_length_a 4.660929
_cell_length_b 8.870546
_cell_length_c 14.083966
_cell_angle_alpha 61.658525
_cell_angle_beta 109.372953
_cell_angle_gamma 88.788809
_cell_volume 472.165726
_symmetry_space_group_name_H-M "P -1"
_symmetry_group_IT_number 2
_symmetry_cell_setting 'triclinic'
loop_
_space_group_symop_operation_xyz
x,y,z
-x,-y,-z
loop_
_atom_site_type_symbol
_atom_site_label
_atom_site_fract_x
_atom_site_fract_y
_atom_site_fract_z
Si Si1 0.882658 0.857332 0.788111
Si Si2 0.664203 0.578540 0.654864
Si Si3 0.857898 0.091973 0.552739
Si Si4 0.871518 0.889610 0.150041
Si Si5 0.682777 0.767157 0.986402
Si Si6 0.757448 0.666439 0.375418
Si Si7 0.685960 0.418920 0.199945
O O1 0.197053 0.744029 0.808924
O O2 0.739981 0.948694 0.648057
O O3 0.801022 0.741063 0.900013
O O4 0.857588 0.036229 0.793344
O O5 0.432176 0.746019 0.536978
O O6 0.556809 0.413236 0.642989
O O7 0.593570 0.583882 0.758575
O O8 0.022635 0.589909 0.691802
O O9 0.136230 0.171355 0.607292
O O10 0.000000 0.000000 0.500000
O O11 0.935480 0.819143 0.072053
O O12 0.778864 0.740368 0.248814
O O13 0.601242 0.066539 0.077612
O O14 0.619940 0.592037 0.078247
O O15 0.000000 0.500000 0.500000
#
# Coordination Sequence:
#
# PCOD9020150 Si02
#       7
#     2   2   2   2   2   2   2
#     4  11  25  43  69 107 140 191 238 298 365 427
#     4  11  25  49  71 107 142 196 238 295 365 426
#     4  10  21  46  74 104 146 183 241 301 361 426
#     4  10  23  45  72 101 145 184 243 301 358 430
#     4  11  25  44  68 106 139 196 239 297 358 433
#     4   9  20  43  71 102 137 186 237 292 358 427
#     4  12  27  45  76 102 151 190 243 297 358 435
#
# _framework density 29.650604000000001
#
# number of rings (size 3 to 8) (size 9 to 14) (size 15 to 20)
#    0.000    1.429    2.857    0.857    4.000    2.286 
#    7.714    3.571    0.000    0.000    0.000    0.000 
#    0.000    0.000    0.000    0.000    0.000    0.000 
#
# Total GULP energy -78408.875579 kJ/mol
# GULP energy per Si atom -5600.633970 kJ/mol
# Density = 2.958312 g / cm^3
# Si number density = 29.650604 Si / 1000 Ang^3
#
#
#
# Elastic Constant Matrix: (Units=GPa)
#
#
# Indices 1 2 3 4 5 6 
#
# 1 67.9274 10.1276 22.3446 9.4625 5.0588 -0.5548
# 2 10.1276 160.5306 39.8423 12.8736 9.3282 -4.6296
# 3 22.3446 39.8423 177.0583 -11.9734 -32.2258 -9.7747
# 4 9.4625 12.8736 -11.9734 80.9382 2.4093 5.2876
# 5 5.0588 9.3282 -32.2258 2.4093 51.0683 1.4876
# 6 -0.5548 -4.6296 -9.7747 5.2876 1.4876 47.2615
#
#
#
# Elastic Compliance Matrix: (Units=1/GPa)
#
#
# Indices 1 2 3 4 5 6 
#
# 1 0.016188 0.000040 -0.002799 -0.002213 -0.003272 -0.000034
# 2 0.000040 0.007029 -0.002123 -0.001392 -0.002576 0.000487
# 3 -0.002799 -0.002123 0.007617 0.001567 0.005369 0.000990
# 4 -0.002213 -0.001392 0.001567 0.013128 0.000882 -0.001335
# 5 -0.003272 -0.002576 0.005369 0.000882 0.023723 -0.000026
# 6 -0.000034 0.000487 0.000990 -0.001335 -0.000026 0.021561
#
#
# Mechanical properties :
#
#
# Convention : Reuss Voigt Hill
#
# Bulk Modulus (GPa) = 47.46082 61.12726 54.29404
# Shear Modulus (GPa) = 47.15527 58.06707 52.61117
#
# Velocity S-wave (km/s) = 3.99226 4.43016 4.21690
# Velocity P-wave (km/s) = 6.10675 6.84317 6.48542
#
# Compressibility (1/GPa) = 0.02107001
#
# Stress axis : x y z
#
# Youngs Moduli (GPa) = 61.77400 142.26712 131.29349
#
# Poissons Ratio (x) = -0.00569 0.36749
# Poissons Ratio (y) = -0.00247 0.27872
# Poissons Ratio (z) = 0.17290 0.30201
#
# Static dielectric constant tensor:
#      x y z
#    x 2.418940 0.138830 0.086670 
#    y 0.138830 2.366730 0.108550 
#    z 0.086670 0.108550 2.333830 
# 
# From -- ./inp_files/480234.got.cif
#   From: 2010.05.17/outbox.cif.g08.bks.cpg/sg2_241_cif.got.tgz:480234.got - 2010.06.03 11:33:40.
