data_PCOD9020817
_publ_section_title
;
Structure prediction by ZEFSAII (Michael W. Deem and Ramdas Pophale) SiO2 
 PCOD9020817
Probable space group: P -1
;
_chemical_formula_sum "Si O2"
_cell_formula_units_Z 12
_cell_length_a 24.392315
_cell_length_b 5.365349
_cell_length_c 9.352770
_cell_angle_alpha 70.504301
_cell_angle_beta 149.914759
_cell_angle_gamma 97.310941
_cell_volume 543.572784
_symmetry_space_group_name_H-M "P -1"
_symmetry_group_IT_number 2
_symmetry_cell_setting 'triclinic'
loop_
_space_group_symop_operation_xyz
x,y,z
-x,-y,-z
loop_
_atom_site_type_symbol
_atom_site_label
_atom_site_fract_x
_atom_site_fract_y
_atom_site_fract_z
Si Si1 0.110499 0.329521 0.188612
Si Si2 0.668490 0.506312 0.317930
Si Si3 0.432962 0.946273 0.223494
Si Si4 0.052808 0.507137 0.463385
Si Si5 0.815306 0.060144 0.311931
Si Si6 0.500436 0.274749 0.865219
O O1 0.203183 0.492846 0.363155
O O2 0.162023 0.050548 0.452006
O O3 0.000000 0.500000 0.000000
O O4 0.055786 0.312423 0.915664
O O5 0.602531 0.502167 0.320767
O O6 0.613487 0.778039 0.037477
O O7 0.629004 0.283548 0.183438
O O8 0.514158 0.723691 0.336961
O O9 0.500000 0.000000 0.500000
O O10 0.320608 0.876242 0.032016
O O11 0.113019 0.201229 0.581230
O O12 0.000000 0.500000 0.500000
O O13 0.143079 0.673555 0.651674
O O14 0.500000 0.000000 0.000000
#
# Coordination Sequence:
#
# PCOD9020817 Si02
#       6
#     2   2   2   2   2   2
#     4   9  20  38  65  92 119 166 208 252 309 372
#     4   9  19  39  59  87 120 159 206 253 303 370
#     4  10  22  37  59  89 118 161 203 255 312 362
#     4  11  23  43  62  94 127 163 205 259 317 368
#     4  10  23  42  64  89 127 164 209 257 306 379
#     4   9  19  37  58  83 121 156 203 253 306 364
#
# _framework density 22.076160000000002
#
# number of rings (size 3 to 8) (size 9 to 14) (size 15 to 20)
#    0.000    2.333    0.000    1.000    7.000    2.000 
#   18.000    0.000    0.000    0.000    0.000    0.000 
#    0.000    0.000    0.000    0.000    0.000    0.000 
#
# Total GULP energy -66923.475779 kJ/mol
# GULP energy per Si atom -5576.956315 kJ/mol
# Density = 2.202591 g / cm^3
# Si number density = 22.076160 Si / 1000 Ang^3
#
#
#
# Elastic Constant Matrix: (Units=GPa)
#
#
# Indices 1 2 3 4 5 6 
#
# 1 160.4533 30.8372 82.9314 23.9283 -5.7313 -20.0065
# 2 30.8372 64.2931 20.8799 22.1581 1.2976 0.9321
# 3 82.9314 20.8799 147.9135 34.8664 2.1454 -1.9154
# 4 23.9283 22.1581 34.8664 35.9549 2.3512 5.8443
# 5 -5.7313 1.2976 2.1454 2.3512 42.0581 16.3247
# 6 -20.0065 0.9321 -1.9154 5.8443 16.3247 34.4551
#
#
#
# Elastic Compliance Matrix: (Units=1/GPa)
#
#
# Indices 1 2 3 4 5 6 
#
# 1 0.010333 -0.003014 -0.005007 -0.001146 -0.000622 0.006292
# 2 -0.003014 0.020731 0.001695 -0.012402 -0.000490 0.000119
# 3 -0.005007 0.001695 0.011355 -0.008590 -0.000610 -0.000576
# 4 -0.001146 -0.012402 -0.008590 0.045967 0.001758 -0.009437
# 5 -0.000622 -0.000490 -0.000610 0.001758 0.029290 -0.014557
# 6 0.006292 0.000119 -0.000576 -0.009437 -0.014557 0.041139
#
#
# Mechanical properties :
#
#
# Convention : Reuss Voigt Hill
#
# Bulk Modulus (GPa) = 33.59388 71.32855 52.46122
# Shear Modulus (GPa) = 27.56498 38.36106 32.96302
#
# Velocity S-wave (km/s) = 3.53743 4.17306 3.86832
# Velocity P-wave (km/s) = 5.65109 7.45651 6.61568
#
# Compressibility (1/GPa) = 0.02976733
#
# Stress axis : x y z
#
# Youngs Moduli (GPa) = 96.77960 48.23710 88.06536
#
# Poissons Ratio (x) = 0.14537 0.44098
# Poissons Ratio (y) = 0.29165 -0.14929
# Poissons Ratio (z) = 0.48461 -0.08177
#
# Static dielectric constant tensor:
#      x y z
#    x 1.858740 -0.099690 -0.005940 
#    y -0.099690 2.003030 -0.021530 
#    z -0.005940 -0.021530 1.829150 
# 
# From -- ./inp_files/333978.got.cif
#   From: 2010.05.17/outbox.cif.g08.bks.cpg/sg2_167_cif.got.tgz:333978.got - 2010.06.03 11:33:40.
