data_PCOD9020302
_publ_section_title
;
Structure prediction by ZEFSAII (Michael W. Deem and Ramdas Pophale) SiO2 
 PCOD9020302
Probable space group: P -1
;
_chemical_formula_sum "Si O2"
_cell_formula_units_Z 11
_cell_length_a 11.145778
_cell_length_b 12.226827
_cell_length_c 7.233044
_cell_angle_alpha 65.859958
_cell_angle_beta 144.071082
_cell_angle_gamma 134.664865
_cell_volume 379.834131
_symmetry_space_group_name_H-M "P -1"
_symmetry_group_IT_number 2
_symmetry_cell_setting 'triclinic'
loop_
_space_group_symop_operation_xyz
x,y,z
-x,-y,-z
loop_
_atom_site_type_symbol
_atom_site_label
_atom_site_fract_x
_atom_site_fract_y
_atom_site_fract_z
Si Si1 0.806348 0.054799 0.469191
Si Si2 0.987276 0.366870 0.838388
Si Si3 0.500000 0.000000 0.500000
Si Si4 0.495868 0.278147 0.796235
Si Si5 0.665352 0.723080 0.820384
Si Si6 0.153740 0.368067 0.457002
O O1 0.603774 0.996894 0.429090
O O2 0.914808 0.220103 0.394022
O O3 0.657161 0.910019 0.231382
O O4 0.098767 0.114615 0.874838
O O5 0.171018 0.556585 0.874200
O O6 0.156326 0.322607 0.991859
O O7 0.036177 0.371966 0.115948
O O8 0.661012 0.198785 0.521821
O O9 0.433271 0.265899 0.506079
O O10 0.322664 0.315520 0.646873
O O11 0.387530 0.557563 0.688754
#
# Coordination Sequence:
#
# PCOD9020302 Si02
#       6
#     2   2   1   2   2   2
#     4  11  19  29  49  73  98 123 154 192 226 277
#     4   8  17  34  50  66  93 127 157 187 230 284
#     4  10  22  34  46  64  96 138 162 174 224 290
#     4   9  17  31  52  74  93 116 153 200 240 268
#     4   8  16  31  50  72  96 121 149 189 242 282
#     4   9  17  31  52  74  93 116 153 200 240 268
#
# _framework density 28.96001
#
# number of rings (size 3 to 8) (size 9 to 14) (size 15 to 20)
#    0.000    2.909    0.000    3.818    0.000    1.455 
#    0.000    0.000    0.000    5.455    0.000    0.000 
#    0.000    0.000    0.000    0.000    0.000    0.000 
#
# Total GULP energy -61352.005778 kJ/mol
# GULP energy per Si atom -5577.455071 kJ/mol
# Density = 2.889410 g / cm^3
# Si number density = 28.960010 Si / 1000 Ang^3
#
#
#
# Elastic Constant Matrix: (Units=GPa)
#
#
# Indices 1 2 3 4 5 6 
#
# 1 106.7272 38.9827 34.2165 22.1765 6.1677 -0.1412
# 2 38.9827 163.5992 44.9440 63.5096 1.6585 -9.2734
# 3 34.2165 44.9440 157.6129 33.8032 -3.1226 -5.2031
# 4 22.1765 63.5096 33.8032 61.3175 1.9779 -5.0781
# 5 6.1677 1.6585 -3.1226 1.9779 42.4022 11.0116
# 6 -0.1412 -9.2734 -5.2031 -5.0781 11.0116 37.7584
#
#
#
# Elastic Compliance Matrix: (Units=1/GPa)
#
#
# Indices 1 2 3 4 5 6 
#
# 1 0.010851 -0.001628 -0.001651 -0.001307 -0.001490 -0.000328
# 2 -0.001628 0.010587 -0.000480 -0.010011 -0.000057 0.001198
# 3 -0.001651 -0.000480 0.007522 -0.003061 0.000893 0.000240
# 4 -0.001307 -0.010011 -0.003061 0.028999 -0.001363 0.001412
# 5 -0.001490 -0.000057 0.000893 -0.001363 0.025915 -0.007638
# 6 -0.000328 0.001198 0.000240 0.001412 -0.007638 0.029228
#
#
# Mechanical properties :
#
#
# Convention : Reuss Voigt Hill
#
# Bulk Modulus (GPa) = 46.63900 73.80286 60.22093
# Shear Modulus (GPa) = 39.13328 48.94870 44.04099
#
# Velocity S-wave (km/s) = 3.67997 4.11568 3.90391
# Velocity P-wave (km/s) = 5.84772 6.93721 6.41563
#
# Compressibility (1/GPa) = 0.02144128
#
# Stress axis : x y z
#
# Youngs Moduli (GPa) = 92.15705 94.45421 132.93876
#
# Poissons Ratio (x) = 0.15378 0.21955
# Poissons Ratio (y) = 0.15004 0.06381
# Poissons Ratio (z) = 0.15220 0.04534
#
# Static dielectric constant tensor:
#      x y z
#    x 2.214370 -0.101430 0.106670 
#    y -0.101430 2.378610 -0.068570 
#    z 0.106670 -0.068570 2.412760 
# 
# From -- ./inp_files/144397.got.cif
#   From: 2010.05.17/outbox.cif.g08.bks.cpg/sg2_73_cif.got.tgz:144397.got - 2010.06.03 11:33:40.
