data_PCOD9020030
_publ_section_title
;
Structure prediction by ZEFSAII (Michael W. Deem and Ramdas Pophale) SiO2 
 PCOD9020030
Probable space group: P -1
;
_chemical_formula_sum "Si O2"
_cell_formula_units_Z 16
_cell_length_a 16.653477
_cell_length_b 11.409878
_cell_length_c 8.013060
_cell_angle_alpha 55.687158
_cell_angle_beta 34.133870
_cell_angle_gamma 62.898627
_cell_volume 705.486604
_symmetry_space_group_name_H-M "P -1"
_symmetry_group_IT_number 2
_symmetry_cell_setting 'triclinic'
loop_
_space_group_symop_operation_xyz
x,y,z
-x,-y,-z
loop_
_atom_site_type_symbol
_atom_site_label
_atom_site_fract_x
_atom_site_fract_y
_atom_site_fract_z
Si Si1 0.065688 0.860064 0.077656
Si Si2 0.961381 0.374639 0.287633
Si Si3 0.280107 0.657503 0.740418
Si Si4 0.551773 0.687925 0.027304
Si Si5 0.172596 0.345984 0.209920
Si Si6 0.336915 0.599127 0.052399
Si Si7 0.135078 0.909123 0.309583
Si Si8 0.562143 0.110100 0.172559
O O1 0.132738 0.885040 0.129747
O O2 0.940507 0.738318 0.410431
O O3 0.187296 0.796321 0.802989
O O4 0.000000 0.000000 0.000000
O O5 0.833947 0.417879 0.599439
O O6 0.891498 0.238831 0.429349
O O7 0.103901 0.312491 0.175513
O O8 0.000000 0.500000 0.000000
O O9 0.394563 0.651634 0.401105
O O10 0.178011 0.517268 0.045778
O O11 0.365327 0.648432 0.775125
O O12 0.670551 0.691175 0.966873
O O13 0.599640 0.558658 0.927535
O O14 0.542402 0.841199 0.832679
O O15 0.395223 0.732754 0.951871
O O16 0.287486 0.960435 0.073717
O O17 0.000000 0.000000 0.500000
O O18 0.500000 0.000000 0.500000
#
# Coordination Sequence:
#
# PCOD9020030 Si02
#       8
#     2   2   2   2   2   2   2   2
#     4  11  24  42  71  92 131 177 214 281 325 392
#     4  10  22  40  70 102 128 170 224 286 321 385
#     4  11  22  45  67  98 138 167 219 280 329 400
#     4  11  26  41  70 101 132 181 210 279 340 398
#     4  10  22  42  67 100 130 170 226 263 340 388
#     4  10  21  46  66  96 135 173 223 274 336 386
#     4  10  24  47  62  93 130 171 221 267 332 388
#     4  11  25  46  66  94 138 175 220 271 329 402
#
# _framework density 22.679383000000001
#
# number of rings (size 3 to 8) (size 9 to 14) (size 15 to 20)
#    0.000    1.500    3.750    2.250    8.750    1.000 
#   11.250    1.250    0.000    0.000    0.000    0.000 
#    0.000    0.000    0.000    0.000    0.000    0.000 
#
# Total GULP energy -89172.577741 kJ/mol
# GULP energy per Si atom -5573.286109 kJ/mol
# Density = 2.262776 g / cm^3
# Si number density = 22.679383 Si / 1000 Ang^3
#
#
#
# Elastic Constant Matrix: (Units=GPa)
#
#
# Indices 1 2 3 4 5 6 
#
# 1 80.5064 26.8060 22.9874 -2.2238 -1.2037 -27.9710
# 2 26.8060 111.1194 53.9193 16.3115 3.3985 -47.0887
# 3 22.9874 53.9193 105.2303 -6.1697 4.6646 -26.3653
# 4 -2.2238 16.3115 -6.1697 28.6787 -8.7407 6.6784
# 5 -1.2037 3.3985 4.6646 -8.7407 30.4004 -2.9719
# 6 -27.9710 -47.0887 -26.3653 6.6784 -2.9719 46.7479
#
#
#
# Elastic Compliance Matrix: (Units=1/GPa)
#
#
# Indices 1 2 3 4 5 6 
#
# 1 0.016086 0.002221 -0.002063 -0.002751 0.001005 0.011155
# 2 0.002221 0.030231 -0.009851 -0.028209 -0.006977 0.029810
# 3 -0.002063 -0.009851 0.014438 0.009940 0.001236 -0.004355
# 4 -0.002751 -0.028209 0.009940 0.065711 0.017211 -0.032748
# 5 0.001005 -0.006977 0.001236 0.017211 0.037908 -0.005778
# 6 0.011155 0.029810 -0.004355 -0.032748 -0.005778 0.059948
#
#
# Mechanical properties :
#
#
# Convention : Reuss Voigt Hill
#
# Bulk Modulus (GPa) = 24.17308 56.03128 40.10218
# Shear Modulus (GPa) = 19.41781 34.04161 26.72971
#
# Velocity S-wave (km/s) = 2.92924 3.87847 3.43679
# Velocity P-wave (km/s) = 4.70344 6.69449 5.78526
#
# Compressibility (1/GPa) = 0.04136834
#
# Stress axis : x y z
#
# Youngs Moduli (GPa) = 62.16726 33.07916 69.26295
#
# Poissons Ratio (x) = -0.07346 0.14287
# Poissons Ratio (y) = -0.13805 0.68229
# Poissons Ratio (z) = 0.12823 0.32585
#
# Static dielectric constant tensor:
#      x y z
#    x 1.935050 0.066350 -0.034510 
#    y 0.066350 1.892640 0.001220 
#    z -0.034510 0.001220 1.833510 
# 
# From -- ./inp_files/332811.got.cif
#   From: 2010.05.17/outbox.cif.g08.bks.cpg/sg2_167_cif.got.tgz:332811.got - 2010.06.03 11:33:40.
