data_PCOD9020831
_publ_section_title
;
Structure prediction by ZEFSAII (Michael W. Deem and Ramdas Pophale) SiO2 
 PCOD9020831
Probable space group: P -1
;
_chemical_formula_sum "Si O2"
_cell_formula_units_Z 14
_cell_length_a 5.236414
_cell_length_b 8.773379
_cell_length_c 15.716065
_cell_angle_alpha 54.907230
_cell_angle_beta 87.970711
_cell_angle_gamma 71.331382
_cell_volume 549.302094
_symmetry_space_group_name_H-M "P -1"
_symmetry_group_IT_number 2
_symmetry_cell_setting 'triclinic'
loop_
_space_group_symop_operation_xyz
x,y,z
-x,-y,-z
loop_
_atom_site_type_symbol
_atom_site_label
_atom_site_fract_x
_atom_site_fract_y
_atom_site_fract_z
Si Si1 0.930193 0.308006 0.543649
Si Si2 0.511433 0.417508 0.932497
Si Si3 0.665213 0.402782 0.341640
Si Si4 0.399273 0.905610 0.683636
Si Si5 0.766534 0.183987 0.861262
Si Si6 0.136190 0.009845 0.242540
Si Si7 0.011383 0.526800 0.184019
O O1 0.715217 0.360116 0.453044
O O2 0.822504 0.214627 0.653892
O O3 0.000000 0.500000 0.500000
O O4 0.214610 0.125742 0.578565
O O5 0.672727 0.195749 0.957836
O O6 0.694661 0.526274 0.847251
O O7 0.206342 0.457099 0.891689
O O8 0.500000 0.500000 0.000000
O O9 0.571409 0.239748 0.349669
O O10 0.472291 0.625249 0.242086
O O11 0.955339 0.388162 0.300542
O O12 0.653560 0.923566 0.726885
O O13 0.178704 0.872515 0.763744
O O14 0.818805 0.000632 0.855958
O O15 0.020013 0.261889 0.838903
#
# Coordination Sequence:
#
# PCOD9020831 Si02
#       7
#     2   2   2   2   2   2   2
#     4  10  22  37  60  76 115 150 201 233 287 316
#     4   9  18  33  56  89 117 137 176 232 282 334
#     4  11  21  38  56  83 114 154 190 238 275 337
#     4  10  25  38  54  79 113 154 198 233 280 324
#     4   9  21  33  61  80 115 142 188 229 288 326
#     4  10  23  39  52  82 108 149 193 232 283 325
#     4   9  20  32  55  85 112 143 180 225 284 323
#
# _framework density 25.486886999999999
#
# number of rings (size 3 to 8) (size 9 to 14) (size 15 to 20)
#    1.714    0.571    0.000    2.571    6.000    4.000 
#    0.000    0.000    0.000    0.000    0.000   14.000 
#    0.000    0.000    0.000    0.000    0.000    0.000 
#
# Total GULP energy -78050.208987 kJ/mol
# GULP energy per Si atom -5575.014928 kJ/mol
# Density = 2.542888 g / cm^3
# Si number density = 25.486887 Si / 1000 Ang^3
#
#
#
# Elastic Constant Matrix: (Units=GPa)
#
#
# Indices 1 2 3 4 5 6 
#
# 1 161.4352 32.8817 21.1035 11.5598 15.4861 17.3082
# 2 32.8817 102.2623 23.3445 17.1286 8.0345 20.0140
# 3 21.1035 23.3445 83.3564 28.5758 10.4771 -0.2199
# 4 11.5598 17.1286 28.5758 48.3093 5.3173 1.5492
# 5 15.4861 8.0345 10.4771 5.3173 34.2694 7.5208
# 6 17.3082 20.0140 -0.2199 1.5492 7.5208 29.0636
#
#
#
# Elastic Compliance Matrix: (Units=1/GPa)
#
#
# Indices 1 2 3 4 5 6 
#
# 1 0.007109 -0.001275 -0.001112 -0.000291 -0.001902 -0.002856
# 2 -0.001275 0.012700 -0.002443 -0.002551 0.000496 -0.007997
# 3 -0.001112 -0.002443 0.016217 -0.008203 -0.003443 0.003795
# 4 -0.000291 -0.002551 -0.008203 0.026619 -0.001051 0.000721
# 5 -0.001902 0.000496 -0.003443 -0.001051 0.032823 -0.007673
# 6 -0.002856 -0.007997 0.003795 0.000721 -0.007673 0.043591
#
#
# Mechanical properties :
#
#
# Convention : Reuss Voigt Hill
#
# Bulk Modulus (GPa) = 37.92599 55.74592 46.83596
# Shear Modulus (GPa) = 31.74457 40.31007 36.02732
#
# Velocity S-wave (km/s) = 3.53303 3.98125 3.76382
# Velocity P-wave (km/s) = 5.61747 6.56153 6.10777
#
# Compressibility (1/GPa) = 0.02636714
#
# Stress axis : x y z
#
# Youngs Moduli (GPa) = 140.66830 78.74147 61.66275
#
# Poissons Ratio (x) = 0.10039 0.06855
# Poissons Ratio (y) = 0.17934 0.15063
# Poissons Ratio (z) = 0.15637 0.19235
#
# Static dielectric constant tensor:
#      x y z
#    x 2.047970 -0.120940 -0.002040 
#    y -0.120940 2.155760 -0.065490 
#    z -0.002040 -0.065490 2.047740 
# 
# From -- ./inp_files/546563.got.cif
#   From: 2010.05.17/outbox.cif.g08.bks.cpg/sg2_274_cif.got.tgz:546563.got - 2010.06.03 11:33:40.
