data_PCOD9020657
_publ_section_title
;
Structure prediction by ZEFSAII (Michael W. Deem and Ramdas Pophale) SiO2 
 PCOD9020657
Probable space group: P -1
;
_chemical_formula_sum "Si O2"
_cell_formula_units_Z 14
_cell_length_a 11.935122
_cell_length_b 8.973293
_cell_length_c 6.924806
_cell_angle_alpha 81.577296
_cell_angle_beta 55.522444
_cell_angle_gamma 92.544784
_cell_volume 597.349400
_symmetry_space_group_name_H-M "P -1"
_symmetry_group_IT_number 2
_symmetry_cell_setting 'triclinic'
loop_
_space_group_symop_operation_xyz
x,y,z
-x,-y,-z
loop_
_atom_site_type_symbol
_atom_site_label
_atom_site_fract_x
_atom_site_fract_y
_atom_site_fract_z
Si Si1 0.801925 0.738838 0.058311
Si Si2 0.258846 0.616160 0.835312
Si Si3 0.795588 0.047411 0.875928
Si Si4 0.881463 0.155774 0.213069
Si Si5 0.767110 0.831421 0.494522
Si Si6 0.522920 0.124021 0.275364
Si Si7 0.020906 0.665241 0.358534
O O1 0.733974 0.791811 0.307731
O O2 0.794937 0.867944 0.877646
O O3 0.740416 0.562673 0.130111
O O4 0.964827 0.758303 0.933127
O O5 0.124223 0.634612 0.090535
O O6 0.221444 0.721609 0.673174
O O7 0.398901 0.712508 0.757140
O O8 0.855475 0.081561 0.033791
O O9 0.638616 0.071787 0.034933
O O10 0.891094 0.187288 0.651124
O O11 0.852896 0.000893 0.391967
O O12 0.614385 0.849728 0.705648
O O13 0.870100 0.712526 0.466390
O O14 0.500000 0.000000 0.500000
O O15 0.000000 0.500000 0.500000
#
# Coordination Sequence:
#
# PCOD9020657 Si02
#       7
#     2   2   2   2   2   2   2
#     4  11  16  28  51  78 106 120 153 209 261 285
#     4  10  21  29  48  78 106 124 155 207 250 290
#     4   9  17  31  50  70  99 132 162 196 241 292
#     4   9  15  27  48  73  96 124 158 195 244 292
#     4  11  17  30  53  74  99 131 163 194 245 299
#     4  10  17  31  47  76 104 129 160 189 247 311
#     4  10  20  36  51  68  93 134 180 203 226 286
#
# _framework density 23.436868
#
# number of rings (size 3 to 8) (size 9 to 14) (size 15 to 20)
#    0.000    2.286    8.571    1.286    0.000    0.571 
#    0.000    3.571    0.000    0.000    0.000    2.000 
#    0.000    0.000    0.000    0.000    0.000    0.000 
#
# Total GULP energy -77940.679052 kJ/mol
# GULP energy per Si atom -5567.191361 kJ/mol
# Density = 2.338352 g / cm^3
# Si number density = 23.436868 Si / 1000 Ang^3
#
#
#
# Elastic Constant Matrix: (Units=GPa)
#
#
# Indices 1 2 3 4 5 6 
#
# 1 77.2263 40.0402 51.0706 -10.3020 -19.6716 -14.0924
# 2 40.0402 169.9194 56.3451 -62.2514 -7.1229 -6.4086
# 3 51.0706 56.3451 90.2701 -26.5262 -30.2618 -22.0280
# 4 -10.3020 -62.2514 -26.5262 54.5918 -7.3317 6.3325
# 5 -19.6716 -7.1229 -30.2618 -7.3317 31.9699 -0.6964
# 6 -14.0924 -6.4086 -22.0280 6.3325 -0.6964 28.2375
#
#
#
# Elastic Compliance Matrix: (Units=1/GPa)
#
#
# Indices 1 2 3 4 5 6 
#
# 1 0.021919 -0.003274 -0.010218 -0.004666 0.002088 0.003323
# 2 -0.003274 0.011893 -0.002520 0.012272 0.000986 -0.003628
# 3 -0.010218 -0.002520 0.042392 0.018077 0.037953 0.024281
# 4 -0.004666 0.012272 0.018077 0.043200 0.027002 0.005537
# 5 0.002088 0.000986 0.037953 0.027002 0.075483 0.026679
# 6 0.003323 -0.003628 0.024281 0.005537 0.026679 0.054607
#
#
# Mechanical properties :
#
#
# Convention : Reuss Voigt Hill
#
# Bulk Modulus (GPa) = 22.63400 70.25863 46.44632
# Shear Modulus (GPa) = 16.87808 35.62382 26.25095
#
# Velocity S-wave (km/s) = 2.68647 3.90294 3.35038
# Velocity P-wave (km/s) = 4.39332 7.09602 5.90147
#
# Compressibility (1/GPa) = 0.04418131
#
# Stress axis : x y z
#
# Youngs Moduli (GPa) = 45.62189 84.08521 23.58949
#
# Poissons Ratio (x) = 0.27526 0.24103
# Poissons Ratio (y) = 0.14935 0.05944
# Poissons Ratio (z) = 0.46616 0.21188
#
# Static dielectric constant tensor:
#      x y z
#    x 2.081830 -0.024720 0.242830 
#    y -0.024720 1.982620 -0.023190 
#    z 0.242830 -0.023190 2.114730 
# 
# From -- ./inp_files/266241.got.cif
#   From: 2010.05.17/outbox.cif.g08.bks.cpg/sg2_134_cif.got.tgz:266241.got - 2010.06.03 11:33:40.
