data_PCOD9020190
_publ_section_title
;
Structure prediction by ZEFSAII (Michael W. Deem and Ramdas Pophale) SiO2 
 PCOD9020190
Probable space group: P -1
;
_chemical_formula_sum "Si O2"
_cell_formula_units_Z 14
_cell_length_a 8.897286
_cell_length_b 7.278055
_cell_length_c 18.258952
_cell_angle_alpha 41.459560
_cell_angle_beta 46.272513
_cell_angle_gamma 54.734199
_cell_volume 561.330905
_symmetry_space_group_name_H-M "P -1"
_symmetry_group_IT_number 2
_symmetry_cell_setting 'triclinic'
loop_
_space_group_symop_operation_xyz
x,y,z
-x,-y,-z
loop_
_atom_site_type_symbol
_atom_site_label
_atom_site_fract_x
_atom_site_fract_y
_atom_site_fract_z
Si Si1 0.630481 0.748130 0.860077
Si Si2 0.601931 0.461427 0.816856
Si Si3 0.308741 0.094241 0.961360
Si Si4 0.075499 0.310031 0.462321
Si Si5 0.260728 0.428371 0.603747
Si Si6 0.275136 0.961008 0.616783
Si Si7 0.092203 0.447213 0.817575
O O1 0.600134 0.735334 0.787031
O O2 0.866636 0.631860 0.836033
O O3 0.513451 0.009764 0.864801
O O4 0.500000 0.500000 0.000000
O O5 0.383111 0.335602 0.915726
O O6 0.729370 0.553982 0.677536
O O7 0.725811 0.184530 0.898266
O O8 0.117455 0.197000 0.942222
O O9 0.137028 0.024271 0.570383
O O10 0.000000 0.500000 0.500000
O O11 0.894888 0.327904 0.457226
O O12 0.500000 0.500000 0.500000
O O13 0.234756 0.164432 0.638654
O O14 0.179432 0.375529 0.728331
O O15 0.500000 0.000000 0.500000
O O16 0.249931 0.648731 0.738083
#
# Coordination Sequence:
#
# PCOD9020190 Si02
#       7
#     2   2   2   2   2   2   2
#     4  10  24  45  69 102 136 182 244 284 347 417
#     4  10  21  47  67 101 135 183 235 286 352 411
#     4  10  25  43  74  98 142 181 232 294 349 418
#     4  10  23  41  71  94 139 182 224 286 347 411
#     4  11  24  44  65 103 140 185 236 280 350 421
#     4  11  24  43  67 105 142 178 236 283 349 433
#     4  12  25  44  70 104 143 183 231 292 356 415
#
# _framework density 24.940723999999999
#
# number of rings (size 3 to 8) (size 9 to 14) (size 15 to 20)
#    0.000    1.429    2.857    0.857    6.000    5.143 
#    0.000    6.429    3.143    0.000    0.000    0.000 
#    0.000    0.000    0.000    0.000    0.000    0.000 
#
# Total GULP energy -78224.274627 kJ/mol
# GULP energy per Si atom -5587.448188 kJ/mol
# Density = 2.488396 g / cm^3
# Si number density = 24.940724 Si / 1000 Ang^3
#
#
#
# Elastic Constant Matrix: (Units=GPa)
#
#
# Indices 1 2 3 4 5 6 
#
# 1 105.7828 18.7606 11.5962 -19.9039 -3.6111 4.4676
# 2 18.7606 58.8499 -5.2023 12.9315 8.4510 15.1485
# 3 11.5962 -5.2023 90.4954 -1.6108 4.7329 0.9918
# 4 -19.9039 12.9315 -1.6108 32.5733 -7.4363 4.6917
# 5 -3.6111 8.4510 4.7329 -7.4363 43.2930 7.6725
# 6 4.4676 15.1485 0.9918 4.6917 7.6725 37.6727
#
#
#
# Elastic Compliance Matrix: (Units=1/GPa)
#
#
# Indices 1 2 3 4 5 6 
#
# 1 0.013722 -0.007863 -0.002249 0.012762 0.005308 -0.001077
# 2 -0.007863 0.025856 0.002678 -0.015818 -0.007648 -0.006007
# 3 -0.002249 0.002678 0.011576 -0.002343 -0.002316 -0.000351
# 4 0.012762 -0.015818 -0.002343 0.048267 0.013377 -0.003827
# 5 0.005308 -0.007648 -0.002316 0.013377 0.028463 -0.004956
# 6 -0.001077 -0.006007 -0.000351 -0.003827 -0.004956 0.030583
#
#
# Mechanical properties :
#
#
# Convention : Reuss Voigt Hill
#
# Bulk Modulus (GPa) = 27.55813 33.93747 30.74780
# Shear Modulus (GPa) = 26.96425 38.03938 32.50182
#
# Velocity S-wave (km/s) = 3.29163 3.90961 3.61385
# Velocity P-wave (km/s) = 5.05172 5.83239 5.45604
#
# Compressibility (1/GPa) = 0.03628693
#
# Stress axis : x y z
#
# Youngs Moduli (GPa) = 72.87363 38.67567 86.38763
#
# Poissons Ratio (x) = 0.30410 0.19429
# Poissons Ratio (y) = 0.57299 -0.23137
# Poissons Ratio (z) = 0.16390 -0.10358
#
# Static dielectric constant tensor:
#      x y z
#    x 2.121560 -0.043460 0.061750 
#    y -0.043460 2.168650 -0.015100 
#    z 0.061750 -0.015100 1.925970 
# 
# From -- ./inp_files/587130.got.cif
#   From: 2010.05.17/outbox.cif.g08.bks.cpg/sg2_294_cif.got.tgz:587130.got - 2010.06.03 11:33:40.
