data_PCOD9020156
_publ_section_title
;
Structure prediction by ZEFSAII (Michael W. Deem and Ramdas Pophale) SiO2 
 PCOD9020156
Probable space group: P -1
;
_chemical_formula_sum "Si O2"
_cell_formula_units_Z 16
_cell_length_a 5.471862
_cell_length_b 15.920634
_cell_length_c 8.471321
_cell_angle_alpha 113.895980
_cell_angle_beta 88.069481
_cell_angle_gamma 70.177030
_cell_volume 622.064997
_symmetry_space_group_name_H-M "P -1"
_symmetry_group_IT_number 2
_symmetry_cell_setting 'triclinic'
loop_
_space_group_symop_operation_xyz
x,y,z
-x,-y,-z
loop_
_atom_site_type_symbol
_atom_site_label
_atom_site_fract_x
_atom_site_fract_y
_atom_site_fract_z
Si Si1 0.806646 0.451940 0.398547
Si Si2 0.511034 0.413681 0.742729
Si Si3 0.774301 0.548157 0.916673
Si Si4 0.694135 0.834729 0.425533
Si Si5 0.843681 0.250979 0.395680
Si Si6 0.255731 0.249546 0.956510
Si Si7 0.154815 0.846855 0.999542
Si Si8 0.815966 0.998646 0.357027
O O1 0.500000 0.500000 0.500000
O O2 0.741762 0.498206 0.258892
O O3 0.000000 0.500000 0.500000
O O4 0.895839 0.337492 0.361508
O O5 0.738384 0.458364 0.758820
O O6 0.592300 0.314938 0.559845
O O7 0.481790 0.402408 0.921559
O O8 0.777914 0.642452 0.894753
O O9 0.000000 0.500000 0.000000
O O10 0.922455 0.803601 0.527091
O O11 0.734432 0.747018 0.233050
O O12 0.704810 0.917370 0.361208
O O13 0.416315 0.893134 0.562100
O O14 0.821019 0.176932 0.205143
O O15 0.011165 0.218639 0.983381
O O16 0.549507 0.180409 0.958933
O O17 0.976717 0.954520 0.160120
O O18 0.000000 0.000000 0.500000
#
# Coordination Sequence:
#
# PCOD9020156 Si02
#       8
#     2   2   2   2   2   2   2   2
#     4  10  24  43  65  91 143 189 225 274 351 400
#     4  10  25  43  65  99 140 192 234 294 348 407
#     4  11  25  40  68  98 137 185 248 293 336 408
#     4  10  23  43  75 104 136 185 236 296 352 430
#     4  11  25  45  69 108 141 185 241 295 349 422
#     4  11  25  45  71 100 141 189 239 288 347 422
#     4  11  26  46  71 106 142 184 229 294 359 427
#     4  10  21  46  74  99 141 183 230 288 371 428
#
# _framework density 25.720783999999998
#
# number of rings (size 3 to 8) (size 9 to 14) (size 15 to 20)
#    0.000    1.500    1.250    1.500   14.000    2.500 
#    4.500    0.625    0.000    0.000    0.000    0.000 
#    0.000    0.000    0.000    0.000    0.000    0.000 
#
# Total GULP energy -89393.724341 kJ/mol
# GULP energy per Si atom -5587.107771 kJ/mol
# Density = 2.566224 g / cm^3
# Si number density = 25.720784 Si / 1000 Ang^3
#
#
#
# Elastic Constant Matrix: (Units=GPa)
#
#
# Indices 1 2 3 4 5 6 
#
# 1 91.2461 14.6132 15.1961 -14.5741 10.4392 -6.6341
# 2 14.6132 89.3296 18.6901 0.2261 -5.6051 -12.3066
# 3 15.1961 18.6901 183.0952 -7.8810 -2.8873 -14.3862
# 4 -14.5741 0.2261 -7.8810 47.2649 -2.5103 4.6423
# 5 10.4392 -5.6051 -2.8873 -2.5103 54.4057 -5.2474
# 6 -6.6341 -12.3066 -14.3862 4.6423 -5.2474 54.9932
#
#
#
# Elastic Compliance Matrix: (Units=1/GPa)
#
#
# Indices 1 2 3 4 5 6 
#
# 1 0.012248 -0.001976 -0.000675 0.003513 -0.002395 0.000334
# 2 -0.001976 0.012164 -0.000895 -0.000968 0.001781 0.002501
# 3 -0.000675 -0.000895 0.005740 0.000660 0.000489 0.001211
# 4 0.003513 -0.000968 0.000660 0.022512 0.000155 -0.001506
# 5 -0.002395 0.001781 0.000489 0.000155 0.019255 0.002062
# 6 0.000334 0.002501 0.001211 -0.001506 0.002062 0.019425
#
#
# Mechanical properties :
#
#
# Convention : Reuss Voigt Hill
#
# Bulk Modulus (GPa) = 43.36357 51.18552 47.27454
# Shear Modulus (GPa) = 47.11598 52.34419 49.73009
#
# Velocity S-wave (km/s) = 4.28463 4.51609 4.40188
# Velocity P-wave (km/s) = 6.43221 6.86565 6.65246
#
# Compressibility (1/GPa) = 0.02306083
#
# Stress axis : x y z
#
# Youngs Moduli (GPa) = 81.64830 82.21188 174.20728
#
# Poissons Ratio (x) = 0.16241 0.11762
# Poissons Ratio (y) = 0.16130 0.15587
# Poissons Ratio (z) = 0.05513 0.07356
#
# Static dielectric constant tensor:
#      x y z
#    x 2.371260 -0.005500 -0.098210 
#    y -0.005500 2.120460 0.048940 
#    z -0.098210 0.048940 2.277200 
# 
# From -- ./inp_files/139395.got.cif
#   From: 2010.05.17/outbox.cif.g08.bks.cpg/sg2_70_cif.got.tgz:139395.got - 2010.06.03 11:33:40.
