data_PCOD9020223
_publ_section_title
;
Structure prediction by ZEFSAII (Michael W. Deem and Ramdas Pophale) SiO2 
 PCOD9020223
Probable space group: P -1
;
_chemical_formula_sum "Si O2"
_cell_formula_units_Z 14
_cell_length_a 4.924310
_cell_length_b 10.386986
_cell_length_c 11.873634
_cell_angle_alpha 94.983871
_cell_angle_beta 68.077874
_cell_angle_gamma 68.933157
_cell_volume 508.316963
_symmetry_space_group_name_H-M "P -1"
_symmetry_group_IT_number 2
_symmetry_cell_setting 'triclinic'
loop_
_space_group_symop_operation_xyz
x,y,z
-x,-y,-z
loop_
_atom_site_type_symbol
_atom_site_label
_atom_site_fract_x
_atom_site_fract_y
_atom_site_fract_z
Si Si1 0.654713 0.567903 0.619578
Si Si2 0.246549 0.387415 0.132587
Si Si3 0.743607 0.279651 0.642388
Si Si4 0.867524 0.309413 0.879980
Si Si5 0.817910 0.891130 0.875560
Si Si6 0.349243 0.999193 0.768099
Si Si7 0.497416 0.827373 0.520773
O O1 0.710758 0.605887 0.740169
O O2 0.542473 0.440657 0.638180
O O3 0.436259 0.708403 0.595491
O O4 0.000000 0.500000 0.500000
O O5 0.066030 0.550059 0.129143
O O6 0.107678 0.271836 0.120645
O O7 0.594534 0.332128 0.014848
O O8 0.726124 0.288556 0.779827
O O9 0.641999 0.173701 0.580613
O O10 0.118497 0.232825 0.552930
O O11 0.182951 0.164860 0.836628
O O12 0.694559 0.922130 0.767493
O O13 0.112109 0.933245 0.849996
O O14 0.500000 0.000000 0.000000
O O15 0.365941 0.965752 0.630076
#
# Coordination Sequence:
#
# PCOD9020223 Si02
#       7
#     2   2   2   2   2   2   2
#     4   9  19  38  69 100 135 176 235 287 346 407
#     4  10  21  47  73 104 146 188 235 293 357 423
#     4  10  23  42  66  99 141 184 233 284 349 424
#     4  10  24  45  71 104 148 191 233 287 362 427
#     4  12  25  46  73 107 141 188 238 295 350 418
#     4  12  26  44  74 108 142 183 242 295 354 417
#     4  11  22  41  69 101 136 184 234 293 346 407
#
# _framework density 27.541871
#
# number of rings (size 3 to 8) (size 9 to 14) (size 15 to 20)
#    0.000    1.429    2.857    1.714    2.000    2.286 
#    2.571    2.143    0.000    0.000    0.000    0.000 
#    0.000    0.000    0.000    0.000    0.000    0.000 
#
# Total GULP energy -78673.580125 kJ/mol
# GULP energy per Si atom -5619.541438 kJ/mol
# Density = 2.747918 g / cm^3
# Si number density = 27.541871 Si / 1000 Ang^3
#
#
#
# Elastic Constant Matrix: (Units=GPa)
#
#
# Indices 1 2 3 4 5 6 
#
# 1 120.2456 45.3678 30.8931 1.8483 2.4642 9.4746
# 2 45.3678 189.8981 38.8499 11.4268 6.6908 5.9029
# 3 30.8931 38.8499 180.1387 16.4865 -3.7501 11.5624
# 4 1.8483 11.4268 16.4865 40.0509 3.6264 0.4202
# 5 2.4642 6.6908 -3.7501 3.6264 38.5023 6.1884
# 6 9.4746 5.9029 11.5624 0.4202 6.1884 35.1191
#
#
#
# Elastic Compliance Matrix: (Units=1/GPa)
#
#
# Indices 1 2 3 4 5 6 
#
# 1 0.009507 -0.002015 -0.001139 0.000636 -0.000134 -0.001835
# 2 -0.002015 0.006027 -0.000863 -0.001191 -0.000888 -0.000015
# 3 -0.001139 -0.000863 0.006298 -0.002397 0.001356 -0.001831
# 4 0.000636 -0.001191 -0.002397 0.026502 -0.002721 0.000980
# 5 -0.000134 -0.000888 0.001356 -0.002721 0.027335 -0.005045
# 6 -0.001835 -0.000015 -0.001831 0.000980 -0.005045 0.030452
#
#
# Mechanical properties :
#
#
# Convention : Reuss Voigt Hill
#
# Bulk Modulus (GPa) = 72.47207 80.05599 76.26403
# Shear Modulus (GPa) = 42.10412 47.74591 44.92501
#
# Velocity S-wave (km/s) = 3.91414 4.16814 4.04314
# Velocity P-wave (km/s) = 6.84090 7.23150 7.03891
#
# Compressibility (1/GPa) = 0.01379842
#
# Stress axis : x y z
#
# Youngs Moduli (GPa) = 105.18953 165.91340 158.78229
#
# Poissons Ratio (x) = 0.33426 0.18087
# Poissons Ratio (y) = 0.21192 0.13702
# Poissons Ratio (z) = 0.11982 0.14317
#
# Static dielectric constant tensor:
#      x y z
#    x 2.030070 0.035700 0.007330 
#    y 0.035700 2.197800 -0.037390 
#    z 0.007330 -0.037390 2.150960 
# 
# From -- ./inp_files/363136.got.cif
#   From: 2010.05.17/outbox.cif.g08.bks.cpg/sg2_182_cif.got.tgz:363136.got - 2010.06.03 11:33:40.
