data_PCOD9020632
_publ_section_title
;
Structure prediction by ZEFSAII (Michael W. Deem and Ramdas Pophale) SiO2 
 PCOD9020632
Probable space group: P -1
;
_chemical_formula_sum "Si O2"
_cell_formula_units_Z 16
_cell_length_a 10.876563
_cell_length_b 8.752312
_cell_length_c 10.569320
_cell_angle_alpha 123.530830
_cell_angle_beta 59.563076
_cell_angle_gamma 130.434568
_cell_volume 620.695464
_symmetry_space_group_name_H-M "P -1"
_symmetry_group_IT_number 2
_symmetry_cell_setting 'triclinic'
loop_
_space_group_symop_operation_xyz
x,y,z
-x,-y,-z
loop_
_atom_site_type_symbol
_atom_site_label
_atom_site_fract_x
_atom_site_fract_y
_atom_site_fract_z
Si Si1 0.308024 0.698732 0.985514
Si Si2 0.876543 0.463602 0.762557
Si Si3 0.632901 0.580806 0.350890
Si Si4 0.400446 0.989409 0.838312
Si Si5 0.204849 0.973482 0.472466
Si Si6 0.824405 0.814834 0.660431
Si Si7 0.239736 0.584564 0.596919
Si Si8 0.177910 0.155993 0.040662
O O1 0.388696 0.563874 0.824723
O O2 0.295411 0.819751 0.926475
O O3 0.138746 0.579368 0.098204
O O4 0.435512 0.856000 0.097668
O O5 0.797269 0.610655 0.863252
O O6 0.068161 0.582325 0.672054
O O7 0.785948 0.239133 0.631533
O O8 0.500000 0.500000 0.500000
O O9 0.688173 0.822171 0.402094
O O10 0.781039 0.568671 0.341925
O O11 0.386565 0.823506 0.661872
O O12 0.316913 0.118776 0.891452
O O13 0.237022 0.080346 0.364087
O O14 0.013994 0.890253 0.565198
O O15 0.734790 0.555129 0.585792
O O16 0.819597 0.894389 0.836642
O O17 0.000000 0.000000 0.000000
#
# Coordination Sequence:
#
# PCOD9020632 Si02
#       8
#     2   2   2   2   2   2   2   2
#     4  10  24  40  70  96 128 170 214 287 319 381
#     4  11  23  41  61 100 128 171 216 258 337 381
#     4  10  22  36  64 100 129 162 219 269 337 371
#     4  10  22  42  64  96 124 171 219 265 333 375
#     4   9  20  38  65  95 124 163 216 284 311 375
#     4   9  20  39  64  92 127 165 219 268 326 366
#     4   9  20  39  63  95 123 165 209 277 311 390
#     4  12  25  40  63  94 138 181 210 262 322 410
#
# _framework density 25.777536000000001
#
# number of rings (size 3 to 8) (size 9 to 14) (size 15 to 20)
#    0.000    2.000    1.250    1.500   10.500    4.500 
#    0.000    0.000    0.000    1.500    0.000    0.000 
#    0.000    0.000    0.000    0.000    0.000    0.000 
#
# Total GULP energy -89318.535776 kJ/mol
# GULP energy per Si atom -5582.408486 kJ/mol
# Density = 2.571887 g / cm^3
# Si number density = 25.777536 Si / 1000 Ang^3
#
#
#
# Elastic Constant Matrix: (Units=GPa)
#
#
# Indices 1 2 3 4 5 6 
#
# 1 45.7600 15.5581 34.9523 23.0781 -16.6148 -5.1869
# 2 15.5581 62.8786 55.2881 46.8209 -4.1181 -1.4412
# 3 34.9523 55.2881 163.9082 53.7092 -11.4347 7.8946
# 4 23.0781 46.8209 53.7092 59.2386 -10.9977 -1.4917
# 5 -16.6148 -4.1181 -11.4347 -10.9977 47.8878 15.1971
# 6 -5.1869 -1.4412 7.8946 -1.4917 15.1971 26.9998
#
#
#
# Elastic Compliance Matrix: (Units=1/GPa)
#
#
# Indices 1 2 3 4 5 6 
#
# 1 0.031995 0.004374 -0.004552 -0.010418 0.006980 0.003207
# 2 0.004374 0.043022 -0.005884 -0.031202 -0.005293 0.006113
# 3 -0.004552 -0.005884 0.010318 -0.002808 0.001361 -0.005127
# 4 -0.010418 -0.031202 -0.002808 0.049049 0.005283 -0.003110
# 5 0.006980 -0.005293 0.001361 0.005283 0.029322 -0.015552
# 6 0.003207 0.006113 -0.005127 -0.003110 -0.015552 0.048060
#
#
# Mechanical properties :
#
#
# Convention : Reuss Voigt Hill
#
# Bulk Modulus (GPa) = 13.65913 53.79377 33.72645
# Shear Modulus (GPa) = 20.13744 37.94178 29.03961
#
# Velocity S-wave (km/s) = 2.79803 3.84069 3.36005
# Velocity P-wave (km/s) = 3.96850 6.37037 5.30710
#
# Compressibility (1/GPa) = 0.07321110
#
# Stress axis : x y z
#
# Youngs Moduli (GPa) = 31.25526 23.24384 96.91561
#
# Poissons Ratio (x) = -0.10167 0.44114
# Poissons Ratio (y) = -0.13671 0.57027
# Poissons Ratio (z) = 0.14227 0.13677
#
# Static dielectric constant tensor:
#      x y z
#    x 2.080520 0.024780 0.009510 
#    y 0.024780 2.089270 0.018690 
#    z 0.009510 0.018690 2.128960 
# 
# From -- ./inp_files/398798.got.cif
#   From: 2010.05.17/outbox.cif.g08.bks.cpg/sg2_200_cif.got.tgz:398798.got - 2010.06.03 11:33:40.
