data_PCOD9020196
_publ_section_title
;
Structure prediction by ZEFSAII (Michael W. Deem and Ramdas Pophale) SiO2 
 PCOD9020196
Probable space group: P -1
;
_chemical_formula_sum "Si O2"
_cell_formula_units_Z 13
_cell_length_a 8.753110
_cell_length_b 11.352425
_cell_length_c 10.555548
_cell_angle_alpha 117.837740
_cell_angle_beta 53.921763
_cell_angle_gamma 76.116931
_cell_volume 519.825239
_symmetry_space_group_name_H-M "P -1"
_symmetry_group_IT_number 2
_symmetry_cell_setting 'triclinic'
loop_
_space_group_symop_operation_xyz
x,y,z
-x,-y,-z
loop_
_atom_site_type_symbol
_atom_site_label
_atom_site_fract_x
_atom_site_fract_y
_atom_site_fract_z
Si Si1 0.500000 0.500000 0.500000
Si Si2 0.522649 0.989846 0.704375
Si Si3 0.776684 0.193740 0.423681
Si Si4 0.747767 0.727860 0.234116
Si Si5 0.723749 0.498191 0.738917
Si Si6 0.780550 0.102821 0.768942
Si Si7 0.270361 0.358050 0.460414
O O1 0.726941 0.290417 0.362571
O O2 0.294421 0.477297 0.591180
O O3 0.736311 0.838641 0.411854
O O4 0.619398 0.049108 0.788330
O O5 0.496072 0.865747 0.729815
O O6 0.281454 0.174984 0.832640
O O7 0.528781 0.219594 0.589560
O O8 0.765092 0.326910 0.590604
O O9 0.059211 0.979929 0.217657
O O10 0.000000 0.500000 0.000000
O O11 0.697484 0.601858 0.676376
O O12 0.984914 0.425883 0.644228
O O13 0.433375 0.669755 0.029039
O O14 0.000000 0.000000 0.500000
#
# Coordination Sequence:
#
# PCOD9020196 Si02
#       7
#     1   2   2   2   2   2   2
#     4  10  22  44  70  92 142 178 220 290 340 410
#     4  11  24  43  67 100 138 175 233 282 338 419
#     4  11  23  45  67 100 135 179 234 277 348 409
#     4  11  26  43  68  99 140 183 227 284 347 408
#     4  10  25  43  70 102 138 179 228 287 342 407
#     4  12  26  43  69 104 140 181 229 286 341 412
#     4  10  21  47  69 101 136 181 232 282 346 408
#
# _framework density 25.008405
#
# number of rings (size 3 to 8) (size 9 to 14) (size 15 to 20)
#    0.000    1.231    4.615    0.000    4.308    1.231 
#    2.769    3.077    0.000    0.000    0.000    0.000 
#    0.000    0.000    0.000    0.000    0.000    0.000 
#
# Total GULP energy -72433.932019 kJ/mol
# GULP energy per Si atom -5571.840925 kJ/mol
# Density = 2.495148 g / cm^3
# Si number density = 25.008405 Si / 1000 Ang^3
#
#
#
# Elastic Constant Matrix: (Units=GPa)
#
#
# Indices 1 2 3 4 5 6 
#
# 1 67.4077 18.0010 10.6014 11.9603 -17.8451 1.8419
# 2 18.0010 154.3335 1.4714 29.3677 -16.7351 -26.0813
# 3 10.6014 1.4714 72.0855 23.0422 -11.1544 -5.7719
# 4 11.9603 29.3677 23.0422 37.3921 -1.6548 -0.4142
# 5 -17.8451 -16.7351 -11.1544 -1.6548 13.4675 8.4843
# 6 1.8419 -26.0813 -5.7719 -0.4142 8.4843 56.0446
#
#
#
# Elastic Compliance Matrix: (Units=1/GPa)
#
#
# Indices 1 2 3 4 5 6 
#
# 1 0.029345 0.004082 0.008181 -0.015365 0.052834 -0.006334
# 2 0.004082 0.011345 0.007154 -0.013614 0.022238 0.002415
# 3 0.008181 0.007154 0.025559 -0.022292 0.038333 -0.000275
# 4 -0.015365 -0.013614 -0.022292 0.053920 -0.048912 -0.000323
# 5 0.052834 0.022238 0.038333 -0.048912 0.209974 -0.019588
# 6 -0.006334 0.002415 -0.000275 -0.000323 -0.019588 0.022110
#
#
# Mechanical properties :
#
#
# Convention : Reuss Voigt Hill
#
# Bulk Modulus (GPa) = 9.51632 39.33047 24.42340
# Shear Modulus (GPa) = 14.34940 38.96434 26.65687
#
# Velocity S-wave (km/s) = 2.39798 3.95150 3.26838
# Velocity P-wave (km/s) = 3.38830 6.04815 4.90208
#
# Compressibility (1/GPa) = 0.10508261
#
# Stress axis : x y z
#
# Youngs Moduli (GPa) = 34.07755 88.14258 39.12563
#
# Poissons Ratio (x) = -0.35978 -0.32008
# Poissons Ratio (y) = -0.13910 -0.27992
# Poissons Ratio (z) = -0.27878 -0.63060
#
# Static dielectric constant tensor:
#      x y z
#    x 2.019310 -0.069150 0.035480 
#    y -0.069150 1.985690 -0.011870 
#    z 0.035480 -0.011870 1.977090 
# 
# From -- ./inp_files/38841.got.cif
#   From: 2010.05.17/outbox.cif.g08.bks.cpg/sg2_20_cif.got.tgz:38841.got - 2010.06.03 11:33:40.
