data_PCOD9020646
_publ_section_title
;
Structure prediction by ZEFSAII (Michael W. Deem and Ramdas Pophale) SiO2 
 PCOD9020646
Probable space group: P -1
;
_chemical_formula_sum "Si O2"
_cell_formula_units_Z 16
_cell_length_a 15.206604
_cell_length_b 12.667169
_cell_length_c 8.477516
_cell_angle_alpha 106.488212
_cell_angle_beta 58.943897
_cell_angle_gamma 146.327442
_cell_volume 738.329555
_symmetry_space_group_name_H-M "P -1"
_symmetry_group_IT_number 2
_symmetry_cell_setting 'triclinic'
loop_
_space_group_symop_operation_xyz
x,y,z
-x,-y,-z
loop_
_atom_site_type_symbol
_atom_site_label
_atom_site_fract_x
_atom_site_fract_y
_atom_site_fract_z
Si Si1 0.202871 0.236718 0.929937
Si Si2 0.488884 0.295463 0.643346
Si Si3 0.566011 0.877623 0.685385
Si Si4 0.191750 0.043508 0.294844
Si Si5 0.953985 0.729041 0.110954
Si Si6 0.246941 0.879515 0.680593
Si Si7 0.805254 0.375460 0.184334
Si Si8 0.195458 0.292408 0.316297
O O1 0.219360 0.308240 0.114320
O O2 0.349430 0.270778 0.793455
O O3 0.200549 0.326886 0.835754
O O4 0.000000 0.000000 0.000000
O O5 0.518973 0.734647 0.549191
O O6 0.407334 0.104775 0.697025
O O7 0.678541 0.501505 0.635964
O O8 0.718307 0.078974 0.521587
O O9 0.373789 0.773980 0.829259
O O10 0.654379 0.905504 0.770352
O O11 0.101120 0.927865 0.163786
O O12 0.020987 0.889410 0.512566
O O13 0.258228 0.228747 0.297963
O O14 0.869024 0.557856 0.226580
O O15 0.059641 0.766225 0.879992
O O16 0.258961 0.765078 0.679200
O O17 0.000000 0.500000 0.000000
#
# Coordination Sequence:
#
# PCOD9020646 Si02
#       8
#     2   2   2   2   2   2   2   2
#     4  12  20  39  61  90 126 170 202 249 313 368
#     4  10  22  36  64  89 120 165 208 250 303 377
#     4  10  22  41  64  90 124 165 205 257 309 370
#     4  11  23  37  59  91 135 160 205 255 310 360
#     4  11  22  39  64  91 128 164 206 257 306 369
#     4   9  20  42  65  85 120 164 208 253 307 360
#     4  10  22  42  68  91 117 163 210 264 313 359
#     4  11  23  37  58  92 131 170 202 250 302 380
#
# _framework density 21.670539000000002
#
# number of rings (size 3 to 8) (size 9 to 14) (size 15 to 20)
#    0.750    0.750    2.500    3.000    3.500    0.500 
#    0.000    3.125    2.750    0.000    0.000    0.000 
#    0.000    0.000    0.000    0.000    0.000    0.000 
#
# Total GULP energy -89228.684909 kJ/mol
# GULP energy per Si atom -5576.792807 kJ/mol
# Density = 2.162122 g / cm^3
# Si number density = 21.670539 Si / 1000 Ang^3
#
#
#
# Elastic Constant Matrix: (Units=GPa)
#
#
# Indices 1 2 3 4 5 6 
#
# 1 107.1882 13.0983 42.7751 -6.7134 1.6719 -1.6976
# 2 13.0983 81.3242 16.9381 -23.4610 19.7318 -19.1306
# 3 42.7751 16.9381 63.8321 0.0407 -5.2783 1.6832
# 4 -6.7134 -23.4610 0.0407 23.3317 -2.5907 8.6960
# 5 1.6719 19.7318 -5.2783 -2.5907 32.9933 -4.2660
# 6 -1.6976 -19.1306 1.6832 8.6960 -4.2660 32.9901
#
#
#
# Elastic Compliance Matrix: (Units=1/GPa)
#
#
# Indices 1 2 3 4 5 6 
#
# 1 0.013418 0.002547 -0.009959 0.005809 -0.003247 0.000725
# 2 0.002547 0.025601 -0.009902 0.021985 -0.014284 0.007840
# 3 -0.009959 -0.009902 0.025836 -0.010494 0.009269 -0.003608
# 4 0.005809 0.021985 -0.010494 0.067570 -0.010538 -0.005591
# 5 -0.003247 -0.014284 0.009269 -0.010538 0.039538 -0.001032
# 6 0.000725 0.007840 -0.003608 -0.005591 -0.001032 0.036420
#
#
# Mechanical properties :
#
#
# Convention : Reuss Voigt Hill
#
# Bulk Modulus (GPa) = 33.08312 44.21861 38.65087
# Shear Modulus (GPa) = 19.75606 29.83188 24.79397
#
# Velocity S-wave (km/s) = 3.02264 3.71429 3.38617
# Velocity P-wave (km/s) = 5.24226 6.23249 5.75870
#
# Compressibility (1/GPa) = 0.03022689
#
# Stress axis : x y z
#
# Youngs Moduli (GPa) = 74.52454 39.06114 38.70603
#
# Poissons Ratio (x) = -0.09949 0.38548
# Poissons Ratio (y) = -0.18982 0.38327
# Poissons Ratio (z) = 0.74220 0.38679
#
# Static dielectric constant tensor:
#      x y z
#    x 1.802670 -0.020730 -0.018910 
#    y -0.020730 1.785740 -0.055570 
#    z -0.018910 -0.055570 1.864720 
# 
# From -- ./inp_files/307492.got.cif
#   From: 2010.05.17/outbox.cif.g08.bks.cpg/sg2_154_cif.got.tgz:307492.got - 2010.06.03 11:33:40.
