data_PCOD9020078
_publ_section_title
;
Structure prediction by ZEFSAII (Michael W. Deem and Ramdas Pophale) SiO2 
 PCOD9020078
Probable space group: P -1
;
_chemical_formula_sum "Si O2"
_cell_formula_units_Z 15
_cell_length_a 13.600544
_cell_length_b 7.984950
_cell_length_c 9.140748
_cell_angle_alpha 90.810581
_cell_angle_beta 138.622047
_cell_angle_gamma 80.107931
_cell_volume 636.313157
_symmetry_space_group_name_H-M "P -1"
_symmetry_group_IT_number 2
_symmetry_cell_setting 'triclinic'
loop_
_space_group_symop_operation_xyz
x,y,z
-x,-y,-z
loop_
_atom_site_type_symbol
_atom_site_label
_atom_site_fract_x
_atom_site_fract_y
_atom_site_fract_z
Si Si1 0.660773 0.279219 0.822416
Si Si2 0.155390 0.474061 0.976229
Si Si3 0.136358 0.278722 0.247143
Si Si4 0.386185 0.937865 0.484693
Si Si5 0.000000 0.500000 0.500000
Si Si6 0.857997 0.158363 0.313228
Si Si7 0.440090 0.755295 0.830296
Si Si8 0.376753 0.383877 0.697476
O O1 0.667303 0.210359 0.666097
O O2 0.495238 0.287218 0.707144
O O3 0.685767 0.471761 0.860966
O O4 0.783505 0.164054 0.068547
O O5 0.093444 0.422340 0.754368
O O6 0.040897 0.653477 0.910290
O O7 0.159369 0.342395 0.110613
O O8 0.211075 0.379200 0.455910
O O9 0.234119 0.083675 0.359196
O O10 0.468876 0.861482 0.724576
O O11 0.500000 0.000000 0.500000
O O12 0.087773 0.663257 0.606272
O O13 0.716791 0.150980 0.261833
O O14 0.000000 0.000000 0.500000
O O15 0.404331 0.572498 0.747324
O O16 0.578078 0.713047 0.100210
#
# Coordination Sequence:
#
# PCOD9020078 Si02
#       8
#     2   2   2   2   1   2   2   2
#     4  10  23  43  64  95 134 174 229 276 349 406
#     4  10  24  43  66  98 130 181 225 283 340 422
#     4  11  24  42  65  96 136 173 226 277 346 413
#     4  12  26  43  64 104 135 182 226 286 350 413
#     4  10  22  42  70 100 136 180 234 268 358 412
#     4  10  23  44  68 103 141 181 225 295 347 416
#     4  10  24  42  70  99 133 178 234 284 347 411
#     4  10  21  46  69  94 129 179 227 282 336 418
#
# _framework density 23.573301000000001
#
# number of rings (size 3 to 8) (size 9 to 14) (size 15 to 20)
#    0.000    1.600    1.333    1.600    7.467    4.267 
#    0.000    0.000    0.000    0.000    0.000    0.000 
#    0.000    0.000    0.000    0.000    0.000    0.000 
#
# Total GULP energy -83677.106657 kJ/mol
# GULP energy per Si atom -5578.473777 kJ/mol
# Density = 2.351965 g / cm^3
# Si number density = 23.573301 Si / 1000 Ang^3
#
#
#
# Elastic Constant Matrix: (Units=GPa)
#
#
# Indices 1 2 3 4 5 6 
#
# 1 69.4523 12.9493 38.1081 -21.0891 -17.3566 17.0702
# 2 12.9493 23.2150 13.6359 -8.6527 -8.2317 -6.6506
# 3 38.1081 13.6359 84.1435 2.8030 -21.1108 10.4477
# 4 -21.0891 -8.6527 2.8030 43.4834 2.8858 -0.9464
# 5 -17.3566 -8.2317 -21.1108 2.8858 38.9538 -5.0578
# 6 17.0702 -6.6506 10.4477 -0.9464 -5.0578 30.7613
#
#
#
# Elastic Compliance Matrix: (Units=1/GPa)
#
#
# Indices 1 2 3 4 5 6 
#
# 1 0.029547 -0.008887 -0.009813 0.012675 0.003203 -0.014068
# 2 -0.008887 0.065589 -0.007799 0.009220 0.008024 0.023364
# 3 -0.009813 -0.007799 0.019329 -0.007922 0.004747 -0.002269
# 4 0.012675 0.009220 -0.007922 0.031409 0.000814 -0.001250
# 5 0.003203 0.008024 0.004747 0.000814 0.031773 0.003594
# 6 -0.014068 0.023364 -0.002269 -0.001250 0.003594 0.046689
#
#
# Mechanical properties :
#
#
# Convention : Reuss Voigt Hill
#
# Bulk Modulus (GPa) = 16.26912 34.02193 25.14553
# Shear Modulus (GPa) = 16.78845 30.11420 23.45132
#
# Velocity S-wave (km/s) = 2.67157 3.57805 3.15751
# Velocity P-wave (km/s) = 4.05374 5.61548 4.89727
#
# Compressibility (1/GPa) = 0.06146614
#
# Stress axis : x y z
#
# Youngs Moduli (GPa) = 33.84452 15.24655 51.73505
#
# Poissons Ratio (x) = 0.13550 0.50769
# Poissons Ratio (y) = 0.30078 0.40348
# Poissons Ratio (z) = 0.33212 0.11891
#
# Static dielectric constant tensor:
#      x y z
#    x 1.919970 -0.017560 -0.018330 
#    y -0.017560 1.909640 0.001150 
#    z -0.018330 0.001150 1.822320 
# 
# From -- ./inp_files/298620.got.cif
#   From: 2010.05.17/outbox.cif.g08.bks.cpg/sg2_150_cif.got.tgz:298620.got - 2010.06.03 11:33:40.
