data_PCOD9020222
_publ_section_title
;
Structure prediction by ZEFSAII (Michael W. Deem and Ramdas Pophale) SiO2 
 PCOD9020222
Probable space group: P -1
;
_chemical_formula_sum "Si O2"
_cell_formula_units_Z 16
_cell_length_a 7.467377
_cell_length_b 12.330332
_cell_length_c 9.839963
_cell_angle_alpha 117.737644
_cell_angle_beta 68.627334
_cell_angle_gamma 113.080856
_cell_volume 719.055055
_symmetry_space_group_name_H-M "P -1"
_symmetry_group_IT_number 2
_symmetry_cell_setting 'triclinic'
loop_
_space_group_symop_operation_xyz
x,y,z
-x,-y,-z
loop_
_atom_site_type_symbol
_atom_site_label
_atom_site_fract_x
_atom_site_fract_y
_atom_site_fract_z
Si Si1 0.373022 0.793599 0.807497
Si Si2 0.923644 0.095421 0.669125
Si Si3 0.320296 0.740878 0.283340
Si Si4 0.644915 0.398200 0.071455
Si Si5 0.821688 0.736423 0.900236
Si Si6 0.254887 0.306995 0.802203
Si Si7 0.219875 0.025876 0.081742
Si Si8 0.115831 0.649860 0.567136
O O1 0.290475 0.687420 0.883341
O O2 0.599243 0.869012 0.828843
O O3 0.318142 0.711769 0.636870
O O4 0.277472 0.911703 0.920079
O O5 0.723767 0.132960 0.697158
O O6 0.098660 0.224958 0.694038
O O7 0.907241 0.039372 0.792690
O O8 0.000000 0.000000 0.500000
O O9 0.548639 0.745564 0.264388
O O10 0.179002 0.701019 0.429022
O O11 0.275479 0.634763 0.114967
O O12 0.405602 0.345404 0.105174
O O13 0.690908 0.546717 0.169283
O O14 0.840515 0.884662 0.960298
O O15 0.959952 0.702933 0.727638
O O16 0.853722 0.705172 0.028477
O O17 0.000000 0.500000 0.500000
#
# Coordination Sequence:
#
# PCOD9020222 Si02
#       8
#     2   2   2   2   2   2   2   2
#     4  10  23  41  74  93 133 184 225 286 338 420
#     4  12  27  43  65 100 143 181 233 282 345 422
#     4  11  25  45  68 103 141 178 225 292 350 406
#     4  10  21  47  72  99 134 180 237 284 342 418
#     4  10  22  43  71  98 136 176 233 291 331 423
#     4  11  25  44  73 101 134 189 231 284 349 410
#     4  10  22  46  65  98 129 180 243 272 340 411
#     4  12  25  41  64 107 141 177 225 287 363 409
#
# _framework density 22.251424
#
# number of rings (size 3 to 8) (size 9 to 14) (size 15 to 20)
#    0.000    1.250    1.250    4.500    5.250    4.000 
#    0.000    1.875    0.000    0.000    0.000    0.000 
#    0.000    0.000    0.000    0.000    0.000    0.000 
#
# Total GULP energy -89320.297163 kJ/mol
# GULP energy per Si atom -5582.518573 kJ/mol
# Density = 2.220078 g / cm^3
# Si number density = 22.251424 Si / 1000 Ang^3
#
#
#
# Elastic Constant Matrix: (Units=GPa)
#
#
# Indices 1 2 3 4 5 6 
#
# 1 63.5161 38.2079 16.2639 17.9800 -4.7600 -4.4470
# 2 38.2079 131.7088 38.1333 10.5258 9.7395 7.9526
# 3 16.2639 38.1333 94.3010 -3.0235 0.7304 8.7687
# 4 17.9800 10.5258 -3.0235 40.2653 4.0327 4.7657
# 5 -4.7600 9.7395 0.7304 4.0327 36.2202 2.2735
# 6 -4.4470 7.9526 8.7687 4.7657 2.2735 25.4846
#
#
#
# Elastic Compliance Matrix: (Units=1/GPa)
#
#
# Indices 1 2 3 4 5 6 
#
# 1 0.024470 -0.006328 -0.002880 -0.011098 0.005658 0.008806
# 2 -0.006328 0.010672 -0.002878 0.000554 -0.003502 -0.003235
# 3 -0.002880 -0.002878 0.012814 0.003551 0.000036 -0.004681
# 4 -0.011098 0.000554 0.003551 0.031417 -0.004625 -0.008794
# 5 0.005658 -0.003502 0.000036 -0.004625 0.029791 0.000275
# 6 0.008806 -0.003235 -0.004681 -0.008794 0.000275 0.045016
#
#
# Mechanical properties :
#
#
# Convention : Reuss Voigt Hill
#
# Bulk Modulus (GPa) = 42.04666 52.74846 47.39756
# Shear Modulus (GPa) = 26.84131 33.52207 30.18169
#
# Velocity S-wave (km/s) = 3.47691 3.88559 3.68692
# Velocity P-wave (km/s) = 5.92079 6.62477 6.28265
#
# Compressibility (1/GPa) = 0.02378310
#
# Stress axis : x y z
#
# Youngs Moduli (GPa) = 40.86582 93.70626 78.04112
#
# Poissons Ratio (x) = 0.59298 0.22475
# Poissons Ratio (y) = 0.25860 0.22462
# Poissons Ratio (z) = 0.11769 0.26971
#
# Static dielectric constant tensor:
#      x y z
#    x 2.383760 -0.405490 0.388800 
#    y -0.405490 2.197050 -0.338940 
#    z 0.388800 -0.338940 2.083700 
# 
# From -- ./inp_files/189902.got.cif
#   From: 2010.05.17/outbox.cif.g08.bks.cpg/sg2_95_cif.got.tgz:189902.got - 2010.06.03 11:33:40.
