data_PCOD9020043
_publ_section_title
;
Structure prediction by ZEFSAII (Michael W. Deem and Ramdas Pophale) SiO2 
 PCOD9020043
Probable space group: P -1
;
_chemical_formula_sum "Si O2"
_cell_formula_units_Z 16
_cell_length_a 11.324316
_cell_length_b 10.470236
_cell_length_c 11.978397
_cell_angle_alpha 48.250014
_cell_angle_beta 103.474315
_cell_angle_gamma 65.799242
_cell_volume 646.261473
_symmetry_space_group_name_H-M "P -1"
_symmetry_group_IT_number 2
_symmetry_cell_setting 'triclinic'
loop_
_space_group_symop_operation_xyz
x,y,z
-x,-y,-z
loop_
_atom_site_type_symbol
_atom_site_label
_atom_site_fract_x
_atom_site_fract_y
_atom_site_fract_z
Si Si1 0.939999 0.404048 0.288612
Si Si2 0.545976 0.692917 0.002833
Si Si3 0.913316 0.367071 0.797742
Si Si4 0.506106 0.169291 0.470282
Si Si5 0.248238 0.911646 0.268918
Si Si6 0.471673 0.327772 0.732863
Si Si7 0.099616 0.574915 0.481373
Si Si8 0.315319 0.833134 0.675392
O O1 0.717043 0.643459 0.062438
O O2 0.938601 0.321481 0.461243
O O3 0.018085 0.511293 0.246402
O O4 0.100666 0.120113 0.423088
O O5 0.474522 0.753302 0.079053
O O6 0.661072 0.392571 0.169424
O O7 0.371370 0.886493 0.764493
O O8 0.686045 0.599024 0.634453
O O9 0.960027 0.266703 0.738499
O O10 0.026968 0.145208 0.049131
O O11 0.690122 0.001937 0.686660
O O12 0.526561 0.290041 0.309803
O O13 0.500000 0.000000 0.500000
O O14 0.333864 0.645333 0.497521
O O15 0.355865 0.830705 0.222124
O O16 0.334476 0.317493 0.677661
O O17 0.000000 0.500000 0.500000
#
# Coordination Sequence:
#
# PCOD9020043 Si02
#       8
#     2   2   2   2   2   2   2   2
#     4  10  22  41  65  93 131 168 216 274 318 380
#     4  10  23  42  64  97 123 173 220 265 324 388
#     4  11  24  42  65  99 126 172 223 259 335 387
#     4  12  25  45  66  92 140 170 214 273 318 395
#     4  11  25  42  69  97 130 176 216 273 324 387
#     4  10  21  46  67  95 138 164 221 277 321 378
#     4   9  20  41  64  95 131 165 211 269 321 380
#     4  11  23  42  66  92 131 174 218 261 328 388
#
# _framework density 24.757781999999999
#
# number of rings (size 3 to 8) (size 9 to 14) (size 15 to 20)
#    0.000    1.500    3.750    0.375    3.500    2.000 
#    9.000    1.875    0.000    0.000    0.000    0.000 
#    0.000    0.000    0.000    0.000    0.000    0.000 
#
# Total GULP energy -89468.151370 kJ/mol
# GULP energy per Si atom -5591.759461 kJ/mol
# Density = 2.470143 g / cm^3
# Si number density = 24.757782 Si / 1000 Ang^3
#
#
#
# Elastic Constant Matrix: (Units=GPa)
#
#
# Indices 1 2 3 4 5 6 
#
# 1 94.0649 21.6380 9.0514 5.3585 3.7184 -13.2844
# 2 21.6380 59.5899 21.9181 21.5813 -1.5633 -8.6003
# 3 9.0514 21.9181 74.1197 20.1006 1.1576 -1.0051
# 4 5.3585 21.5813 20.1006 42.9572 3.0705 -0.0195
# 5 3.7184 -1.5633 1.1576 3.0705 31.4853 1.0750
# 6 -13.2844 -8.6003 -1.0051 -0.0195 1.0750 40.3045
#
#
#
# Elastic Compliance Matrix: (Units=1/GPa)
#
#
# Indices 1 2 3 4 5 6 
#
# 1 0.012091 -0.004160 -0.000422 0.000910 -0.001815 0.003136
# 2 -0.004160 0.023864 -0.003872 -0.009847 0.002658 0.003549
# 3 -0.000422 -0.003872 0.016193 -0.005567 -0.000176 -0.000560
# 4 0.000910 -0.009847 -0.005567 0.030956 -0.003348 -0.001836
# 5 -0.001815 0.002658 -0.000176 -0.003348 0.032471 -0.000903
# 6 0.003136 0.003549 -0.000560 -0.001836 -0.000903 0.026611
#
#
# Mechanical properties :
#
#
# Convention : Reuss Voigt Hill
#
# Bulk Modulus (GPa) = 28.37693 36.99885 32.68789
# Shear Modulus (GPa) = 29.26688 34.62721 31.94705
#
# Velocity S-wave (km/s) = 3.44194 3.74390 3.59609
# Velocity P-wave (km/s) = 5.22328 5.80222 5.52034
#
# Compressibility (1/GPa) = 0.03523990
#
# Stress axis : x y z
#
# Youngs Moduli (GPa) = 82.70432 41.90390 61.75468
#
# Poissons Ratio (x) = 0.17431 0.02609
# Poissons Ratio (y) = 0.34404 0.23911
# Poissons Ratio (z) = 0.03494 0.16225
#
# Static dielectric constant tensor:
#      x y z
#    x 1.985380 0.036650 0.011880 
#    y 0.036650 1.980950 0.001500 
#    z 0.011880 0.001500 1.996080 
# 
# From -- ./inp_files/71250.got.cif
#   From: 2010.05.17/outbox.cif.g08.bks.cpg/sg2_36_cif.got.tgz:71250.got - 2010.06.03 11:33:40.
