data_PCOD9020533
_publ_section_title
;
Structure prediction by ZEFSAII (Michael W. Deem and Ramdas Pophale) SiO2 
 PCOD9020533
Probable space group: P -1
;
_chemical_formula_sum "Si O2"
_cell_formula_units_Z 14
_cell_length_a 5.437813
_cell_length_b 14.388776
_cell_length_c 11.916120
_cell_angle_alpha 122.007327
_cell_angle_beta 120.747448
_cell_angle_gamma 61.134748
_cell_volume 650.163182
_symmetry_space_group_name_H-M "P -1"
_symmetry_group_IT_number 2
_symmetry_cell_setting 'triclinic'
loop_
_space_group_symop_operation_xyz
x,y,z
-x,-y,-z
loop_
_atom_site_type_symbol
_atom_site_label
_atom_site_fract_x
_atom_site_fract_y
_atom_site_fract_z
Si Si1 0.346543 0.159265 0.118406
Si Si2 0.473660 0.470769 0.658075
Si Si3 0.726746 0.213721 0.601827
Si Si4 0.159202 0.406452 0.321123
Si Si5 0.222540 0.104539 0.455993
Si Si6 0.341741 0.931054 0.058473
Si Si7 0.126989 0.900371 0.196243
O O1 0.245047 0.270281 0.239663
O O2 0.468346 0.039387 0.136637
O O3 0.586932 0.162919 0.082092
O O4 0.090413 0.146032 0.963106
O O5 0.659045 0.349706 0.674712
O O6 0.317047 0.437807 0.488682
O O7 0.693562 0.542344 0.714219
O O8 0.196225 0.538976 0.713804
O O9 0.403351 0.186597 0.497329
O O10 0.840232 0.159760 0.715101
O O11 0.973555 0.160625 0.528414
O O12 0.500000 0.000000 0.500000
O O13 0.071546 0.035917 0.291729
O O14 0.410911 0.878634 0.163934
O O15 0.000000 0.000000 0.000000
#
# Coordination Sequence:
#
# PCOD9020533 Si02
#       7
#     2   2   2   2   2   2   2
#     4  10  22  38  62  87 125 161 198 260 307 365
#     4  10  23  43  64  91 113 162 214 258 299 366
#     4  11  23  40  64  90 129 164 204 254 306 360
#     4  10  23  43  66  85 121 156 212 261 307 348
#     4  10  22  37  60  92 129 167 194 240 307 376
#     4   9  21  37  56  91 121 160 200 237 307 384
#     4  10  22  36  59  92 127 158 197 248 307 382
#
# _framework density 21.533058
#
# number of rings (size 3 to 8) (size 9 to 14) (size 15 to 20)
#    0.000    2.000    0.000    2.571   12.000    2.286 
#    0.000    1.429    0.000    0.000    0.000    0.000 
#    0.000    0.000    0.000    0.000    0.000    0.000 
#
# Total GULP energy -77952.858797 kJ/mol
# GULP energy per Si atom -5568.061343 kJ/mol
# Density = 2.148405 g / cm^3
# Si number density = 21.533058 Si / 1000 Ang^3
#
#
#
# Elastic Constant Matrix: (Units=GPa)
#
#
# Indices 1 2 3 4 5 6 
#
# 1 143.4472 35.2608 38.4171 5.8598 -22.3101 -1.2977
# 2 35.2608 52.5923 11.4440 17.9484 -17.6723 10.6614
# 3 38.4171 11.4440 49.7449 7.9354 -11.7508 -6.6458
# 4 5.8598 17.9484 7.9354 32.4942 -8.6339 -5.1576
# 5 -22.3101 -17.6723 -11.7508 -8.6339 46.1246 5.3075
# 6 -1.2977 10.6614 -6.6458 -5.1576 5.3075 27.2647
#
#
#
# Elastic Compliance Matrix: (Units=1/GPa)
#
#
# Indices 1 2 3 4 5 6 
#
# 1 0.010528 -0.007164 -0.006583 0.004353 0.001223 0.002283
# 2 -0.007164 0.038643 -0.000607 -0.020707 0.009774 -0.021419
# 3 -0.006583 -0.000607 0.027153 -0.003666 0.002191 0.005423
# 4 0.004353 -0.020707 -0.003666 0.044795 -0.000210 0.015925
# 5 0.001223 0.009774 0.002191 -0.000210 0.027528 -0.008628
# 6 0.002283 -0.021419 0.005423 0.015925 -0.008628 0.051176
#
#
# Mechanical properties :
#
#
# Convention : Reuss Voigt Hill
#
# Bulk Modulus (GPa) = 21.00132 46.22534 33.61333
# Shear Modulus (GPa) = 20.45805 31.88755 26.17280
#
# Velocity S-wave (km/s) = 3.08567 3.85238 3.49014
# Velocity P-wave (km/s) = 4.74019 6.42662 5.64672
#
# Compressibility (1/GPa) = 0.04761606
#
# Stress axis : x y z
#
# Youngs Moduli (GPa) = 94.98252 25.87817 36.82828
#
# Poissons Ratio (x) = 0.18539 0.24245
# Poissons Ratio (y) = 0.68045 0.02234
# Poissons Ratio (z) = 0.62530 0.01570
#
# Static dielectric constant tensor:
#      x y z
#    x 2.256490 0.031480 -0.011400 
#    y 0.031480 1.774870 -0.043350 
#    z -0.011400 -0.043350 1.822020 
# 
# From -- ./inp_files/75318.got.cif
#   From: 2010.05.17/outbox.cif.g08.bks.cpg/sg2_38_cif.got.tgz:75318.got - 2010.06.03 11:33:40.
