data_PCOD9020968
_publ_section_title
;
Structure prediction by ZEFSAII (Michael W. Deem and Ramdas Pophale) SiO2 
 PCOD9020968
Probable space group: P -1
;
_chemical_formula_sum "Si O2"
_cell_formula_units_Z 14
_cell_length_a 14.143240
_cell_length_b 7.693932
_cell_length_c 7.062600
_cell_angle_alpha 100.183375
_cell_angle_beta 93.579770
_cell_angle_gamma 129.898393
_cell_volume 564.362004
_symmetry_space_group_name_H-M "P -1"
_symmetry_group_IT_number 2
_symmetry_cell_setting 'triclinic'
loop_
_space_group_symop_operation_xyz
x,y,z
-x,-y,-z
loop_
_atom_site_type_symbol
_atom_site_label
_atom_site_fract_x
_atom_site_fract_y
_atom_site_fract_z
Si Si1 0.612582 0.899188 0.595831
Si Si2 0.566719 0.237958 0.786953
Si Si3 0.978832 0.397706 0.264704
Si Si4 0.102651 0.888980 0.311311
Si Si5 0.829368 0.911004 0.255443
Si Si6 0.552027 0.442875 0.164200
Si Si7 0.843649 0.707598 0.858318
O O1 0.760971 0.040752 0.641494
O O2 0.549842 0.833873 0.367077
O O3 0.536802 0.679890 0.689457
O O4 0.587129 0.060212 0.709649
O O5 0.694627 0.489417 0.776882
O O6 0.500000 0.500000 0.000000
O O7 0.559768 0.269117 0.015134
O O8 0.079312 0.369250 0.213616
O O9 0.000000 0.500000 0.500000
O O10 0.002750 0.610418 0.196497
O O11 0.846685 0.122751 0.190895
O O12 0.081836 0.947643 0.526846
O O13 0.121204 0.074472 0.210966
O O14 0.692288 0.685914 0.272431
O O15 0.862572 0.795253 0.093908
#
# Coordination Sequence:
#
# PCOD9020968 Si02
#       7
#     2   2   2   2   2   2   2
#     4  11  21  39  63  95 128 169 210 261 320 376
#     4  10  22  37  63  93 130 166 212 262 316 384
#     4  10  23  44  66  92 129 164 216 267 310 381
#     4  11  23  41  68  94 128 169 211 260 318 379
#     4  10  23  40  63  94 128 164 211 263 310 376
#     4  11  22  38  61  94 129 166 211 259 318 384
#     4  11  22  43  66  94 127 168 212 263 321 373
#
# _framework density 24.806774000000001
#
# number of rings (size 3 to 8) (size 9 to 14) (size 15 to 20)
#    0.000    1.429    1.429    4.286    0.000    4.571 
#    0.000    2.857    0.000    0.000    0.000    0.000 
#    0.000    0.000    0.000    0.000    0.000    0.000 
#
# Total GULP energy -78298.636961 kJ/mol
# GULP energy per Si atom -5592.759783 kJ/mol
# Density = 2.475031 g / cm^3
# Si number density = 24.806774 Si / 1000 Ang^3
#
#
#
# Elastic Constant Matrix: (Units=GPa)
#
#
# Indices 1 2 3 4 5 6 
#
# 1 64.8397 15.7687 0.5567 0.3429 -14.3101 -9.2011
# 2 15.7687 148.2765 23.1032 6.3910 -10.6911 -0.8649
# 3 0.5567 23.1032 126.4246 28.4450 -24.7579 -12.3941
# 4 0.3429 6.3910 28.4450 45.2849 -0.5239 -6.4436
# 5 -14.3101 -10.6911 -24.7579 -0.5239 27.5690 10.8248
# 6 -9.2011 -0.8649 -12.3941 -6.4436 10.8248 41.7467
#
#
#
# Elastic Compliance Matrix: (Units=1/GPa)
#
#
# Indices 1 2 3 4 5 6 
#
# 1 0.018405 -0.001553 0.002760 -0.001263 0.010666 0.001883
# 2 -0.001553 0.007185 -0.001008 -0.000486 0.001435 -0.000940
# 3 0.002760 -0.001008 0.012011 -0.007288 0.011691 -0.000003
# 4 -0.001263 -0.000486 -0.007288 0.027200 -0.008415 0.003928
# 5 0.010666 0.001435 0.011691 -0.008415 0.056688 -0.010146
# 6 0.001883 -0.000940 -0.000003 0.003928 -0.010146 0.027586
#
#
# Mechanical properties :
#
#
# Convention : Reuss Voigt Hill
#
# Bulk Modulus (GPa) = 26.31603 46.48867 36.40235
# Shear Modulus (GPa) = 30.98994 42.92760 36.95877
#
# Velocity S-wave (km/s) = 3.53831 4.16442 3.86407
# Velocity P-wave (km/s) = 5.22727 6.47334 5.88339
#
# Compressibility (1/GPa) = 0.03799966
#
# Stress axis : x y z
#
# Youngs Moduli (GPa) = 54.33432 139.17318 83.25817
#
# Poissons Ratio (x) = 0.21612 -0.22981
# Poissons Ratio (y) = 0.08437 0.08392
# Poissons Ratio (z) = -0.14998 0.14028
#
# Static dielectric constant tensor:
#      x y z
#    x 1.993600 -0.024690 -0.004850 
#    y -0.024690 2.042170 -0.037820 
#    z -0.004850 -0.037820 2.042430 
# 
# From -- ./inp_files/288518.got.cif
#   From: 2010.05.17/outbox.cif.g08.bks.cpg/sg2_145_cif.got.tgz:288518.got - 2010.06.03 11:33:40.
