data_PCOD9020748
_publ_section_title
;
Structure prediction by ZEFSAII (Michael W. Deem and Ramdas Pophale) SiO2 
 PCOD9020748
Probable space group: P -1
;
_chemical_formula_sum "Si O2"
_cell_formula_units_Z 12
_cell_length_a 9.010791
_cell_length_b 5.115920
_cell_length_c 17.925044
_cell_angle_alpha 67.750209
_cell_angle_beta 131.801495
_cell_angle_gamma 87.113644
_cell_volume 512.305291
_symmetry_space_group_name_H-M "P -1"
_symmetry_group_IT_number 2
_symmetry_cell_setting 'triclinic'
loop_
_space_group_symop_operation_xyz
x,y,z
-x,-y,-z
loop_
_atom_site_type_symbol
_atom_site_label
_atom_site_fract_x
_atom_site_fract_y
_atom_site_fract_z
Si Si1 0.104650 0.813210 0.447306
Si Si2 0.320866 0.096685 0.316627
Si Si3 0.356640 0.153478 0.679321
Si Si4 0.270100 0.138954 0.058521
Si Si5 0.746392 0.636404 0.586005
Si Si6 0.057158 0.851472 0.917714
O O1 0.273931 0.511591 0.584134
O O2 0.140347 0.094210 0.614967
O O3 0.118359 0.662866 0.386368
O O4 0.163076 0.104870 0.431296
O O5 0.257636 0.378859 0.324021
O O6 0.466932 0.084096 0.294963
O O7 0.492967 0.800741 0.453635
O O8 0.485673 0.093737 0.806882
O O9 0.895792 0.918906 0.785866
O O10 0.237802 0.492896 0.008788
O O11 0.183121 0.054630 0.962331
O O12 0.104091 0.128517 0.068917
#
# Coordination Sequence:
#
# PCOD9020748 Si02
#       6
#     2   2   2   2   2   2
#     4  10  22  37  55  81 112 143 175 220 273 320
#     4   9  20  36  58  82 108 141 182 222 265 319
#     4   9  20  36  58  82 108 141 182 222 265 319
#     4   9  18  31  50  77 105 134 173 221 264 305
#     4  10  22  37  55  81 112 143 175 220 273 320
#     4   9  18  31  50  77 105 134 173 221 264 305
#
# _framework density 23.423532000000002
#
# number of rings (size 3 to 8) (size 9 to 14) (size 15 to 20)
#    0.000    2.667    0.000    0.000    0.000   24.000 
#    0.000    0.000    0.000    6.000    0.000    0.000 
#    0.000    0.000    0.000    0.000    0.000    0.000 
#
# Total GULP energy -67074.240982 kJ/mol
# GULP energy per Si atom -5589.520082 kJ/mol
# Density = 2.337022 g / cm^3
# Si number density = 23.423532 Si / 1000 Ang^3
#
#
#
# Elastic Constant Matrix: (Units=GPa)
#
#
# Indices 1 2 3 4 5 6 
#
# 1 65.8588 22.0588 36.9156 -0.3858 1.6917 -1.1052
# 2 22.0588 85.5679 31.6124 7.7518 4.1260 3.5325
# 3 36.9156 31.6124 164.7623 12.7539 -6.5071 -16.9713
# 4 -0.3858 7.7518 12.7539 21.8548 -8.4700 -3.8853
# 5 1.6917 4.1260 -6.5071 -8.4700 27.7649 11.0570
# 6 -1.1052 3.5325 -16.9713 -3.8853 11.0570 22.7026
#
#
#
# Elastic Compliance Matrix: (Units=1/GPa)
#
#
# Indices 1 2 3 4 5 6 
#
# 1 0.018568 -0.003680 -0.003817 0.003709 -0.000064 -0.000711
# 2 -0.003680 0.014121 -0.001914 -0.005601 -0.002647 -0.003476
# 3 -0.003817 -0.001914 0.008150 -0.003470 -0.001074 0.006134
# 4 0.003709 -0.005601 -0.003470 0.056419 0.017088 -0.000209
# 5 -0.000064 -0.002647 -0.001074 0.017088 0.050081 -0.021861
# 6 -0.000711 -0.003476 0.006134 -0.000209 -0.021861 0.059751
#
#
# Mechanical properties :
#
#
# Convention : Reuss Voigt Hill
#
# Bulk Modulus (GPa) = 45.42046 55.26250 50.34148
# Shear Modulus (GPa) = 21.43628 29.50461 25.47044
#
# Velocity S-wave (km/s) = 3.02844 3.55295 3.30113
# Velocity P-wave (km/s) = 5.62687 6.36202 6.00570
#
# Compressibility (1/GPa) = 0.02201651
#
# Stress axis : x y z
#
# Youngs Moduli (GPa) = 53.85749 70.81696 122.70292
#
# Poissons Ratio (x) = 0.26061 0.46835
# Poissons Ratio (y) = 0.19820 0.23484
# Poissons Ratio (z) = 0.20557 0.13554
#
# Static dielectric constant tensor:
#      x y z
#    x 1.935690 0.006820 -0.056510 
#    y 0.006820 1.919590 -0.003640 
#    z -0.056510 -0.003640 1.909140 
# 
# From -- ./inp_files/623742.got.cif
#   From: 2010.05.17/outbox.cif.g08.bks.cpg/sg2_312_cif.got.tgz:623742.got - 2010.06.03 11:33:40.
