data_PCOD9020285
_publ_section_title
;
Structure prediction by ZEFSAII (Michael W. Deem and Ramdas Pophale) SiO2 
 PCOD9020285
Probable space group: P -1
;
_chemical_formula_sum "Si O2"
_cell_formula_units_Z 16
_cell_length_a 11.202938
_cell_length_b 13.535116
_cell_length_c 8.729498
_cell_angle_alpha 46.739499
_cell_angle_beta 126.798770
_cell_angle_gamma 130.920651
_cell_volume 700.760948
_symmetry_space_group_name_H-M "P -1"
_symmetry_group_IT_number 2
_symmetry_cell_setting 'triclinic'
loop_
_space_group_symop_operation_xyz
x,y,z
-x,-y,-z
loop_
_atom_site_type_symbol
_atom_site_label
_atom_site_fract_x
_atom_site_fract_y
_atom_site_fract_z
Si Si1 0.147809 0.309209 0.938515
Si Si2 0.014157 0.820519 0.584456
Si Si3 0.460593 0.872140 0.235095
Si Si4 0.062085 0.621145 0.054883
Si Si5 0.719148 0.911746 0.649693
Si Si6 0.795404 0.566826 0.476191
Si Si7 0.797064 0.045311 0.902371
Si Si8 0.326026 0.240598 0.662012
O O1 0.202721 0.417284 0.720060
O O2 0.082868 0.384198 0.940207
O O3 0.990075 0.154976 0.933484
O O4 0.282699 0.250560 0.153670
O O5 0.961066 0.703269 0.526372
O O6 0.833282 0.793677 0.531866
O O7 0.116362 0.981581 0.426459
O O8 0.113204 0.775705 0.836475
O O9 0.575891 0.912824 0.431047
O O10 0.289613 0.858118 0.189783
O O11 0.522183 0.760714 0.311323
O O12 0.500000 0.000000 0.000000
O O13 0.188310 0.576932 0.292649
O O14 0.000000 0.500000 0.000000
O O15 0.730971 0.987474 0.743937
O O16 0.655121 0.610086 0.393310
O O17 0.744152 0.896098 0.124291
#
# Coordination Sequence:
#
# PCOD9020285 Si02
#       8
#     2   2   2   2   2   2   2   2
#     4  12  20  34  64  85 112 147 182 239 279 330
#     4   9  18  32  55  86 111 140 181 235 270 329
#     4  10  24  34  51  81 124 156 175 221 281 350
#     4  10  22  33  50  85 119 144 185 232 277 327
#     4  12  20  35  60  88 113 149 181 228 288 336
#     4   9  18  36  53  82 113 143 186 235 272 318
#     4  11  20  37  52  90 119 142 186 224 289 333
#     4   9  17  35  53  78 115 147 180 228 273 333
#
# _framework density 22.832322000000001
#
# number of rings (size 3 to 8) (size 9 to 14) (size 15 to 20)
#    0.750    1.000    3.750    1.875    3.500    1.000 
#    0.000    0.000    0.000    0.750    0.000    5.250 
#    0.000    0.000    0.000    0.000    0.000    0.000 
#
# Total GULP energy -89259.728541 kJ/mol
# GULP energy per Si atom -5578.733034 kJ/mol
# Density = 2.278035 g / cm^3
# Si number density = 22.832322 Si / 1000 Ang^3
#
#
#
# Elastic Constant Matrix: (Units=GPa)
#
#
# Indices 1 2 3 4 5 6 
#
# 1 88.6918 27.1429 44.7427 -13.6854 -1.8036 -31.2083
# 2 27.1429 52.7746 38.3920 -4.9227 -3.7359 -33.6440
# 3 44.7427 38.3920 170.8792 -11.8945 -1.1429 -15.0513
# 4 -13.6854 -4.9227 -11.8945 26.0501 -12.0671 5.4663
# 5 -1.8036 -3.7359 -1.1429 -12.0671 32.2109 6.1015
# 6 -31.2083 -33.6440 -15.0513 5.4663 6.1015 45.9606
#
#
#
# Elastic Compliance Matrix: (Units=1/GPa)
#
#
# Indices 1 2 3 4 5 6 
#
# 1 0.017353 0.000800 -0.003374 0.006148 0.001285 0.010362
# 2 0.000800 0.042463 -0.007275 -0.001847 -0.001602 0.029676
# 3 -0.003374 -0.007275 0.008054 0.002160 0.001081 -0.005379
# 4 0.006148 -0.001847 0.002160 0.053268 0.021227 -0.005623
# 5 0.001285 -0.001602 0.001081 0.021227 0.040406 -0.007835
# 6 0.010362 0.029676 -0.005379 -0.005623 -0.007835 0.050465
#
#
# Mechanical properties :
#
#
# Convention : Reuss Voigt Hill
#
# Bulk Modulus (GPa) = 20.75937 59.21119 39.98528
# Shear Modulus (GPa) = 20.18045 34.31552 27.24798
#
# Velocity S-wave (km/s) = 2.97619 3.88098 3.45830
# Velocity P-wave (km/s) = 4.57407 6.78764 5.78767
#
# Compressibility (1/GPa) = 0.04817102
#
# Stress axis : x y z
#
# Youngs Moduli (GPa) = 57.62584 23.55005 124.16512
#
# Poissons Ratio (x) = -0.01883 0.41896
# Poissons Ratio (y) = -0.04608 0.90330
# Poissons Ratio (z) = 0.19444 0.17133
#
# Static dielectric constant tensor:
#      x y z
#    x 1.831690 -0.029750 0.021360 
#    y -0.029750 1.909980 0.015340 
#    z 0.021360 0.015340 1.874510 
# 
# From -- ./inp_files/266935.got.cif
#   From: 2010.05.17/outbox.cif.g08.bks.cpg/sg2_134_cif.got.tgz:266935.got - 2010.06.03 11:33:40.
