data_PCOD9020496
_publ_section_title
;
Structure prediction by ZEFSAII (Michael W. Deem and Ramdas Pophale) SiO2 
 PCOD9020496
Probable space group: P -1
;
_chemical_formula_sum "Si O2"
_cell_formula_units_Z 16
_cell_length_a 14.228444
_cell_length_b 9.437514
_cell_length_c 13.066304
_cell_angle_alpha 86.780655
_cell_angle_beta 55.091872
_cell_angle_gamma 132.481182
_cell_volume 723.123421
_symmetry_space_group_name_H-M "P -1"
_symmetry_group_IT_number 2
_symmetry_cell_setting 'triclinic'
loop_
_space_group_symop_operation_xyz
x,y,z
-x,-y,-z
loop_
_atom_site_type_symbol
_atom_site_label
_atom_site_fract_x
_atom_site_fract_y
_atom_site_fract_z
Si Si1 0.911135 0.211737 0.502145
Si Si2 0.689640 0.299554 0.921815
Si Si3 0.237299 0.182301 0.537714
Si Si4 0.539249 0.089214 0.234912
Si Si5 0.705400 0.459287 0.609469
Si Si6 0.466821 0.318339 0.970091
Si Si7 0.097654 0.065167 0.092564
Si Si8 0.690102 0.522973 0.230964
O O1 0.085529 0.457199 0.297140
O O2 0.050205 0.341282 0.515019
O O3 0.833610 0.976230 0.515155
O O4 0.693582 0.079924 0.648389
O O5 0.558529 0.308266 0.997456
O O6 0.713014 0.273998 0.023938
O O7 0.500000 0.000000 0.000000
O O8 0.279193 0.392266 0.481510
O O9 0.032703 0.960884 0.754428
O O10 0.462414 0.344393 0.429485
O O11 0.644524 0.309425 0.243158
O O12 0.456433 0.840409 0.317232
O O13 0.610076 0.424077 0.776673
O O14 0.500000 0.500000 0.000000
O O15 0.218566 0.075687 0.086069
O O16 0.910964 0.789358 0.149540
O O17 0.270256 0.338632 0.901990
#
# Coordination Sequence:
#
# PCOD9020496 Si02
#       8
#     2   2   2   2   2   2   2   2
#     4  10  22  36  57  90 118 165 193 237 306 355
#     4  11  22  37  60  89 126 154 196 244 299 361
#     4  11  22  38  62  88 121 152 207 251 294 354
#     4  11  22  40  61  86 127 160 197 244 303 355
#     4  11  22  38  56  93 127 154 197 249 299 360
#     4  11  22  37  61  91 120 155 200 243 299 357
#     4  11  22  41  66  88 117 158 206 248 302 344
#     4  10  23  42  65  86 116 160 207 250 292 360
#
# _framework density 22.126235999999999
#
# number of rings (size 3 to 8) (size 9 to 14) (size 15 to 20)
#    0.000    1.250    3.750    4.125    3.500    0.000 
#    0.000    1.250    0.000    0.000    0.000    0.000 
#    0.000    0.000    0.000    0.000    0.000    0.000 
#
# Total GULP energy -89368.834614 kJ/mol
# GULP energy per Si atom -5585.552163 kJ/mol
# Density = 2.207588 g / cm^3
# Si number density = 22.126236 Si / 1000 Ang^3
#
#
#
# Elastic Constant Matrix: (Units=GPa)
#
#
# Indices 1 2 3 4 5 6 
#
# 1 18.3016 17.1071 12.8887 -11.4371 4.8208 1.9915
# 2 17.1071 115.0947 -4.0079 -15.9960 -0.3035 -11.9217
# 3 12.8887 -4.0079 75.2481 -1.7141 -5.8116 -1.4520
# 4 -11.4371 -15.9960 -1.7141 31.0800 -0.5534 -2.2730
# 5 4.8208 -0.3035 -5.8116 -0.5534 20.9165 -8.9964
# 6 1.9915 -11.9217 -1.4520 -2.2730 -8.9964 33.7818
#
#
#
# Elastic Compliance Matrix: (Units=1/GPa)
#
#
# Indices 1 2 3 4 5 6 
#
# 1 0.123793 -0.017406 -0.025373 0.032599 -0.045488 -0.024451
# 2 -0.017406 0.012427 0.004511 0.000988 0.008934 0.008051
# 3 -0.025373 0.004511 0.018997 -0.005178 0.014212 0.007341
# 4 0.032599 0.000988 -0.005178 0.044174 -0.008202 -0.001008
# 5 -0.045488 0.008934 0.014212 -0.008202 0.073058 0.025350
# 6 -0.024451 0.008051 0.007341 -0.001008 0.025350 0.040883
#
#
# Mechanical properties :
#
#
# Convention : Reuss Voigt Hill
#
# Bulk Modulus (GPa) = 12.70935 28.95781 20.83358
# Shear Modulus (GPa) = 12.01648 29.33275 20.67462
#
# Velocity S-wave (km/s) = 2.33295 3.64497 3.06010
# Velocity P-wave (km/s) = 3.60741 5.55251 4.68208
#
# Compressibility (1/GPa) = 0.07868223
#
# Stress axis : x y z
#
# Youngs Moduli (GPa) = 8.07800 80.46690 52.63996
#
# Poissons Ratio (x) = 1.40057 1.33564
# Poissons Ratio (y) = 0.14060 -0.23746
# Poissons Ratio (z) = 0.20496 -0.36299
#
# Static dielectric constant tensor:
#      x y z
#    x 1.798090 0.022790 0.024600 
#    y 0.022790 1.858660 0.014640 
#    z 0.024600 0.014640 1.854450 
# 
# From -- ./inp_files/175015.got.cif
#   From: 2010.05.17/outbox.cif.g08.bks.cpg/sg2_88_cif.got.tgz:175015.got - 2010.06.03 11:33:40.
