data_PCOD9020780
_publ_section_title
;
Structure prediction by ZEFSAII (Michael W. Deem and Ramdas Pophale) SiO2 
 PCOD9020780
Probable space group: P -1
;
_chemical_formula_sum "Si O2"
_cell_formula_units_Z 14
_cell_length_a 11.715500
_cell_length_b 11.006395
_cell_length_c 13.309794
_cell_angle_alpha 118.283002
_cell_angle_beta 22.651599
_cell_angle_gamma 122.928154
_cell_volume 552.725995
_symmetry_space_group_name_H-M "P -1"
_symmetry_group_IT_number 2
_symmetry_cell_setting 'triclinic'
loop_
_space_group_symop_operation_xyz
x,y,z
-x,-y,-z
loop_
_atom_site_type_symbol
_atom_site_label
_atom_site_fract_x
_atom_site_fract_y
_atom_site_fract_z
Si Si1 0.959887 0.674151 0.791765
Si Si2 0.577035 0.986285 0.763880
Si Si3 0.284056 0.156726 0.210615
Si Si4 0.658635 0.515462 0.680335
Si Si5 0.370179 0.563811 0.723247
Si Si6 0.867503 0.006888 0.221454
Si Si7 0.550940 0.180335 0.373413
O O1 0.089554 0.567588 0.577697
O O2 0.988938 0.832424 0.786498
O O3 0.176943 0.723325 0.736805
O O4 0.611890 0.587698 0.072175
O O5 0.938306 0.044277 0.460054
O O6 0.541762 0.872257 0.840488
O O7 0.399105 0.950353 0.786332
O O8 0.477358 0.114132 0.948145
O O9 0.254895 0.317874 0.289161
O O10 0.508490 0.525939 0.697640
O O11 0.500000 0.500000 0.500000
O O12 0.480535 0.728927 0.662805
O O13 0.000000 0.500000 0.000000
O O14 0.500000 0.000000 0.500000
O O15 0.772736 0.871618 0.322237
O O16 0.000000 0.000000 0.000000
#
# Coordination Sequence:
#
# PCOD9020780 Si02
#       7
#     2   2   2   2   2   2   2
#     4  11  23  37  62  89 119 157 195 247 303 355
#     4  10  22  37  58  83 119 157 201 241 289 356
#     4  10  22  38  55  85 118 161 198 238 292 356
#     4  12  21  39  59  86 125 157 192 244 304 364
#     4  12  23  35  55  93 127 154 189 239 311 373
#     4  10  23  40  60  87 122 159 204 243 295 362
#     4  11  22  40  63  89 124 156 198 249 302 355
#
# _framework density 25.329006
#
# number of rings (size 3 to 8) (size 9 to 14) (size 15 to 20)
#    0.000    1.143    4.286    2.571    0.000    4.571 
#    0.000    0.000    0.000    5.143    0.000    0.000 
#    0.000    0.000    0.000    0.000    0.000    0.000 
#
# Total GULP energy -78228.919607 kJ/mol
# GULP energy per Si atom -5587.779972 kJ/mol
# Density = 2.527136 g / cm^3
# Si number density = 25.329006 Si / 1000 Ang^3
#
#
#
# Elastic Constant Matrix: (Units=GPa)
#
#
# Indices 1 2 3 4 5 6 
#
# 1 85.5829 3.2596 14.3964 5.6420 6.4286 4.0386
# 2 3.2596 88.2630 7.1943 -2.4274 16.7420 -15.6433
# 3 14.3964 7.1943 158.0812 -7.1593 31.9028 7.2764
# 4 5.6420 -2.4274 -7.1593 58.5031 1.7292 15.5728
# 5 6.4286 16.7420 31.9028 1.7292 21.8840 13.3395
# 6 4.0386 -15.6433 7.2764 15.5728 13.3395 38.7809
#
#
#
# Elastic Compliance Matrix: (Units=1/GPa)
#
#
# Indices 1 2 3 4 5 6 
#
# 1 0.012064 0.000270 -0.000551 -0.001276 -0.003193 0.000567
# 2 0.000270 0.021988 0.005529 -0.003234 -0.038280 0.022270
# 3 -0.000551 0.005529 0.010817 -0.000035 -0.025305 0.008976
# 4 -0.001276 -0.003234 -0.000035 0.020078 0.008779 -0.012247
# 5 -0.003193 -0.038280 -0.025305 0.008779 0.152568 -0.066365
# 6 0.000567 0.022270 0.008976 -0.012247 -0.066365 0.060771
#
#
# Mechanical properties :
#
#
# Convention : Reuss Voigt Hill
#
# Bulk Modulus (GPa) = 18.06184 42.40308 30.23246
# Shear Modulus (GPa) = 17.46754 44.30539 30.88646
#
# Velocity S-wave (km/s) = 2.62892 4.18688 3.49579
# Velocity P-wave (km/s) = 4.04492 6.33644 5.31563
#
# Compressibility (1/GPa) = 0.05536534
#
# Stress axis : x y z
#
# Youngs Moduli (GPa) = 82.89059 45.47896 92.45119
#
# Poissons Ratio (x) = -0.01229 0.05090
# Poissons Ratio (y) = -0.02240 -0.51112
# Poissons Ratio (z) = 0.04563 -0.25143
#
# Static dielectric constant tensor:
#      x y z
#    x 2.245970 -0.151400 -0.087000 
#    y -0.151400 2.087910 -0.055720 
#    z -0.087000 -0.055720 1.941430 
# 
# From -- ./inp_files/368736.got.cif
#   From: 2010.05.17/outbox.cif.g08.bks.cpg/sg2_185_cif.got.tgz:368736.got - 2010.06.03 11:33:40.
