data_PCOD9020625
_publ_section_title
;
Structure prediction by ZEFSAII (Michael W. Deem and Ramdas Pophale) SiO2 
 PCOD9020625
Probable space group: P -1
;
_chemical_formula_sum "Si O2"
_cell_formula_units_Z 16
_cell_length_a 15.676930
_cell_length_b 13.313396
_cell_length_c 10.042888
_cell_angle_alpha 69.354930
_cell_angle_beta 69.590878
_cell_angle_gamma 18.068316
_cell_volume 607.692434
_symmetry_space_group_name_H-M "P -1"
_symmetry_group_IT_number 2
_symmetry_cell_setting 'triclinic'
loop_
_space_group_symop_operation_xyz
x,y,z
-x,-y,-z
loop_
_atom_site_type_symbol
_atom_site_label
_atom_site_fract_x
_atom_site_fract_y
_atom_site_fract_z
Si Si1 0.302344 0.890305 0.773044
Si Si2 0.706576 0.705587 0.927210
Si Si3 0.390891 0.522866 0.459308
Si Si4 0.940732 0.154424 0.263777
Si Si5 0.504929 0.874079 0.286509
Si Si6 0.298512 0.121253 0.547925
Si Si7 0.901044 0.785875 0.845450
Si Si8 0.248296 0.584584 0.037510
O O1 0.383653 0.757304 0.644150
O O2 0.538604 0.603132 0.887357
O O3 0.279406 0.046948 0.701815
O O4 0.026323 0.143251 0.860388
O O5 0.642749 0.653081 0.960800
O O6 0.660273 0.828195 0.766609
O O7 0.001838 0.377053 0.993549
O O8 0.500000 0.000000 0.000000
O O9 0.500000 0.500000 0.500000
O O10 0.263592 0.594257 0.617233
O O11 0.132943 0.846662 0.357152
O O12 0.118536 0.065513 0.190758
O O13 0.808741 0.286338 0.128001
O O14 0.825116 0.536484 0.243608
O O15 0.433147 0.907332 0.451418
O O16 0.351484 0.977871 0.207923
O O17 0.000000 0.500000 0.500000
O O18 0.500000 0.000000 0.500000
#
# Coordination Sequence:
#
# PCOD9020625 Si02
#       8
#     2   2   2   2   2   2   2   2
#     4  12  28  49  76 112 158 201 253 318 386 452
#     4   9  20  39  64 101 145 193 247 294 357 438
#     4  11  28  50  81 109 149 196 258 322 385 464
#     4  10  26  48  75 111 146 191 258 310 387 458
#     4  11  21  36  60  92 133 182 236 286 349 413
#     4  12  25  42  66  98 142 195 241 290 363 447
#     4  10  22  36  63  95 131 178 227 300 347 421
#     4  11  27  48  76 110 157 200 251 315 386 454
#
# _framework density 26.329108000000002
#
# number of rings (size 3 to 8) (size 9 to 14) (size 15 to 20)
#    0.000    1.250    0.000    4.125    8.750    9.000 
#    0.000    0.000    0.000    0.000    0.000    0.000 
#    0.000    0.000    0.000    0.000    0.000    0.000 
#
# Total GULP energy -89509.917443 kJ/mol
# GULP energy per Si atom -5594.369840 kJ/mol
# Density = 2.626918 g / cm^3
# Si number density = 26.329108 Si / 1000 Ang^3
#
#
#
# Elastic Constant Matrix: (Units=GPa)
#
#
# Indices 1 2 3 4 5 6 
#
# 1 87.2011 24.7604 25.7406 3.2354 14.6045 -12.2979
# 2 24.7604 131.9450 65.5582 21.8376 0.3672 -21.3288
# 3 25.7406 65.5582 181.9127 8.2705 3.6228 -2.8851
# 4 3.2354 21.8376 8.2705 57.4057 10.2383 3.9244
# 5 14.6045 0.3672 3.6228 10.2383 40.4932 0.6765
# 6 -12.2979 -21.3288 -2.8851 3.9244 0.6765 31.9378
#
#
#
# Elastic Compliance Matrix: (Units=1/GPa)
#
#
# Indices 1 2 3 4 5 6 
#
# 1 0.013649 -0.001270 -0.001328 0.000499 -0.004991 0.004332
# 2 -0.001270 0.011637 -0.003719 -0.004640 0.001733 0.007480
# 3 -0.001328 -0.003719 0.006960 0.000698 -0.000245 -0.002447
# 4 0.000499 -0.004640 0.000698 0.020352 -0.005259 -0.005233
# 5 -0.004991 0.001733 -0.000245 -0.005259 0.027844 -0.000730
# 6 0.004332 0.007480 -0.002447 -0.005233 -0.000730 0.038412
#
#
# Mechanical properties :
#
#
# Convention : Reuss Voigt Hill
#
# Bulk Modulus (GPa) = 50.99076 70.35302 60.67189
# Shear Modulus (GPa) = 36.22542 44.96733 40.59638
#
# Velocity S-wave (km/s) = 3.71330 4.13715 3.93094
# Velocity P-wave (km/s) = 6.14764 7.04273 6.61035
#
# Compressibility (1/GPa) = 0.01961140
#
# Stress axis : x y z
#
# Youngs Moduli (GPa) = 73.26735 85.92968 143.68300
#
# Poissons Ratio (x) = 0.10911 0.19085
# Poissons Ratio (y) = 0.09303 0.53438
# Poissons Ratio (z) = 0.09732 0.31959
#
# Static dielectric constant tensor:
#      x y z
#    x 2.084070 0.064020 -0.068220 
#    y 0.064020 2.099800 0.015770 
#    z -0.068220 0.015770 2.204260 
# 
# From -- ./inp_files/410797.got.cif
#   From: 2010.05.17/outbox.cif.g08.bks.cpg/sg2_206_cif.got.tgz:410797.got - 2010.06.03 11:33:40.
