data_PCOD9020405
_publ_section_title
;
Structure prediction by ZEFSAII (Michael W. Deem and Ramdas Pophale) SiO2 
 PCOD9020405
Probable space group: P -1
;
_chemical_formula_sum "Si O2"
_cell_formula_units_Z 16
_cell_length_a 16.934790
_cell_length_b 9.726457
_cell_length_c 22.885679
_cell_angle_alpha 31.163592
_cell_angle_beta 23.014013
_cell_angle_gamma 28.180580
_cell_volume 675.574160
_symmetry_space_group_name_H-M "P -1"
_symmetry_group_IT_number 2
_symmetry_cell_setting 'triclinic'
loop_
_space_group_symop_operation_xyz
x,y,z
-x,-y,-z
loop_
_atom_site_type_symbol
_atom_site_label
_atom_site_fract_x
_atom_site_fract_y
_atom_site_fract_z
Si Si1 0.361808 0.982488 0.890980
Si Si2 0.839653 0.349769 0.493280
Si Si3 0.785802 0.428449 0.177281
Si Si4 0.318803 0.329096 0.058539
Si Si5 0.139758 0.190722 0.843602
Si Si6 0.492842 0.381689 0.807688
Si Si7 0.795838 0.443735 0.816331
Si Si8 0.504891 0.658522 0.501872
O O1 0.213372 0.864775 0.073466
O O2 0.606846 0.705504 0.811474
O O3 0.406014 0.226941 0.804999
O O4 0.219362 0.142816 0.873252
O O5 0.704743 0.386742 0.631292
O O6 0.686030 0.463925 0.498958
O O7 0.972164 0.542975 0.343559
O O8 0.000000 0.000000 0.500000
O O9 0.717103 0.385591 0.174133
O O10 0.731288 0.254573 0.330992
O O11 0.000000 0.500000 0.000000
O O12 0.298224 0.464345 0.087002
O O13 0.058541 0.471071 0.159454
O O14 0.450448 0.970352 0.104276
O O15 0.445149 0.445667 0.884983
O O16 0.375997 0.128737 0.672335
O O17 0.000000 0.000000 0.000000
O O18 0.500000 0.500000 0.500000
#
# Coordination Sequence:
#
# PCOD9020405 Si02
#       8
#     2   2   2   2   2   2   2   2
#     4  11  22  37  61  88 119 153 200 248 300 356
#     4  11  19  37  57  85 118 156 199 246 297 350
#     4  11  22  39  58  88 126 157 194 252 311 346
#     4  11  20  38  58  88 113 156 197 241 297 357
#     4  12  22  38  61  91 120 155 197 253 301 355
#     4  10  22  35  60  85 119 154 197 246 296 360
#     4  11  21  38  63  85 115 159 202 242 297 364
#     4  11  22  35  59  91 115 152 211 246 286 362
#
# _framework density 23.683558999999999
#
# number of rings (size 3 to 8) (size 9 to 14) (size 15 to 20)
#    0.000    1.000    6.250    1.500    0.000    0.000 
#    0.000    1.250    0.000    6.000    0.000    0.000 
#    0.000    0.000    0.000    0.000    0.000    0.000 
#
# Total GULP energy -89126.069767 kJ/mol
# GULP energy per Si atom -5570.379360 kJ/mol
# Density = 2.362965 g / cm^3
# Si number density = 23.683559 Si / 1000 Ang^3
#
#
#
# Elastic Constant Matrix: (Units=GPa)
#
#
# Indices 1 2 3 4 5 6 
#
# 1 93.7913 1.8334 39.2492 1.3341 12.6034 -18.5882
# 2 1.8334 29.9278 6.0361 -6.2886 0.4901 -9.4164
# 3 39.2492 6.0361 220.5764 1.6876 11.9468 9.6284
# 4 1.3341 -6.2886 1.6876 32.1514 5.3549 -5.8525
# 5 12.6034 0.4901 11.9468 5.3549 43.6229 3.7596
# 6 -18.5882 -9.4164 9.6284 -5.8525 3.7596 29.9127
#
#
#
# Elastic Compliance Matrix: (Units=1/GPa)
#
#
# Indices 1 2 3 4 5 6 
#
# 1 0.015180 0.004783 -0.003162 0.003764 -0.005186 0.013345
# 2 0.004783 0.042863 -0.002773 0.012785 -0.004433 0.020416
# 3 -0.003162 -0.002773 0.005394 -0.001600 0.000086 -0.004898
# 4 0.003764 0.012785 -0.001600 0.037380 -0.006677 0.015032
# 5 -0.005186 -0.004433 0.000086 -0.006677 0.026063 -0.009228
# 6 0.013345 0.020416 -0.004898 0.015032 -0.009228 0.053828
#
#
# Mechanical properties :
#
#
# Convention : Reuss Voigt Hill
#
# Bulk Modulus (GPa) = 16.35838 48.72587 32.54212
# Shear Modulus (GPa) = 24.58343 40.94919 32.76631
#
# Velocity S-wave (km/s) = 3.22529 4.16265 3.72358
# Velocity P-wave (km/s) = 4.55983 6.61226 5.67952
#
# Compressibility (1/GPa) = 0.06113076
#
# Stress axis : x y z
#
# Youngs Moduli (GPa) = 65.87656 23.33027 185.40643
#
# Poissons Ratio (x) = -0.11158 0.58634
# Poissons Ratio (y) = -0.31506 0.51411
# Poissons Ratio (z) = 0.20833 0.06469
#
# Static dielectric constant tensor:
#      x y z
#    x 2.021430 0.008250 -0.000040 
#    y 0.008250 2.071690 0.023070 
#    z -0.000040 0.023070 2.020610 
# 
# From -- ./inp_files/388988.got.cif
#   From: 2010.05.17/outbox.cif.g08.bks.cpg/sg2_195_cif.got.tgz:388988.got - 2010.06.03 11:33:40.
