data_PCOD9020434
_publ_section_title
;
Structure prediction by ZEFSAII (Michael W. Deem and Ramdas Pophale) SiO2 
 PCOD9020434
Probable space group: P -1
;
_chemical_formula_sum "Si O2"
_cell_formula_units_Z 12
_cell_length_a 22.161043
_cell_length_b 11.375404
_cell_length_c 11.094423
_cell_angle_alpha 141.723413
_cell_angle_beta 28.948900
_cell_angle_gamma 157.182885
_cell_volume 521.495576
_symmetry_space_group_name_H-M "P -1"
_symmetry_group_IT_number 2
_symmetry_cell_setting 'triclinic'
loop_
_space_group_symop_operation_xyz
x,y,z
-x,-y,-z
loop_
_atom_site_type_symbol
_atom_site_label
_atom_site_fract_x
_atom_site_fract_y
_atom_site_fract_z
Si Si1 0.960161 0.290746 0.740196
Si Si2 0.790746 0.793032 0.494958
Si Si3 0.699696 0.293767 0.317180
Si Si4 0.157080 0.707227 0.504319
Si Si5 0.470467 0.283357 0.288408
Si Si6 0.875040 0.909996 0.029175
O O1 0.120286 0.471269 0.712033
O O2 0.083915 0.476735 0.550020
O O3 0.841587 0.953467 0.659880
O O4 0.793506 0.254619 0.028061
O O5 0.655679 0.446040 0.458998
O O6 0.690472 0.834106 0.620812
O O7 0.991268 0.956481 0.213629
O O8 0.500000 0.000000 0.500000
O O9 0.000000 0.500000 0.500000
O O10 0.376917 0.992642 0.287713
O O11 0.157197 0.906882 0.739635
O O12 0.500000 0.500000 0.500000
O O13 0.687212 0.542705 0.057091
O O14 0.000000 0.000000 0.000000
#
# Coordination Sequence:
#
# PCOD9020434 Si02
#       6
#     2   2   2   2   2   2
#     4  11  25  46  66  98 134 171 223 277 324 396
#     4  12  23  44  68  93 137 173 221 276 333 387
#     4  11  28  45  70  94 127 180 227 276 330 388
#     4  11  20  41  65  97 138 166 211 275 328 390
#     4  10  22  35  66  98 133 176 211 264 329 395
#     4  11  21  38  64  97 135 179 211 263 334 393
#
# _framework density 23.010743999999999
#
# number of rings (size 3 to 8) (size 9 to 14) (size 15 to 20)
#    0.000    1.000    6.667    0.500    4.667    2.000 
#    0.000    1.667    0.000    0.000    0.000    0.000 
#    0.000    0.000    0.000    0.000    0.000    0.000 
#
# Total GULP energy -66996.801127 kJ/mol
# GULP energy per Si atom -5583.066761 kJ/mol
# Density = 2.295837 g / cm^3
# Si number density = 23.010744 Si / 1000 Ang^3
#
#
#
# Elastic Constant Matrix: (Units=GPa)
#
#
# Indices 1 2 3 4 5 6 
#
# 1 37.0953 -5.1750 8.0284 6.1671 9.0261 -0.2473
# 2 -5.1750 116.8888 47.1207 -9.8058 10.3740 -8.3014
# 3 8.0284 47.1207 87.4555 -6.5894 16.9834 -3.1771
# 4 6.1671 -9.8058 -6.5894 44.5931 -2.2022 8.0300
# 5 9.0261 10.3740 16.9834 -2.2022 26.1263 -2.9600
# 6 -0.2473 -8.3014 -3.1771 8.0300 -2.9600 44.1421
#
#
#
# Elastic Compliance Matrix: (Units=1/GPa)
#
#
# Indices 1 2 3 4 5 6 
#
# 1 0.031365 0.003126 -0.002846 -0.004719 -0.010545 0.000710
# 2 0.003126 0.011438 -0.006050 0.000850 -0.001449 0.001481
# 3 -0.002846 -0.006050 0.016437 0.001257 -0.007271 -0.000687
# 4 -0.004719 0.000850 0.001257 0.024282 0.002063 -0.004055
# 5 -0.010545 -0.001449 -0.007271 0.002063 0.047617 0.001963
# 6 0.000710 0.001481 -0.000687 -0.004055 0.001963 0.023756
#
#
# Mechanical properties :
#
#
# Convention : Reuss Voigt Hill
#
# Bulk Modulus (GPa) = 20.96431 37.93197 29.44814
# Shear Modulus (GPa) = 27.42200 35.73667 31.57933
#
# Velocity S-wave (km/s) = 3.45585 3.94514 3.70857
# Velocity P-wave (km/s) = 5.00543 6.10512 5.58242
#
# Compressibility (1/GPa) = 0.04770011
#
# Stress axis : x y z
#
# Youngs Moduli (GPa) = 31.88294 87.43018 60.83731
#
# Poissons Ratio (x) = -0.27332 0.17312
# Poissons Ratio (y) = -0.09967 0.36808
# Poissons Ratio (z) = 0.09073 0.52898
#
# Static dielectric constant tensor:
#      x y z
#    x 1.875310 -0.081850 -0.046680 
#    y -0.081850 1.944870 0.100700 
#    z -0.046680 0.100700 1.913340 
# 
# From -- ./inp_files/274400.got.cif
#   From: 2010.05.17/outbox.cif.g08.bks.cpg/sg2_138_cif.got.tgz:274400.got - 2010.06.03 11:33:40.
