data_PCOD9020282
_publ_section_title
;
Structure prediction by ZEFSAII (Michael W. Deem and Ramdas Pophale) SiO2 
 PCOD9020282
Probable space group: P -1
;
_chemical_formula_sum "Si O2"
_cell_formula_units_Z 16
_cell_length_a 15.320091
_cell_length_b 5.200819
_cell_length_c 9.969032
_cell_angle_alpha 95.141243
_cell_angle_beta 105.579604
_cell_angle_gamma 100.682033
_cell_volume 743.662651
_symmetry_space_group_name_H-M "P -1"
_symmetry_group_IT_number 2
_symmetry_cell_setting 'triclinic'
loop_
_space_group_symop_operation_xyz
x,y,z
-x,-y,-z
loop_
_atom_site_type_symbol
_atom_site_label
_atom_site_fract_x
_atom_site_fract_y
_atom_site_fract_z
Si Si1 0.803611 0.383673 0.115290
Si Si2 0.218788 0.057713 0.113158
Si Si3 0.714294 0.183006 0.627148
Si Si4 0.608468 0.596968 0.525066
Si Si5 0.628198 0.544230 0.928428
Si Si6 0.937766 0.716005 0.002092
Si Si7 0.546121 0.852330 0.129151
Si Si8 0.298861 0.693933 0.655228
O O1 0.711537 0.408936 0.996223
O O2 0.887957 0.623131 0.120381
O O3 0.820448 0.113336 0.043350
O O4 0.771779 0.377480 0.254836
O O5 0.323854 0.205185 0.128131
O O6 0.154475 0.267266 0.121574
O O7 0.218200 0.869781 0.231191
O O8 0.663264 0.425217 0.634579
O O9 0.753232 0.228568 0.494301
O O10 0.638578 0.907758 0.574218
O O11 0.500000 0.500000 0.500000
O O12 0.647279 0.523359 0.392369
O O13 0.538171 0.332652 0.833894
O O14 0.598678 0.661778 0.060882
O O15 0.000000 0.500000 0.000000
O O16 0.000000 0.000000 0.000000
O O17 0.618455 0.066328 0.251423
O O18 0.500000 0.000000 0.000000
#
# Coordination Sequence:
#
# PCOD9020282 Si02
#       8
#     2   2   2   2   2   2   2   2
#     4  11  22  42  67  99 132 168 220 282 332 405
#     4  11  23  43  68  97 135 168 222 272 346 407
#     4  10  26  41  64  89 132 182 225 271 335 390
#     4  10  24  44  59  87 133 187 241 276 317 372
#     4  10  22  32  60  90 132 170 226 273 340 367
#     4  11  24  43  72 108 134 164 204 274 348 426
#     4  11  20  36  50  90 131 175 224 286 318 370
#     4  10  24  39  63  92 133 181 239 271 336 369
#
# _framework density 21.515132000000001
#
# number of rings (size 3 to 8) (size 9 to 14) (size 15 to 20)
#    0.750    0.750    3.750    0.375    5.250    3.000 
#    0.000    0.000    0.000    1.500    0.000    0.000 
#    0.000    0.000    0.000    0.000    0.000    0.000 
#
# Total GULP energy -89219.585861 kJ/mol
# GULP energy per Si atom -5576.224116 kJ/mol
# Density = 2.146616 g / cm^3
# Si number density = 21.515132 Si / 1000 Ang^3
#
#
#
# Elastic Constant Matrix: (Units=GPa)
#
#
# Indices 1 2 3 4 5 6 
#
# 1 113.6896 44.3686 33.2517 -18.7186 -15.4375 8.3769
# 2 44.3686 124.3462 28.5620 -11.2581 -15.7522 16.9453
# 3 33.2517 28.5620 97.2313 -28.1742 -21.6648 8.3038
# 4 -18.7186 -11.2581 -28.1742 42.5419 -1.0707 -1.9538
# 5 -15.4375 -15.7522 -21.6648 -1.0707 21.0940 -12.4833
# 6 8.3769 16.9453 8.3038 -1.9538 -12.4833 48.3077
#
#
#
# Elastic Compliance Matrix: (Units=1/GPa)
#
#
# Indices 1 2 3 4 5 6 
#
# 1 0.011605 -0.002945 -0.000507 0.004200 0.006561 0.000973
# 2 -0.002945 0.010049 -0.000759 0.000858 0.003455 -0.001956
# 3 -0.000507 -0.000759 0.018682 0.012605 0.020659 0.002991
# 4 0.004200 0.000858 0.012605 0.034606 0.020488 0.003498
# 5 0.006561 0.003455 0.020659 0.020488 0.087413 0.017516
# 6 0.000973 -0.001956 0.002991 0.003498 0.017516 0.025372
#
#
# Mechanical properties :
#
#
# Convention : Reuss Voigt Hill
#
# Bulk Modulus (GPa) = 31.33681 60.84797 46.09239
# Shear Modulus (GPa) = 24.17947 37.66105 30.92026
#
# Velocity S-wave (km/s) = 3.35600 4.18837 3.79508
# Velocity P-wave (km/s) = 5.44184 7.19255 6.37756
#
# Compressibility (1/GPa) = 0.03191135
#
# Stress axis : x y z
#
# Youngs Moduli (GPa) = 86.17326 99.50915 53.52853
#
# Poissons Ratio (x) = 0.29308 0.02716
# Poissons Ratio (y) = 0.25380 0.04065
# Poissons Ratio (z) = 0.04372 0.07557
#
# Static dielectric constant tensor:
#      x y z
#    x 1.802330 -0.042690 0.004640 
#    y -0.042690 1.890240 -0.013480 
#    z 0.004640 -0.013480 1.847120 
# 
# From -- ./inp_files/441255.got.cif
#   From: 2010.05.17/outbox.cif.g08.bks.cpg/sg2_221_cif.got.tgz:441255.got - 2010.06.03 11:33:40.
