data_PCOD9020772
_publ_section_title
;
Structure prediction by ZEFSAII (Michael W. Deem and Ramdas Pophale) SiO2 
 PCOD9020772
Probable space group: P -1
;
_chemical_formula_sum "Si O2"
_cell_formula_units_Z 16
_cell_length_a 12.316704
_cell_length_b 8.424710
_cell_length_c 14.030420
_cell_angle_alpha 85.320999
_cell_angle_beta 33.870445
_cell_angle_gamma 64.788043
_cell_volume 618.014497
_symmetry_space_group_name_H-M "P -1"
_symmetry_group_IT_number 2
_symmetry_cell_setting 'triclinic'
loop_
_space_group_symop_operation_xyz
x,y,z
-x,-y,-z
loop_
_atom_site_type_symbol
_atom_site_label
_atom_site_fract_x
_atom_site_fract_y
_atom_site_fract_z
Si Si1 0.657820 0.799328 0.772382
Si Si2 0.030237 0.189061 0.604866
Si Si3 0.850718 0.678646 0.302987
Si Si4 0.070173 0.872300 0.077143
Si Si5 0.295142 0.717548 0.469787
Si Si6 0.368660 0.707247 0.671205
Si Si7 0.815464 0.759719 0.870372
Si Si8 0.436823 0.497108 0.180832
O O1 0.846840 0.824580 0.585550
O O2 0.684750 0.764498 0.868326
O O3 0.689714 0.610888 0.711575
O O4 0.378929 0.019484 0.948605
O O5 0.108301 0.282288 0.620073
O O6 0.730686 0.334872 0.788484
O O7 0.179471 0.953942 0.542213
O O8 0.590497 0.716930 0.486442
O O9 0.885545 0.814900 0.204732
O O10 0.082617 0.434519 0.128310
O O11 0.249641 0.805142 0.858544
O O12 0.264922 0.711360 0.024691
O O13 0.881891 0.120750 0.216902
O O14 0.512594 0.532730 0.392023
O O15 0.403270 0.626381 0.290139
O O16 0.061312 0.721191 0.654774
#
# Coordination Sequence:
#
# PCOD9020772 Si02
#       8
#     2   2   2   2   2   2   2   2
#     4  11  22  37  60  87 133 171 205 254 313 385
#     4  12  23  37  62  97 131 167 205 255 324 386
#     4  11  23  41  67  95 127 168 212 260 318 379
#     4  10  22  39  72  92 120 169 220 258 314 372
#     4  10  22  39  61  90 126 166 208 262 314 371
#     4   9  21  45  67  91 124 166 217 268 313 361
#     4  10  22  37  57  91 128 168 206 254 314 376
#     4  11  22  38  63  90 131 166 202 256 320 380
#
# _framework density 25.889361999999998
#
# number of rings (size 3 to 8) (size 9 to 14) (size 15 to 20)
#    0.000    1.500    2.500    3.375    5.250    1.500 
#    0.000    0.625    2.750    4.500    0.000    0.000 
#    0.000    0.000    0.000    0.000    0.000    0.000 
#
# Total GULP energy -89514.890341 kJ/mol
# GULP energy per Si atom -5594.680646 kJ/mol
# Density = 2.583044 g / cm^3
# Si number density = 25.889362 Si / 1000 Ang^3
#
#
#
# Elastic Constant Matrix: (Units=GPa)
#
#
# Indices 1 2 3 4 5 6 
#
# 1 98.1983 30.0479 26.7177 13.1122 -14.5138 -15.2774
# 2 30.0479 147.1490 61.0777 43.8190 -9.8804 -8.0407
# 3 26.7177 61.0777 133.2411 37.5692 -25.1650 -8.4323
# 4 13.1122 43.8190 37.5692 73.6563 -4.3558 -3.5611
# 5 -14.5138 -9.8804 -25.1650 -4.3558 29.0029 5.9775
# 6 -15.2774 -8.0407 -8.4323 -3.5611 5.9775 38.1591
#
#
#
# Elastic Compliance Matrix: (Units=1/GPa)
#
#
# Indices 1 2 3 4 5 6 
#
# 1 0.012080 -0.001623 -0.000508 -0.000498 0.004219 0.003675
# 2 -0.001623 0.009517 -0.003107 -0.003821 -0.000935 0.000459
# 3 -0.000508 -0.003107 0.011560 -0.003469 0.008177 0.000091
# 4 -0.000498 -0.003821 -0.003469 0.017601 -0.001954 0.000177
# 5 0.004219 -0.000935 0.008177 -0.001954 0.043847 -0.003752
# 6 0.003675 0.000459 0.000091 0.000177 -0.003752 0.028398
#
#
# Mechanical properties :
#
#
# Convention : Reuss Voigt Hill
#
# Bulk Modulus (GPa) = 44.09233 68.25280 56.17256
# Shear Modulus (GPa) = 35.45046 45.54666 40.49856
#
# Velocity S-wave (km/s) = 3.70443 4.19893 3.95941
# Velocity P-wave (km/s) = 5.94685 7.06601 6.53045
#
# Compressibility (1/GPa) = 0.02267968
#
# Stress axis : x y z
#
# Youngs Moduli (GPa) = 82.77927 105.07237 86.50575
#
# Poissons Ratio (x) = 0.17057 0.04397
# Poissons Ratio (y) = 0.13438 0.26880
# Poissons Ratio (z) = 0.04208 0.32649
#
# Static dielectric constant tensor:
#      x y z
#    x 2.025680 -0.047120 -0.014900 
#    y -0.047120 2.043290 0.016530 
#    z -0.014900 0.016530 2.076510 
# 
# From -- ./inp_files/202184.got.cif
#   From: 2010.05.17/outbox.cif.g08.bks.cpg/sg2_102_cif.got.tgz:202184.got - 2010.06.03 11:33:40.
