data_PCOD9020684
_publ_section_title
;
Structure prediction by ZEFSAII (Michael W. Deem and Ramdas Pophale) SiO2 
 PCOD9020684
Probable space group: P -1
;
_chemical_formula_sum "Si O2"
_cell_formula_units_Z 16
_cell_length_a 13.177643
_cell_length_b 11.807505
_cell_length_c 9.017516
_cell_angle_alpha 115.960189
_cell_angle_beta 39.772972
_cell_angle_gamma 92.698738
_cell_volume 697.488334
_symmetry_space_group_name_H-M "P -1"
_symmetry_group_IT_number 2
_symmetry_cell_setting 'triclinic'
loop_
_space_group_symop_operation_xyz
x,y,z
-x,-y,-z
loop_
_atom_site_type_symbol
_atom_site_label
_atom_site_fract_x
_atom_site_fract_y
_atom_site_fract_z
Si Si1 0.980382 0.573327 0.722365
Si Si2 0.401358 0.616118 0.046226
Si Si3 0.365312 0.928835 0.620245
Si Si4 0.613841 0.603952 0.283290
Si Si5 0.396065 0.896187 0.225719
Si Si6 0.199945 0.412118 0.647997
Si Si7 0.249877 0.124375 0.294696
Si Si8 0.027265 0.177511 0.288555
O O1 0.934613 0.733892 0.828857
O O2 0.000000 0.500000 0.500000
O O3 0.155514 0.493423 0.586034
O O4 0.808076 0.575411 0.988406
O O5 0.476035 0.727072 0.002573
O O6 0.191920 0.734200 0.398053
O O7 0.500000 0.500000 0.000000
O O8 0.411982 0.519689 0.838198
O O9 0.472114 0.766608 0.477756
O O10 0.325425 0.922837 0.487481
O O11 0.500000 0.000000 0.500000
O O12 0.175009 0.015242 0.975895
O O13 0.649067 0.590686 0.412588
O O14 0.254177 0.998576 0.318676
O O15 0.561181 0.931154 0.040949
O O16 0.236140 0.250029 0.488701
O O17 0.000000 0.500000 0.000000
O O18 0.093758 0.189726 0.384919
#
# Coordination Sequence:
#
# PCOD9020684 Si02
#       8
#     2   2   2   2   2   2   2   2
#     4  11  19  37  69 105 131 177 238 282 331 411
#     4  12  27  49  69  99 145 191 233 284 357 429
#     4  12  22  41  71 109 137 174 237 295 338 407
#     4  11  22  42  68  99 142 180 226 290 347 405
#     4  11  26  44  71 100 141 184 230 291 350 417
#     4  10  22  36  66 106 137 170 233 293 340 398
#     4  11  23  45  74 101 133 184 241 283 346 416
#     4  12  25  41  74 103 137 187 232 285 352 416
#
# _framework density 22.939451999999999
#
# number of rings (size 3 to 8) (size 9 to 14) (size 15 to 20)
#    0.000    0.750    6.250    1.500    5.250    1.000 
#    0.000    0.625    2.750    0.000    0.000    0.000 
#    0.000    0.000    0.000    0.000    0.000    0.000 
#
# Total GULP energy -89370.866498 kJ/mol
# GULP energy per Si atom -5585.679156 kJ/mol
# Density = 2.288724 g / cm^3
# Si number density = 22.939452 Si / 1000 Ang^3
#
#
#
# Elastic Constant Matrix: (Units=GPa)
#
#
# Indices 1 2 3 4 5 6 
#
# 1 141.5885 61.5955 47.2851 9.0130 14.9954 -33.8169
# 2 61.5955 111.5494 27.3709 21.3776 2.3935 -23.5642
# 3 47.2851 27.3709 135.0874 13.4418 1.2611 -7.7088
# 4 9.0130 21.3776 13.4418 35.1775 2.8749 -0.5509
# 5 14.9954 2.3935 1.2611 2.8749 37.6134 4.8950
# 6 -33.8169 -23.5642 -7.7088 -0.5509 4.8950 33.4980
#
#
#
# Elastic Compliance Matrix: (Units=1/GPa)
#
#
# Indices 1 2 3 4 5 6 
#
# 1 0.013068 -0.004346 -0.003162 0.001175 -0.006263 0.010342
# 2 -0.004346 0.013869 -0.000291 -0.007185 0.000749 0.005074
# 3 -0.003162 -0.000291 0.008709 -0.002480 0.001390 -0.001637
# 4 0.001175 -0.007185 -0.002480 0.033549 -0.002025 -0.003591
# 5 -0.006263 0.000749 0.001390 -0.002025 0.030440 -0.009957
# 6 0.010342 0.005074 -0.001637 -0.003591 -0.009957 0.044882
#
#
# Mechanical properties :
#
#
# Convention : Reuss Voigt Hill
#
# Bulk Modulus (GPa) = 49.88326 73.41426 61.64876
# Shear Modulus (GPa) = 29.97660 38.05603 34.01631
#
# Velocity S-wave (km/s) = 3.61885 4.07747 3.85499
# Velocity P-wave (km/s) = 6.26532 7.36483 6.83721
#
# Compressibility (1/GPa) = 0.02004680
#
# Stress axis : x y z
#
# Youngs Moduli (GPa) = 76.52292 72.10506 114.82659
#
# Poissons Ratio (x) = 0.31338 0.36307
# Poissons Ratio (y) = 0.33258 0.03344
# Poissons Ratio (z) = 0.24196 0.02100
#
# Static dielectric constant tensor:
#      x y z
#    x 2.049860 -0.005740 -0.126350 
#    y -0.005740 1.948120 -0.019160 
#    z -0.126350 -0.019160 2.069450 
# 
# From -- ./inp_files/262925.got.cif
#   From: 2010.05.17/outbox.cif.g08.bks.cpg/sg2_132_cif.got.tgz:262925.got - 2010.06.03 11:33:40.
