data_PCOD9020790
_publ_section_title
;
Structure prediction by ZEFSAII (Michael W. Deem and Ramdas Pophale) SiO2 
 PCOD9020790
Probable space group: P -1
;
_chemical_formula_sum "Si O2"
_cell_formula_units_Z 14
_cell_length_a 7.260222
_cell_length_b 14.824855
_cell_length_c 7.041499
_cell_angle_alpha 65.753892
_cell_angle_beta 109.466109
_cell_angle_gamma 125.244419
_cell_volume 559.630551
_symmetry_space_group_name_H-M "P -1"
_symmetry_group_IT_number 2
_symmetry_cell_setting 'triclinic'
loop_
_space_group_symop_operation_xyz
x,y,z
-x,-y,-z
loop_
_atom_site_type_symbol
_atom_site_label
_atom_site_fract_x
_atom_site_fract_y
_atom_site_fract_z
Si Si1 0.057940 0.355025 0.842484
Si Si2 0.366593 0.410508 0.247033
Si Si3 0.803894 0.992804 0.815865
Si Si4 0.016825 0.751484 0.488273
Si Si5 0.432139 0.832646 0.109179
Si Si6 0.322546 0.591473 0.335343
Si Si7 0.501294 0.115448 0.474511
O O1 0.088798 0.333844 0.652323
O O2 0.842793 0.229712 0.944497
O O3 0.931987 0.429112 0.739969
O O4 0.281761 0.402699 0.006950
O O5 0.346877 0.509515 0.266438
O O6 0.585530 0.414512 0.417184
O O7 0.157463 0.293455 0.364330
O O8 0.723894 0.905076 0.687113
O O9 0.908324 0.122564 0.669042
O O10 0.582326 0.931998 0.929057
O O11 0.000000 0.000000 0.000000
O O12 0.265422 0.771784 0.609013
O O13 0.470049 0.724164 0.199833
O O14 0.502018 0.876108 0.310052
O O15 0.500000 0.000000 0.500000
#
# Coordination Sequence:
#
# PCOD9020790 Si02
#       7
#     2   2   2   2   2   2   2
#     4   9  21  40  59  88 113 156 194 237 297 339
#     4  11  20  40  63  82 121 156 188 248 286 343
#     4  11  22  35  57  87 117 152 193 239 292 349
#     4  10  22  37  58  89 110 152 205 229 290 354
#     4   9  20  39  55  82 121 149 191 245 282 347
#     4   9  22  39  59  89 117 153 198 234 296 346
#     4   9  20  37  55  81 111 152 194 231 290 341
#
# _framework density 25.016503
#
# number of rings (size 3 to 8) (size 9 to 14) (size 15 to 20)
#    0.857    1.429    0.000    2.143    0.000    9.714 
#    0.000    2.857    0.000    0.000    0.000    0.000 
#    0.000    0.000    0.000    0.000    0.000    0.000 
#
# Total GULP energy -78147.344750 kJ/mol
# GULP energy per Si atom -5581.953196 kJ/mol
# Density = 2.495956 g / cm^3
# Si number density = 25.016503 Si / 1000 Ang^3
#
#
#
# Elastic Constant Matrix: (Units=GPa)
#
#
# Indices 1 2 3 4 5 6 
#
# 1 45.2514 33.7262 25.5460 8.9381 13.7666 17.7619
# 2 33.7262 111.0712 42.4587 22.8678 12.2370 22.4722
# 3 25.5460 42.4587 101.7686 44.1029 22.4691 17.4466
# 4 8.9381 22.8678 44.1029 51.9787 10.9183 12.1524
# 5 13.7666 12.2370 22.4691 10.9183 37.4687 10.1768
# 6 17.7619 22.4722 17.4466 12.1524 10.1768 30.2629
#
#
#
# Elastic Compliance Matrix: (Units=1/GPa)
#
#
# Indices 1 2 3 4 5 6 
#
# 1 0.035918 -0.006772 -0.004891 0.005333 -0.005976 -0.013364
# 2 -0.006772 0.013074 -0.002635 -0.001708 0.001381 -0.003993
# 3 -0.004891 -0.002635 0.018779 -0.013098 -0.005047 0.000958
# 4 0.005333 -0.001708 -0.013098 0.031994 -0.001019 -0.006816
# 5 -0.005976 0.001381 -0.005047 -0.001019 0.033216 -0.005368
# 6 -0.013364 -0.003993 0.000958 -0.006816 -0.005368 0.047843
#
#
# Mechanical properties :
#
#
# Convention : Reuss Voigt Hill
#
# Bulk Modulus (GPa) = 25.52640 51.28364 38.40502
# Shear Modulus (GPa) = 22.47411 34.36607 28.42009
#
# Velocity S-wave (km/s) = 3.00054 3.71042 3.37420
# Velocity P-wave (km/s) = 4.71490 6.23704 5.52860
#
# Compressibility (1/GPa) = 0.03917513
#
# Stress axis : x y z
#
# Youngs Moduli (GPa) = 27.84138 76.48631 53.24963
#
# Poissons Ratio (x) = 0.51798 0.26047
# Poissons Ratio (y) = 0.18855 0.14029
# Poissons Ratio (z) = 0.13618 0.20151
#
# Static dielectric constant tensor:
#      x y z
#    x 2.173760 0.038630 0.165040 
#    y 0.038630 1.999620 0.011670 
#    z 0.165040 0.011670 2.096960 
# 
# From -- ./inp_files/43878.got.cif
#   From: 2010.05.17/outbox.cif.g08.bks.cpg/sg2_22_cif.got.tgz:43878.got - 2010.06.03 11:33:40.
