data_PCOD9020122
_publ_section_title
;
Structure prediction by ZEFSAII (Michael W. Deem and Ramdas Pophale) SiO2 
 PCOD9020122
Probable space group: P -1
;
_chemical_formula_sum "Si O2"
_cell_formula_units_Z 13
_cell_length_a 8.009735
_cell_length_b 8.835184
_cell_length_c 6.974918
_cell_angle_alpha 72.587412
_cell_angle_beta 78.571927
_cell_angle_gamma 85.407263
_cell_volume 461.526622
_symmetry_space_group_name_H-M "P -1"
_symmetry_group_IT_number 2
_symmetry_cell_setting 'triclinic'
loop_
_space_group_symop_operation_xyz
x,y,z
-x,-y,-z
loop_
_atom_site_type_symbol
_atom_site_label
_atom_site_fract_x
_atom_site_fract_y
_atom_site_fract_z
Si Si1 0.199404 0.230152 0.381101
Si Si2 0.401280 0.086493 0.824767
Si Si3 0.122189 0.608280 0.710942
Si Si4 0.500000 0.000000 0.500000
Si Si5 0.632336 0.451668 0.655157
Si Si6 0.696559 0.239302 0.060628
Si Si7 0.938501 0.755486 0.164326
O O1 0.305797 0.393104 0.302337
O O2 0.111197 0.216315 0.614822
O O3 0.033392 0.266165 0.274491
O O4 0.322783 0.080194 0.390024
O O5 0.493299 0.160336 0.597177
O O6 0.367120 0.922140 0.761229
O O7 0.235393 0.171011 0.912009
O O8 0.500000 0.000000 0.000000
O O9 0.500000 0.500000 0.500000
O O10 0.204751 0.611123 0.480439
O O11 0.054009 0.431250 0.809437
O O12 0.262315 0.638241 0.829431
O O13 0.591084 0.320990 0.878942
O O14 0.877870 0.181339 0.953047
#
# Coordination Sequence:
#
# PCOD9020122 Si02
#       7
#     2   2   2   1   2   2   2
#     4  10  21  46  71  97 139 188 218 282 350 400
#     4  11  28  45  67  96 143 186 223 283 347 406
#     4  11  23  43  74 103 133 182 233 284 339 406
#     4  10  26  46  66  98 138 180 230 272 346 404
#     4  11  25  42  69 102 145 175 224 289 343 405
#     4  12  25  42  72 107 129 181 236 280 337 412
#     4  10  21  47  67 100 139 181 226 281 344 404
#
# _framework density 28.167390999999999
#
# number of rings (size 3 to 8) (size 9 to 14) (size 15 to 20)
#    0.000    1.231    3.077    1.846   10.769    0.615 
#    0.000    1.538    0.000    0.000    0.000    0.000 
#    0.000    0.000    0.000    0.000    0.000    0.000 
#
# Total GULP energy -72654.800191 kJ/mol
# GULP energy per Si atom -5588.830784 kJ/mol
# Density = 2.810328 g / cm^3
# Si number density = 28.167391 Si / 1000 Ang^3
#
#
#
# Elastic Constant Matrix: (Units=GPa)
#
#
# Indices 1 2 3 4 5 6 
#
# 1 98.9987 39.9759 34.4255 -21.7410 12.5297 -47.4870
# 2 39.9759 129.6350 49.1626 -4.4685 -8.5466 -44.3178
# 3 34.4255 49.1626 147.2842 -11.8778 -2.8767 -17.1372
# 4 -21.7410 -4.4685 -11.8778 60.2725 -7.6949 -1.1920
# 5 12.5297 -8.5466 -2.8767 -7.6949 65.5812 -7.3439
# 6 -47.4870 -44.3178 -17.1372 -1.1920 -7.3439 58.1966
#
#
#
# Elastic Compliance Matrix: (Units=1/GPa)
#
#
# Indices 1 2 3 4 5 6 
#
# 1 0.020170 0.000308 -0.002424 0.006968 -0.001316 0.015955
# 2 0.000308 0.011925 -0.002906 0.000911 0.002461 0.008806
# 3 -0.002424 -0.002906 0.008173 0.000526 0.000310 -0.001735
# 4 0.006968 0.000911 0.000526 0.019663 0.001922 0.007179
# 5 -0.001316 0.002461 0.000310 0.001922 0.016395 0.003000
# 6 0.015955 0.008806 -0.001735 0.007179 0.003000 0.036923
#
#
# Mechanical properties :
#
#
# Convention : Reuss Voigt Hill
#
# Bulk Modulus (GPa) = 33.08850 69.22733 51.15791
# Shear Modulus (GPa) = 37.48959 53.63365 45.56162
#
# Velocity S-wave (km/s) = 3.65219 4.36834 4.02622
# Velocity P-wave (km/s) = 5.43665 7.07627 6.30995
#
# Compressibility (1/GPa) = 0.03022198
#
# Stress axis : x y z
#
# Youngs Moduli (GPa) = 49.57827 83.85516 122.35379
#
# Poissons Ratio (x) = -0.02579 0.29663
# Poissons Ratio (y) = -0.01525 0.35561
# Poissons Ratio (z) = 0.12020 0.24372
#
# Static dielectric constant tensor:
#      x y z
#    x 2.474270 0.071290 0.080720 
#    y 0.071290 2.210910 0.002390 
#    z 0.080720 0.002390 2.234900 
# 
# From -- ./inp_files/167371.got.cif
#   From: 2010.05.17/outbox.cif.g08.bks.cpg/sg2_84_cif.got.tgz:167371.got - 2010.06.03 11:33:40.
