data_PCOD9020066
_publ_section_title
;
Structure prediction by ZEFSAII (Michael W. Deem and Ramdas Pophale) SiO2 
 PCOD9020066
Probable space group: P -1
;
_chemical_formula_sum "Si O2"
_cell_formula_units_Z 12
_cell_length_a 16.083832
_cell_length_b 7.378029
_cell_length_c 16.507436
_cell_angle_alpha 102.470822
_cell_angle_beta 162.066940
_cell_angle_gamma 89.468213
_cell_volume 446.275385
_symmetry_space_group_name_H-M "P -1"
_symmetry_group_IT_number 2
_symmetry_cell_setting 'triclinic'
loop_
_space_group_symop_operation_xyz
x,y,z
-x,-y,-z
loop_
_atom_site_type_symbol
_atom_site_label
_atom_site_fract_x
_atom_site_fract_y
_atom_site_fract_z
Si Si1 0.509652 0.171896 0.798497
Si Si2 0.694742 0.872553 0.886848
Si Si3 0.520385 0.370751 0.674610
Si Si4 0.854392 0.980707 0.271279
Si Si5 0.424438 0.163530 0.406920
Si Si6 0.631027 0.526156 0.213782
O O1 0.679833 0.296980 0.879725
O O2 0.591452 0.991240 0.862919
O O3 0.098878 0.988117 0.431923
O O4 0.580049 0.404335 0.928462
O O5 0.610739 0.621595 0.807457
O O6 0.479239 0.792779 0.593869
O O7 0.110074 0.113431 0.279282
O O8 0.605141 0.387054 0.659421
O O9 0.467964 0.724533 0.879385
O O10 0.000000 0.000000 0.500000
O O11 0.951908 0.238281 0.371457
O O12 0.500000 0.000000 0.500000
O O13 0.000000 0.000000 0.000000
O O14 0.500000 0.500000 0.000000
#
# Coordination Sequence:
#
# PCOD9020066 Si02
#       6
#     2   2   2   2   2   2
#     4  10  22  37  66  84 126 164 210 263 326 386
#     4  11  25  41  62  95 127 165 215 269 324 394
#     4  11  25  41  62  95 127 165 215 269 324 394
#     4   8  16  30  55  86 110 158 207 247 322 387
#     4  10  21  46  68  99 137 181 224 276 340 407
#     4   8  16  30  55  86 110 158 207 247 322 387
#
# _framework density 26.889230000000001
#
# number of rings (size 3 to 8) (size 9 to 14) (size 15 to 20)
#    1.000    1.333    1.667    0.500    4.667    0.000 
#    0.000    3.333    0.000    6.000    0.000    0.000 
#    0.000    0.000    0.000    0.000    0.000    0.000 
#
# Total GULP energy -66801.763783 kJ/mol
# GULP energy per Si atom -5566.813649 kJ/mol
# Density = 2.682803 g / cm^3
# Si number density = 26.889230 Si / 1000 Ang^3
#
#
#
# Elastic Constant Matrix: (Units=GPa)
#
#
# Indices 1 2 3 4 5 6 
#
# 1 116.0919 32.3602 25.0215 6.5241 -22.0803 -4.9875
# 2 32.3602 182.2848 70.4773 44.9464 0.5418 4.9187
# 3 25.0215 70.4773 70.4269 48.6326 0.3537 -6.9458
# 4 6.5241 44.9464 48.6326 66.9919 -2.5578 5.3203
# 5 -22.0803 0.5418 0.3537 -2.5578 35.2694 0.8672
# 6 -4.9875 4.9187 -6.9458 5.3203 0.8672 45.8767
#
#
#
# Elastic Compliance Matrix: (Units=1/GPa)
#
#
# Indices 1 2 3 4 5 6 
#
# 1 0.011346 -0.000577 -0.006506 0.004317 0.007499 -0.000332
# 2 -0.000577 0.009347 -0.010608 0.001706 -0.000204 -0.002865
# 3 -0.006506 -0.010608 0.047457 -0.027826 -0.006673 0.010968
# 4 0.004317 0.001706 -0.027826 0.034415 0.005649 -0.008024
# 5 0.007499 -0.000204 -0.006673 0.005649 0.033563 -0.001463
# 6 -0.000332 -0.002865 0.010968 -0.008024 -0.001463 0.024687
#
#
# Mechanical properties :
#
#
# Convention : Reuss Voigt Hill
#
# Bulk Modulus (GPa) = 30.51740 69.39129 49.95435
# Shear Modulus (GPa) = 24.14053 45.69058 34.91556
#
# Velocity S-wave (km/s) = 2.99954 4.12663 3.60737
# Velocity P-wave (km/s) = 4.83428 6.96906 5.99742
#
# Compressibility (1/GPa) = 0.03276819
#
# Stress axis : x y z
#
# Youngs Moduli (GPa) = 88.13577 106.98401 21.07186
#
# Poissons Ratio (x) = 0.06171 0.13709
# Poissons Ratio (y) = 0.05084 0.22354
# Poissons Ratio (z) = 0.57338 1.13493
#
# Static dielectric constant tensor:
#      x y z
#    x 2.203650 0.029680 -0.074530 
#    y 0.029680 1.965030 0.077240 
#    z -0.074530 0.077240 2.174820 
# 
# From -- ./inp_files/11962.got.cif
#   From: 2010.05.17/outbox.cif.g08.bks.cpg/sg2_6_cif.got.tgz:11962.got - 2010.06.03 11:33:40.
