data_PCOD9020314
_publ_section_title
;
Structure prediction by ZEFSAII (Michael W. Deem and Ramdas Pophale) SiO2 
 PCOD9020314
Probable space group: P -1
;
_chemical_formula_sum "Si O2"
_cell_formula_units_Z 15
_cell_length_a 15.467687
_cell_length_b 9.982959
_cell_length_c 5.920750
_cell_angle_alpha 68.646291
_cell_angle_beta 80.692564
_cell_angle_gamma 45.427279
_cell_volume 600.465746
_symmetry_space_group_name_H-M "P -1"
_symmetry_group_IT_number 2
_symmetry_cell_setting 'triclinic'
loop_
_space_group_symop_operation_xyz
x,y,z
-x,-y,-z
loop_
_atom_site_type_symbol
_atom_site_label
_atom_site_fract_x
_atom_site_fract_y
_atom_site_fract_z
Si Si1 0.246540 0.845887 0.670003
Si Si2 0.958098 0.413868 0.858275
Si Si3 0.757451 0.662166 0.081846
Si Si4 0.000000 0.000000 0.500000
Si Si5 0.837735 0.260751 0.832407
Si Si6 0.191078 0.205091 0.634462
Si Si7 0.368102 0.463797 0.609578
Si Si8 0.459708 0.980715 0.281032
O O1 0.355605 0.633353 0.628312
O O2 0.120821 0.969069 0.507267
O O3 0.266973 0.988351 0.629080
O O4 0.211600 0.801867 0.939319
O O5 0.904358 0.497703 0.081448
O O6 0.890571 0.341805 0.877268
O O7 0.896062 0.608902 0.613229
O O8 0.098131 0.239766 0.836611
O O9 0.684619 0.824588 0.812857
O O10 0.733678 0.767536 0.264981
O O11 0.707287 0.558632 0.180979
O O12 0.054807 0.902643 0.286464
O O13 0.717747 0.437769 0.631852
O O14 0.491479 0.238193 0.633347
O O15 0.500000 0.000000 0.500000
O O16 0.500000 0.000000 0.000000
#
# Coordination Sequence:
#
# PCOD9020314 Si02
#       8
#     2   2   2   1   2   2   2   2
#     4  11  23  39  62  90 132 168 217 269 331 392
#     4  11  22  39  62  87 131 173 218 263 326 395
#     4  11  22  40  66  92 129 170 218 277 336 392
#     4  10  22  34  56  86 124 170 220 258 322 384
#     4  11  20  37  63  86 125 168 221 265 321 388
#     4  11  25  39  57  97 134 171 210 273 330 405
#     4  10  22  39  66  97 122 168 223 277 322 397
#     4  10  23  41  72 104 129 168 230 288 333 391
#
# _framework density 24.980609999999999
#
# number of rings (size 3 to 8) (size 9 to 14) (size 15 to 20)
#    0.000    1.333    4.000    1.600    3.733    2.133 
#    0.000    0.667    0.000    1.600    0.000    0.000 
#    0.000    0.000    0.000    0.000    0.000    0.000 
#
# Total GULP energy -83508.988940 kJ/mol
# GULP energy per Si atom -5567.265929 kJ/mol
# Density = 2.492375 g / cm^3
# Si number density = 24.980610 Si / 1000 Ang^3
#
#
#
# Elastic Constant Matrix: (Units=GPa)
#
#
# Indices 1 2 3 4 5 6 
#
# 1 13.7736 44.1564 40.3823 7.5559 -17.7450 -5.1909
# 2 44.1564 142.8318 25.3773 12.6931 8.0053 32.9971
# 3 40.3823 25.3773 33.6919 4.6514 20.4240 15.4304
# 4 7.5559 12.6931 4.6514 45.2214 0.4376 -0.5343
# 5 -17.7450 8.0053 20.4240 0.4376 36.4084 0.9136
# 6 -5.1909 32.9971 15.4304 -0.5343 0.9136 49.3021
#
#
#
# Elastic Compliance Matrix: (Units=1/GPa)
#
#
# Indices 1 2 3 4 5 6 
#
# 1 -0.006616 0.001231 0.018862 -0.001131 -0.013883 -0.007179
# 2 0.001231 0.008851 -0.008586 -0.001879 0.003573 -0.003193
# 3 0.018862 -0.008586 0.007012 -0.001467 0.007030 0.005392
# 4 -0.001131 -0.001879 -0.001467 0.022999 0.000362 0.001840
# 5 -0.013883 0.003573 0.007030 0.000362 0.016126 -0.006348
# 6 -0.007179 -0.003193 0.005392 0.001840 -0.006348 0.020115
#
#
# Mechanical properties :
#
#
# Convention : Reuss Voigt Hill
#
# Bulk Modulus (GPa) = 30.99772 45.56992 38.28382
# Shear Modulus (GPa) = 88.92779 31.54512 60.23646
#
# Velocity S-wave (km/s) = 5.97294 3.55742 4.91586
# Velocity P-wave (km/s) = 7.74620 5.92920 6.89779
#
# Compressibility (1/GPa) = 0.03226044
#
# Stress axis : x y z
#
# Youngs Moduli (GPa) = -151.14830 112.98663 142.61201
#
# Poissons Ratio (x) = -0.13910 -2.68996
# Poissons Ratio (y) = 0.18608 1.22451
# Poissons Ratio (z) = 2.85098 0.97014
#
# Static dielectric constant tensor:
#      x y z
#    x 1.965450 -0.009670 -0.000010 
#    y -0.009670 2.069920 0.016200 
#    z -0.000010 0.016200 2.020430 
# 
# From -- ./inp_files/106705.got.cif
#   From: 2010.05.17/outbox.cif.g08.bks.cpg/sg2_54_cif.got.tgz:106705.got - 2010.06.03 11:33:40.
