data_PCOD9020571
_publ_section_title
;
Structure prediction by ZEFSAII (Michael W. Deem and Ramdas Pophale) SiO2 
 PCOD9020571
Probable space group: P -1
;
_chemical_formula_sum "Si O2"
_cell_formula_units_Z 14
_cell_length_a 11.193635
_cell_length_b 15.676167
_cell_length_c 12.971863
_cell_angle_alpha 54.324046
_cell_angle_beta 23.048465
_cell_angle_gamma 51.006344
_cell_volume 692.557861
_symmetry_space_group_name_H-M "P -1"
_symmetry_group_IT_number 2
_symmetry_cell_setting 'triclinic'
loop_
_space_group_symop_operation_xyz
x,y,z
-x,-y,-z
loop_
_atom_site_type_symbol
_atom_site_label
_atom_site_fract_x
_atom_site_fract_y
_atom_site_fract_z
Si Si1 0.504155 0.646930 0.059198
Si Si2 0.215961 0.292223 0.416246
Si Si3 0.061285 0.330320 0.114198
Si Si4 0.663366 0.625688 0.338628
Si Si5 0.010964 0.212007 0.057972
Si Si6 0.730713 0.071788 0.237620
Si Si7 0.385348 0.420366 0.372104
O O1 0.708563 0.674062 0.971163
O O2 0.476246 0.524954 0.185507
O O3 0.135369 0.722152 0.304337
O O4 0.670668 0.659312 0.810657
O O5 0.496625 0.182107 0.295931
O O6 0.190476 0.375446 0.473946
O O7 0.146292 0.398380 0.902353
O O8 0.091620 0.214345 0.113182
O O9 0.692943 0.373012 0.405880
O O10 0.706930 0.746381 0.247295
O O11 0.767280 0.556763 0.408612
O O12 0.918588 0.111838 0.152813
O O13 0.701837 0.318152 0.210748
O O14 0.500000 0.000000 0.500000
O O15 0.000000 0.000000 0.000000
#
# Coordination Sequence:
#
# PCOD9020571 Si02
#       7
#     2   2   2   2   2   2   2
#     4  12  24  38  59  88 128 174 189 230 285 380
#     4  11  26  40  59  88 129 150 200 244 304 360
#     4   9  20  36  57  85 122 165 202 234 292 330
#     4   9  19  35  58  83 119 160 201 250 275 329
#     4   8  21  37  61  90 122 145 205 254 286 333
#     4  11  24  41  70  90 109 144 199 262 310 346
#     4  10  22  36  61  87 127 163 205 235 297 331
#
# _framework density 20.214918999999998
#
# number of rings (size 3 to 8) (size 9 to 14) (size 15 to 20)
#    0.857    1.143    0.000    2.571   12.000    2.857 
#    0.000    0.000    0.000    5.143    0.000    0.000 
#    0.000    0.000    0.000    0.000    0.000    0.000 
#
# Total GULP energy -78066.065503 kJ/mol
# GULP energy per Si atom -5576.147536 kJ/mol
# Density = 2.016891 g / cm^3
# Si number density = 20.214919 Si / 1000 Ang^3
#
#
#
# Elastic Constant Matrix: (Units=GPa)
#
#
# Indices 1 2 3 4 5 6 
#
# 1 147.1904 22.0309 54.5796 -7.8945 -29.0606 16.2547
# 2 22.0309 38.7088 3.0577 1.5706 -33.8569 17.3097
# 3 54.5796 3.0577 141.1734 0.9228 -21.5572 9.0704
# 4 -7.8945 1.5706 0.9228 31.6005 7.0520 -1.4914
# 5 -29.0606 -33.8569 -21.5572 7.0520 28.8949 -10.8014
# 6 16.2547 17.3097 9.0704 -1.4914 -10.8014 25.3767
#
#
#
# Elastic Compliance Matrix: (Units=1/GPa)
#
#
# Indices 1 2 3 4 5 6 
#
# 1 0.008933 -0.005767 -0.003508 0.002902 -0.001469 -0.000989
# 2 -0.005767 -0.097654 -0.017712 0.034817 -0.133814 0.021725
# 3 -0.003508 -0.017712 0.005520 0.004430 -0.019657 0.004249
# 4 0.002902 0.034817 0.004430 0.021541 0.038140 -0.009691
# 5 -0.001469 -0.133814 -0.019657 0.038140 -0.130457 0.045956
# 6 -0.000989 0.021725 0.004249 -0.009691 0.045956 0.042693
#
#
# Mechanical properties :
#
#
# Convention : Reuss Voigt Hill
#
# Bulk Modulus (GPa) = -7.28989 54.04544 23.37777
# Shear Modulus (GPa) = -35.41757 33.66805 -0.87476
#
# Velocity S-wave (km/s) = -4.19029 4.08549 -0.65854
# Velocity P-wave (km/s) = 5.19860 7.00346 3.31836
#
# Compressibility (1/GPa) = -0.13717629
#
# Stress axis : x y z
#
# Youngs Moduli (GPa) = 111.94535 -10.24028 181.16149
#
# Poissons Ratio (x) = -0.05906 0.63559
# Poissons Ratio (y) = 0.64561 3.20876
# Poissons Ratio (z) = 0.39275 -0.18138
#
# Static dielectric constant tensor:
#      x y z
#    x 1.746400 0.035190 0.002270 
#    y 0.035190 1.752350 0.011400 
#    z 0.002270 0.011400 1.755000 
# 
# From -- ./inp_files/75871.got.cif
#   From: 2010.05.17/outbox.cif.g08.bks.cpg/sg2_38_cif.got.tgz:75871.got - 2010.06.03 11:33:40.
