data_PCOD9020534
_publ_section_title
;
Structure prediction by ZEFSAII (Michael W. Deem and Ramdas Pophale) SiO2 
 PCOD9020534
Probable space group: P -1
;
_chemical_formula_sum "Si O2"
_cell_formula_units_Z 16
_cell_length_a 9.700064
_cell_length_b 15.621376
_cell_length_c 15.650878
_cell_angle_alpha 26.736995
_cell_angle_beta 68.057895
_cell_angle_gamma 86.109553
_cell_volume 762.808790
_symmetry_space_group_name_H-M "P -1"
_symmetry_group_IT_number 2
_symmetry_cell_setting 'triclinic'
loop_
_space_group_symop_operation_xyz
x,y,z
-x,-y,-z
loop_
_atom_site_type_symbol
_atom_site_label
_atom_site_fract_x
_atom_site_fract_y
_atom_site_fract_z
Si Si1 0.117605 0.367069 0.540386
Si Si2 0.184430 0.623658 0.790570
Si Si3 0.793420 0.275559 0.955649
Si Si4 0.206965 0.564609 0.647773
Si Si5 0.405780 0.266275 0.539815
Si Si6 0.273402 0.805172 0.243992
Si Si7 0.496387 0.805392 0.771912
Si Si8 0.432357 0.514764 0.872647
O O1 0.244012 0.280121 0.595517
O O2 0.184710 0.553216 0.437779
O O3 0.883666 0.160587 0.775739
O O4 0.172277 0.530919 0.294877
O O5 0.176702 0.647413 0.670480
O O6 0.234237 0.442210 0.951189
O O7 0.355654 0.901332 0.534676
O O8 0.000000 0.500000 0.000000
O O9 0.697930 0.277566 0.063370
O O10 0.652179 0.000302 0.196820
O O11 0.992214 0.327015 0.883418
O O12 0.378969 0.551528 0.631472
O O13 0.261397 0.755862 0.391004
O O14 0.425842 0.321354 0.384285
O O15 0.500000 0.000000 0.000000
O O16 0.475782 0.669920 0.810156
O O17 0.574716 0.711667 0.903528
#
# Coordination Sequence:
#
# PCOD9020534 Si02
#       8
#     2   2   2   2   2   2   2   2
#     4  10  23  42  65  95 124 164 211 256 316 381
#     4  11  23  39  61  90 132 166 207 261 315 371
#     4  11  21  40  65  89 128 171 206 260 314 371
#     4  10  23  39  61  99 122 163 216 254 315 379
#     4  11  22  40  64  93 129 163 213 260 314 375
#     4  10  22  42  68  92 128 166 205 261 322 373
#     4  11  21  38  63  86 128 170 210 262 307 377
#     4  10  22  36  59  93 117 171 214 251 319 368
#
# _framework density 20.975113
#
# number of rings (size 3 to 8) (size 9 to 14) (size 15 to 20)
#    0.000    1.500    3.750    1.875    1.750    2.000 
#    0.000   12.500    0.000    0.000    0.000    0.000 
#    0.000    0.000    0.000    0.000    0.000    0.000 
#
# Total GULP energy -89193.188364 kJ/mol
# GULP energy per Si atom -5574.574273 kJ/mol
# Density = 2.092737 g / cm^3
# Si number density = 20.975113 Si / 1000 Ang^3
#
#
#
# Elastic Constant Matrix: (Units=GPa)
#
#
# Indices 1 2 3 4 5 6 
#
# 1 131.1090 27.4655 42.6144 2.5700 -22.3115 -13.7599
# 2 27.4655 54.7832 -1.6217 12.4016 -15.2077 3.4175
# 3 42.6144 -1.6217 68.7199 13.6195 -16.5240 -1.7046
# 4 2.5700 12.4016 13.6195 22.2034 -7.8647 -1.5760
# 5 -22.3115 -15.2077 -16.5240 -7.8647 35.0725 4.4165
# 6 -13.7599 3.4175 -1.7046 -1.5760 4.4165 35.9774
#
#
#
# Elastic Compliance Matrix: (Units=1/GPa)
#
#
# Indices 1 2 3 4 5 6 
#
# 1 0.013698 -0.009710 -0.010468 0.011151 0.001318 0.005992
# 2 -0.009710 0.031745 0.013292 -0.021805 0.010004 -0.008282
# 3 -0.010468 0.013292 0.027207 -0.020458 0.008073 -0.005864
# 4 0.011151 -0.021805 -0.020458 0.069998 0.002677 0.008105
# 5 0.001318 0.010004 0.008073 0.002677 0.038684 -0.004695
# 6 0.005992 -0.008282 -0.005864 0.008105 -0.004695 0.031527
#
#
# Mechanical properties :
#
#
# Convention : Reuss Voigt Hill
#
# Bulk Modulus (GPa) = 16.98419 43.50315 30.24367
# Shear Modulus (GPa) = 20.30387 31.06093 25.68240
#
# Velocity S-wave (km/s) = 3.11464 3.85235 3.50297
# Velocity P-wave (km/s) = 4.58798 6.36968 5.55078
#
# Compressibility (1/GPa) = 0.05887827
#
# Stress axis : x y z
#
# Youngs Moduli (GPa) = 73.00136 31.50101 36.75480
#
# Poissons Ratio (x) = 0.30587 0.38476
# Poissons Ratio (y) = 0.70883 -0.48854
# Poissons Ratio (z) = 0.76419 -0.41870
#
# Static dielectric constant tensor:
#      x y z
#    x 1.806960 0.036740 -0.018810 
#    y 0.036740 1.815620 0.033690 
#    z -0.018810 0.033690 1.774720 
# 
# From -- ./inp_files/504967.got.cif
#   From: 2010.05.17/outbox.cif.g08.bks.cpg/sg2_253_cif.got.tgz:504967.got - 2010.06.03 11:33:40.
