data_PCOD9020960
_publ_section_title
;
Structure prediction by ZEFSAII (Michael W. Deem and Ramdas Pophale) SiO2 
 PCOD9020960
Probable space group: P -1
;
_chemical_formula_sum "Si O2"
_cell_formula_units_Z 14
_cell_length_a 7.811233
_cell_length_b 11.649077
_cell_length_c 9.112525
_cell_angle_alpha 68.393108
_cell_angle_beta 130.570390
_cell_angle_gamma 106.206411
_cell_volume 584.672963
_symmetry_space_group_name_H-M "P -1"
_symmetry_group_IT_number 2
_symmetry_cell_setting 'triclinic'
loop_
_space_group_symop_operation_xyz
x,y,z
-x,-y,-z
loop_
_atom_site_type_symbol
_atom_site_label
_atom_site_fract_x
_atom_site_fract_y
_atom_site_fract_z
Si Si1 0.274109 0.239048 0.633887
Si Si2 0.037106 0.102190 0.815674
Si Si3 0.015381 0.130767 0.276249
Si Si4 0.040467 0.706013 0.088559
Si Si5 0.785824 0.478072 0.503833
Si Si6 0.454267 0.854745 0.919592
Si Si7 0.515585 0.628382 0.861251
O O1 0.073697 0.199415 0.656379
O O2 0.294266 0.386309 0.568910
O O3 0.485702 0.186913 0.861104
O O4 0.205512 0.176218 0.473376
O O5 0.914427 0.173144 0.840775
O O6 0.300631 0.081423 0.017462
O O7 0.920187 0.977135 0.746773
O O8 0.778828 0.078004 0.242504
O O9 0.943142 0.250568 0.089652
O O10 0.160617 0.594001 0.283441
O O11 0.776130 0.669291 0.975922
O O12 0.602843 0.396548 0.347570
O O13 0.000000 0.500000 0.500000
O O14 0.412428 0.735462 0.849498
O O15 0.500000 0.500000 0.000000
#
# Coordination Sequence:
#
# PCOD9020960 Si02
#       7
#     2   2   2   2   2   2   2
#     4  10  22  37  63  90 114 156 204 235 290 356
#     4   9  20  44  62  83 119 160 204 237 279 365
#     4  12  23  39  61  90 127 151 191 253 304 333
#     4  11  25  38  61  95 117 155 195 250 302 339
#     4  12  19  38  65  87 116 154 208 237 283 370
#     4   9  21  37  62  91 111 158 204 232 294 351
#     4  11  19  39  64  83 118 160 200 242 282 358
#
# _framework density 23.945011999999998
#
# number of rings (size 3 to 8) (size 9 to 14) (size 15 to 20)
#    0.857    0.571    4.286    2.143    0.000    1.714 
#    0.000    1.429    0.000    4.286    0.000    0.000 
#    0.000    0.000    0.000    0.000    0.000    0.000 
#
# Total GULP energy -78231.290432 kJ/mol
# GULP energy per Si atom -5587.949317 kJ/mol
# Density = 2.389051 g / cm^3
# Si number density = 23.945012 Si / 1000 Ang^3
#
#
#
# Elastic Constant Matrix: (Units=GPa)
#
#
# Indices 1 2 3 4 5 6 
#
# 1 27.7343 10.0845 3.9925 -2.7482 0.0283 3.6978
# 2 10.0845 111.4402 44.8363 27.4753 -3.6124 3.8063
# 3 3.9925 44.8363 113.6097 17.1124 -3.9510 11.9516
# 4 -2.7482 27.4753 17.1124 40.5723 6.3474 -7.4173
# 5 0.0283 -3.6124 -3.9510 6.3474 25.5759 -10.2073
# 6 3.6978 3.8063 11.9516 -7.4173 -10.2073 12.4133
#
#
#
# Elastic Compliance Matrix: (Units=1/GPa)
#
#
# Indices 1 2 3 4 5 6 
#
# 1 0.040108 -0.004784 0.001330 0.003696 -0.007806 -0.015972
# 2 -0.004784 0.013027 -0.003340 -0.008570 0.002486 -0.002430
# 3 0.001330 -0.003340 0.012772 -0.005770 -0.004616 -0.018912
# 4 0.003696 -0.008570 -0.005770 0.038649 0.000514 0.030599
# 5 -0.007806 0.002486 -0.004616 0.000514 0.061234 0.056667
# 6 -0.015972 -0.002430 -0.018912 0.030599 0.056667 0.169151
#
#
# Mechanical properties :
#
#
# Convention : Reuss Voigt Hill
#
# Bulk Modulus (GPa) = 19.11314 41.17898 30.14606
# Shear Modulus (GPa) = 13.66247 28.63703 21.14975
#
# Velocity S-wave (km/s) = 2.39127 3.46200 2.97520
# Velocity P-wave (km/s) = 3.95267 5.76327 4.94160
#
# Compressibility (1/GPa) = 0.05232004
#
# Stress axis : x y z
#
# Youngs Moduli (GPa) = 24.93270 76.76600 78.29892
#
# Poissons Ratio (x) = 0.36721 -0.10417
# Poissons Ratio (y) = 0.11927 0.26151
# Poissons Ratio (z) = -0.03317 0.25639
#
# Static dielectric constant tensor:
#      x y z
#    x 1.848190 -0.210590 0.182530 
#    y -0.210590 1.497770 0.343060 
#    z 0.182530 0.343060 1.573120 
# 
# From -- ./inp_files/187065.got.cif
#   From: 2010.05.17/outbox.cif.g08.bks.cpg/sg2_94_cif.got.tgz:187065.got - 2010.06.03 11:33:40.
