data_PCOD9020037
_publ_section_title
;
Structure prediction by ZEFSAII (Michael W. Deem and Ramdas Pophale) SiO2 
 PCOD9020037
Probable space group: P -1
;
_chemical_formula_sum "Si O2"
_cell_formula_units_Z 16
_cell_length_a 15.692575
_cell_length_b 10.632907
_cell_length_c 5.093566
_cell_angle_alpha 85.160204
_cell_angle_beta 90.485558
_cell_angle_gamma 45.945169
_cell_volume 605.943336
_symmetry_space_group_name_H-M "P -1"
_symmetry_group_IT_number 2
_symmetry_cell_setting 'triclinic'
loop_
_space_group_symop_operation_xyz
x,y,z
-x,-y,-z
loop_
_atom_site_type_symbol
_atom_site_label
_atom_site_fract_x
_atom_site_fract_y
_atom_site_fract_z
Si Si1 0.332586 0.668098 0.694797
Si Si2 0.907313 0.556923 0.716107
Si Si3 0.258736 0.397569 0.674608
Si Si4 0.241852 0.135523 0.981577
Si Si5 0.504951 0.846171 0.059674
Si Si6 0.952679 0.281712 0.109154
Si Si7 0.570560 0.570477 0.739368
Si Si8 0.901554 0.930173 0.320738
O O1 0.435557 0.667268 0.644011
O O2 0.342992 0.564451 0.465416
O O3 0.200039 0.859914 0.684589
O O4 0.381007 0.556079 0.982668
O O5 0.817288 0.544508 0.597245
O O6 0.035850 0.583618 0.019195
O O7 0.000000 0.500000 0.500000
O O8 0.823389 0.757023 0.771989
O O9 0.253251 0.260500 0.821034
O O10 0.183135 0.573070 0.819274
O O11 0.398012 0.280518 0.694629
O O12 0.171139 0.112461 0.800223
O O13 0.370144 0.943925 0.082373
O O14 0.557310 0.723898 0.828765
O O15 0.500000 0.000000 0.000000
O O16 0.032939 0.165891 0.385553
O O17 0.998043 0.152513 0.887701
#
# Coordination Sequence:
#
# PCOD9020037 Si02
#       8
#     2   2   2   2   2   2   2   2
#     4  10  22  41  73  98 136 176 226 295 343 396
#     4  11  22  41  60  97 141 189 230 284 356 404
#     4  10  22  41  61  93 140 189 226 271 354 414
#     4  10  23  37  62  99 138 177 229 284 341 422
#     4  10  22  47  69 104 143 187 225 280 342 435
#     4  11  24  39  64  96 135 180 232 289 340 413
#     4  10  21  46  67 102 136 178 227 279 353 408
#     4  12  22  40  67 102 133 169 231 299 347 392
#
# _framework density 26.405113
#
# number of rings (size 3 to 8) (size 9 to 14) (size 15 to 20)
#    0.000    1.500    2.500    2.250    1.750    4.000 
#   11.250    0.000    0.000    4.500    0.000    0.000 
#    0.000    0.000    0.000    0.000    0.000    0.000 
#
# Total GULP energy -89559.567638 kJ/mol
# GULP energy per Si atom -5597.472977 kJ/mol
# Density = 2.634501 g / cm^3
# Si number density = 26.405113 Si / 1000 Ang^3
#
#
#
# Elastic Constant Matrix: (Units=GPa)
#
#
# Indices 1 2 3 4 5 6 
#
# 1 35.6126 39.9147 26.7156 -9.5103 6.9614 -9.9509
# 2 39.9147 224.2604 97.9460 22.4338 5.5658 -21.6539
# 3 26.7156 97.9460 189.1458 16.8972 -9.1060 -15.5165
# 4 -9.5103 22.4338 16.8972 44.5096 -6.5071 13.0314
# 5 6.9614 5.5658 -9.1060 -6.5071 27.6143 -1.1453
# 6 -9.9509 -21.6539 -15.5165 13.0314 -1.1453 58.1397
#
#
#
# Elastic Compliance Matrix: (Units=1/GPa)
#
#
# Indices 1 2 3 4 5 6 
#
# 1 0.044529 -0.007217 -0.004067 0.013329 -0.007942 0.000704
# 2 -0.007217 0.007528 -0.002309 -0.005316 -0.001624 0.002112
# 3 -0.004067 -0.002309 0.007521 -0.002362 0.003458 0.001048
# 4 0.013329 -0.005316 -0.002362 0.031637 0.004083 -0.007339
# 5 -0.007942 -0.001624 0.003458 0.004083 0.040597 -0.001157
# 6 0.000704 0.002112 0.001048 -0.007339 -0.001157 0.020009
#
#
# Mechanical properties :
#
#
# Convention : Reuss Voigt Hill
#
# Bulk Modulus (GPa) = 30.87354 86.46349 58.66851
# Shear Modulus (GPa) = 26.34291 45.01555 35.67923
#
# Velocity S-wave (km/s) = 3.16198 4.13341 3.67989
# Velocity P-wave (km/s) = 5.00484 7.45628 6.34998
#
# Compressibility (1/GPa) = 0.03239019
#
# Stress axis : x y z
#
# Youngs Moduli (GPa) = 22.45726 132.83604 132.96883
#
# Poissons Ratio (x) = 0.95872 0.54084
# Poissons Ratio (y) = 0.16208 0.30702
# Poissons Ratio (z) = 0.09134 0.30672
#
# Static dielectric constant tensor:
#      x y z
#    x 2.454250 0.050790 -0.118450 
#    y 0.050790 2.036280 -0.045390 
#    z -0.118450 -0.045390 2.156710 
# 
# From -- ./inp_files/109196.got.cif
#   From: 2010.05.17/outbox.cif.g08.bks.cpg/sg2_55_cif.got.tgz:109196.got - 2010.06.03 11:33:40.
