data_PCOD9020425
_publ_section_title
;
Structure prediction by ZEFSAII (Michael W. Deem and Ramdas Pophale) SiO2 
 PCOD9020425
Probable space group: P -1
;
_chemical_formula_sum "Si O2"
_cell_formula_units_Z 16
_cell_length_a 20.454213
_cell_length_b 17.440897
_cell_length_c 12.977159
_cell_angle_alpha 44.375586
_cell_angle_beta 24.352676
_cell_angle_gamma 28.449347
_cell_volume 817.080053
_symmetry_space_group_name_H-M "P -1"
_symmetry_group_IT_number 2
_symmetry_cell_setting 'triclinic'
loop_
_space_group_symop_operation_xyz
x,y,z
-x,-y,-z
loop_
_atom_site_type_symbol
_atom_site_label
_atom_site_fract_x
_atom_site_fract_y
_atom_site_fract_z
Si Si1 0.922320 0.599980 0.681089
Si Si2 0.302144 0.101250 0.779609
Si Si3 0.627948 0.740921 0.761373
Si Si4 0.557425 0.185782 0.698472
Si Si5 0.756688 0.303884 0.361484
Si Si6 0.755846 0.713388 0.130774
Si Si7 0.085844 0.197338 0.355402
Si Si8 0.221169 0.788979 0.356811
O O1 0.781037 0.702879 0.676854
O O2 0.996618 0.669575 0.568214
O O3 0.169601 0.393525 0.491668
O O4 0.709664 0.656226 0.004365
O O5 0.309994 0.202671 0.743962
O O6 0.500000 0.000000 0.500000
O O7 0.404231 0.944872 0.852573
O O8 0.014017 0.228732 0.034855
O O9 0.486021 0.707411 0.031885
O O10 0.743441 0.186051 0.453528
O O11 0.472323 0.221508 0.667719
O O12 0.690189 0.002661 0.727031
O O13 0.500000 0.500000 0.500000
O O14 0.750199 0.301330 0.496929
O O15 0.823420 0.778608 0.895242
O O16 0.000000 0.500000 0.000000
O O17 0.870962 0.232926 0.585690
O O18 0.000000 0.000000 0.500000
#
# Coordination Sequence:
#
# PCOD9020425 Si02
#       8
#     2   2   2   2   2   2   2   2
#     4  10  22  35  63  98 124 163 208 276 317 376
#     4  12  26  42  66  94 135 174 211 269 338 383
#     4  11  22  40  63  94 132 164 217 267 328 381
#     4  11  21  40  67  89 127 167 223 259 316 384
#     4  12  25  41  64  98 128 171 220 266 323 390
#     4  11  23  39  63  96 126 171 219 265 315 389
#     4  11  21  38  66  91 125 165 224 260 316 383
#     4  12  20  41  66  90 120 168 217 265 315 390
#
# _framework density 19.581924999999998
#
# number of rings (size 3 to 8) (size 9 to 14) (size 15 to 20)
#    0.000    0.750    5.000    3.750    5.250    0.500 
#    0.000    0.625    0.000    0.000    0.000    0.000 
#    0.000    0.000    0.000    0.000    0.000    0.000 
#
# Total GULP energy -89431.723761 kJ/mol
# GULP energy per Si atom -5589.482735 kJ/mol
# Density = 1.953736 g / cm^3
# Si number density = 19.581925 Si / 1000 Ang^3
#
#
#
# Elastic Constant Matrix: (Units=GPa)
#
#
# Indices 1 2 3 4 5 6 
#
# 1 162.9095 41.8892 51.9932 10.4106 -12.3478 25.2864
# 2 41.8892 67.1810 14.8029 14.4042 0.3180 -9.0374
# 3 51.9932 14.8029 79.3882 10.7796 4.2327 5.9032
# 4 10.4106 14.4042 10.7796 26.7546 1.7513 -4.1278
# 5 -12.3478 0.3180 4.2327 1.7513 32.7209 5.8647
# 6 25.2864 -9.0374 5.9032 -4.1278 5.8647 40.4787
#
#
#
# Elastic Compliance Matrix: (Units=1/GPa)
#
#
# Indices 1 2 3 4 5 6 
#
# 1 0.011970 -0.007367 -0.006138 -0.000108 0.007048 -0.009259
# 2 -0.007367 0.022133 0.001318 -0.007876 -0.004390 0.009184
# 3 -0.006138 0.001318 0.017110 -0.004630 -0.004623 0.001831
# 4 -0.000108 -0.007876 -0.004630 0.044277 -0.002425 0.003851
# 5 0.007048 -0.004390 -0.004623 -0.002425 0.035810 -0.010144
# 6 -0.009259 0.009184 0.001831 0.003851 -0.010144 0.034134
#
#
# Mechanical properties :
#
#
# Convention : Reuss Voigt Hill
#
# Bulk Modulus (GPa) = 37.25918 58.53881 47.89899
# Shear Modulus (GPa) = 25.15666 33.37707 29.26687
#
# Velocity S-wave (km/s) = 3.58814 4.13302 3.87018
# Velocity P-wave (km/s) = 6.01955 7.26189 6.66971
#
# Compressibility (1/GPa) = 0.02683902
#
# Stress axis : x y z
#
# Youngs Moduli (GPa) = 83.54187 45.18120 58.44662
#
# Poissons Ratio (x) = 0.33284 0.35877
# Poissons Ratio (y) = 0.61544 -0.07705
# Poissons Ratio (z) = 0.51281 -0.05957
#
# Static dielectric constant tensor:
#      x y z
#    x 1.700860 -0.006550 -0.012280 
#    y -0.006550 1.714910 -0.016950 
#    z -0.012280 -0.016950 1.680490 
# 
# From -- ./inp_files/206323.got.cif
#   From: 2010.05.17/outbox.cif.g08.bks.cpg/sg2_104_cif.got.tgz:206323.got - 2010.06.03 11:33:40.
