data_PCOD9020707
_publ_section_title
;
Structure prediction by ZEFSAII (Michael W. Deem and Ramdas Pophale) SiO2 
 PCOD9020707
Probable space group: P -1
;
_chemical_formula_sum "Si O2"
_cell_formula_units_Z 16
_cell_length_a 11.561212
_cell_length_b 9.226055
_cell_length_c 11.671456
_cell_angle_alpha 61.648167
_cell_angle_beta 48.507027
_cell_angle_gamma 96.171281
_cell_volume 630.307361
_symmetry_space_group_name_H-M "P -1"
_symmetry_group_IT_number 2
_symmetry_cell_setting 'triclinic'
loop_
_space_group_symop_operation_xyz
x,y,z
-x,-y,-z
loop_
_atom_site_type_symbol
_atom_site_label
_atom_site_fract_x
_atom_site_fract_y
_atom_site_fract_z
Si Si1 0.334135 0.016048 0.673231
Si Si2 0.813180 0.951737 0.028346
Si Si3 0.892808 0.821625 0.807693
Si Si4 0.292197 0.105189 0.298316
Si Si5 0.797754 0.329240 0.269284
Si Si6 0.063189 0.437988 0.662301
Si Si7 0.280956 0.631830 0.992968
Si Si8 0.580870 0.150337 0.782143
O O1 0.247352 0.894837 0.653863
O O2 0.313292 0.827626 0.830152
O O3 0.566498 0.231433 0.432415
O O4 0.214335 0.066762 0.809143
O O5 0.985640 0.201587 0.794532
O O6 0.856563 0.831036 0.961610
O O7 0.599771 0.883046 0.151736
O O8 0.744076 0.832605 0.823355
O O9 0.838517 0.595618 0.904446
O O10 0.105351 0.014512 0.537551
O O11 0.506899 0.296145 0.137453
O O12 0.314148 0.923677 0.332579
O O13 0.851648 0.454559 0.307355
O O14 0.000000 0.500000 0.000000
O O15 0.243456 0.602393 0.398941
O O16 0.863720 0.412975 0.791269
O O17 0.500000 0.000000 0.000000
#
# Coordination Sequence:
#
# PCOD9020707 Si02
#       8
#     2   2   2   2   2   2   2   2
#     4  10  22  36  67  98 119 152 212 257 307 378
#     4  11  22  39  60  96 121 161 208 261 304 362
#     4  11  25  39  59  84 131 171 208 255 312 359
#     4  11  22  41  57  88 122 172 221 251 297 378
#     4  11  19  37  67 101 119 152 203 269 312 361
#     4  11  22  38  66  93 124 161 208 255 316 366
#     4  11  21  39  62  87 122 168 208 250 306 373
#     4  12  22  40  63  90 128 162 211 265 300 360
#
# _framework density 25.384440000000001
#
# number of rings (size 3 to 8) (size 9 to 14) (size 15 to 20)
#    0.000    1.000    8.750    0.375    0.000    1.500 
#    4.500    0.000    0.000    6.000    0.000    0.000 
#    0.000    0.000    0.000    0.000    0.000    0.000 
#
# Total GULP energy -89387.672167 kJ/mol
# GULP energy per Si atom -5586.729510 kJ/mol
# Density = 2.532666 g / cm^3
# Si number density = 25.384440 Si / 1000 Ang^3
#
#
#
# Elastic Constant Matrix: (Units=GPa)
#
#
# Indices 1 2 3 4 5 6 
#
# 1 87.3513 -2.7302 12.7626 -4.4744 -14.5566 2.8095
# 2 -2.7302 93.3060 9.1129 3.4158 -8.3570 -0.4111
# 3 12.7626 9.1129 161.1411 -17.9632 -17.0199 6.3688
# 4 -4.4744 3.4158 -17.9632 34.6500 5.6219 1.6063
# 5 -14.5566 -8.3570 -17.0199 5.6219 25.7131 -0.0604
# 6 2.8095 -0.4111 6.3688 1.6063 -0.0604 34.6349
#
#
#
# Elastic Compliance Matrix: (Units=1/GPa)
#
#
# Indices 1 2 3 4 5 6 
#
# 1 0.012787 0.001041 -0.000223 0.000283 0.007365 -0.000984
# 2 0.001041 0.011257 -0.000485 -0.001944 0.004352 0.000236
# 3 -0.000223 -0.000485 0.007047 0.003139 0.003691 -0.001423
# 4 0.000283 -0.001944 0.003139 0.031677 -0.005324 -0.002102
# 5 0.007365 0.004352 0.003691 -0.005324 0.048080 -0.000894
# 6 -0.000984 0.000236 -0.001423 -0.002102 -0.000894 0.029313
#
#
# Mechanical properties :
#
#
# Convention : Reuss Voigt Hill
#
# Bulk Modulus (GPa) = 31.49067 42.23211 36.86139
# Shear Modulus (GPa) = 33.31537 40.50979 36.91258
#
# Velocity S-wave (km/s) = 3.62668 3.99914 3.81746
# Velocity P-wave (km/s) = 5.47444 6.16420 5.82953
#
# Compressibility (1/GPa) = 0.03175543
#
# Stress axis : x y z
#
# Youngs Moduli (GPa) = 78.20633 88.83110 141.90697
#
# Poissons Ratio (x) = -0.09246 0.03167
# Poissons Ratio (y) = -0.08140 0.06889
# Poissons Ratio (z) = 0.01745 0.04312
#
# Static dielectric constant tensor:
#      x y z
#    x 2.154480 0.051190 0.003760 
#    y 0.051190 2.008590 0.042790 
#    z 0.003760 0.042790 2.034650 
# 
# From -- ./inp_files/297355.got.cif
#   From: 2010.05.17/outbox.cif.g08.bks.cpg/sg2_149_cif.got.tgz:297355.got - 2010.06.03 11:33:40.
