data_PCOD9020743
_publ_section_title
;
Structure prediction by ZEFSAII (Michael W. Deem and Ramdas Pophale) SiO2 
 PCOD9020743
Probable space group: P -1
;
_chemical_formula_sum "Si O2"
_cell_formula_units_Z 16
_cell_length_a 20.033491
_cell_length_b 5.095600
_cell_length_c 23.910632
_cell_angle_alpha 104.953287
_cell_angle_beta 162.576307
_cell_angle_gamma 74.150042
_cell_volume 703.064474
_symmetry_space_group_name_H-M "P -1"
_symmetry_group_IT_number 2
_symmetry_cell_setting 'triclinic'
loop_
_space_group_symop_operation_xyz
x,y,z
-x,-y,-z
loop_
_atom_site_type_symbol
_atom_site_label
_atom_site_fract_x
_atom_site_fract_y
_atom_site_fract_z
Si Si1 0.467939 0.665545 0.168188
Si Si2 0.814260 0.918363 0.637156
Si Si3 0.357814 0.677705 0.818142
Si Si4 0.790397 0.765975 0.998408
Si Si5 0.821633 0.515868 0.532627
Si Si6 0.454400 0.305617 0.310311
Si Si7 0.797008 0.738715 0.248239
Si Si8 0.466567 0.304219 0.514385
O O1 0.559826 0.488953 0.179504
O O2 0.285377 0.499048 0.045543
O O3 0.671201 0.675549 0.374408
O O4 0.368456 0.970633 0.092038
O O5 0.931003 0.734508 0.670890
O O6 0.764480 0.724499 0.638286
O O7 0.576009 0.057701 0.430494
O O8 0.963408 0.152658 0.787852
O O9 0.196202 0.506489 0.716033
O O10 0.238498 0.978706 0.731612
O O11 0.578910 0.712261 0.033911
O O12 0.741444 0.753025 0.892029
O O13 0.651393 0.380801 0.429987
O O14 0.993519 0.299623 0.627708
O O15 0.392743 0.559248 0.316606
O O16 0.500000 0.500000 0.500000
O O17 0.500000 0.000000 0.500000
#
# Coordination Sequence:
#
# PCOD9020743 Si02
#       8
#     2   2   2   2   2   2   2   2
#     4  11  23  41  60  92 129 162 217 275 322 370
#     4  11  23  42  72  95 129 173 210 256 325 371
#     4  10  22  37  54  84 121 165 212 268 318 384
#     4  11  25  40  67  98 130 165 216 271 310 375
#     4  10  23  38  64  92 124 167 215 270 322 379
#     4  10  23  44  66 100 131 164 216 261 313 375
#     4  10  22  37  56  82 121 164 215 262 322 383
#     4  11  23  43  71  99 134 173 207 253 309 376
#
# _framework density 22.757512999999999
#
# number of rings (size 3 to 8) (size 9 to 14) (size 15 to 20)
#    0.000    1.500    2.500    1.500    7.000    2.000 
#    0.000    1.250    0.000    0.000    0.000    0.000 
#    0.000    0.000    0.000    0.000    0.000    0.000 
#
# Total GULP energy -89407.481133 kJ/mol
# GULP energy per Si atom -5587.967571 kJ/mol
# Density = 2.270572 g / cm^3
# Si number density = 22.757513 Si / 1000 Ang^3
#
#
#
# Elastic Constant Matrix: (Units=GPa)
#
#
# Indices 1 2 3 4 5 6 
#
# 1 94.3346 17.4743 19.3151 11.9831 -15.3338 -15.7820
# 2 17.4743 98.5779 9.0304 9.0818 -9.6345 -15.2578
# 3 19.3151 9.0304 49.0197 16.6687 -15.7111 -5.0719
# 4 11.9831 9.0818 16.6687 28.7185 -9.6419 -6.4332
# 5 -15.3338 -9.6345 -15.7111 -9.6419 16.8560 9.9215
# 6 -15.7820 -15.2578 -5.0719 -6.4332 9.9215 44.9729
#
#
#
# Elastic Compliance Matrix: (Units=1/GPa)
#
#
# Indices 1 2 3 4 5 6 
#
# 1 0.012884 -0.000944 -0.001940 -0.000925 0.007559 0.002182
# 2 -0.000944 0.011152 0.000163 -0.001557 0.003293 0.002521
# 3 -0.001940 0.000163 0.032209 -0.010548 0.024633 -0.003936
# 4 -0.000925 -0.001557 -0.010548 0.047006 0.014445 0.001495
# 5 0.007559 0.003293 0.024633 0.014445 0.108300 -0.015278
# 6 0.002182 0.002521 -0.003936 0.001495 -0.015278 0.026997
#
#
# Mechanical properties :
#
#
# Convention : Reuss Voigt Hill
#
# Bulk Modulus (GPa) = 19.68361 37.06353 28.37357
# Shear Modulus (GPa) = 19.16265 31.18366 25.17316
#
# Velocity S-wave (km/s) = 2.90493 3.70572 3.32949
# Velocity P-wave (km/s) = 4.46314 5.88485 5.22259
#
# Compressibility (1/GPa) = 0.05080368
#
# Stress axis : x y z
#
# Youngs Moduli (GPa) = 77.61606 89.66810 31.04748
#
# Poissons Ratio (x) = 0.08468 0.06022
# Poissons Ratio (y) = 0.07330 -0.00507
# Poissons Ratio (z) = 0.15054 -0.01465
#
# Static dielectric constant tensor:
#      x y z
#    x 1.830180 -0.010700 -0.021330 
#    y -0.010700 1.868600 -0.005460 
#    z -0.021330 -0.005460 1.891490 
# 
# From -- ./inp_files/47760.got.cif
#   From: 2010.05.17/outbox.cif.g08.bks.cpg/sg2_24_cif.got.tgz:47760.got - 2010.06.03 11:33:40.
