data_PCOD9020279
_publ_section_title
;
Structure prediction by ZEFSAII (Michael W. Deem and Ramdas Pophale) SiO2 
 PCOD9020279
Probable space group: P -1
;
_chemical_formula_sum "Si O2"
_cell_formula_units_Z 15
_cell_length_a 9.989448
_cell_length_b 19.577984
_cell_length_c 14.402715
_cell_angle_alpha 153.536169
_cell_angle_beta 32.315268
_cell_angle_gamma 128.075946
_cell_volume 543.214734
_symmetry_space_group_name_H-M "P -1"
_symmetry_group_IT_number 2
_symmetry_cell_setting 'triclinic'
loop_
_space_group_symop_operation_xyz
x,y,z
-x,-y,-z
loop_
_atom_site_type_symbol
_atom_site_label
_atom_site_fract_x
_atom_site_fract_y
_atom_site_fract_z
Si Si1 0.881357 0.827205 0.593123
Si Si2 0.892882 0.109646 0.292158
Si Si3 0.995889 0.340654 0.050346
Si Si4 0.565000 0.213479 0.107444
Si Si5 0.459385 0.390097 0.757429
Si Si6 0.165119 0.569019 0.548622
Si Si7 0.500000 0.000000 0.500000
Si Si8 0.314044 0.858120 0.253829
O O1 0.854613 0.918007 0.819269
O O2 0.995407 0.897507 0.529210
O O3 0.579743 0.827357 0.769147
O O4 0.187202 0.609662 0.165525
O O5 0.673359 0.324627 0.643636
O O6 0.701670 0.060299 0.404859
O O7 0.000000 0.000000 0.000000
O O8 0.840768 0.236276 0.990170
O O9 0.734982 0.565220 0.465473
O O10 0.062748 0.304733 0.079515
O O11 0.277976 0.296494 0.768783
O O12 0.648840 0.099715 0.822718
O O13 0.702742 0.331661 0.460866
O O14 0.000000 0.500000 0.500000
O O15 0.469193 0.370909 0.160241
O O16 0.453594 0.921940 0.326562
#
# Coordination Sequence:
#
# PCOD9020279 Si02
#       8
#     2   2   2   2   2   2   1   2
#     4   9  19  34  55  81 109 145 183 229 275 328
#     4  11  23  34  54  81 114 147 182 231 281 332
#     4   9  20  33  53  84 113 149 176 229 277 330
#     4   9  17  34  55  79 115 144 186 220 278 330
#     4  10  22  35  55  83 113 145 184 228 280 333
#     4  10  22  32  56  85 115 142 180 230 283 326
#     4  10  22  36  52  80 112 142 188 224 278 324
#     4   9  19  34  53  82 109 148 180 229 273 327
#
# _framework density 27.613392000000001
#
# number of rings (size 3 to 8) (size 9 to 14) (size 15 to 20)
#    0.000    2.400    0.000    1.200   13.067    1.067 
#    0.000    5.333    0.000    3.200    0.000    7.467 
#    0.000    0.000    0.000    0.000    0.000    0.000 
#
# Total GULP energy -83701.673436 kJ/mol
# GULP energy per Si atom -5580.111562 kJ/mol
# Density = 2.755054 g / cm^3
# Si number density = 27.613392 Si / 1000 Ang^3
#
#
#
# Elastic Constant Matrix: (Units=GPa)
#
#
# Indices 1 2 3 4 5 6 
#
# 1 110.4232 43.5485 27.8468 -29.1454 16.2062 -3.7085
# 2 43.5485 179.6898 48.1082 -46.5746 23.0624 -15.1303
# 3 27.8468 48.1082 136.1921 -27.2682 18.3009 12.6254
# 4 -29.1454 -46.5746 -27.2682 53.3030 10.2960 -11.7583
# 5 16.2062 23.0624 18.3009 10.2960 39.9919 -3.5526
# 6 -3.7085 -15.1303 12.6254 -11.7583 -3.5526 26.3337
#
#
#
# Elastic Compliance Matrix: (Units=1/GPa)
#
#
# Indices 1 2 3 4 5 6 
#
# 1 0.012999 0.001557 -0.000465 0.011348 -0.008261 0.006901
# 2 0.001557 0.011867 -0.001387 0.015283 -0.009599 0.013231
# 3 -0.000465 -0.001387 0.009664 0.003367 -0.004712 -0.004628
# 4 0.011348 0.015283 0.003367 0.051208 -0.025634 0.028172
# 5 -0.008261 -0.009599 -0.004712 -0.025634 0.041735 -0.010235
# 6 0.006901 0.013231 -0.004628 0.028172 -0.010235 0.059965
#
#
# Mechanical properties :
#
#
# Convention : Reuss Voigt Hill
#
# Bulk Modulus (GPa) = 29.46489 73.92355 51.69422
# Shear Modulus (GPa) = 25.08268 44.37917 34.73092
#
# Velocity S-wave (km/s) = 3.01716 4.01329 3.55033
# Velocity P-wave (km/s) = 4.77821 6.95013 5.96388
#
# Compressibility (1/GPa) = 0.03393870
#
# Stress axis : x y z
#
# Youngs Moduli (GPa) = 76.93041 84.27022 103.47816
#
# Poissons Ratio (x) = -0.13120 0.04816
# Poissons Ratio (y) = -0.11977 0.14350
# Poissons Ratio (z) = 0.03580 0.11686
#
# Static dielectric constant tensor:
#      x y z
#    x 2.056300 -0.081410 -0.048150 
#    y -0.081410 2.104960 0.116780 
#    z -0.048150 0.116780 2.274190 
# 
# From -- ./inp_files/253378.got.cif
#   From: 2010.05.17/outbox.cif.g08.bks.cpg/sg2_127_cif.got.tgz:253378.got - 2010.06.03 11:33:40.
