data_PCOD9020798
_publ_section_title
;
Structure prediction by ZEFSAII (Michael W. Deem and Ramdas Pophale) SiO2 
 PCOD9020798
Probable space group: P -1
;
_chemical_formula_sum "Si O2"
_cell_formula_units_Z 16
_cell_length_a 24.174931
_cell_length_b 9.031204
_cell_length_c 13.234238
_cell_angle_alpha 35.787282
_cell_angle_beta 34.112032
_cell_angle_gamma 60.122988
_cell_volume 804.149424
_symmetry_space_group_name_H-M "P -1"
_symmetry_group_IT_number 2
_symmetry_cell_setting 'triclinic'
loop_
_space_group_symop_operation_xyz
x,y,z
-x,-y,-z
loop_
_atom_site_type_symbol
_atom_site_label
_atom_site_fract_x
_atom_site_fract_y
_atom_site_fract_z
Si Si1 0.413880 0.009116 0.884474
Si Si2 0.850330 0.010426 0.436410
Si Si3 0.722138 0.347928 0.510463
Si Si4 0.973949 0.527563 0.411306
Si Si5 0.902301 0.770316 0.698554
Si Si6 0.083180 0.216251 0.888666
Si Si7 0.345595 0.499804 0.675773
Si Si8 0.760107 0.469882 0.717590
O O1 0.368805 0.232066 0.804353
O O2 0.551120 0.216786 0.578327
O O3 0.357729 0.835649 0.171023
O O4 0.367623 0.770869 0.994787
O O5 0.777099 0.159788 0.490124
O O6 0.885841 0.908328 0.542563
O O7 0.779063 0.722269 0.629212
O O8 0.973294 0.243609 0.067266
O O9 0.830704 0.662071 0.213432
O O10 0.656818 0.408972 0.486888
O O11 0.050493 0.443428 0.278221
O O12 0.000000 0.500000 0.500000
O O13 0.834511 0.331684 0.721432
O O14 0.021390 0.874857 0.139066
O O15 0.778652 0.605077 0.031152
O O16 0.000000 0.000000 0.500000
O O17 0.166262 0.392555 0.572806
#
# Coordination Sequence:
#
# PCOD9020798 Si02
#       8
#     2   2   2   2   2   2   2   2
#     4  10  23  46  64  87 118 164 216 249 300 366
#     4  11  21  39  56  94 129 157 199 254 309 362
#     4  11  23  39  66  89 125 157 209 255 304 362
#     4  11  21  36  59  88 126 155 200 244 301 367
#     4  12  24  37  62  94 126 159 201 253 311 364
#     4  10  22  37  58  92 121 169 195 242 315 364
#     4  11  24  40  68  89 121 162 207 256 304 359
#     4  10  22  39  62  83 127 165 200 251 303 362
#
# _framework density 19.896798
#
# number of rings (size 3 to 8) (size 9 to 14) (size 15 to 20)
#    0.000    1.250    3.750    3.750    7.000    0.000 
#    0.000    1.250    2.750    0.000    0.000    0.000 
#    0.000    0.000    0.000    0.000    0.000    0.000 
#
# Total GULP energy -89249.199103 kJ/mol
# GULP energy per Si atom -5578.074944 kJ/mol
# Density = 1.985151 g / cm^3
# Si number density = 19.896798 Si / 1000 Ang^3
#
#
#
# Elastic Constant Matrix: (Units=GPa)
#
#
# Indices 1 2 3 4 5 6 
#
# 1 135.0904 28.8889 40.4310 -10.1214 -13.1988 23.7239
# 2 28.8889 70.5571 23.7199 3.2529 -15.4106 12.9978
# 3 40.4310 23.7199 86.8431 -3.4774 -28.1642 16.4636
# 4 -10.1214 3.2529 -3.4774 18.4004 4.5240 -8.2647
# 5 -13.1988 -15.4106 -28.1642 4.5240 46.8354 -10.8400
# 6 23.7239 12.9978 16.4636 -8.2647 -10.8400 28.1080
#
#
#
# Elastic Compliance Matrix: (Units=1/GPa)
#
#
# Indices 1 2 3 4 5 6 
#
# 1 0.009903 -0.002535 -0.003362 0.003487 -0.001507 -0.004773
# 2 -0.002535 0.018161 -0.001758 -0.008692 0.003560 -0.006412
# 3 -0.003362 -0.001758 0.016735 -0.001971 0.007873 -0.003695
# 4 0.003487 -0.008692 -0.001971 0.067734 -0.004919 0.020250
# 5 -0.001507 0.003560 0.007873 -0.004919 0.028349 0.004501
# 6 -0.004773 -0.006412 -0.003695 0.020250 0.004501 0.052424
#
#
# Mechanical properties :
#
#
# Convention : Reuss Voigt Hill
#
# Bulk Modulus (GPa) = 33.91163 53.17448 43.54306
# Shear Modulus (GPa) = 22.88869 31.96546 27.42708
#
# Velocity S-wave (km/s) = 3.39539 4.01254 3.71680
# Velocity P-wave (km/s) = 5.69670 6.94626 6.35228
#
# Compressibility (1/GPa) = 0.02948841
#
# Stress axis : x y z
#
# Youngs Moduli (GPa) = 100.97912 55.06198 59.75328
#
# Poissons Ratio (x) = 0.13958 0.20091
# Poissons Ratio (y) = 0.25598 0.10507
# Poissons Ratio (z) = 0.33952 0.09682
#
# Static dielectric constant tensor:
#      x y z
#    x 1.749240 0.030510 0.010490 
#    y 0.030510 1.836920 -0.020040 
#    z 0.010490 -0.020040 1.738060 
# 
# From -- ./inp_files/175014.got.cif
#   From: 2010.05.17/outbox.cif.g08.bks.cpg/sg2_88_cif.got.tgz:175014.got - 2010.06.03 11:33:40.
