data_PCOD9020419
_publ_section_title
;
Structure prediction by ZEFSAII (Michael W. Deem and Ramdas Pophale) SiO2 
 PCOD9020419
Probable space group: P -1
;
_chemical_formula_sum "Si O2"
_cell_formula_units_Z 11
_cell_length_a 12.834522
_cell_length_b 19.850605
_cell_length_c 4.987367
_cell_angle_alpha 69.350802
_cell_angle_beta 111.460743
_cell_angle_gamma 158.135816
_cell_volume 440.076389
_symmetry_space_group_name_H-M "P -1"
_symmetry_group_IT_number 2
_symmetry_cell_setting 'triclinic'
loop_
_space_group_symop_operation_xyz
x,y,z
-x,-y,-z
loop_
_atom_site_type_symbol
_atom_site_label
_atom_site_fract_x
_atom_site_fract_y
_atom_site_fract_z
Si Si1 0.500000 0.000000 0.500000
Si Si2 0.261246 0.627657 0.247651
Si Si3 0.776559 0.267929 0.561415
Si Si4 0.273473 0.305846 0.150866
Si Si5 0.484353 0.349969 0.812705
Si Si6 0.080861 0.778953 0.892250
O O1 0.605942 0.147723 0.307039
O O2 0.756620 0.173341 0.793499
O O3 0.347042 0.744161 0.351816
O O4 0.477072 0.709512 0.161243
O O5 0.098207 0.476390 0.508770
O O6 0.000000 0.500000 0.000000
O O7 0.755233 0.117324 0.373412
O O8 0.370157 0.328512 0.487582
O O9 0.999292 0.191653 0.103331
O O10 0.500000 0.500000 0.000000
O O11 0.288677 0.252860 0.016758
O O12 0.797855 0.565750 0.868224
#
# Coordination Sequence:
#
# PCOD9020419 Si02
#       6
#     1   2   2   2   2   2
#     4  12  24  38  62  88 136 166 210 256 318 386
#     4  11  21  37  64  91 127 161 212 269 312 375
#     4  11  23  38  59  94 127 166 207 264 319 374
#     4  10  22  35  62  91 129 161 207 266 316 375
#     4  11  21  38  62  95 126 162 207 267 320 371
#     4  11  22  38  60  94 127 164 209 258 323 373
#
# _framework density 24.995660999999998
#
# number of rings (size 3 to 8) (size 9 to 14) (size 15 to 20)
#    0.000    1.091    3.636    4.909    5.091    0.000 
#    0.000    0.000    0.000    2.182    0.000    0.000 
#    0.000    0.000    0.000    0.000    0.000    0.000 
#
# Total GULP energy -61388.227067 kJ/mol
# GULP energy per Si atom -5580.747915 kJ/mol
# Density = 2.493877 g / cm^3
# Si number density = 24.995661 Si / 1000 Ang^3
#
#
#
# Elastic Constant Matrix: (Units=GPa)
#
#
# Indices 1 2 3 4 5 6 
#
# 1 236.7120 49.9182 38.8585 14.8948 -51.7216 -6.7452
# 2 49.9182 59.2174 17.3240 4.1805 -19.5737 -11.4212
# 3 38.8585 17.3240 106.9405 -1.3055 -1.2971 4.4583
# 4 14.8948 4.1805 -1.3055 30.5809 0.5142 -20.9194
# 5 -51.7216 -19.5737 -1.2971 0.5142 61.1438 1.4855
# 6 -6.7452 -11.4212 4.4583 -20.9194 1.4855 37.5897
#
#
#
# Elastic Compliance Matrix: (Units=1/GPa)
#
#
# Indices 1 2 3 4 5 6 
#
# 1 0.006416 -0.003649 -0.001642 -0.004398 0.004319 -0.002381
# 2 -0.003649 0.023610 -0.002779 0.004738 0.004146 0.009321
# 3 -0.001642 -0.002779 0.010468 0.000139 -0.002004 -0.002224
# 4 -0.004398 0.004738 0.000139 0.056168 -0.003451 0.032029
# 5 0.004319 0.004146 -0.002004 -0.003451 0.021334 -0.000491
# 6 -0.002381 0.009321 -0.002224 0.032029 -0.000491 0.047116
#
#
# Mechanical properties :
#
#
# Convention : Reuss Voigt Hill
#
# Bulk Modulus (GPa) = 41.06317 68.34128 54.70222
# Shear Modulus (GPa) = 26.40302 45.64749 36.02526
#
# Velocity S-wave (km/s) = 3.25361 4.27806 3.80051
# Velocity P-wave (km/s) = 5.52978 7.19743 6.41800
#
# Compressibility (1/GPa) = 0.02435272
#
# Stress axis : x y z
#
# Youngs Moduli (GPa) = 155.85120 42.35513 95.52837
#
# Poissons Ratio (x) = 0.15457 0.15689
# Poissons Ratio (y) = 0.56875 0.26549
# Poissons Ratio (z) = 0.25596 0.11771
#
# Static dielectric constant tensor:
#      x y z
#    x 1.984190 -0.037940 -0.020220 
#    y -0.037940 2.069910 0.168230 
#    z -0.020220 0.168230 2.260680 
# 
# From -- ./inp_files/79253.got.cif
#   From: 2010.05.17/outbox.cif.g08.bks.cpg/sg2_40_cif.got.tgz:79253.got - 2010.06.03 11:33:40.
