data_PCOD9020899
_publ_section_title
;
Structure prediction by ZEFSAII (Michael W. Deem and Ramdas Pophale) SiO2 
 PCOD9020899
Probable space group: P -1
;
_chemical_formula_sum "Si O2"
_cell_formula_units_Z 16
_cell_length_a 11.031603
_cell_length_b 8.524793
_cell_length_c 12.302539
_cell_angle_alpha 54.700366
_cell_angle_beta 126.759898
_cell_angle_gamma 115.847157
_cell_volume 749.254128
_symmetry_space_group_name_H-M "P -1"
_symmetry_group_IT_number 2
_symmetry_cell_setting 'triclinic'
loop_
_space_group_symop_operation_xyz
x,y,z
-x,-y,-z
loop_
_atom_site_type_symbol
_atom_site_label
_atom_site_fract_x
_atom_site_fract_y
_atom_site_fract_z
Si Si1 0.196712 0.384995 0.703242
Si Si2 0.842529 0.221187 0.574844
Si Si3 0.979707 0.708195 0.860222
Si Si4 0.602181 0.858648 0.227036
Si Si5 0.666609 0.586314 0.011453
Si Si6 0.681091 0.243776 0.998314
Si Si7 0.159386 0.048155 0.131952
Si Si8 0.149981 0.096284 0.474827
O O1 0.219781 0.579820 0.566201
O O2 0.317816 0.248577 0.784146
O O3 0.219911 0.444564 0.816989
O O4 0.026467 0.274549 0.644389
O O5 0.799995 0.137094 0.705551
O O6 0.803423 0.061457 0.523238
O O7 0.152704 0.814294 0.908760
O O8 0.883944 0.815308 0.849098
O O9 0.904665 0.728876 0.694275
O O10 0.000000 0.500000 0.000000
O O11 0.708408 0.841412 0.394546
O O12 0.607651 0.084570 0.109523
O O13 0.425247 0.768626 0.159911
O O14 0.694253 0.453118 0.977156
O O15 0.500000 0.500000 0.000000
O O16 0.706917 0.815750 0.914500
O O17 0.000000 0.000000 0.000000
O O18 0.000000 0.000000 0.500000
#
# Coordination Sequence:
#
# PCOD9020899 Si02
#       8
#     2   2   2   2   2   2   2   2
#     4  11  21  37  63  98 125 166 224 266 321 391
#     4  10  22  37  61  94 129 165 219 273 320 377
#     4  11  23  39  65  95 124 168 215 265 320 386
#     4  11  22  38  64  95 130 169 213 275 321 386
#     4  12  24  40  67  96 130 173 215 266 330 394
#     4  11  23  40  64  96 133 165 216 268 332 384
#     4  11  23  41  65  96 134 165 218 275 324 381
#     4  11  20  37  62  92 126 166 220 263 315 384
#
# _framework density 21.354572000000001
#
# number of rings (size 3 to 8) (size 9 to 14) (size 15 to 20)
#    0.000    1.000    6.250    1.500    0.000    1.000 
#    0.000    1.250    0.000    0.000    0.000    0.000 
#    0.000    0.000    0.000    0.000    0.000    0.000 
#
# Total GULP energy -89329.222945 kJ/mol
# GULP energy per Si atom -5583.076434 kJ/mol
# Density = 2.130597 g / cm^3
# Si number density = 21.354572 Si / 1000 Ang^3
#
#
#
# Elastic Constant Matrix: (Units=GPa)
#
#
# Indices 1 2 3 4 5 6 
#
# 1 43.8232 9.2107 12.0927 1.2671 -2.6816 13.8080
# 2 9.2107 89.6096 58.9781 4.2319 -6.3066 13.7429
# 3 12.0927 58.9781 164.5077 7.3528 -10.7941 16.5511
# 4 1.2671 4.2319 7.3528 53.1646 8.6042 0.8477
# 5 -2.6816 -6.3066 -10.7941 8.6042 29.3448 -5.6444
# 6 13.8080 13.7429 16.5511 0.8477 -5.6444 18.7203
#
#
#
# Elastic Compliance Matrix: (Units=1/GPa)
#
#
# Indices 1 2 3 4 5 6 
#
# 1 0.029809 0.000403 -0.000159 -0.000107 -0.001566 -0.022610
# 2 0.000403 0.015430 -0.004785 -0.000516 0.000347 -0.007267
# 3 -0.000159 -0.004785 0.008276 -0.000983 0.001687 -0.003134
# 4 -0.000107 -0.000516 -0.000983 0.020096 -0.006682 -0.001598
# 5 -0.001566 0.000347 0.001687 -0.006682 0.038782 0.011405
# 6 -0.022610 -0.007267 -0.003134 -0.001598 0.011405 0.081712
#
#
# Mechanical properties :
#
#
# Convention : Reuss Voigt Hill
#
# Bulk Modulus (GPa) = 22.50517 50.94485 36.72501
# Shear Modulus (GPa) = 22.93595 34.75653 28.84624
#
# Velocity S-wave (km/s) = 3.28083 4.03872 3.67934
# Velocity P-wave (km/s) = 4.99134 6.75698 5.94013
#
# Compressibility (1/GPa) = 0.04443424
#
# Stress axis : x y z
#
# Youngs Moduli (GPa) = 33.54648 64.80679 120.83547
#
# Poissons Ratio (x) = -0.02611 0.01920
# Poissons Ratio (y) = -0.01352 0.57816
# Poissons Ratio (z) = 0.00533 0.31008
#
# Static dielectric constant tensor:
#      x y z
#    x 1.727370 -0.043410 0.063980 
#    y -0.043410 1.706880 0.096930 
#    z 0.063980 0.096930 1.710230 
# 
# From -- ./inp_files/257411.got.cif
#   From: 2010.05.17/outbox.cif.g08.bks.cpg/sg2_129_cif.got.tgz:257411.got - 2010.06.03 11:33:40.
