data_PCOD9020297
_publ_section_title
;
Structure prediction by ZEFSAII (Michael W. Deem and Ramdas Pophale) SiO2 
 PCOD9020297
Probable space group: P -1
;
_chemical_formula_sum "Si O2"
_cell_formula_units_Z 16
_cell_length_a 17.127008
_cell_length_b 11.496516
_cell_length_c 19.436068
_cell_angle_alpha 136.403122
_cell_angle_beta 23.512445
_cell_angle_gamma 147.188000
_cell_volume 807.996253
_symmetry_space_group_name_H-M "P -1"
_symmetry_group_IT_number 2
_symmetry_cell_setting 'triclinic'
loop_
_space_group_symop_operation_xyz
x,y,z
-x,-y,-z
loop_
_atom_site_type_symbol
_atom_site_label
_atom_site_fract_x
_atom_site_fract_y
_atom_site_fract_z
Si Si1 0.760359 0.724975 0.500377
Si Si2 0.682917 0.918827 0.761212
Si Si3 0.901112 0.194034 0.929189
Si Si4 0.157295 0.146776 0.829691
Si Si5 0.354782 0.718762 0.581539
Si Si6 0.449632 0.796664 0.041640
Si Si7 0.650783 0.340183 0.285323
Si Si8 0.115568 0.302163 0.074966
O O1 0.621608 0.732999 0.680940
O O2 0.778808 0.537868 0.417579
O O3 0.587092 0.683276 0.559253
O O4 0.041587 0.956382 0.373803
O O5 0.687801 0.097861 0.792158
O O6 0.486786 0.816666 0.937764
O O7 0.065187 0.199860 0.860046
O O8 0.095638 0.401429 0.810705
O O9 0.723988 0.233991 0.127219
O O10 0.715931 0.966232 0.939619
O O11 0.405009 0.178507 0.618172
O O12 0.198600 0.284896 0.923793
O O13 0.937990 0.893933 0.921236
O O14 0.419177 0.777672 0.635301
O O15 0.154035 0.749566 0.736770
O O16 0.301088 0.540669 0.063465
#
# Coordination Sequence:
#
# PCOD9020297 Si02
#       8
#     2   2   2   2   2   2   2   2
#     4  11  20  36  55  94 124 158 197 249 310 374
#     4  10  22  33  58  88 128 159 197 248 312 373
#     4  11  23  39  62  94 129 164 200 254 311 377
#     4  11  25  44  67  89 121 164 217 260 302 360
#     4  12  22  39  67  93 119 161 210 256 307 366
#     4  11  22  38  59  88 124 165 200 249 314 365
#     4  11  23  36  63  95 129 160 202 251 318 373
#     4  11  25  45  65  90 120 167 215 260 301 361
#
# _framework density 19.802071000000002
#
# number of rings (size 3 to 8) (size 9 to 14) (size 15 to 20)
#    0.000    1.000    5.000    2.250    3.500    0.500 
#    0.000    0.000    0.000    0.750    0.000    0.000 
#    0.000    0.000    0.000    0.000    0.000    0.000 
#
# Total GULP energy -89294.826026 kJ/mol
# GULP energy per Si atom -5580.926627 kJ/mol
# Density = 1.975700 g / cm^3
# Si number density = 19.802071 Si / 1000 Ang^3
#
#
#
# Elastic Constant Matrix: (Units=GPa)
#
#
# Indices 1 2 3 4 5 6 
#
# 1 33.5318 17.6180 3.9195 0.6628 8.7101 13.3309
# 2 17.6180 83.7929 1.2047 0.9716 7.3300 9.9515
# 3 3.9195 1.2047 68.3931 16.5372 15.3108 12.3801
# 4 0.6628 0.9716 16.5372 25.5434 5.2519 -4.4668
# 5 8.7101 7.3300 15.3108 5.2519 28.3352 -2.8744
# 6 13.3309 9.9515 12.3801 -4.4668 -2.8744 25.8278
#
#
#
# Elastic Compliance Matrix: (Units=1/GPa)
#
#
# Indices 1 2 3 4 5 6 
#
# 1 0.049763 -0.004794 0.010007 -0.008936 -0.021108 -0.032529
# 2 -0.004794 0.013753 0.002016 -0.001809 -0.003292 -0.004470
# 3 0.010007 0.002016 0.026467 -0.018124 -0.016939 -0.023648
# 4 -0.008936 -0.001809 -0.018124 0.054271 0.005382 0.023982
# 5 -0.021108 -0.003292 -0.016939 0.005382 0.053543 0.027172
# 6 -0.032529 -0.004470 -0.023648 0.023982 0.027172 0.075737
#
#
# Mechanical properties :
#
#
# Convention : Reuss Voigt Hill
#
# Bulk Modulus (GPa) = 9.57474 25.68914 17.63194
# Shear Modulus (GPa) = 17.01317 26.80633 21.90975
#
# Velocity S-wave (km/s) = 2.93433 3.68328 3.32992
# Velocity P-wave (km/s) = 4.04055 5.57582 4.86908
#
# Compressibility (1/GPa) = 0.10444153
#
# Stress axis : x y z
#
# Youngs Moduli (GPa) = 20.09521 72.71189 37.78235
#
# Poissons Ratio (x) = 0.34855 -0.37808
# Poissons Ratio (y) = 0.09633 -0.07616
# Poissons Ratio (z) = -0.20109 -0.14658
#
# Static dielectric constant tensor:
#      x y z
#    x 1.699690 0.023680 0.015530 
#    y 0.023680 1.718680 0.014820 
#    z 0.015530 0.014820 1.737270 
# 
# From -- ./inp_files/174967.got.cif
#   From: 2010.05.17/outbox.cif.g08.bks.cpg/sg2_88_cif.got.tgz:174967.got - 2010.06.03 11:33:40.
