data_PCOD9020358
_publ_section_title
;
Structure prediction by ZEFSAII (Michael W. Deem and Ramdas Pophale) SiO2 
 PCOD9020358
Probable space group: P -1
;
_chemical_formula_sum "Si O2"
_cell_formula_units_Z 16
_cell_length_a 5.058312
_cell_length_b 23.745980
_cell_length_c 10.644340
_cell_angle_alpha 133.077305
_cell_angle_beta 115.563061
_cell_angle_gamma 68.606179
_cell_volume 837.694219
_symmetry_space_group_name_H-M "P -1"
_symmetry_group_IT_number 2
_symmetry_cell_setting 'triclinic'
loop_
_space_group_symop_operation_xyz
x,y,z
-x,-y,-z
loop_
_atom_site_type_symbol
_atom_site_label
_atom_site_fract_x
_atom_site_fract_y
_atom_site_fract_z
Si Si1 0.568627 0.532650 0.426615
Si Si2 0.355345 0.222694 0.287142
Si Si3 0.916183 0.782608 0.045345
Si Si4 0.813451 0.324158 0.413803
Si Si5 0.552481 0.127319 0.737311
Si Si6 0.120445 0.620588 0.755985
Si Si7 0.159001 0.033078 0.336387
Si Si8 0.508109 0.939259 0.795859
O O1 0.500000 0.500000 0.500000
O O2 0.291812 0.592059 0.419054
O O3 0.679761 0.452869 0.257054
O O4 0.842634 0.583424 0.579395
O O5 0.626221 0.262138 0.344552
O O6 0.446254 0.146898 0.270469
O O7 0.148745 0.286763 0.421330
O O8 0.167996 0.201264 0.093945
O O9 0.641762 0.815182 0.122292
O O10 0.195024 0.827680 0.203708
O O11 0.004765 0.690265 0.929168
O O12 0.732068 0.340090 0.273468
O O13 0.335551 0.091842 0.541381
O O14 0.712802 0.053740 0.732661
O O15 0.235808 0.047178 0.228784
O O16 0.812342 0.046100 0.312249
O O17 0.500000 0.000000 0.000000
#
# Coordination Sequence:
#
# PCOD9020358 Si02
#       8
#     2   2   2   2   2   2   2   2
#     4   9  16  28  45  70 112 158 170 208 268 324
#     4  11  21  32  52  78 110 142 181 224 266 324
#     4  11  20  34  54  83 112 144 184 220 267 324
#     4  10  17  31  45  70 107 149 178 207 258 328
#     4  11  23  38  59  77 106 149 185 227 269 319
#     4   9  18  28  46  75 111 152 177 213 263 329
#     4  11  24  42  57  79 109 143 189 226 273 327
#     4  12  24  39  58  82 109 141 179 231 280 322
#
# _framework density 19.10005
#
# number of rings (size 3 to 8) (size 9 to 14) (size 15 to 20)
#    0.000    1.500    2.500    5.625    1.750    2.000 
#    0.000    0.000    0.000    0.000    0.000    0.000 
#    0.000   20.000    0.000    0.000    0.000    0.000 
#
# Total GULP energy -89279.879126 kJ/mol
# GULP energy per Si atom -5579.992445 kJ/mol
# Density = 1.905658 g / cm^3
# Si number density = 19.100050 Si / 1000 Ang^3
#
#
#
# Elastic Constant Matrix: (Units=GPa)
#
#
# Indices 1 2 3 4 5 6 
#
# 1 78.4036 8.8397 7.4023 12.2893 1.2918 -8.2063
# 2 8.8397 65.9759 31.0972 30.6141 -11.1550 -9.4194
# 3 7.4023 31.0972 50.7673 24.3558 -6.2563 -4.1189
# 4 12.2893 30.6141 24.3558 27.9372 -7.5856 -2.4359
# 5 1.2918 -11.1550 -6.2563 -7.5856 30.5532 11.8511
# 6 -8.2063 -9.4194 -4.1189 -2.4359 11.8511 25.2407
#
#
#
# Elastic Compliance Matrix: (Units=1/GPa)
#
#
# Indices 1 2 3 4 5 6 
#
# 1 0.015033 0.003019 0.001806 -0.012229 -0.005122 0.007534
# 2 0.003019 0.033831 -0.004013 -0.034301 -0.001044 0.010131
# 3 0.001806 -0.004013 0.034913 -0.027205 -0.002427 0.003301
# 4 -0.012229 -0.034301 -0.027205 0.105128 0.015672 -0.018429
# 5 -0.005122 -0.001044 -0.002427 0.015672 0.044411 -0.021791
# 6 0.007534 0.010131 0.003301 -0.018429 -0.021791 0.054840
#
#
# Mechanical properties :
#
#
# Convention : Reuss Voigt Hill
#
# Bulk Modulus (GPa) = 11.70959 32.20282 21.95621
# Shear Modulus (GPa) = 15.87295 26.60005 21.23650
#
# Velocity S-wave (km/s) = 2.88591 3.73590 3.33807
# Velocity P-wave (km/s) = 4.15314 5.95868 5.13588
#
# Compressibility (1/GPa) = 0.08540007
#
# Stress axis : x y z
#
# Youngs Moduli (GPa) = 66.51830 29.55886 28.64242
#
# Poissons Ratio (x) = -0.08923 -0.05173
# Poissons Ratio (y) = -0.20080 0.11495
# Poissons Ratio (z) = -0.12013 0.11863
#
# Static dielectric constant tensor:
#      x y z
#    x 1.713580 -0.027760 -0.012960 
#    y -0.027760 1.674500 0.032330 
#    z -0.012960 0.032330 1.680700 
# 
# From -- ./inp_files/370761.got.cif
#   From: 2010.05.17/outbox.cif.g08.bks.cpg/sg2_186_cif.got.tgz:370761.got - 2010.06.03 11:33:40.
