data_PCOD9020811
_publ_section_title
;
Structure prediction by ZEFSAII (Michael W. Deem and Ramdas Pophale) SiO2 
 PCOD9020811
Probable space group: P -1
;
_chemical_formula_sum "Si O2"
_cell_formula_units_Z 12
_cell_length_a 19.869379
_cell_length_b 11.640994
_cell_length_c 4.878593
_cell_angle_alpha 94.115752
_cell_angle_beta 103.241309
_cell_angle_gamma 24.192903
_cell_volume 422.695387
_symmetry_space_group_name_H-M "P -1"
_symmetry_group_IT_number 2
_symmetry_cell_setting 'triclinic'
loop_
_space_group_symop_operation_xyz
x,y,z
-x,-y,-z
loop_
_atom_site_type_symbol
_atom_site_label
_atom_site_fract_x
_atom_site_fract_y
_atom_site_fract_z
Si Si1 0.446425 0.399498 0.613824
Si Si2 0.249344 0.382828 0.090583
Si Si3 0.262394 0.899691 0.593725
Si Si4 0.945073 0.710998 0.077324
Si Si5 0.060746 0.007757 0.371833
Si Si6 0.551989 0.094023 0.189717
O O1 0.578268 0.152779 0.456641
O O2 0.459265 0.303461 0.881956
O O3 0.440103 0.546949 0.693407
O O4 0.247750 0.688475 0.348428
O O5 0.138985 0.479802 0.230971
O O6 0.100747 0.700801 0.906637
O O7 0.300007 0.210184 0.878143
O O8 0.426811 0.190094 0.244326
O O9 0.170283 0.057282 0.240874
O O10 0.128424 0.008476 0.625698
O O11 0.200714 0.089931 0.782140
O O12 0.000000 0.500000 0.000000
O O13 0.000000 0.000000 0.500000
#
# Coordination Sequence:
#
# PCOD9020811 Si02
#       6
#     2   2   2   2   2   2
#     4  10  22  37  59  87 120 156 188 234 291 357
#     4  10  23  37  59  89 121 155 190 240 289 347
#     4   9  21  35  59  85 110 147 197 243 279 332
#     4  11  22  38  60  85 113 150 201 245 278 327
#     4   9  18  34  59  87 115 152 194 233 283 345
#     4  11  23  37  57  90 127 151 181 232 306 356
#
# _framework density 28.389240000000001
#
# number of rings (size 3 to 8) (size 9 to 14) (size 15 to 20)
#    1.000    1.000    1.667    1.500    2.333    6.000 
#    0.000    0.000    0.000    6.000    0.000    0.000 
#    0.000    0.000    0.000    0.000    0.000    0.000 
#
# Total GULP energy -66982.570319 kJ/mol
# GULP energy per Si atom -5581.880860 kJ/mol
# Density = 2.832462 g / cm^3
# Si number density = 28.389240 Si / 1000 Ang^3
#
#
#
# Elastic Constant Matrix: (Units=GPa)
#
#
# Indices 1 2 3 4 5 6 
#
# 1 -35.5970 26.0098 -9.9541 4.4987 -4.3207 -65.8026
# 2 26.0098 119.1636 61.9146 22.4880 -11.9126 -16.2010
# 3 -9.9541 61.9146 130.8127 17.9981 -17.5767 2.7332
# 4 4.4987 22.4880 17.9981 54.5194 5.2563 -15.9235
# 5 -4.3207 -11.9126 -17.5767 5.2563 44.1681 9.1979
# 6 -65.8026 -16.2010 2.7332 -15.9235 9.1979 35.9339
#
#
#
# Elastic Compliance Matrix: (Units=1/GPa)
#
#
# Indices 1 2 3 4 5 6 
#
# 1 -0.005604 0.000156 0.000668 -0.003792 0.002846 -0.012651
# 2 0.000156 0.012417 -0.005744 -0.001621 0.000111 0.005574
# 3 0.000668 -0.005744 0.011595 -0.003389 0.004558 -0.004917
# 4 -0.003792 -0.001621 -0.003389 0.022090 -0.005577 0.003800
# 5 0.002846 0.000111 0.004558 -0.005577 0.026321 -0.004295
# 6 -0.012651 0.005574 -0.004917 0.003800 -0.004295 0.010333
#
#
# Mechanical properties :
#
#
# Convention : Reuss Voigt Hill
#
# Bulk Modulus (GPa) = 116.69488 41.14668 78.92078
# Shear Modulus (GPa) = 55.65001 36.01822 45.83412
#
# Velocity S-wave (km/s) = 4.43227 3.56578 4.02243
# Velocity P-wave (km/s) = 8.20902 5.61055 7.03087
#
# Compressibility (1/GPa) = 0.00856936
#
# Stress axis : x y z
#
# Youngs Moduli (GPa) = -178.44881 80.53568 86.24143
#
# Poissons Ratio (x) = -0.01257 -0.05761
# Poissons Ratio (y) = 0.02786 0.49534
# Poissons Ratio (z) = 0.11921 0.46257
#
# Static dielectric constant tensor:
#      x y z
#    x 2.498690 0.196260 0.170380 
#    y 0.196260 1.993160 -0.191600 
#    z 0.170380 -0.191600 2.029470 
# 
# From -- ./inp_files/71617.got.cif
#   From: 2010.05.17/outbox.cif.g08.bks.cpg/sg2_36_cif.got.tgz:71617.got - 2010.06.03 11:33:40.
