data_PCOD9020274
_publ_section_title
;
Structure prediction by ZEFSAII (Michael W. Deem and Ramdas Pophale) SiO2 
 PCOD9020274
Probable space group: P -1
;
_chemical_formula_sum "Si O2"
_cell_formula_units_Z 16
_cell_length_a 21.567721
_cell_length_b 16.255775
_cell_length_c 8.029918
_cell_angle_alpha 137.491663
_cell_angle_beta 136.692098
_cell_angle_gamma 24.126418
_cell_volume 762.047964
_symmetry_space_group_name_H-M "P -1"
_symmetry_group_IT_number 2
_symmetry_cell_setting 'triclinic'
loop_
_space_group_symop_operation_xyz
x,y,z
-x,-y,-z
loop_
_atom_site_type_symbol
_atom_site_label
_atom_site_fract_x
_atom_site_fract_y
_atom_site_fract_z
Si Si1 0.496256 0.403517 0.701511
Si Si2 0.246660 0.828872 0.711406
Si Si3 0.114514 0.702815 0.810123
Si Si4 0.710716 0.944004 0.736933
Si Si5 0.183083 0.286599 0.058694
Si Si6 0.371893 0.312486 0.527145
Si Si7 0.793266 0.919489 0.499314
Si Si8 0.997515 0.989870 0.716982
O O1 0.398086 0.578168 0.626380
O O2 0.407889 0.382980 0.574684
O O3 0.665760 0.167673 0.632498
O O4 0.500000 0.500000 0.000000
O O5 0.128442 0.888271 0.693076
O O6 0.134268 0.959292 0.527029
O O7 0.289379 0.913814 0.993431
O O8 0.273449 0.466329 0.721941
O O9 0.090431 0.832081 0.815876
O O10 0.967251 0.777348 0.612666
O O11 0.096608 0.788189 0.078327
O O12 0.785655 0.790837 0.807030
O O13 0.785992 0.859528 0.574702
O O14 0.536978 0.089234 0.582831
O O15 0.271779 0.316736 0.253703
O O16 0.241597 0.127605 0.796535
O O17 0.000000 0.500000 0.000000
#
# Coordination Sequence:
#
# PCOD9020274 Si02
#       8
#     2   2   2   2   2   2   2   2
#     4  11  21  41  68 101 136 175 213 279 352 408
#     4  11  20  39  61 100 135 174 217 282 341 408
#     4  11  20  40  60  98 130 181 214 278 343 404
#     4  11  25  45  70  99 140 176 228 286 342 402
#     4  12  27  48  71 100 136 183 242 285 326 401
#     4  11  24  43  70  96 142 178 223 285 344 390
#     4  11  24  44  72  98 135 185 229 275 349 402
#     4  10  22  31  63  97 137 169 228 268 335 421
#
# _framework density 20.996054999999998
#
# number of rings (size 3 to 8) (size 9 to 14) (size 15 to 20)
#    0.000    1.000    6.250    1.125    1.750    3.500 
#    0.000    1.875    0.000    0.000    0.000    0.000 
#    0.000    0.000    0.000    0.000    0.000    0.000 
#
# Total GULP energy -89364.775002 kJ/mol
# GULP energy per Si atom -5585.298438 kJ/mol
# Density = 2.094827 g / cm^3
# Si number density = 20.996055 Si / 1000 Ang^3
#
#
#
# Elastic Constant Matrix: (Units=GPa)
#
#
# Indices 1 2 3 4 5 6 
#
# 1 63.9305 21.5681 -4.7286 -2.4484 10.2178 -0.7390
# 2 21.5681 64.6190 -2.9899 -7.6247 2.4730 -1.3476
# 3 -4.7286 -2.9899 72.7963 -6.4129 12.4542 -2.3821
# 4 -2.4484 -7.6247 -6.4129 29.6699 -10.0445 -0.1805
# 5 10.2178 2.4730 12.4542 -10.0445 36.1888 -4.5141
# 6 -0.7390 -1.3476 -2.3821 -0.1805 -4.5141 27.1739
#
#
#
# Elastic Compliance Matrix: (Units=1/GPa)
#
#
# Indices 1 2 3 4 5 6 
#
# 1 0.018749 -0.006155 0.001830 -0.001692 -0.006054 -0.000652
# 2 -0.006155 0.018081 0.000496 0.004869 0.001821 0.001108
# 3 0.001830 0.000496 0.014928 0.001772 -0.005128 0.000543
# 4 -0.001692 0.004869 0.001772 0.038802 0.010601 0.002370
# 5 -0.006054 0.001821 -0.005128 0.010601 0.034585 0.005292
# 6 -0.000652 0.001108 0.000543 0.002370 0.005292 0.037780
#
#
# Mechanical properties :
#
#
# Convention : Reuss Voigt Hill
#
# Bulk Modulus (GPa) = 22.67514 25.44945 24.06229
# Shear Modulus (GPa) = 26.98617 31.10628 29.04622
#
# Velocity S-wave (km/s) = 3.58899 3.85324 3.72346
# Velocity P-wave (km/s) = 5.29128 5.65190 5.47456
#
# Compressibility (1/GPa) = 0.04410116
#
# Stress axis : x y z
#
# Youngs Moduli (GPa) = 53.33601 55.30806 66.99042
#
# Poissons Ratio (x) = 0.34041 -0.12262
# Poissons Ratio (y) = 0.32827 -0.03326
# Poissons Ratio (z) = -0.09763 -0.02746
#
# Static dielectric constant tensor:
#      x y z
#    x 1.775870 0.030560 -0.020860 
#    y 0.030560 1.774370 0.008420 
#    z -0.020860 0.008420 1.799120 
# 
# From -- ./inp_files/218554.got.cif
#   From: 2010.05.17/outbox.cif.g08.bks.cpg/sg2_110_cif.got.tgz:218554.got - 2010.06.03 11:33:40.
