data_PCOD9020991
_publ_section_title
;
Structure prediction by ZEFSAII (Michael W. Deem and Ramdas Pophale) SiO2 
 PCOD9020991
Probable space group: P -1
;
_chemical_formula_sum "Si O2"
_cell_formula_units_Z 14
_cell_length_a 15.258052
_cell_length_b 15.543448
_cell_length_c 8.786252
_cell_angle_alpha 55.835337
_cell_angle_beta 74.504465
_cell_angle_gamma 29.098120
_cell_volume 697.193589
_symmetry_space_group_name_H-M "P -1"
_symmetry_group_IT_number 2
_symmetry_cell_setting 'triclinic'
loop_
_space_group_symop_operation_xyz
x,y,z
-x,-y,-z
loop_
_atom_site_type_symbol
_atom_site_label
_atom_site_fract_x
_atom_site_fract_y
_atom_site_fract_z
Si Si1 0.612286 0.488142 0.022590
Si Si2 0.731668 0.754799 0.219784
Si Si3 0.486076 0.621408 0.292075
Si Si4 0.193920 0.318664 0.383784
Si Si5 0.530138 0.145979 0.405609
Si Si6 0.313165 0.424224 0.530296
Si Si7 0.010376 0.882724 0.015493
O O1 0.602678 0.490840 0.205563
O O2 0.848865 0.248160 0.072927
O O3 0.500000 0.500000 0.000000
O O4 0.485757 0.725229 0.795327
O O5 0.734531 0.775981 0.378529
O O6 0.793055 0.569820 0.365437
O O7 0.937036 0.602987 0.209395
O O8 0.500000 0.000000 0.000000
O O9 0.500000 0.500000 0.500000
O O10 0.592766 0.602129 0.356884
O O11 0.231563 0.904969 0.107130
O O12 0.326681 0.284102 0.311151
O O13 0.270285 0.137254 0.438665
O O14 0.498187 0.199356 0.546866
O O15 0.143036 0.664479 0.271832
O O16 0.000000 0.000000 0.000000
#
# Coordination Sequence:
#
# PCOD9020991 Si02
#       7
#     2   2   2   2   2   2   2
#     4  11  23  39  67  97 126 173 217 262 326 392
#     4  10  22  37  63  97 126 161 219 265 320 388
#     4  12  24  42  65  93 133 168 213 271 321 386
#     4   9  20  41  65  86 126 176 206 266 325 375
#     4   9  20  42  64  90 128 169 220 259 323 392
#     4  10  23  41  60  97 128 164 214 270 318 380
#     4  11  22  44  65  89 132 176 214 266 324 381
#
# _framework density 20.080504999999999
#
# number of rings (size 3 to 8) (size 9 to 14) (size 15 to 20)
#    0.000    1.714    2.857    0.857    4.000    4.000 
#    2.571    6.429    0.000    0.000    0.000    0.000 
#    0.000    0.000    0.000    0.000    0.000    0.000 
#
# Total GULP energy -78155.039324 kJ/mol
# GULP energy per Si atom -5582.502809 kJ/mol
# Density = 2.003480 g / cm^3
# Si number density = 20.080505 Si / 1000 Ang^3
#
#
#
# Elastic Constant Matrix: (Units=GPa)
#
#
# Indices 1 2 3 4 5 6 
#
# 1 86.6983 40.9214 29.8057 7.3790 -6.1785 16.4606
# 2 40.9214 107.3009 49.8750 -0.9779 12.9467 5.1001
# 3 29.8057 49.8750 70.3589 -3.7095 14.7472 -1.8155
# 4 7.3790 -0.9779 -3.7095 28.2764 -3.7854 3.7993
# 5 -6.1785 12.9467 14.7472 -3.7854 39.5835 -0.3359
# 6 16.4606 5.1001 -1.8155 3.7993 -0.3359 40.0752
#
#
#
# Elastic Compliance Matrix: (Units=1/GPa)
#
#
# Indices 1 2 3 4 5 6 
#
# 1 0.017676 -0.004400 -0.006001 -0.003867 0.006009 -0.006555
# 2 -0.004400 0.015240 -0.008410 0.000311 -0.002513 -0.000564
# 3 -0.006001 -0.008410 0.024446 0.002971 -0.006973 0.004303
# 4 -0.003867 0.000311 0.002971 0.037254 0.001735 -0.001834
# 5 0.006009 -0.002513 -0.006973 0.001735 0.029766 -0.002379
# 6 -0.006555 -0.000564 0.004303 -0.001834 -0.002379 0.028066
#
#
# Mechanical properties :
#
#
# Convention : Reuss Voigt Hill
#
# Bulk Modulus (GPa) = 50.66287 56.17360 53.41823
# Shear Modulus (GPa) = 25.42569 31.17075 28.29822
#
# Velocity S-wave (km/s) = 3.56221 3.94418 3.75806
# Velocity P-wave (km/s) = 6.49645 6.98406 6.74466
#
# Compressibility (1/GPa) = 0.01973832
#
# Stress axis : x y z
#
# Youngs Moduli (GPa) = 56.57290 65.61754 40.90652
#
# Poissons Ratio (x) = 0.28875 0.24549
# Poissons Ratio (y) = 0.24895 0.34403
# Poissons Ratio (z) = 0.33951 0.55186
#
# Static dielectric constant tensor:
#      x y z
#    x 1.664640 0.012060 -0.029160 
#    y 0.012060 1.731200 -0.003800 
#    z -0.029160 -0.003800 1.710370 
# 
# From -- ./inp_files/312691.got.cif
#   From: 2010.05.17/outbox.cif.g08.bks.cpg/sg2_157_cif.got.tgz:312691.got - 2010.06.03 11:33:40.
