data_PCOD9020171
_publ_section_title
;
Structure prediction by ZEFSAII (Michael W. Deem and Ramdas Pophale) SiO2 
 PCOD9020171
Probable space group: P -1
;
_chemical_formula_sum "Si O2"
_cell_formula_units_Z 14
_cell_length_a 10.540079
_cell_length_b 7.464806
_cell_length_c 11.408583
_cell_angle_alpha 118.833473
_cell_angle_beta 112.712591
_cell_angle_gamma 40.929076
_cell_volume 514.780788
_symmetry_space_group_name_H-M "P -1"
_symmetry_group_IT_number 2
_symmetry_cell_setting 'triclinic'
loop_
_space_group_symop_operation_xyz
x,y,z
-x,-y,-z
loop_
_atom_site_type_symbol
_atom_site_label
_atom_site_fract_x
_atom_site_fract_y
_atom_site_fract_z
Si Si1 0.212909 0.202468 0.895910
Si Si2 0.767470 0.664431 0.824195
Si Si3 0.208650 0.084043 0.290362
Si Si4 0.097190 0.898592 0.874247
Si Si5 0.171432 0.224102 0.628503
Si Si6 0.723598 0.333658 0.527266
Si Si7 0.635853 0.618617 0.344848
O O1 0.285927 0.108121 0.759208
O O2 0.992313 0.486963 0.872159
O O3 0.183452 0.016770 0.891284
O O4 0.303141 0.262256 0.042657
O O5 0.702163 0.922322 0.802850
O O6 0.753121 0.474970 0.682346
O O7 0.152591 0.004503 0.526146
O O8 0.084092 0.008403 0.229220
O O9 0.034543 0.438220 0.354991
O O10 0.271227 0.561159 0.800495
O O11 0.000000 0.000000 0.000000
O O12 0.312738 0.196649 0.583460
O O13 0.500000 0.500000 0.500000
O O14 0.742686 0.407542 0.426830
O O15 0.589665 0.184069 0.662790
#
# Coordination Sequence:
#
# PCOD9020171 Si02
#       7
#     2   2   2   2   2   2   2
#     4  10  21  46  77 109 150 205 262 320 392 468
#     4  10  23  43  74 106 151 200 257 320 388 458
#     4  10  23  44  75 111 151 204 255 325 391 460
#     4  11  22  45  78 113 157 202 265 322 393 472
#     4  10  24  51  79 112 158 209 261 325 396 470
#     4  12  27  49  78 116 158 207 267 325 395 475
#     4  11  26  50  75 117 159 202 264 328 389 473
#
# _framework density 27.196041000000001
#
# number of rings (size 3 to 8) (size 9 to 14) (size 15 to 20)
#    0.000    1.429    2.857    0.857    4.000    5.143 
#    0.000    8.571    0.000    0.000    0.000    0.000 
#    0.000    0.000    0.000    0.000    0.000    0.000 
#
# Total GULP energy -78171.832019 kJ/mol
# GULP energy per Si atom -5583.702287 kJ/mol
# Density = 2.713414 g / cm^3
# Si number density = 27.196041 Si / 1000 Ang^3
#
#
#
# Elastic Constant Matrix: (Units=GPa)
#
#
# Indices 1 2 3 4 5 6 
#
# 1 102.5363 28.7802 37.2723 6.5765 0.9386 4.9996
# 2 28.7802 109.0679 52.5397 -7.4219 12.7478 10.4732
# 3 37.2723 52.5397 179.3622 10.4269 -2.5502 -1.1006
# 4 6.5765 -7.4219 10.4269 33.4715 4.2453 -2.8968
# 5 0.9386 12.7478 -2.5502 4.2453 40.9289 -1.3684
# 6 4.9996 10.4732 -1.1006 -2.8968 -1.3684 57.1848
#
#
#
# Elastic Compliance Matrix: (Units=1/GPa)
#
#
# Indices 1 2 3 4 5 6 
#
# 1 0.011142 -0.002407 -0.001466 -0.002404 0.000630 -0.000668
# 2 -0.002407 0.012571 -0.003538 0.004776 -0.004644 -0.002029
# 3 -0.001466 -0.003538 0.007116 -0.002885 0.001905 0.000813
# 4 -0.002404 0.004776 -0.002885 0.033013 -0.005009 0.000832
# 5 0.000630 -0.004644 0.001905 -0.005009 0.026543 0.001214
# 6 -0.000668 -0.002029 0.000813 0.000832 0.001214 0.018004
#
#
# Mechanical properties :
#
#
# Convention : Reuss Voigt Hill
#
# Bulk Modulus (GPa) = 62.47280 69.79454 66.13367
# Shear Modulus (GPa) = 38.89615 44.47534 41.68574
#
# Velocity S-wave (km/s) = 3.78592 4.04835 3.91933
# Velocity P-wave (km/s) = 6.49092 6.89720 6.69714
#
# Compressibility (1/GPa) = 0.01600697
#
# Stress axis : x y z
#
# Youngs Moduli (GPa) = 89.75000 79.54943 140.52663
#
# Poissons Ratio (x) = 0.19149 0.20596
# Poissons Ratio (y) = 0.21604 0.49721
# Poissons Ratio (z) = 0.13154 0.28146
#
# Static dielectric constant tensor:
#      x y z
#    x 2.149260 -0.243510 -0.149650 
#    y -0.243510 1.405250 -0.177320 
#    z -0.149650 -0.177320 2.308120 
# 
# From -- ./inp_files/240495.got.cif
#   From: 2010.05.17/outbox.cif.g08.bks.cpg/sg2_121_cif.got.tgz:240495.got - 2010.06.03 11:33:40.
