data_PCOD9020749
_publ_section_title
;
Structure prediction by ZEFSAII (Michael W. Deem and Ramdas Pophale) SiO2 
 PCOD9020749
Probable space group: P -1
;
_chemical_formula_sum "Si O2"
_cell_formula_units_Z 14
_cell_length_a 13.026317
_cell_length_b 16.252578
_cell_length_c 11.964828
_cell_angle_alpha 145.298351
_cell_angle_beta 119.405475
_cell_angle_gamma 35.208403
_cell_volume 694.036712
_symmetry_space_group_name_H-M "P -1"
_symmetry_group_IT_number 2
_symmetry_cell_setting 'triclinic'
loop_
_space_group_symop_operation_xyz
x,y,z
-x,-y,-z
loop_
_atom_site_type_symbol
_atom_site_label
_atom_site_fract_x
_atom_site_fract_y
_atom_site_fract_z
Si Si1 0.717506 0.880184 0.360527
Si Si2 0.888480 0.713557 0.018746
Si Si3 0.720228 0.693092 0.476428
Si Si4 0.875650 0.979629 0.895373
Si Si5 0.302213 0.788696 0.161970
Si Si6 0.003440 0.833315 0.037883
Si Si7 0.854543 0.561269 0.636589
O O1 0.883365 0.594828 0.177763
O O2 0.481402 0.055807 0.421801
O O3 0.719986 0.029866 0.593465
O O4 0.780243 0.848686 0.230324
O O5 0.775778 0.707736 0.873639
O O6 0.918011 0.830180 0.093935
O O7 0.935078 0.557976 0.410895
O O8 0.694014 0.737728 0.644579
O O9 0.780986 0.466917 0.226183
O O10 0.683347 0.199615 0.951886
O O11 0.041034 0.702973 0.612984
O O12 0.000000 0.000000 0.000000
O O13 0.844540 0.971084 0.000004
O O14 0.088221 0.907199 0.193071
O O15 0.500000 0.500000 0.000000
#
# Coordination Sequence:
#
# PCOD9020749 Si02
#       7
#     2   2   2   2   2   2   2
#     4  11  22  36  54  85 119 145 183 229 280 337
#     4  10  22  37  55  81 116 154 181 222 282 338
#     4   9  18  32  56  82 104 139 188 233 266 321
#     4   9  18  33  56  82 105 141 185 232 265 325
#     4  11  20  34  57  87 110 142 184 235 282 319
#     4   9  19  36  57  81 107 147 190 227 272 323
#     4   9  17  34  55  78 106 143 185 225 275 319
#
# _framework density 20.171842000000002
#
# number of rings (size 3 to 8) (size 9 to 14) (size 15 to 20)
#    0.000    2.286    2.857    0.857    0.000    4.571 
#    0.000    0.000    0.000    0.857    0.000    0.000 
#    0.000    0.000    0.000    0.000    0.000    0.000 
#
# Total GULP energy -77959.536502 kJ/mol
# GULP energy per Si atom -5568.538322 kJ/mol
# Density = 2.012593 g / cm^3
# Si number density = 20.171842 Si / 1000 Ang^3
#
#
#
# Elastic Constant Matrix: (Units=GPa)
#
#
# Indices 1 2 3 4 5 6 
#
# 1 54.2873 26.9670 15.0402 -5.9811 10.8790 20.2570
# 2 26.9670 133.4817 29.8640 -15.5782 -6.1456 21.9927
# 3 15.0402 29.8640 48.8759 -16.8455 16.3671 -7.9360
# 4 -5.9811 -15.5782 -16.8455 29.7323 0.6937 -1.7116
# 5 10.8790 -6.1456 16.3671 0.6937 30.9861 -10.1430
# 6 20.2570 21.9927 -7.9360 -1.7116 -10.1430 34.0323
#
#
#
# Elastic Compliance Matrix: (Units=1/GPa)
#
#
# Indices 1 2 3 4 5 6 
#
# 1 0.034912 -0.001497 -0.008411 0.000325 -0.016888 -0.026792
# 2 -0.001497 0.011300 -0.009539 -0.000317 0.005518 -0.007007
# 3 -0.008411 -0.009539 0.044221 0.019763 -0.017044 0.017397
# 4 0.000325 -0.000317 0.019763 0.045191 -0.010385 0.003798
# 5 -0.016888 0.005518 -0.017044 -0.010385 0.054500 0.018233
# 6 -0.026792 -0.007007 0.017397 0.003798 0.018233 0.059541
#
#
# Mechanical properties :
#
#
# Convention : Reuss Voigt Hill
#
# Bulk Modulus (GPa) = 19.40299 42.26526 30.83412
# Shear Modulus (GPa) = 16.35394 29.93506 23.14450
#
# Velocity S-wave (km/s) = 2.85042 3.85645 3.39095
# Velocity P-wave (km/s) = 4.52470 6.38966 5.53628
#
# Compressibility (1/GPa) = 0.05153846
#
# Stress axis : x y z
#
# Youngs Moduli (GPa) = 28.64369 88.49823 22.61389
#
# Poissons Ratio (x) = 0.13245 0.19022
# Poissons Ratio (y) = 0.04287 0.21571
# Poissons Ratio (z) = 0.24093 0.84416
#
# Static dielectric constant tensor:
#      x y z
#    x 1.770090 0.058100 0.025280 
#    y 0.058100 1.795360 -0.018100 
#    z 0.025280 -0.018100 1.778120 
# 
# From -- ./inp_files/169537.got.cif
#   From: 2010.05.17/outbox.cif.g08.bks.cpg/sg2_85_cif.got.tgz:169537.got - 2010.06.03 11:33:40.
