data_PCOD9020365
_publ_section_title
;
Structure prediction by ZEFSAII (Michael W. Deem and Ramdas Pophale) SiO2 
 PCOD9020365
Probable space group: P -1
;
_chemical_formula_sum "Si O2"
_cell_formula_units_Z 16
_cell_length_a 15.000039
_cell_length_b 15.575730
_cell_length_c 15.894049
_cell_angle_alpha 141.316768
_cell_angle_beta 36.233584
_cell_angle_gamma 160.697678
_cell_volume 721.976105
_symmetry_space_group_name_H-M "P -1"
_symmetry_group_IT_number 2
_symmetry_cell_setting 'triclinic'
loop_
_space_group_symop_operation_xyz
x,y,z
-x,-y,-z
loop_
_atom_site_type_symbol
_atom_site_label
_atom_site_fract_x
_atom_site_fract_y
_atom_site_fract_z
Si Si1 0.558046 0.454276 0.712641
Si Si2 0.949719 0.060611 0.393232
Si Si3 0.466302 0.699495 0.005287
Si Si4 0.591616 0.933621 0.712248
Si Si5 0.276474 0.739741 0.028834
Si Si6 0.302467 0.739383 0.498837
Si Si7 0.836830 0.234776 0.194525
Si Si8 0.305302 0.237486 0.402765
O O1 0.871362 0.696584 0.614635
O O2 0.562336 0.309547 0.644572
O O3 0.546170 0.599709 0.869654
O O4 0.264835 0.212042 0.696033
O O5 0.210539 0.192292 0.346183
O O6 0.746264 0.981817 0.553092
O O7 0.401687 0.710479 0.967981
O O8 0.174225 0.491243 0.120645
O O9 0.702679 0.980056 0.084024
O O10 0.307636 0.786106 0.784469
O O11 0.544322 0.787544 0.709815
O O12 0.800007 0.209584 0.801289
O O13 0.000000 0.500000 0.000000
O O14 0.500000 0.000000 0.000000
O O15 0.255165 0.763323 0.647269
O O16 0.000000 0.500000 0.500000
O O17 0.500000 0.000000 0.500000
O O18 0.500000 0.500000 0.500000
O O19 0.000000 0.000000 0.500000
#
# Coordination Sequence:
#
# PCOD9020365 Si02
#       8
#     2   2   2   2   2   2   2   2
#     4  12  26  45  75 101 147 178 235 288 368 414
#     4  11  23  40  68 101 135 188 230 304 340 412
#     4  11  26  46  70 101 143 200 236 273 356 422
#     4  10  23  41  66  95 137 186 245 284 345 395
#     4  11  25  39  60  91 139 191 243 290 322 388
#     4  12  27  49  79 114 137 169 229 302 370 436
#     4  11  24  47  74 101 142 189 233 284 351 436
#     4  10  22  35  55  93 133 171 231 278 336 385
#
# _framework density 22.161397999999998
#
# number of rings (size 3 to 8) (size 9 to 14) (size 15 to 20)
#    0.000    1.000    1.250    5.250    7.000    5.000 
#    0.000    3.750    0.000    0.000    0.000    0.000 
#    0.000    0.000    0.000    0.000    0.000    0.000 
#
# Total GULP energy -89357.741049 kJ/mol
# GULP energy per Si atom -5584.858816 kJ/mol
# Density = 2.211096 g / cm^3
# Si number density = 22.161398 Si / 1000 Ang^3
#
#
#
# Elastic Constant Matrix: (Units=GPa)
#
#
# Indices 1 2 3 4 5 6 
#
# 1 85.4295 24.4845 44.9179 23.2377 -18.5398 -5.3413
# 2 24.4845 144.5907 21.0621 21.3298 -1.9340 -0.9554
# 3 44.9179 21.0621 96.7493 26.6659 -24.7618 -6.6952
# 4 23.2377 21.3298 26.6659 42.3060 -2.5221 5.5366
# 5 -18.5398 -1.9340 -24.7618 -2.5221 35.6286 13.5533
# 6 -5.3413 -0.9554 -6.6952 5.5366 13.5533 38.8854
#
#
#
# Elastic Compliance Matrix: (Units=1/GPa)
#
#
# Indices 1 2 3 4 5 6 
#
# 1 0.017264 -0.001327 -0.004922 -0.005495 0.004884 0.000571
# 2 -0.001327 0.007639 -0.000444 -0.003003 -0.001075 0.000731
# 3 -0.004922 -0.000444 0.016933 -0.007271 0.008562 0.000280
# 4 -0.005495 -0.003003 -0.007271 0.033265 -0.003606 -0.005560
# 5 0.004884 -0.001075 0.008562 -0.003606 0.040632 -0.011530
# 6 0.000571 0.000731 0.000280 -0.005560 -0.011530 0.030671
#
#
# Mechanical properties :
#
#
# Convention : Reuss Voigt Hill
#
# Bulk Modulus (GPa) = 35.14978 56.41096 45.78037
# Shear Modulus (GPa) = 29.53796 39.11764 34.32780
#
# Velocity S-wave (km/s) = 3.65479 4.20590 3.93999
# Velocity P-wave (km/s) = 5.80562 7.00685 6.43433
#
# Compressibility (1/GPa) = 0.02844968
#
# Stress axis : x y z
#
# Youngs Moduli (GPa) = 57.92277 130.91082 59.05741
#
# Poissons Ratio (x) = 0.17369 0.29070
# Poissons Ratio (y) = 0.07685 0.02622
# Poissons Ratio (z) = 0.28512 0.05812
#
# Static dielectric constant tensor:
#      x y z
#    x 7.704800 -0.440300 6.901500 
#    y -0.440300 1.815220 -0.491500 
#    z 6.901500 -0.491500 10.048910 
# 
# From -- ./inp_files/534420.got.cif
#   From: 2010.05.17/outbox.cif.g08.bks.cpg/sg2_268_cif.got.tgz:534420.got - 2010.06.03 11:33:40.
