data_PCOD9020554
_publ_section_title
;
Structure prediction by ZEFSAII (Michael W. Deem and Ramdas Pophale) SiO2 
 PCOD9020554
Probable space group: P -1
;
_chemical_formula_sum "Si O2"
_cell_formula_units_Z 14
_cell_length_a 7.628189
_cell_length_b 16.822074
_cell_length_c 5.874707
_cell_angle_alpha 106.855028
_cell_angle_beta 113.953277
_cell_angle_gamma 68.178538
_cell_volume 630.918420
_symmetry_space_group_name_H-M "P -1"
_symmetry_group_IT_number 2
_symmetry_cell_setting 'triclinic'
loop_
_space_group_symop_operation_xyz
x,y,z
-x,-y,-z
loop_
_atom_site_type_symbol
_atom_site_label
_atom_site_fract_x
_atom_site_fract_y
_atom_site_fract_z
Si Si1 0.828162 0.031739 0.249559
Si Si2 0.319175 0.281235 0.000930
Si Si3 0.011937 0.601314 0.340481
Si Si4 0.027675 0.592409 0.843858
Si Si5 0.498675 0.093066 0.482652
Si Si6 0.847035 0.844381 0.933047
Si Si7 0.738798 0.187351 0.013021
O O1 0.615652 0.070480 0.288597
O O2 0.831848 0.944851 0.047511
O O3 0.852705 0.111594 0.183877
O O4 0.000000 0.000000 0.500000
O O5 0.202107 0.327303 0.754569
O O6 0.259212 0.194012 0.955046
O O7 0.557402 0.259956 0.092665
O O8 0.202384 0.347201 0.191182
O O9 0.098310 0.611409 0.644486
O O10 0.973035 0.507390 0.243274
O O11 0.119601 0.605626 0.153796
O O12 0.624187 0.139782 0.741723
O O13 0.500000 0.000000 0.500000
O O14 0.279557 0.154129 0.360611
O O15 0.079103 0.789463 0.995082
#
# Coordination Sequence:
#
# PCOD9020554 Si02
#       7
#     2   2   2   2   2   2   2
#     4  12  23  43  58  80 121 167 215 260 312 380
#     4  10  22  36  60  91 127 154 210 262 322 374
#     4   8  16  33  62  89 125 166 204 247 318 392
#     4   8  16  34  59  92 123 167 204 246 318 393
#     4  12  23  40  64  79 119 163 212 270 319 379
#     4  12  24  41  60  90 121 164 215 265 324 373
#     4  12  25  41  59  90 121 164 211 266 320 375
#
# _framework density 22.189875000000001
#
# number of rings (size 3 to 8) (size 9 to 14) (size 15 to 20)
#    0.857    0.571    4.286    2.571    2.000    0.000 
#    0.000    0.000    0.000    3.429    0.000    4.000 
#    0.000    0.000    0.000    0.000    0.000    0.000 
#
# Total GULP energy -78023.526969 kJ/mol
# GULP energy per Si atom -5573.109069 kJ/mol
# Density = 2.213937 g / cm^3
# Si number density = 22.189875 Si / 1000 Ang^3
#
#
#
# Elastic Constant Matrix: (Units=GPa)
#
#
# Indices 1 2 3 4 5 6 
#
# 1 92.0817 -0.6405 21.8634 -1.0767 -3.5724 -13.9116
# 2 -0.6405 65.1252 2.0027 -2.3222 -6.5237 -8.8792
# 3 21.8634 2.0027 113.0230 -8.1414 -20.2083 6.0704
# 4 -1.0767 -2.3222 -8.1414 27.9226 -1.3322 -8.3767
# 5 -3.5724 -6.5237 -20.2083 -1.3322 36.7792 -2.0482
# 6 -13.9116 -8.8792 6.0704 -8.3767 -2.0482 12.5394
#
#
#
# Elastic Compliance Matrix: (Units=1/GPa)
#
#
# Indices 1 2 3 4 5 6 
#
# 1 0.016575 0.004971 -0.003833 0.009125 0.002401 0.030252
# 2 0.004971 0.020163 -0.001129 0.010205 0.005369 0.028034
# 3 -0.003833 -0.001129 0.011030 0.000424 0.004986 -0.009294
# 4 0.009125 0.010205 0.000424 0.053835 0.007909 0.054400
# 5 0.002401 0.005369 0.004986 0.007909 0.032214 0.014598
# 6 0.030252 0.028034 -0.009294 0.054400 0.014598 0.176386
#
#
# Mechanical properties :
#
#
# Convention : Reuss Voigt Hill
#
# Bulk Modulus (GPa) = 20.92636 35.18678 28.05657
# Shear Modulus (GPa) = 15.33217 31.91520 23.62369
#
# Velocity S-wave (km/s) = 2.63145 3.79658 3.26638
# Velocity P-wave (km/s) = 4.32247 5.92539 5.18623
#
# Compressibility (1/GPa) = 0.04778661
#
# Stress axis : x y z
#
# Youngs Moduli (GPa) = 60.33256 49.59673 90.65930
#
# Poissons Ratio (x) = -0.24656 0.34745
# Poissons Ratio (y) = -0.29994 0.10239
# Poissons Ratio (z) = 0.23123 0.05602
#
# Static dielectric constant tensor:
#      x y z
#    x 1.884080 -0.001550 -0.052290 
#    y -0.001550 1.855060 0.001580 
#    z -0.052290 0.001580 1.885060 
# 
# From -- ./inp_files/50540.got.cif
#   From: 2010.05.17/outbox.cif.g08.bks.cpg/sg2_26_cif.got.tgz:50540.got - 2010.06.03 11:33:40.
