data_PCOD9020456
_publ_section_title
;
Structure prediction by ZEFSAII (Michael W. Deem and Ramdas Pophale) SiO2 
 PCOD9020456
Probable space group: P -1
;
_chemical_formula_sum "Si O2"
_cell_formula_units_Z 14
_cell_length_a 10.231223
_cell_length_b 5.084683
_cell_length_c 18.909607
_cell_angle_alpha 117.063667
_cell_angle_beta 127.725363
_cell_angle_gamma 70.633895
_cell_volume 690.901688
_symmetry_space_group_name_H-M "P -1"
_symmetry_group_IT_number 2
_symmetry_cell_setting 'triclinic'
loop_
_space_group_symop_operation_xyz
x,y,z
-x,-y,-z
loop_
_atom_site_type_symbol
_atom_site_label
_atom_site_fract_x
_atom_site_fract_y
_atom_site_fract_z
Si Si1 0.847627 0.241169 0.987307
Si Si2 0.942012 0.396546 0.803572
Si Si3 0.734693 0.020475 0.783545
Si Si4 0.616186 0.222426 0.031619
Si Si5 0.353971 0.941594 0.668356
Si Si6 0.156063 0.432035 0.592984
Si Si7 0.171655 0.420481 0.754828
O O1 0.761886 0.256586 0.884620
O O2 0.722073 0.114239 0.985943
O O3 0.918955 0.530462 0.082165
O O4 0.000000 0.000000 0.000000
O O5 0.823933 0.155212 0.762624
O O6 0.035568 0.318962 0.751758
O O7 0.832906 0.706526 0.794976
O O8 0.541395 0.967721 0.710074
O O9 0.742404 0.324811 0.144646
O O10 0.500000 0.500000 0.000000
O O11 0.500000 0.000000 0.000000
O O12 0.229101 0.092416 0.586016
O O13 0.309024 0.156659 0.747158
O O14 0.302041 0.622782 0.635557
O O15 0.108398 0.522873 0.669105
O O16 0.000000 0.500000 0.500000
#
# Coordination Sequence:
#
# PCOD9020456 Si02
#       7
#     2   2   2   2   2   2   2
#     4   9  21  36  53  78 116 163 199 228 274 341
#     4  10  22  36  54  83 118 159 194 232 283 338
#     4  11  21  36  57  82 119 155 195 237 281 339
#     4  11  24  36  55  85 123 154 194 245 287 330
#     4  10  22  37  64  89 114 145 199 242 301 342
#     4  10  22  40  66  90 113 145 198 249 299 359
#     4   9  24  36  63  85 118 153 202 234 294 348
#
# _framework density 20.263373999999999
#
# number of rings (size 3 to 8) (size 9 to 14) (size 15 to 20)
#    0.857    1.143    0.000    2.571    6.000    9.143 
#    0.000    0.000    0.000    5.143    0.000    0.000 
#    0.000    0.000    0.000    0.000    0.000    0.000 
#
# Total GULP energy -78128.303943 kJ/mol
# GULP energy per Si atom -5580.593139 kJ/mol
# Density = 2.021725 g / cm^3
# Si number density = 20.263374 Si / 1000 Ang^3
#
#
#
# Elastic Constant Matrix: (Units=GPa)
#
#
# Indices 1 2 3 4 5 6 
#
# 1 167.1025 27.4314 45.7668 -6.8836 22.2190 23.6315
# 2 27.4314 58.4225 4.7386 -6.4562 0.3644 17.5650
# 3 45.7668 4.7386 63.4073 -23.1492 -1.9226 13.5501
# 4 -6.8836 -6.4562 -23.1492 22.1743 5.5794 5.0591
# 5 22.2190 0.3644 -1.9226 5.5794 23.4915 -0.0512
# 6 23.6315 17.5650 13.5501 5.0591 -0.0512 33.9184
#
#
#
# Elastic Compliance Matrix: (Units=1/GPa)
#
#
# Indices 1 2 3 4 5 6 
#
# 1 0.010317 -0.004542 -0.009315 -0.005471 -0.009151 -0.000312
# 2 -0.004542 0.027998 0.016923 0.030048 -0.001939 -0.022580
# 3 -0.009315 0.016923 0.051191 0.063424 -0.002396 -0.032188
# 4 -0.005471 0.030048 0.063424 0.137242 -0.022822 -0.057592
# 5 -0.009151 -0.001939 -0.002396 -0.022822 0.056504 0.011827
# 6 -0.000312 -0.022580 -0.032188 -0.057592 0.011827 0.062860
#
#
# Mechanical properties :
#
#
# Convention : Reuss Voigt Hill
#
# Bulk Modulus (GPa) = 10.45615 49.42287 29.93951
# Shear Modulus (GPa) = 13.44587 29.98321 21.71454
#
# Velocity S-wave (km/s) = 2.57875 3.85083 3.27711
# Velocity P-wave (km/s) = 3.74672 6.64944 5.39690
#
# Compressibility (1/GPa) = 0.09563748
#
# Stress axis : x y z
#
# Youngs Moduli (GPa) = 96.92828 35.71644 19.53458
#
# Poissons Ratio (x) = 0.16223 0.18197
# Poissons Ratio (y) = 0.44027 -0.33058
# Poissons Ratio (z) = 0.90292 -0.60443
#
# Static dielectric constant tensor:
#      x y z
#    x 1.709420 0.008670 -0.006080 
#    y 0.008670 1.754820 -0.008270 
#    z -0.006080 -0.008270 1.733160 
# 
# From -- ./inp_files/81260.got.cif
#   From: 2010.05.17/outbox.cif.g08.bks.cpg/sg2_41_cif.got.tgz:81260.got - 2010.06.03 11:33:40.
