data_PCOD9020977
_publ_section_title
;
Structure prediction by ZEFSAII (Michael W. Deem and Ramdas Pophale) SiO2 
 PCOD9020977
Probable space group: P -1
;
_chemical_formula_sum "Si O2"
_cell_formula_units_Z 16
_cell_length_a 29.426225
_cell_length_b 8.395924
_cell_length_c 15.249598
_cell_angle_alpha 125.111195
_cell_angle_beta 20.505295
_cell_angle_gamma 139.806481
_cell_volume 667.848894
_symmetry_space_group_name_H-M "P -1"
_symmetry_group_IT_number 2
_symmetry_cell_setting 'triclinic'
loop_
_space_group_symop_operation_xyz
x,y,z
-x,-y,-z
loop_
_atom_site_type_symbol
_atom_site_label
_atom_site_fract_x
_atom_site_fract_y
_atom_site_fract_z
Si Si1 0.208816 0.281681 0.416212
Si Si2 0.241584 0.362743 0.187616
Si Si3 0.414863 0.209469 0.725797
Si Si4 0.824508 0.918804 0.409863
Si Si5 0.863593 0.183405 0.055315
Si Si6 0.235556 0.602612 0.932637
Si Si7 0.082885 0.840053 0.860038
Si Si8 0.874607 0.553561 0.735189
O O1 0.308900 0.462921 0.199337
O O2 0.076281 0.312335 0.696808
O O3 0.305076 0.307037 0.341627
O O4 0.042194 0.921739 0.570369
O O5 0.232506 0.536515 0.193731
O O6 0.377256 0.353189 0.895802
O O7 0.000000 0.000000 0.500000
O O8 0.645735 0.409287 0.348490
O O9 0.302687 0.896732 0.877973
O O10 0.300779 0.097555 0.803746
O O11 0.775053 0.958761 0.418332
O O12 0.992235 0.270651 0.256286
O O13 0.949350 0.872626 0.137934
O O14 0.917372 0.469558 0.026344
O O15 0.797503 0.081069 0.242857
O O16 0.288182 0.632636 0.948890
O O17 0.000000 0.500000 0.500000
#
# Coordination Sequence:
#
# PCOD9020977 Si02
#       8
#     2   2   2   2   2   2   2   2
#     4   9  18  29  49  72  99 131 169 208 259 296
#     4  10  18  32  48  72 105 139 172 207 251 320
#     4  11  20  33  50  75 117 138 166 202 261 328
#     4   9  17  33  47  77 103 128 173 220 256 296
#     4  10  17  31  48  76 101 138 172 213 256 300
#     4  10  21  32  49  77 112 143 160 207 266 312
#     4   9  18  29  51  70 103 130 177 222 255 282
#     4  10  19  30  47  72 105 138 172 204 243 314
#
# _framework density 23.957515999999998
#
# number of rings (size 3 to 8) (size 9 to 14) (size 15 to 20)
#    0.000    2.250    3.750    1.500    0.000    0.500 
#    0.000    0.000    0.000    0.000    0.000    8.750 
#    7.500    0.750    0.000    0.000    0.000    0.000 
#
# Total GULP energy -89280.591565 kJ/mol
# GULP energy per Si atom -5580.036973 kJ/mol
# Density = 2.390299 g / cm^3
# Si number density = 23.957516 Si / 1000 Ang^3
#
#
#
# Elastic Constant Matrix: (Units=GPa)
#
#
# Indices 1 2 3 4 5 6 
#
# 1 209.2177 25.5985 52.8158 1.5860 56.4240 -25.1293
# 2 25.5985 60.8995 31.0337 14.0801 3.6651 -12.3568
# 3 52.8158 31.0337 69.8008 11.8746 22.3883 -13.6644
# 4 1.5860 14.0801 11.8746 18.8390 -2.7374 -2.8862
# 5 56.4240 3.6651 22.3883 -2.7374 30.1206 1.1056
# 6 -25.1293 -12.3568 -13.6644 -2.8862 1.1056 32.5813
#
#
#
# Elastic Compliance Matrix: (Units=1/GPa)
#
#
# Indices 1 2 3 4 5 6 
#
# 1 0.012789 -0.002059 0.002169 -0.003056 -0.025986 0.010604
# 2 -0.002059 0.024645 -0.009018 -0.011202 0.006442 0.002766
# 3 0.002169 -0.009018 0.029799 -0.014533 -0.026817 0.010373
# 4 -0.003056 -0.011202 -0.014533 0.073399 0.024820 -0.007041
# 5 -0.025986 0.006442 -0.026817 0.024820 0.104391 -0.030190
# 6 0.010604 0.002766 0.010373 -0.007041 -0.030190 0.044671
#
#
# Mechanical properties :
#
#
# Convention : Reuss Voigt Hill
#
# Bulk Modulus (GPa) = 20.23611 62.09046 41.16329
# Shear Modulus (GPa) = 15.43292 31.67285 23.55288
#
# Velocity S-wave (km/s) = 2.54082 3.63993 3.13886
# Velocity P-wave (km/s) = 4.13191 6.60596 5.50960
#
# Compressibility (1/GPa) = 0.04941661
#
# Stress axis : x y z
#
# Youngs Moduli (GPa) = 78.19230 40.57607 33.55791
#
# Poissons Ratio (x) = 0.08354 -0.07279
# Poissons Ratio (y) = 0.16099 0.30264
# Poissons Ratio (z) = -0.16961 0.36593
#
# Static dielectric constant tensor:
#      x y z
#    x 2.150150 0.100760 -0.042250 
#    y 0.100760 1.994530 -0.086120 
#    z -0.042250 -0.086120 1.956060 
# 
# From -- ./inp_files/266838.got.cif
#   From: 2010.05.17/outbox.cif.g08.bks.cpg/sg2_134_cif.got.tgz:266838.got - 2010.06.03 11:33:40.
