data_PCOD9020121
_publ_section_title
;
Structure prediction by ZEFSAII (Michael W. Deem and Ramdas Pophale) SiO2 
 PCOD9020121
Probable space group: P -1
;
_chemical_formula_sum "Si O2"
_cell_formula_units_Z 14
_cell_length_a 7.695142
_cell_length_b 16.554104
_cell_length_c 7.915850
_cell_angle_alpha 104.764738
_cell_angle_beta 83.490135
_cell_angle_gamma 42.214493
_cell_volume 580.017507
_symmetry_space_group_name_H-M "P -1"
_symmetry_group_IT_number 2
_symmetry_cell_setting 'triclinic'
loop_
_space_group_symop_operation_xyz
x,y,z
-x,-y,-z
loop_
_atom_site_type_symbol
_atom_site_label
_atom_site_fract_x
_atom_site_fract_y
_atom_site_fract_z
Si Si1 0.568821 0.573753 0.533569
Si Si2 0.071954 0.232579 0.762550
Si Si3 0.635081 0.086649 0.739130
Si Si4 0.023833 0.771650 0.881407
Si Si5 0.130226 0.292413 0.436348
Si Si6 0.704014 0.062519 0.093771
Si Si7 0.248755 0.791248 0.396987
O O1 0.500000 0.500000 0.500000
O O2 0.338819 0.691539 0.762954
O O3 0.472880 0.654811 0.415607
O O4 0.907414 0.446228 0.473016
O O5 0.420981 0.103009 0.682820
O O6 0.031345 0.306758 0.643264
O O7 0.910752 0.209281 0.717346
O O8 0.949154 0.300183 0.999167
O O9 0.612440 0.183843 0.700937
O O10 0.546976 0.127346 0.964684
O O11 0.972456 0.930344 0.609803
O O12 0.914105 0.770148 0.719414
O O13 0.802128 0.929675 0.040949
O O14 0.473247 0.181016 0.321955
O O15 0.000000 0.000000 0.000000
#
# Coordination Sequence:
#
# PCOD9020121 Si02
#       7
#     2   2   2   2   2   2   2
#     4  10  21  46  71  96 144 187 222 289 345 417
#     4  12  24  40  71 105 135 184 233 285 352 407
#     4  11  25  41  68 105 141 177 237 293 348 406
#     4  11  23  42  70  98 137 179 231 286 339 411
#     4  11  25  44  69 100 139 180 232 283 348 416
#     4  12  25  44  66 102 142 180 232 293 347 407
#     4  11  23  43  68 102 142 182 231 293 343 414
#
# _framework density 24.137205000000002
#
# number of rings (size 3 to 8) (size 9 to 14) (size 15 to 20)
#    0.000    0.857    5.714    1.714    8.000    0.571 
#    0.000    3.571    0.000    0.000    0.000    0.000 
#    0.000    0.000    0.000    0.000    0.000    0.000 
#
# Total GULP energy -78295.745366 kJ/mol
# GULP energy per Si atom -5592.553240 kJ/mol
# Density = 2.408227 g / cm^3
# Si number density = 24.137205 Si / 1000 Ang^3
#
#
#
# Elastic Constant Matrix: (Units=GPa)
#
#
# Indices 1 2 3 4 5 6 
#
# 1 108.0823 44.4583 16.0358 -3.9592 -4.7029 1.6108
# 2 44.4583 151.6389 56.4338 -13.1619 -9.0586 5.2886
# 3 16.0358 56.4338 53.6427 -21.2871 -10.9512 -3.4173
# 4 -3.9592 -13.1619 -21.2871 45.5708 -11.3233 -9.7668
# 5 -4.7029 -9.0586 -10.9512 -11.3233 28.1679 -3.3304
# 6 1.6108 5.2886 -3.4173 -9.7668 -3.3304 33.8239
#
#
#
# Elastic Compliance Matrix: (Units=1/GPa)
#
#
# Indices 1 2 3 4 5 6 
#
# 1 0.010562 -0.003356 0.001132 0.000997 0.001594 0.000581
# 2 -0.003356 0.013587 -0.018718 -0.008555 -0.007745 -0.007088
# 3 0.001132 -0.018718 0.061735 0.037518 0.036030 0.023491
# 4 0.000997 -0.008555 0.037518 0.050798 0.035166 0.023211
# 5 0.001594 -0.007745 0.036030 0.035166 0.063931 0.021225
# 6 0.000581 -0.007088 0.023491 0.023211 0.021225 0.041811
#
#
# Mechanical properties :
#
#
# Convention : Reuss Voigt Hill
#
# Bulk Modulus (GPa) = 22.72746 60.80219 41.76483
# Shear Modulus (GPa) = 16.72381 34.60825 25.66603
#
# Velocity S-wave (km/s) = 2.63509 3.79068 3.26443
# Velocity P-wave (km/s) = 4.32373 6.66363 5.61688
#
# Compressibility (1/GPa) = 0.04399963
#
# Stress axis : x y z
#
# Youngs Moduli (GPa) = 94.67812 73.60194 16.19818
#
# Poissons Ratio (x) = 0.24703 -0.01833
# Poissons Ratio (y) = 0.31777 0.30319
# Poissons Ratio (z) = -0.10715 1.37765
#
# Static dielectric constant tensor:
#      x y z
#    x 2.016270 -0.022030 0.003590 
#    y -0.022030 1.932770 0.011500 
#    z 0.003590 0.011500 1.967170 
# 
# From -- ./inp_files/212902.got.cif
#   From: 2010.05.17/outbox.cif.g08.bks.cpg/sg2_107_cif.got.tgz:212902.got - 2010.06.03 11:33:40.
