data_PCOD9020569
_publ_section_title
;
Structure prediction by ZEFSAII (Michael W. Deem and Ramdas Pophale) SiO2 
 PCOD9020569
Probable space group: P -1
;
_chemical_formula_sum "Si O2"
_cell_formula_units_Z 14
_cell_length_a 14.874441
_cell_length_b 35.620580
_cell_length_c 13.482076
_cell_angle_alpha 159.629435
_cell_angle_beta 20.129241
_cell_angle_gamma 160.387154
_cell_volume 733.115940
_symmetry_space_group_name_H-M "P -1"
_symmetry_group_IT_number 2
_symmetry_cell_setting 'triclinic'
loop_
_space_group_symop_operation_xyz
x,y,z
-x,-y,-z
loop_
_atom_site_type_symbol
_atom_site_label
_atom_site_fract_x
_atom_site_fract_y
_atom_site_fract_z
Si Si1 0.230785 0.240006 0.843475
Si Si2 0.722149 0.204371 0.125851
Si Si3 0.689134 0.491767 0.073414
Si Si4 0.738580 0.640932 0.567140
Si Si5 0.823698 0.563651 0.883258
Si Si6 0.674734 0.061679 0.074105
Si Si7 0.296305 0.699649 0.271586
O O1 0.504241 0.243591 0.507070
O O2 0.642800 0.178464 0.428887
O O3 0.033666 0.121943 0.828388
O O4 0.932852 0.290274 0.030848
O O5 0.491362 0.057602 0.976712
O O6 0.982197 0.226967 0.990831
O O7 0.737768 0.613199 0.383041
O O8 0.355656 0.367547 0.092913
O O9 0.789710 0.535424 0.965224
O O10 0.819558 0.421552 0.834315
O O11 0.500000 0.500000 0.500000
O O12 0.050564 0.678293 0.390324
O O13 0.592726 0.718713 0.953236
O O14 0.000000 0.500000 0.500000
O O15 0.500000 0.500000 0.000000
O O16 0.500000 0.000000 0.000000
#
# Coordination Sequence:
#
# PCOD9020569 Si02
#       7
#     2   2   2   2   2   2   2
#     4  11  21  35  57  87 119 152 194 239 294 351
#     4  11  22  39  53  87 121 157 191 237 290 358
#     4  11  21  38  63  85 123 156 197 240 302 347
#     4  10  22  37  57  86 116 153 196 245 296 347
#     4  12  24  39  59  87 125 159 194 241 288 357
#     4  10  22  36  61  85 119 155 194 239 305 350
#     4  11  23  38  56  89 117 151 195 250 294 345
#
# _framework density 19.09657
#
# number of rings (size 3 to 8) (size 9 to 14) (size 15 to 20)
#    0.000    1.143    2.857    5.571    0.000    8.000 
#    0.000    0.000    0.000    1.714    0.000    0.000 
#    0.000    1.143    0.000    0.000    0.000    0.000 
#
# Total GULP energy -77992.616892 kJ/mol
# GULP energy per Si atom -5570.901207 kJ/mol
# Density = 1.905311 g / cm^3
# Si number density = 19.096570 Si / 1000 Ang^3
#
#
#
# Elastic Constant Matrix: (Units=GPa)
#
#
# Indices 1 2 3 4 5 6 
#
# 1 108.7338 45.9718 59.4141 -14.5171 19.9941 0.7263
# 2 45.9718 133.9228 33.6142 -4.9445 4.4819 -12.9148
# 3 59.4141 33.6142 119.8767 -11.3732 7.4662 4.0614
# 4 -14.5171 -4.9445 -11.3732 34.6743 13.4040 -0.9861
# 5 19.9941 4.4819 7.4662 13.4040 33.0151 -5.4290
# 6 0.7263 -12.9148 4.0614 -0.9861 -5.4290 27.7544
#
#
#
# Elastic Compliance Matrix: (Units=1/GPa)
#
#
# Indices 1 2 3 4 5 6 
#
# 1 0.018180 -0.004317 -0.005808 0.010382 -0.013983 -0.004001
# 2 -0.004317 0.009557 -0.001098 -0.001893 0.003202 0.005280
# 3 -0.005808 -0.001098 0.011683 0.001088 0.000258 -0.001979
# 4 0.010382 -0.001893 0.001088 0.042536 -0.024295 -0.004552
# 5 -0.013983 0.003202 0.000258 -0.024295 0.049890 0.010714
# 6 -0.004001 0.005280 -0.001979 -0.004552 0.010714 0.040816
#
#
# Mechanical properties :
#
#
# Convention : Reuss Voigt Hill
#
# Bulk Modulus (GPa) = 58.91937 71.17041 65.04489
# Shear Modulus (GPa) = 24.90469 33.99097 29.44783
#
# Velocity S-wave (km/s) = 3.61521 4.22352 3.93115
# Velocity P-wave (km/s) = 6.95318 7.81881 7.39867
#
# Compressibility (1/GPa) = 0.01697235
#
# Stress axis : x y z
#
# Youngs Moduli (GPa) = 55.00509 104.63887 85.59608
#
# Poissons Ratio (x) = 0.45176 0.49718
# Poissons Ratio (y) = 0.23748 0.09397
# Poissons Ratio (z) = 0.31949 0.11487
#
# Static dielectric constant tensor:
#      x y z
#    x 1.804980 -0.081370 0.023550 
#    y -0.081370 1.789990 0.014250 
#    z 0.023550 0.014250 1.791880 
# 
# From -- ./inp_files/439642.got.cif
#   From: 2010.05.17/outbox.cif.g08.bks.cpg/sg2_220_cif.got.tgz:439642.got - 2010.06.03 11:33:40.
