data_PCOD9020949
_publ_section_title
;
Structure prediction by ZEFSAII (Michael W. Deem and Ramdas Pophale) SiO2 
 PCOD9020949
Probable space group: P -1
;
_chemical_formula_sum "Si O2"
_cell_formula_units_Z 16
_cell_length_a 7.846417
_cell_length_b 9.512006
_cell_length_c 9.551968
_cell_angle_alpha 95.293067
_cell_angle_beta 100.453108
_cell_angle_gamma 74.807853
_cell_volume 675.828871
_symmetry_space_group_name_H-M "P -1"
_symmetry_group_IT_number 2
_symmetry_cell_setting 'triclinic'
loop_
_space_group_symop_operation_xyz
x,y,z
-x,-y,-z
loop_
_atom_site_type_symbol
_atom_site_label
_atom_site_fract_x
_atom_site_fract_y
_atom_site_fract_z
Si Si1 0.502444 0.360113 0.586804
Si Si2 0.835222 0.363146 0.234354
Si Si3 0.373618 0.925622 0.302049
Si Si4 0.340657 0.063903 0.868268
Si Si5 0.220752 0.262074 0.383494
Si Si6 0.570780 0.585155 0.793996
Si Si7 0.827897 0.605311 0.064904
Si Si8 0.172188 0.874839 0.986098
O O1 0.500000 0.500000 0.500000
O O2 0.617838 0.192520 0.584700
O O3 0.307822 0.330871 0.530421
O O4 0.583797 0.418566 0.740874
O O5 0.641037 0.352564 0.255025
O O6 0.829658 0.528063 0.206748
O O7 0.863271 0.274953 0.083335
O O8 0.007092 0.305423 0.350116
O O9 0.568549 0.923922 0.265460
O O10 0.285575 0.088536 0.355134
O O11 0.282555 0.877660 0.144636
O O12 0.208355 0.219371 0.907202
O O13 0.242819 0.936312 0.860427
O O14 0.500000 0.000000 0.000000
O O15 0.306853 0.334257 0.272518
O O16 0.644398 0.595239 0.959736
O O17 0.000000 0.500000 0.000000
O O18 0.000000 0.000000 0.000000
#
# Coordination Sequence:
#
# PCOD9020949 Si02
#       8
#     2   2   2   2   2   2   2   2
#     4  10  24  42  66  89 122 176 228 270 316 374
#     4  12  23  38  65  95 131 166 213 268 329 395
#     4  11  20  41  67  88 133 170 211 269 330 381
#     4  10  22  37  62  97 131 168 206 259 330 399
#     4  11  23  42  63  92 123 172 220 268 319 381
#     4  11  22  42  62  90 131 166 210 273 321 381
#     4  12  22  38  64  98 133 170 212 262 335 400
#     4  11  20  36  60 100 132 160 205 258 334 402
#
# _framework density 23.674631999999999
#
# number of rings (size 3 to 8) (size 9 to 14) (size 15 to 20)
#    0.000    1.000    2.500    6.750    0.000    0.500 
#    0.000    0.000    2.750    4.500    0.000    0.000 
#    0.000    0.000    0.000    0.000    0.000    0.000 
#
# Total GULP energy -89108.513088 kJ/mol
# GULP energy per Si atom -5569.282068 kJ/mol
# Density = 2.362075 g / cm^3
# Si number density = 23.674632 Si / 1000 Ang^3
#
#
#
# Elastic Constant Matrix: (Units=GPa)
#
#
# Indices 1 2 3 4 5 6 
#
# 1 80.4903 41.6430 0.6874 -15.6105 11.3175 -10.0848
# 2 41.6430 189.6918 39.3897 -4.3144 4.2873 2.8980
# 3 0.6874 39.3897 58.7654 -0.5553 9.4034 9.3194
# 4 -15.6105 -4.3144 -0.5553 31.9715 3.4673 5.2224
# 5 11.3175 4.2873 9.4034 3.4673 34.8062 9.2879
# 6 -10.0848 2.8980 9.3194 5.2224 9.2879 24.6160
#
#
#
# Elastic Compliance Matrix: (Units=1/GPa)
#
#
# Indices 1 2 3 4 5 6 
#
# 1 0.018765 -0.004469 0.002961 0.008183 -0.009558 0.008963
# 2 -0.004469 0.007220 -0.004959 -0.001322 0.002418 -0.001436
# 3 0.002961 -0.004959 0.021969 0.002554 -0.005179 -0.005108
# 4 0.008183 -0.001322 0.002554 0.036263 -0.006033 -0.002876
# 5 -0.009558 0.002418 -0.005179 -0.006033 0.037581 -0.015139
# 6 0.008963 -0.001436 -0.005108 -0.002876 -0.015139 0.052721
#
#
# Mechanical properties :
#
#
# Convention : Reuss Voigt Hill
#
# Bulk Modulus (GPa) = 28.55484 54.70974 41.63229
# Shear Modulus (GPa) = 25.10987 34.76056 29.93522
#
# Velocity S-wave (km/s) = 3.26025 3.83595 3.55976
# Velocity P-wave (km/s) = 5.12444 6.54053 5.87530
#
# Compressibility (1/GPa) = 0.03502034
#
# Stress axis : x y z
#
# Youngs Moduli (GPa) = 53.29171 138.50933 45.51888
#
# Poissons Ratio (x) = 0.61902 -0.13480
# Poissons Ratio (y) = 0.23817 0.22572
# Poissons Ratio (z) = -0.15782 0.68684
#
# Static dielectric constant tensor:
#      x y z
#    x 1.863090 0.055420 0.020580 
#    y 0.055420 1.880430 -0.095750 
#    z 0.020580 -0.095750 1.828750 
# 
# From -- ./inp_files/379641.got.cif
#   From: 2010.05.17/outbox.cif.g08.bks.cpg/sg2_190_cif.got.tgz:379641.got - 2010.06.03 11:33:40.
