data_PCOD9020261
_publ_section_title
;
Structure prediction by ZEFSAII (Michael W. Deem and Ramdas Pophale) SiO2 
 PCOD9020261
Probable space group: P -1
;
_chemical_formula_sum "Si O2"
_cell_formula_units_Z 12
_cell_length_a 7.226586
_cell_length_b 12.481137
_cell_length_c 12.803742
_cell_angle_alpha 149.185772
_cell_angle_beta 132.621703
_cell_angle_gamma 52.400097
_cell_volume 434.053373
_symmetry_space_group_name_H-M "P -1"
_symmetry_group_IT_number 2
_symmetry_cell_setting 'triclinic'
loop_
_space_group_symop_operation_xyz
x,y,z
-x,-y,-z
loop_
_atom_site_type_symbol
_atom_site_label
_atom_site_fract_x
_atom_site_fract_y
_atom_site_fract_z
Si Si1 0.582498 0.400121 0.630634
Si Si2 0.726412 0.313375 0.941917
Si Si3 0.008974 0.209785 0.749956
Si Si4 0.446592 0.945671 0.164773
Si Si5 0.323782 0.815705 0.804203
Si Si6 0.098460 0.431248 0.597029
O O1 0.492727 0.596241 0.690406
O O2 0.082963 0.591728 0.821521
O O3 0.394314 0.394690 0.654129
O O4 0.519061 0.180519 0.370295
O O5 0.130722 0.618885 0.236472
O O6 0.500000 0.500000 0.000000
O O7 0.628111 0.113126 0.797010
O O8 0.853580 0.229662 0.813943
O O9 0.301904 0.207843 0.885780
O O10 0.000000 0.000000 0.500000
O O11 0.249632 0.878643 0.948144
O O12 0.070151 0.762393 0.603777
O O13 0.500000 0.000000 0.000000
O O14 0.000000 0.500000 0.500000
#
# Coordination Sequence:
#
# PCOD9020261 Si02
#       6
#     2   2   2   2   2   2
#     4  10  22  47  78 108 158 208 273 336 405 485
#     4  12  23  47  85 118 159 222 272 334 415 483
#     4  10  24  47  77 123 166 205 269 341 410 489
#     4  11  25  47  78 115 164 212 270 337 410 490
#     4  11  25  49  73 113 159 215 274 343 405 479
#     4  10  21  48  76 113 157 210 277 332 400 494
#
# _framework density 27.646370000000001
#
# number of rings (size 3 to 8) (size 9 to 14) (size 15 to 20)
#    0.000    1.333    5.000    0.000    0.000    8.000 
#   18.000    0.000    0.000    0.000    0.000    0.000 
#    0.000    0.000    0.000    0.000    0.000    0.000 
#
# Total GULP energy -67171.901092 kJ/mol
# GULP energy per Si atom -5597.658424 kJ/mol
# Density = 2.758345 g / cm^3
# Si number density = 27.646370 Si / 1000 Ang^3
#
#
#
# Elastic Constant Matrix: (Units=GPa)
#
#
# Indices 1 2 3 4 5 6 
#
# 1 155.9242 42.9895 59.2777 5.9147 -13.1692 14.5325
# 2 42.9895 105.1914 68.6798 20.4633 1.4726 0.9445
# 3 59.2777 68.6798 165.8708 9.5995 4.3708 10.0944
# 4 5.9147 20.4633 9.5995 63.6249 11.3487 0.6479
# 5 -13.1692 1.4726 4.3708 11.3487 64.4370 -1.4200
# 6 14.5325 0.9445 10.0944 0.6479 -1.4200 46.9956
#
#
#
# Elastic Compliance Matrix: (Units=1/GPa)
#
#
# Indices 1 2 3 4 5 6 
#
# 1 0.008052 -0.001986 -0.001976 -0.000113 0.001802 -0.001970
# 2 -0.001986 0.014372 -0.005123 -0.003734 0.000304 0.001486
# 3 -0.001976 -0.005123 0.008920 0.000684 -0.001040 -0.001243
# 4 -0.000113 -0.003734 0.000684 0.017374 -0.003052 -0.000369
# 5 0.001802 0.000304 -0.001040 -0.003052 0.016493 0.000201
# 6 -0.001970 0.001486 -0.001243 -0.000369 0.000201 0.022136
#
#
# Mechanical properties :
#
#
# Convention : Reuss Voigt Hill
#
# Bulk Modulus (GPa) = 75.91523 85.43114 80.67318
# Shear Modulus (GPa) = 45.49216 52.08079 48.78648
#
# Velocity S-wave (km/s) = 4.06088 4.34501 4.20534
# Velocity P-wave (km/s) = 7.03610 7.49270 7.26799
#
# Compressibility (1/GPa) = 0.01317259
#
# Stress axis : x y z
#
# Youngs Moduli (GPa) = 124.18783 69.57964 112.10810
#
# Poissons Ratio (x) = 0.13818 0.22158
# Poissons Ratio (y) = 0.24663 0.57438
# Poissons Ratio (z) = 0.24545 0.35649
#
# Static dielectric constant tensor:
#      x y z
#    x 2.227760 0.039290 -0.025440 
#    y 0.039290 2.234550 -0.039640 
#    z -0.025440 -0.039640 2.238510 
# 
# From -- ./inp_files/484660.got.cif
#   From: 2010.05.17/outbox.cif.g08.bks.cpg/sg2_243_cif.got.tgz:484660.got - 2010.06.03 11:33:40.
