data_PCOD9020782
_publ_section_title
;
Structure prediction by ZEFSAII (Michael W. Deem and Ramdas Pophale) SiO2 
 PCOD9020782
Probable space group: P -1
;
_chemical_formula_sum "Si O2"
_cell_formula_units_Z 14
_cell_length_a 14.676163
_cell_length_b 11.002786
_cell_length_c 15.854642
_cell_angle_alpha 139.799596
_cell_angle_beta 18.167643
_cell_angle_gamma 135.145730
_cell_volume 513.447732
_symmetry_space_group_name_H-M "P -1"
_symmetry_group_IT_number 2
_symmetry_cell_setting 'triclinic'
loop_
_space_group_symop_operation_xyz
x,y,z
-x,-y,-z
loop_
_atom_site_type_symbol
_atom_site_label
_atom_site_fract_x
_atom_site_fract_y
_atom_site_fract_z
Si Si1 0.425741 0.432412 0.937397
Si Si2 0.943189 0.964223 0.742180
Si Si3 0.428221 0.668472 0.474382
Si Si4 0.082032 0.818900 0.718091
Si Si5 0.319497 0.138723 0.370240
Si Si6 0.923607 0.451928 0.137698
Si Si7 0.128445 0.312004 0.472995
O O1 0.228446 0.254277 0.023703
O O2 0.204232 0.594601 0.176270
O O3 0.500000 0.500000 0.000000
O O4 0.722988 0.353882 0.590434
O O5 0.833653 0.767808 0.697907
O O6 0.039334 0.961020 0.752906
O O7 0.205620 0.999163 0.466223
O O8 0.669877 0.118215 0.052972
O O9 0.261791 0.838101 0.656951
O O10 0.321575 0.474828 0.424759
O O11 0.329298 0.662712 0.656415
O O12 0.773492 0.650733 0.149376
O O13 0.216475 0.132852 0.360778
O O14 0.167041 0.339423 0.638266
O O15 0.000000 0.500000 0.000000
#
# Coordination Sequence:
#
# PCOD9020782 Si02
#       7
#     2   2   2   2   2   2   2
#     4  11  21  34  55  80 115 163 219 236 264 323
#     4  12  24  36  57  83 134 171 186 223 286 366
#     4  10  22  38  64  95 115 148 205 254 286 349
#     4  11  22  37  55  86 124 161 202 238 286 334
#     4  11  24  39  55  88 116 158 206 237 291 363
#     4  11  23  45  70  88 110 144 198 268 317 341
#     4  10  22  37  58  85 128 163 200 239 280 336
#
# _framework density 27.266651
#
# number of rings (size 3 to 8) (size 9 to 14) (size 15 to 20)
#    0.000    1.143    1.429    6.857    2.000    3.429 
#    0.000    0.000    0.000    5.143    0.000    0.000 
#    0.000    0.000    0.000    0.000    0.000    0.000 
#
# Total GULP energy -78336.173648 kJ/mol
# GULP energy per Si atom -5595.440975 kJ/mol
# Density = 2.720459 g / cm^3
# Si number density = 27.266651 Si / 1000 Ang^3
#
#
#
# Elastic Constant Matrix: (Units=GPa)
#
#
# Indices 1 2 3 4 5 6 
#
# 1 103.6636 29.9478 28.3797 7.9002 -2.4146 -34.8692
# 2 29.9478 65.9145 17.3157 0.4148 -1.6871 -15.5381
# 3 28.3797 17.3157 103.0548 3.2516 -1.5649 1.8987
# 4 7.9002 0.4148 3.2516 33.9522 -9.4266 4.1694
# 5 -2.4146 -1.6871 -1.5649 -9.4266 55.2884 8.5431
# 6 -34.8692 -15.5381 1.8987 4.1694 8.5431 53.5619
#
#
#
# Elastic Compliance Matrix: (Units=1/GPa)
#
#
# Indices 1 2 3 4 5 6 
#
# 1 0.015310 -0.003732 -0.003642 -0.004880 -0.001878 0.009693
# 2 -0.003732 0.018082 -0.002079 0.000488 -0.000028 0.002856
# 3 -0.003642 -0.002079 0.011118 0.000437 0.000710 -0.003516
# 4 -0.004880 0.000488 0.000437 0.033164 0.006499 -0.006669
# 5 -0.001878 -0.000028 0.000710 0.006499 0.019895 -0.004935
# 6 0.009693 0.002856 -0.003516 -0.006669 -0.004935 0.027240
#
#
# Mechanical properties :
#
#
# Convention : Reuss Voigt Hill
#
# Bulk Modulus (GPa) = 39.05605 47.10216 43.07911
# Shear Modulus (GPa) = 32.84057 41.69314 37.26685
#
# Velocity S-wave (km/s) = 3.47424 3.91460 3.70098
# Velocity P-wave (km/s) = 5.51803 6.14364 5.83922
#
# Compressibility (1/GPa) = 0.02560422
#
# Stress axis : x y z
#
# Youngs Moduli (GPa) = 65.31475 55.30244 89.94639
#
# Poissons Ratio (x) = 0.20637 0.32762
# Poissons Ratio (y) = 0.24374 0.18700
# Poissons Ratio (z) = 0.23790 0.11498
#
# Static dielectric constant tensor:
#      x y z
#    x 2.233220 -0.080880 0.043700 
#    y -0.080880 2.380500 -0.031090 
#    z 0.043700 -0.031090 2.037350 
# 
# From -- ./inp_files/119827.got.cif
#   From: 2010.05.17/outbox.cif.g08.bks.cpg/sg2_60_cif.got.tgz:119827.got - 2010.06.03 11:33:40.
