data_PCOD9020147
_publ_section_title
;
Structure prediction by ZEFSAII (Michael W. Deem and Ramdas Pophale) SiO2 
 PCOD9020147
Probable space group: P -1
;
_chemical_formula_sum "Si O2"
_cell_formula_units_Z 13
_cell_length_a 8.913947
_cell_length_b 9.342109
_cell_length_c 12.186599
_cell_angle_alpha 85.573051
_cell_angle_beta 33.936683
_cell_angle_gamma 76.853147
_cell_volume 539.979979
_symmetry_space_group_name_H-M "P -1"
_symmetry_group_IT_number 2
_symmetry_cell_setting 'triclinic'
loop_
_space_group_symop_operation_xyz
x,y,z
-x,-y,-z
loop_
_atom_site_type_symbol
_atom_site_label
_atom_site_fract_x
_atom_site_fract_y
_atom_site_fract_z
Si Si1 0.089610 0.650408 0.791799
Si Si2 0.869515 0.026389 0.199048
Si Si3 0.462603 0.707594 0.192020
Si Si4 0.590638 0.133928 0.003830
Si Si5 0.681460 0.511192 0.555113
Si Si6 0.315356 0.162478 0.411460
Si Si7 0.000000 0.000000 0.500000
O O1 0.098891 0.821369 0.776230
O O2 0.362097 0.558168 0.699364
O O3 0.126465 0.586321 0.650251
O O4 0.793523 0.654653 0.023654
O O5 0.542922 0.062530 0.363637
O O6 0.000000 0.000000 0.000000
O O7 0.093957 0.899338 0.137884
O O8 0.318872 0.585768 0.330506
O O9 0.471167 0.733638 0.054536
O O10 0.305922 0.863858 0.339671
O O11 0.408349 0.157010 0.225526
O O12 0.500000 0.000000 0.000000
O O13 0.748011 0.666473 0.524972
O O14 0.059555 0.095681 0.559106
#
# Coordination Sequence:
#
# PCOD9020147 Si02
#       7
#     2   2   2   2   2   2   1
#     4  10  21  46  74 102 150 195 233 295 363 433
#     4   9  18  38  73 100 137 196 234 292 356 421
#     4  12  25  41  72 106 142 191 237 290 367 429
#     4  11  20  40  70 103 143 187 235 297 368 416
#     4  10  25  45  74 106 147 191 241 293 361 438
#     4  10  23  46  68 101 144 188 247 302 353 428
#     4  12  26  44  70 106 136 190 242 304 358 414
#
# _framework density 24.074966
#
# number of rings (size 3 to 8) (size 9 to 14) (size 15 to 20)
#    0.000    1.538    3.077    1.385    4.308    1.231 
#    2.769    0.769   10.154    0.000    0.000    0.000 
#    0.000    0.000    0.000    0.000    0.000    0.000 
#
# Total GULP energy -72368.106030 kJ/mol
# GULP energy per Si atom -5566.777387 kJ/mol
# Density = 2.402017 g / cm^3
# Si number density = 24.074966 Si / 1000 Ang^3
#
#
#
# Elastic Constant Matrix: (Units=GPa)
#
#
# Indices 1 2 3 4 5 6 
#
# 1 129.3919 26.8800 14.5775 7.3710 1.1583 10.6130
# 2 26.8800 9.7237 -21.3326 22.3096 6.6724 -23.1246
# 3 14.5775 -21.3326 30.9068 42.5981 2.2435 -12.7024
# 4 7.3710 22.3096 42.5981 30.2780 -3.3281 13.6043
# 5 1.1583 6.6724 2.2435 -3.3281 55.4477 -2.0689
# 6 10.6130 -23.1246 -12.7024 13.6043 -2.0689 38.5490
#
#
#
# Elastic Compliance Matrix: (Units=1/GPa)
#
#
# Indices 1 2 3 4 5 6 
#
# 1 0.007947 -0.001276 0.003254 -0.005667 -0.000481 0.000093
# 2 -0.001276 0.012706 -0.018192 0.018623 0.000181 -0.004584
# 3 0.003254 -0.018192 0.009920 0.003122 0.001551 -0.009559
# 4 -0.005667 0.018623 0.003122 0.011895 -0.001181 0.009499
# 5 -0.000481 0.000181 0.001551 -0.001181 0.017969 0.002133
# 6 0.000093 -0.004584 -0.009559 0.009499 0.002133 0.016778
#
#
# Mechanical properties :
#
#
# Convention : Reuss Voigt Hill
#
# Bulk Modulus (GPa) = -538.35645 23.36358 -257.49643
# Shear Modulus (GPa) = 45.86096 34.84810 40.35453
#
# Velocity S-wave (km/s) = 4.36928 3.80871 4.09859
# Velocity P-wave (km/s) = 14.09426 5.39141 9.20817
#
# Compressibility (1/GPa) = -0.00185751
#
# Stress axis : x y z
#
# Youngs Moduli (GPa) = 125.84109 78.70292 100.80988
#
# Poissons Ratio (x) = 0.10046 -0.32804
# Poissons Ratio (y) = 0.16064 1.83398
# Poissons Ratio (z) = -0.40950 1.43180
#
# Static dielectric constant tensor:
#      x y z
#    x 2.515890 -1.213520 -0.648910 
#    y -1.213520 4.432510 1.186660 
#    z -0.648910 1.186660 2.423770 
# 
# From -- ./inp_files/378529.got.cif
#   From: 2010.05.17/outbox.cif.g08.bks.cpg/sg2_190_cif.got.tgz:378529.got - 2010.06.03 11:33:40.
