data_PCOD9020885
_publ_section_title
;
Structure prediction by ZEFSAII (Michael W. Deem and Ramdas Pophale) SiO2 
 PCOD9020885
Probable space group: P -1
;
_chemical_formula_sum "Si O2"
_cell_formula_units_Z 14
_cell_length_a 10.652631
_cell_length_b 9.892252
_cell_length_c 17.045147
_cell_angle_alpha 45.219904
_cell_angle_beta 135.353934
_cell_angle_gamma 99.129564
_cell_volume 651.392053
_symmetry_space_group_name_H-M "P -1"
_symmetry_group_IT_number 2
_symmetry_cell_setting 'triclinic'
loop_
_space_group_symop_operation_xyz
x,y,z
-x,-y,-z
loop_
_atom_site_type_symbol
_atom_site_label
_atom_site_fract_x
_atom_site_fract_y
_atom_site_fract_z
Si Si1 0.152392 0.042770 0.452950
Si Si2 0.084154 0.471266 0.931745
Si Si3 0.615611 0.964271 0.872932
Si Si4 0.533283 0.495776 0.405806
Si Si5 0.357601 0.403878 0.223951
Si Si6 0.094665 0.782357 0.197635
Si Si7 0.320308 0.815387 0.795411
O O1 0.382576 0.885218 0.561383
O O2 0.250954 0.921000 0.632064
O O3 0.010367 0.345327 0.260447
O O4 0.939420 0.046281 0.336960
O O5 0.848316 0.556554 0.834430
O O6 0.273745 0.173853 0.107213
O O7 0.222348 0.514532 0.034533
O O8 0.456403 0.901003 0.854508
O O9 0.477170 0.267601 0.685223
O O10 0.862811 0.818524 0.092362
O O11 0.444429 0.515392 0.270615
O O12 0.334154 0.536209 0.357246
O O13 0.793561 0.233551 0.663125
O O14 0.000000 0.000000 0.000000
O O15 0.500000 0.500000 0.000000
#
# Coordination Sequence:
#
# PCOD9020885 Si02
#       7
#     2   2   2   2   2   2   2
#     4  11  23  39  64  94 125 164 213 263 316 371
#     4  11  23  39  65  97 131 162 208 259 320 376
#     4  11  21  38  63  93 121 163 213 257 304 375
#     4  10  22  37  61  90 128 167 205 253 319 373
#     4  11  23  41  61  98 134 164 198 260 325 382
#     4   9  20  36  57  87 126 166 206 249 301 378
#     4  11  23  41  65  90 123 168 216 267 305 374
#
# _framework density 21.492433999999999
#
# number of rings (size 3 to 8) (size 9 to 14) (size 15 to 20)
#    0.000    1.429    4.286    0.429    2.000    3.429 
#    7.714    0.714    0.000    4.286    0.000    0.000 
#    0.000    0.000    0.000    0.000    0.000    0.000 
#
# Total GULP energy -77967.303662 kJ/mol
# GULP energy per Si atom -5569.093119 kJ/mol
# Density = 2.144352 g / cm^3
# Si number density = 21.492434 Si / 1000 Ang^3
#
#
#
# Elastic Constant Matrix: (Units=GPa)
#
#
# Indices 1 2 3 4 5 6 
#
# 1 34.6438 17.0239 29.2864 5.9857 10.3121 12.6440
# 2 17.0239 101.4894 58.4154 16.3110 -13.9574 12.7870
# 3 29.2864 58.4154 116.4441 24.2739 -6.8855 15.8934
# 4 5.9857 16.3110 24.2739 35.1384 8.7935 7.7287
# 5 10.3121 -13.9574 -6.8855 8.7935 47.7454 7.4967
# 6 12.6440 12.7870 15.8934 7.7287 7.4967 31.2633
#
#
#
# Elastic Compliance Matrix: (Units=1/GPa)
#
#
# Indices 1 2 3 4 5 6 
#
# 1 0.045400 -0.002795 -0.010520 0.006061 -0.011593 -0.010589
# 2 -0.002795 0.015091 -0.005463 -0.003492 0.005290 -0.002670
# 3 -0.010520 -0.005463 0.015943 -0.007636 0.004508 -0.000809
# 4 0.006061 -0.003492 -0.007636 0.037661 -0.009720 -0.004121
# 5 -0.011593 0.005290 0.004508 -0.009720 0.028078 -0.004096
# 6 -0.010589 -0.002670 -0.000809 -0.004121 -0.004096 0.039773
#
#
# Mechanical properties :
#
#
# Convention : Reuss Voigt Hill
#
# Bulk Modulus (GPa) = 25.72063 51.33651 38.52857
# Shear Modulus (GPa) = 21.50888 32.68619 27.09753
#
# Velocity S-wave (km/s) = 3.16692 3.90400 3.55462
# Velocity P-wave (km/s) = 5.03644 6.65277 5.90022
#
# Compressibility (1/GPa) = 0.03887930
#
# Stress axis : x y z
#
# Youngs Moduli (GPa) = 22.02639 66.26293 62.72394
#
# Poissons Ratio (x) = 0.18518 0.65987
# Poissons Ratio (y) = 0.06155 0.34264
# Poissons Ratio (z) = 0.23172 0.36197
#
# Static dielectric constant tensor:
#      x y z
#    x 1.803570 0.002250 0.019850 
#    y 0.002250 1.868530 0.017520 
#    z 0.019850 0.017520 1.830350 
# 
# From -- ./inp_files/565769.got.cif
#   From: 2010.05.17/outbox.cif.g08.bks.cpg/sg2_283_cif.got.tgz:565769.got - 2010.06.03 11:33:40.
