data_PCOD9020613
_publ_section_title
;
Structure prediction by ZEFSAII (Michael W. Deem and Ramdas Pophale) SiO2 
 PCOD9020613
Probable space group: P -1
;
_chemical_formula_sum "Si O2"
_cell_formula_units_Z 16
_cell_length_a 12.146736
_cell_length_b 17.108723
_cell_length_c 5.259709
_cell_angle_alpha 60.234416
_cell_angle_beta 73.201219
_cell_angle_gamma 51.922114
_cell_volume 746.661423
_symmetry_space_group_name_H-M "P -1"
_symmetry_group_IT_number 2
_symmetry_cell_setting 'triclinic'
loop_
_space_group_symop_operation_xyz
x,y,z
-x,-y,-z
loop_
_atom_site_type_symbol
_atom_site_label
_atom_site_fract_x
_atom_site_fract_y
_atom_site_fract_z
Si Si1 0.376200 0.240478 0.875926
Si Si2 0.424201 0.424795 0.424896
Si Si3 0.685757 0.433179 0.222852
Si Si4 0.977526 0.241928 0.483680
Si Si5 0.018758 0.912623 0.926335
Si Si6 0.391652 0.983704 0.740413
Si Si7 0.176662 0.999955 0.484431
Si Si8 0.768837 0.767063 0.499864
O O1 0.421865 0.322161 0.670609
O O2 0.266401 0.267060 0.682648
O O3 0.516398 0.116401 0.967551
O O4 0.308173 0.246545 0.186662
O O5 0.579578 0.396331 0.334084
O O6 0.347505 0.509925 0.570801
O O7 0.349654 0.481501 0.116711
O O8 0.845632 0.331932 0.268150
O O9 0.072275 0.124717 0.464883
O O10 0.072343 0.282899 0.443834
O O11 0.925678 0.205425 0.815521
O O12 0.861472 0.968670 0.834593
O O13 0.128769 0.916574 0.670968
O O14 0.000000 0.000000 0.000000
O O15 0.500000 0.000000 0.500000
O O16 0.315646 0.956758 0.619294
O O17 0.289623 0.105924 0.715420
#
# Coordination Sequence:
#
# PCOD9020613 Si02
#       8
#     2   2   2   2   2   2   2   2
#     4  11  22  42  63  89 124 171 203 257 305 361
#     4  10  23  44  65  90 124 152 214 262 306 374
#     4  10  23  43  66  93 118 161 203 266 318 362
#     4  10  22  36  63  85 123 165 199 254 324 364
#     4   9  19  35  54  85 124 159 196 259 298 368
#     4   9  20  36  59  90 125 169 202 245 302 372
#     4   9  19  37  55  89 126 155 211 252 300 378
#     4  10  23  39  61  93 128 160 209 246 304 377
#
# _framework density 21.428720999999999
#
# number of rings (size 3 to 8) (size 9 to 14) (size 15 to 20)
#    0.000    2.250    0.000    1.125    8.750    0.000 
#    6.750    7.500    0.000    0.000    0.000    0.000 
#    0.000    0.000    0.000    0.000    0.000    0.000 
#
# Total GULP energy -89168.366638 kJ/mol
# GULP energy per Si atom -5573.022915 kJ/mol
# Density = 2.137995 g / cm^3
# Si number density = 21.428721 Si / 1000 Ang^3
#
#
#
# Elastic Constant Matrix: (Units=GPa)
#
#
# Indices 1 2 3 4 5 6 
#
# 1 85.9292 13.8051 37.8645 -9.0298 1.9267 -1.3740
# 2 13.8051 23.1971 22.2325 -1.6451 4.2289 -1.5021
# 3 37.8645 22.2325 118.9542 -9.3458 -13.2737 1.0234
# 4 -9.0298 -1.6451 -9.3458 27.8803 10.0510 7.5667
# 5 1.9267 4.2289 -13.2737 10.0510 42.9505 -6.6146
# 6 -1.3740 -1.5021 1.0234 7.5667 -6.6146 23.9735
#
#
#
# Elastic Compliance Matrix: (Units=1/GPa)
#
#
# Indices 1 2 3 4 5 6 
#
# 1 0.014491 -0.004336 -0.003730 0.004540 -0.002662 -0.001449
# 2 -0.004336 0.057219 -0.010187 0.001495 -0.008803 0.000871
# 3 -0.003730 -0.010187 0.012074 0.000606 0.004721 -0.000256
# 4 0.004540 0.001495 0.000606 0.047837 -0.014238 -0.018699
# 5 -0.002662 -0.008803 0.004721 -0.014238 0.030926 0.012121
# 6 -0.001449 0.000871 -0.000256 -0.018699 0.012121 0.050942
#
#
# Mechanical properties :
#
#
# Convention : Reuss Voigt Hill
#
# Bulk Modulus (GPa) = 21.15051 41.76498 31.45774
# Shear Modulus (GPa) = 18.81431 29.23942 24.02686
#
# Velocity S-wave (km/s) = 2.96631 3.69792 3.35213
# Velocity P-wave (km/s) = 4.65012 6.14535 5.44926
#
# Compressibility (1/GPa) = 0.04728019
#
# Stress axis : x y z
#
# Youngs Moduli (GPa) = 69.00657 17.47661 82.81964
#
# Poissons Ratio (x) = 0.07577 0.30894
# Poissons Ratio (y) = 0.29919 0.84365
# Poissons Ratio (z) = 0.25741 0.17803
#
# Static dielectric constant tensor:
#      x y z
#    x 1.855840 -0.057650 -0.043730 
#    y -0.057650 1.862530 0.130910 
#    z -0.043730 0.130910 1.928170 
# 
# From -- ./inp_files/81116.got.cif
#   From: 2010.05.17/outbox.cif.g08.bks.cpg/sg2_41_cif.got.tgz:81116.got - 2010.06.03 11:33:40.
