data_PCOD9020219
_publ_section_title
;
Structure prediction by ZEFSAII (Michael W. Deem and Ramdas Pophale) SiO2 
 PCOD9020219
Probable space group: P -1
;
_chemical_formula_sum "Si O2"
_cell_formula_units_Z 16
_cell_length_a 16.524623
_cell_length_b 13.775665
_cell_length_c 4.782178
_cell_angle_alpha 99.544208
_cell_angle_beta 89.750163
_cell_angle_gamma 35.242067
_cell_volume 600.484773
_symmetry_space_group_name_H-M "P -1"
_symmetry_group_IT_number 2
_symmetry_cell_setting 'triclinic'
loop_
_space_group_symop_operation_xyz
x,y,z
-x,-y,-z
loop_
_atom_site_type_symbol
_atom_site_label
_atom_site_fract_x
_atom_site_fract_y
_atom_site_fract_z
Si Si1 0.950057 0.801844 0.520419
Si Si2 0.431564 0.349566 0.333237
Si Si3 0.686640 0.975488 0.270274
Si Si4 0.558381 0.378398 0.690948
Si Si5 0.202186 0.636191 0.057450
Si Si6 0.210635 0.438903 0.562347
Si Si7 0.367932 0.094213 0.251110
Si Si8 0.125524 0.919106 0.263167
O O1 0.817180 0.892759 0.394604
O O2 0.063394 0.738894 0.280031
O O3 0.044976 0.618425 0.563467
O O4 0.914164 0.932268 0.782840
O O5 0.475455 0.359612 0.627261
O O6 0.330013 0.520388 0.228450
O O7 0.334068 0.350172 0.301166
O O8 0.592405 0.148952 0.172898
O O9 0.590840 0.021237 0.545844
O O10 0.729758 0.857649 0.966010
O O11 0.500000 0.500000 0.500000
O O12 0.730139 0.198305 0.621823
O O13 0.500000 0.500000 0.000000
O O14 0.169351 0.779463 0.006986
O O15 0.228400 0.516032 0.800734
O O16 0.267198 0.272267 0.513527
O O17 0.500000 0.000000 0.000000
O O18 0.000000 0.000000 0.500000
#
# Coordination Sequence:
#
# PCOD9020219 Si02
#       8
#     2   2   2   2   2   2   2   2
#     4  10  25  46  70 111 148 200 243 310 368 452
#     4  11  24  42  72 106 148 190 248 304 367 430
#     4  12  28  47  77 112 144 189 252 312 369 444
#     4  12  25  45  71 111 150 197 255 306 366 440
#     4  10  23  45  73 106 157 197 248 297 373 444
#     4  11  26  46  72 104 147 195 248 307 380 443
#     4  12  29  50  79 109 146 192 249 313 385 443
#     4  10  21  47  72 108 156 203 247 302 372 446
#
# _framework density 26.645137999999999
#
# number of rings (size 3 to 8) (size 9 to 14) (size 15 to 20)
#    0.000    1.000    3.750    1.125    7.000    1.500 
#    4.500    0.000    0.000    0.000    0.000    0.000 
#    0.000    0.000    0.000    0.000    0.000    0.000 
#
# Total GULP energy -89144.339632 kJ/mol
# GULP energy per Si atom -5571.521227 kJ/mol
# Density = 2.658449 g / cm^3
# Si number density = 26.645138 Si / 1000 Ang^3
#
#
#
# Elastic Constant Matrix: (Units=GPa)
#
#
# Indices 1 2 3 4 5 6 
#
# 1 77.8982 46.4948 28.0236 10.1106 8.7123 -25.5239
# 2 46.4948 141.1458 38.5262 17.6357 16.4242 -21.1754
# 3 28.0236 38.5262 99.2686 7.9239 25.4751 4.0552
# 4 10.1106 17.6357 7.9239 36.0514 11.2736 14.2666
# 5 8.7123 16.4242 25.4751 11.2736 49.2091 7.5302
# 6 -25.5239 -21.1754 4.0552 14.2666 7.5302 54.4044
#
#
#
# Elastic Compliance Matrix: (Units=1/GPa)
#
#
# Indices 1 2 3 4 5 6 
#
# 1 0.020885 -0.003010 -0.004489 -0.007662 -0.000299 0.011012
# 2 -0.003010 0.010135 -0.002602 -0.004861 -0.001023 0.004143
# 3 -0.004489 -0.002602 0.013689 0.002863 -0.005446 -0.004136
# 4 -0.007662 -0.004861 0.002863 0.039303 -0.005167 -0.015292
# 5 -0.000299 -0.001023 -0.005446 -0.005167 0.025063 -0.002246
# 6 0.011012 0.004143 -0.004136 -0.015292 -0.002246 0.029789
#
#
# Mechanical properties :
#
#
# Convention : Reuss Voigt Hill
#
# Bulk Modulus (GPa) = 40.80734 60.48912 50.64823
# Shear Modulus (GPa) = 29.89814 41.61749 35.75781
#
# Velocity S-wave (km/s) = 3.35339 3.95640 3.66731
# Velocity P-wave (km/s) = 5.50836 6.60468 6.08127
#
# Compressibility (1/GPa) = 0.02450539
#
# Stress axis : x y z
#
# Youngs Moduli (GPa) = 47.88144 98.67157 73.05138
#
# Poissons Ratio (x) = 0.29702 0.32794
# Poissons Ratio (y) = 0.14413 0.19010
# Poissons Ratio (z) = 0.21495 0.25676
#
# Static dielectric constant tensor:
#      x y z
#    x 2.216480 0.110100 -0.026600 
#    y 0.110100 2.178330 0.123620 
#    z -0.026600 0.123620 2.362700 
# 
# From -- ./inp_files/110973.got.cif
#   From: 2010.05.17/outbox.cif.g08.bks.cpg/sg2_56_cif.got.tgz:110973.got - 2010.06.03 11:33:40.
