data_PCOD9020998
_publ_section_title
;
Structure prediction by ZEFSAII (Michael W. Deem and Ramdas Pophale) SiO2 
 PCOD9020998
Probable space group: P -1
;
_chemical_formula_sum "Si O2"
_cell_formula_units_Z 16
_cell_length_a 11.552506
_cell_length_b 21.608194
_cell_length_c 5.181110
_cell_angle_alpha 108.031083
_cell_angle_beta 101.586954
_cell_angle_gamma 32.853996
_cell_volume 662.782677
_symmetry_space_group_name_H-M "P -1"
_symmetry_group_IT_number 2
_symmetry_cell_setting 'triclinic'
loop_
_space_group_symop_operation_xyz
x,y,z
-x,-y,-z
loop_
_atom_site_type_symbol
_atom_site_label
_atom_site_fract_x
_atom_site_fract_y
_atom_site_fract_z
Si Si1 0.393714 0.264899 0.527675
Si Si2 0.093423 0.860588 0.806177
Si Si3 0.346170 0.869109 0.054187
Si Si4 0.868136 0.721743 0.364859
Si Si5 0.682415 0.469516 0.498770
Si Si6 0.564483 0.320135 0.641046
Si Si7 0.275735 0.136989 0.004620
Si Si8 0.843855 0.287774 0.023478
O O1 0.482206 0.214340 0.211245
O O2 0.176923 0.329583 0.604316
O O3 0.414180 0.331823 0.689343
O O4 0.558730 0.155957 0.660400
O O5 0.234431 0.849318 0.006386
O O6 0.205360 0.815583 0.519345
O O7 0.129192 0.770181 0.787905
O O8 0.849384 0.992435 0.908476
O O9 0.789299 0.803175 0.670694
O O10 0.124846 0.613278 0.319235
O O11 0.740457 0.801633 0.152059
O O12 0.500000 0.500000 0.500000
O O13 0.568919 0.589127 0.540521
O O14 0.794855 0.384772 0.191306
O O15 0.644222 0.345569 0.869033
O O16 0.084827 0.176109 0.873719
O O17 0.500000 0.000000 0.000000
#
# Coordination Sequence:
#
# PCOD9020998 Si02
#       8
#     2   2   2   2   2   2   2   2
#     4  11  24  43  68  97 138 175 220 273 336 402
#     4  10  22  37  63  99 133 170 225 263 332 398
#     4  10  23  40  63  99 139 177 210 276 329 398
#     4  11  26  46  65  99 133 174 227 271 333 398
#     4  11  23  45  69  95 133 177 224 290 327 386
#     4  11  23  41  69  99 132 177 229 274 340 387
#     4  11  26  45  68  96 135 180 220 271 333 401
#     4  11  23  40  68  99 130 173 226 276 331 401
#
# _framework density 24.140640000000001
#
# number of rings (size 3 to 8) (size 9 to 14) (size 15 to 20)
#    0.000    1.250    2.500    2.250    7.000    3.000 
#    0.000    0.000    0.000    6.750    0.000    0.000 
#    0.000    0.000    0.000    0.000    0.000    0.000 
#
# Total GULP energy -89221.624625 kJ/mol
# GULP energy per Si atom -5576.351539 kJ/mol
# Density = 2.408569 g / cm^3
# Si number density = 24.140640 Si / 1000 Ang^3
#
#
#
# Elastic Constant Matrix: (Units=GPa)
#
#
# Indices 1 2 3 4 5 6 
#
# 1 106.6990 41.9054 0.2527 -14.5438 -15.6470 -1.1956
# 2 41.9054 90.8402 14.5314 -12.5925 -2.6441 -9.1044
# 3 0.2527 14.5314 66.3714 -16.5993 -9.1759 4.0388
# 4 -14.5438 -12.5925 -16.5993 26.9977 3.7856 1.6933
# 5 -15.6470 -2.6441 -9.1759 3.7856 35.0524 -4.0169
# 6 -1.1956 -9.1044 4.0388 1.6933 -4.0169 22.7903
#
#
#
# Elastic Compliance Matrix: (Units=1/GPa)
#
#
# Indices 1 2 3 4 5 6 
#
# 1 0.013291 -0.005896 0.003609 0.005955 0.005589 -0.001755
# 2 -0.005896 0.015040 -0.003494 0.001591 -0.001912 0.005863
# 3 0.003609 -0.003494 0.019788 0.012127 0.004669 -0.004791
# 4 0.005955 0.001591 0.012127 0.048728 0.000141 -0.004797
# 5 0.005589 -0.001912 0.004669 0.000141 0.032595 0.004436
# 6 -0.001755 0.005863 -0.004791 -0.004797 0.004436 0.048116
#
#
# Mechanical properties :
#
#
# Convention : Reuss Voigt Hill
#
# Bulk Modulus (GPa) = 27.35450 41.92107 34.63779
# Shear Modulus (GPa) = 24.83812 30.78283 27.81047
#
# Velocity S-wave (km/s) = 3.21111 3.57479 3.39782
# Velocity P-wave (km/s) = 5.01041 5.86872 5.45647
#
# Compressibility (1/GPa) = 0.03655705
#
# Stress axis : x y z
#
# Youngs Moduli (GPa) = 75.23902 66.49067 50.53621
#
# Poissons Ratio (x) = 0.39205 -0.18239
# Poissons Ratio (y) = 0.44363 0.17655
# Poissons Ratio (z) = -0.27155 0.23229
#
# Static dielectric constant tensor:
#      x y z
#    x 2.045790 -0.045570 0.006570 
#    y -0.045570 1.951640 0.016980 
#    z 0.006570 0.016980 2.002290 
# 
# From -- ./inp_files/83299.got.cif
#   From: 2010.05.17/outbox.cif.g08.bks.cpg/sg2_42_cif.got.tgz:83299.got - 2010.06.03 11:33:40.
