data_PCOD9020471
_publ_section_title
;
Structure prediction by ZEFSAII (Michael W. Deem and Ramdas Pophale) SiO2 
 PCOD9020471
Probable space group: P -1
;
_chemical_formula_sum "Si O2"
_cell_formula_units_Z 16
_cell_length_a 12.750808
_cell_length_b 5.316846
_cell_length_c 16.453071
_cell_angle_alpha 54.213792
_cell_angle_beta 122.302846
_cell_angle_gamma 109.866437
_cell_volume 764.190068
_symmetry_space_group_name_H-M "P -1"
_symmetry_group_IT_number 2
_symmetry_cell_setting 'triclinic'
loop_
_space_group_symop_operation_xyz
x,y,z
-x,-y,-z
loop_
_atom_site_type_symbol
_atom_site_label
_atom_site_fract_x
_atom_site_fract_y
_atom_site_fract_z
Si Si1 0.272020 0.063001 0.649885
Si Si2 0.785180 0.704391 0.595392
Si Si3 0.924570 0.287898 0.253561
Si Si4 0.805817 0.931988 0.118928
Si Si5 0.390048 0.419198 0.783580
Si Si6 0.660802 0.291852 0.862169
Si Si7 0.616209 0.815053 0.634719
Si Si8 0.598868 0.221665 0.680072
O O1 0.149251 0.901387 0.670153
O O2 0.361839 0.776254 0.723900
O O3 0.241363 0.221596 0.522447
O O4 0.328292 0.298064 0.696386
O O5 0.708639 0.927675 0.581808
O O6 0.724241 0.370706 0.661755
O O7 0.929437 0.728002 0.669829
O O8 0.882288 0.641238 0.175537
O O9 0.879898 0.130065 0.180603
O O10 0.681313 0.783534 0.138417
O O11 0.762201 0.145271 0.987272
O O12 0.534654 0.348583 0.848480
O O13 0.695475 0.621459 0.770581
O O14 0.628510 0.086560 0.806207
O O15 0.530327 0.535093 0.614598
O O16 0.539319 0.025718 0.620885
#
# Coordination Sequence:
#
# PCOD9020471 Si02
#       8
#     2   2   2   2   2   2   2   2
#     4  10  22  36  56  87 111 140 186 221 268 337
#     4   9  21  38  62  72 119 147 172 232 282 301
#     4  10  22  36  56  87 111 140 186 221 268 337
#     4  10  22  36  56  87 111 140 186 221 268 337
#     4  10  22  36  56  87 111 140 186 221 268 337
#     4   9  21  38  62  72 119 147 172 232 282 301
#     4   8  20  34  54  84 102 140 196 216 260 338
#     4   8  20  34  54  84 102 140 196 216 260 338
#
# _framework density 20.937200000000001
#
# number of rings (size 3 to 8) (size 9 to 14) (size 15 to 20)
#    1.500    1.000    0.000    0.750    7.000    0.000 
#    0.000   17.500    0.000    0.000    0.000    0.000 
#    0.000    0.000    0.000    0.000    0.000    0.000 
#
# Total GULP energy -89124.623425 kJ/mol
# GULP energy per Si atom -5570.288964 kJ/mol
# Density = 2.088955 g / cm^3
# Si number density = 20.937200 Si / 1000 Ang^3
#
#
#
# Elastic Constant Matrix: (Units=GPa)
#
#
# Indices 1 2 3 4 5 6 
#
# 1 76.7940 13.8378 29.8060 4.9370 7.6842 2.7675
# 2 13.8378 114.0275 16.7216 12.0664 3.2265 -31.6609
# 3 29.8060 16.7216 118.3438 7.0445 -15.2256 1.0289
# 4 4.9370 12.0664 7.0445 9.1142 2.4082 -5.7577
# 5 7.6842 3.2265 -15.2256 2.4082 22.6777 3.8308
# 6 2.7675 -31.6609 1.0289 -5.7577 3.8308 22.2189
#
#
#
# Elastic Compliance Matrix: (Units=1/GPa)
#
#
# Indices 1 2 3 4 5 6 
#
# 1 0.016198 -0.001897 -0.004480 -0.003573 -0.007136 -0.004209
# 2 -0.001897 0.016891 -0.003156 -0.000475 -0.008177 0.025738
# 3 -0.004480 -0.003156 0.012658 -0.013296 0.013621 -0.010319
# 4 -0.003573 -0.000475 -0.013296 0.161517 -0.032893 0.047910
# 5 -0.007136 -0.008177 0.013621 -0.032893 0.065590 -0.031226
# 6 -0.004209 0.025738 -0.010319 0.047910 -0.031226 0.100483
#
#
# Mechanical properties :
#
#
# Convention : Reuss Voigt Hill
#
# Bulk Modulus (GPa) = 37.48289 47.76624 42.62456
# Shear Modulus (GPa) = 12.45954 27.38883 19.92418
#
# Velocity S-wave (km/s) = 2.44210 3.62075 3.08817
# Velocity P-wave (km/s) = 5.08853 6.35164 5.75485
#
# Compressibility (1/GPa) = 0.02667884
#
# Stress axis : x y z
#
# Youngs Moduli (GPa) = 61.73522 59.20331 79.00189
#
# Poissons Ratio (x) = 0.11233 0.35396
# Poissons Ratio (y) = 0.11714 0.24935
# Poissons Ratio (z) = 0.27660 0.18686
#
# Static dielectric constant tensor:
#      x y z
#    x 1.746420 -0.004530 -0.048370 
#    y -0.004530 1.904370 -0.044380 
#    z -0.048370 -0.044380 1.732820 
# 
# From -- ./inp_files/510754.got.cif
#   From: 2010.05.17/outbox.cif.g08.bks.cpg/sg2_256_cif.got.tgz:510754.got - 2010.06.03 11:33:40.
