data_PCOD9020672
_publ_section_title
;
Structure prediction by ZEFSAII (Michael W. Deem and Ramdas Pophale) SiO2 
 PCOD9020672
Probable space group: P -1
;
_chemical_formula_sum "Si O2"
_cell_formula_units_Z 16
_cell_length_a 7.251016
_cell_length_b 16.181719
_cell_length_c 7.327279
_cell_angle_alpha 61.568356
_cell_angle_beta 84.040929
_cell_angle_gamma 61.781441
_cell_volume 657.972508
_symmetry_space_group_name_H-M "P -1"
_symmetry_group_IT_number 2
_symmetry_cell_setting 'triclinic'
loop_
_space_group_symop_operation_xyz
x,y,z
-x,-y,-z
loop_
_atom_site_type_symbol
_atom_site_label
_atom_site_fract_x
_atom_site_fract_y
_atom_site_fract_z
Si Si1 0.269057 0.211813 0.224153
Si Si2 0.824846 0.367148 0.027090
Si Si3 0.363667 0.397571 0.124976
Si Si4 0.599671 0.255581 0.545349
Si Si5 0.082414 0.737468 0.232441
Si Si6 0.309330 0.926846 0.518478
Si Si7 0.608196 0.871236 0.108642
Si Si8 0.039482 0.943962 0.856400
O O1 0.307106 0.314745 0.120199
O O2 0.438209 0.121192 0.438076
O O3 0.340089 0.161359 0.072012
O O4 0.876336 0.179601 0.981186
O O5 0.798862 0.477115 0.998503
O O6 0.885360 0.353572 0.819673
O O7 0.592110 0.379547 0.054557
O O8 0.160280 0.192206 0.753805
O O9 0.400930 0.358174 0.373352
O O10 0.751132 0.290992 0.593737
O O11 0.710619 0.174970 0.448569
O O12 0.529905 0.182844 0.749332
O O13 0.017444 0.265086 0.212830
O O14 0.199989 0.960278 0.691661
O O15 0.170555 0.014498 0.290993
O O16 0.500000 0.000000 0.000000
O O17 0.000000 0.000000 0.000000
#
# Coordination Sequence:
#
# PCOD9020672 Si02
#       8
#     2   2   2   2   2   2   2   2
#     4  10  22  42  65  95 135 174 225 281 339 406
#     4  10  22  43  67 100 123 175 230 284 345 409
#     4  10  22  42  71  91 130 173 227 284 353 405
#     4  11  22  41  61  95 133 172 218 281 334 402
#     4  11  23  40  64  92 136 174 220 278 334 401
#     4  10  22  36  65  97 124 178 233 262 328 412
#     4  11  25  39  63  95 134 181 224 271 336 402
#     4  11  21  38  65  96 130 182 227 267 337 403
#
# _framework density 24.317124
#
# number of rings (size 3 to 8) (size 9 to 14) (size 15 to 20)
#    0.000    1.500    1.250    4.125    1.750    2.500 
#    0.000   12.500    0.000    0.000    0.000    0.000 
#    0.000    0.000    0.000    0.000    0.000    0.000 
#
# Total GULP energy -89457.492270 kJ/mol
# GULP energy per Si atom -5591.093267 kJ/mol
# Density = 2.426178 g / cm^3
# Si number density = 24.317124 Si / 1000 Ang^3
#
#
#
# Elastic Constant Matrix: (Units=GPa)
#
#
# Indices 1 2 3 4 5 6 
#
# 1 134.4445 41.2104 27.4192 12.9230 2.4402 -11.0623
# 2 41.2104 130.4989 30.6867 11.4256 -4.3803 -8.5399
# 3 27.4192 30.6867 65.5535 17.8552 -1.0842 -11.1161
# 4 12.9230 11.4256 17.8552 27.9257 0.6484 3.2864
# 5 2.4402 -4.3803 -1.0842 0.6484 40.2561 -2.9230
# 6 -11.0623 -8.5399 -11.1161 3.2864 -2.9230 38.8699
#
#
#
# Elastic Compliance Matrix: (Units=1/GPa)
#
#
# Indices 1 2 3 4 5 6 
#
# 1 0.008810 -0.002067 -0.001835 -0.002239 -0.000651 0.001669
# 2 -0.002067 0.009200 -0.003032 -0.000981 0.001114 0.000732
# 3 -0.001835 -0.003032 0.021986 -0.012727 0.001032 0.006253
# 4 -0.002239 -0.000981 -0.012727 0.046429 -0.001682 -0.008544
# 5 -0.000651 0.001114 0.001032 -0.001682 0.025230 0.002394
# 6 0.001669 0.000732 0.006253 -0.008544 0.002394 0.029053
#
#
# Mechanical properties :
#
#
# Convention : Reuss Voigt Hill
#
# Bulk Modulus (GPa) = 38.27543 58.79216 48.53379
# Shear Modulus (GPa) = 30.62095 36.82239 33.72167
#
# Velocity S-wave (km/s) = 3.55242 3.89557 3.72794
# Velocity P-wave (km/s) = 5.70969 6.66811 6.20742
#
# Compressibility (1/GPa) = 0.02612642
#
# Stress axis : x y z
#
# Youngs Moduli (GPa) = 113.50317 108.69655 45.48398
#
# Poissons Ratio (x) = 0.22470 0.08348
# Poissons Ratio (y) = 0.23464 0.13792
# Poissons Ratio (z) = 0.20832 0.32959
#
# Static dielectric constant tensor:
#      x y z
#    x 2.016870 -0.003190 0.016460 
#    y -0.003190 1.954780 -0.007730 
#    z 0.016460 -0.007730 2.015110 
# 
# From -- ./inp_files/300632.got.cif
#   From: 2010.05.17/outbox.cif.g08.bks.cpg/sg2_151_cif.got.tgz:300632.got - 2010.06.03 11:33:40.
