data_PCOD9020563
_publ_section_title
;
Structure prediction by ZEFSAII (Michael W. Deem and Ramdas Pophale) SiO2 
 PCOD9020563
Probable space group: P -1
;
_chemical_formula_sum "Si O2"
_cell_formula_units_Z 12
_cell_length_a 7.849138
_cell_length_b 9.072717
_cell_length_c 9.688731
_cell_angle_alpha 56.860337
_cell_angle_beta 59.858129
_cell_angle_gamma 55.008431
_cell_volume 455.052568
_symmetry_space_group_name_H-M "P -1"
_symmetry_group_IT_number 2
_symmetry_cell_setting 'triclinic'
loop_
_space_group_symop_operation_xyz
x,y,z
-x,-y,-z
loop_
_atom_site_type_symbol
_atom_site_label
_atom_site_fract_x
_atom_site_fract_y
_atom_site_fract_z
Si Si1 0.503722 0.355816 0.250092
Si Si2 0.435234 0.286121 0.000667
Si Si3 0.984390 0.262932 0.473841
Si Si4 0.980408 0.348242 0.730481
Si Si5 0.254389 0.111492 0.949640
Si Si6 0.640463 0.115512 0.594252
O O1 0.488208 0.273060 0.148742
O O2 0.264263 0.522992 0.276567
O O3 0.567305 0.209873 0.424712
O O4 0.634412 0.490373 0.122569
O O5 0.657928 0.115376 0.940531
O O6 0.264075 0.222700 0.026796
O O7 0.940107 0.484493 0.346854
O O8 0.070742 0.234296 0.611195
O O9 0.768919 0.230355 0.552737
O O10 0.175830 0.100674 0.393040
O O11 0.031754 0.207198 0.910745
O O12 0.434804 0.127189 0.761399
#
# Coordination Sequence:
#
# PCOD9020563 Si02
#       6
#     2   2   2   2   2   2
#     4  11  23  41  63  89 122 159 199 246 298 355
#     4  10  24  42  60  86 124 162 196 244 304 352
#     4  10  22  36  60  96 120 148 200 256 298 340
#     4  11  22  36  60  92 122 155 198 246 298 353
#     4  11  23  41  63  89 122 159 199 246 298 355
#     4  11  22  41  66  88 118 159 204 247 292 354
#
# _framework density 26.370577000000001
#
# number of rings (size 3 to 8) (size 9 to 14) (size 15 to 20)
#    0.000    1.333    0.000    6.000    0.000    5.333 
#    0.000   13.333    0.000    0.000    0.000    0.000 
#    0.000    0.000    0.000    0.000    0.000    0.000 
#
# Total GULP energy -67160.073712 kJ/mol
# GULP energy per Si atom -5596.672809 kJ/mol
# Density = 2.631056 g / cm^3
# Si number density = 26.370577 Si / 1000 Ang^3
#
#
#
# Elastic Constant Matrix: (Units=GPa)
#
#
# Indices 1 2 3 4 5 6 
#
# 1 72.9518 35.1841 17.5852 11.4607 3.7388 13.8569
# 2 35.1841 89.1414 31.2325 11.4669 1.7237 25.4856
# 3 17.5852 31.2325 138.3769 7.5474 27.5987 3.1166
# 4 11.4607 11.4669 7.5474 30.3923 0.7460 13.9738
# 5 3.7388 1.7237 27.5987 0.7460 41.4888 -1.5409
# 6 13.8569 25.4856 3.1166 13.9738 -1.5409 51.2910
#
#
#
# Elastic Compliance Matrix: (Units=1/GPa)
#
#
# Indices 1 2 3 4 5 6 
#
# 1 0.017520 -0.006052 -0.000436 -0.003882 -0.000993 -0.000672
# 2 -0.006052 0.016498 -0.003139 -0.000342 0.001723 -0.006227
# 3 -0.000436 -0.003139 0.009211 -0.001403 -0.005883 0.001323
# 4 -0.003882 -0.000342 -0.001403 0.039138 0.000246 -0.009351
# 5 -0.000993 0.001723 -0.005883 0.000246 0.028050 0.000545
# 6 -0.000672 -0.006227 0.001323 -0.009351 0.000545 0.025256
#
#
# Mechanical properties :
#
#
# Convention : Reuss Voigt Hill
#
# Bulk Modulus (GPa) = 41.71105 52.05264 46.88184
# Shear Modulus (GPa) = 30.69056 39.06562 34.87809
#
# Velocity S-wave (km/s) = 3.41518 3.85308 3.64072
# Velocity P-wave (km/s) = 5.60383 6.29101 5.95733
#
# Compressibility (1/GPa) = 0.02397446
#
# Stress axis : x y z
#
# Youngs Moduli (GPa) = 57.07841 60.61490 108.57068
#
# Poissons Ratio (x) = 0.36683 0.04730
# Poissons Ratio (y) = 0.34542 0.34084
# Poissons Ratio (z) = 0.02487 0.19029
#
# Static dielectric constant tensor:
#      x y z
#    x 2.133760 -0.010930 -0.145190 
#    y -0.010930 2.028450 0.048480 
#    z -0.145190 0.048480 2.186610 
# 
# From -- ./inp_files/157300.got.cif
#   From: 2010.05.17/outbox.cif.g08.bks.cpg/sg2_79_cif.got.tgz:157300.got - 2010.06.03 11:33:40.
