data_PCOD9020541
_publ_section_title
;
Structure prediction by ZEFSAII (Michael W. Deem and Ramdas Pophale) SiO2 
 PCOD9020541
Probable space group: P -1
;
_chemical_formula_sum "Si O2"
_cell_formula_units_Z 16
_cell_length_a 6.829927
_cell_length_b 17.386838
_cell_length_c 11.078904
_cell_angle_alpha 51.238386
_cell_angle_beta 53.637740
_cell_angle_gamma 86.367832
_cell_volume 720.026543
_symmetry_space_group_name_H-M "P -1"
_symmetry_group_IT_number 2
_symmetry_cell_setting 'triclinic'
loop_
_space_group_symop_operation_xyz
x,y,z
-x,-y,-z
loop_
_atom_site_type_symbol
_atom_site_label
_atom_site_fract_x
_atom_site_fract_y
_atom_site_fract_z
Si Si1 0.596552 0.786189 0.681580
Si Si2 0.764394 0.983753 0.009993
Si Si3 0.176154 0.811336 0.515732
Si Si4 0.481476 0.872871 0.002876
Si Si5 0.300308 0.654135 0.164867
Si Si6 0.264641 0.618869 0.746864
Si Si7 0.641710 0.541335 0.538221
Si Si8 0.276531 0.002762 0.446331
O O1 0.433583 0.705907 0.708388
O O2 0.626533 0.912670 0.557906
O O3 0.909498 0.806605 0.555170
O O4 0.443882 0.714722 0.928177
O O5 0.471046 0.888750 0.266755
O O6 0.749326 0.098734 0.889446
O O7 0.753228 0.938830 0.922934
O O8 0.000000 0.000000 0.000000
O O9 0.138615 0.687455 0.655888
O O10 0.205118 0.873974 0.573749
O O11 0.508623 0.923195 0.809777
O O12 0.414363 0.746594 0.138660
O O13 0.371121 0.557128 0.272789
O O14 0.972415 0.614181 0.320014
O O15 0.482956 0.598448 0.608504
O O16 0.000000 0.500000 0.000000
O O17 0.500000 0.500000 0.500000
O O18 0.000000 0.000000 0.500000
#
# Coordination Sequence:
#
# PCOD9020541 Si02
#       8
#     2   2   2   2   2   2   2   2
#     4  10  22  44  70  92 133 172 223 272 333 400
#     4  10  22  36  59  96 133 163 208 266 331 397
#     4  10  23  39  66  98 131 175 214 272 339 394
#     4   9  20  37  60  87 125 164 211 256 325 389
#     4  10  23  43  67  88 122 180 215 274 328 384
#     4  12  27  42  65 100 135 174 227 280 327 391
#     4  11  26  42  63  94 129 169 229 273 327 390
#     4   8  17  39  63  93 123 169 214 262 327 402
#
# _framework density 22.221404
#
# number of rings (size 3 to 8) (size 9 to 14) (size 15 to 20)
#    0.000    2.000    0.000    1.500    5.250    6.500 
#    0.000   10.000    0.000    0.000    0.000    0.000 
#    0.000    0.000    0.000    0.000    0.000    0.000 
#
# Total GULP energy -89208.134779 kJ/mol
# GULP energy per Si atom -5575.508424 kJ/mol
# Density = 2.217083 g / cm^3
# Si number density = 22.221404 Si / 1000 Ang^3
#
#
#
# Elastic Constant Matrix: (Units=GPa)
#
#
# Indices 1 2 3 4 5 6 
#
# 1 70.7752 32.1690 -8.7761 6.6900 -22.5655 11.2402
# 2 32.1690 146.0984 25.9023 -10.1008 -6.4886 0.3903
# 3 -8.7761 25.9023 71.0295 5.7481 -12.9064 -17.9721
# 4 6.6900 -10.1008 5.7481 23.3698 -0.6869 4.0040
# 5 -22.5655 -6.4886 -12.9064 -0.6869 22.5606 -10.6256
# 6 11.2402 0.3903 -17.9721 4.0040 -10.6256 45.5451
#
#
#
# Elastic Compliance Matrix: (Units=1/GPa)
#
#
# Indices 1 2 3 4 5 6 
#
# 1 0.044536 -0.014035 0.029245 -0.027221 0.064994 0.018225
# 2 -0.014035 0.012267 -0.013213 0.013315 -0.021445 -0.008029
# 3 0.029245 -0.013213 0.042558 -0.027271 0.061407 0.026413
# 4 -0.027221 0.013315 -0.027271 0.065235 -0.046815 -0.020814
# 5 0.064994 -0.021445 0.061407 -0.046815 0.160374 0.049905
# 6 0.018225 -0.008029 0.026413 -0.020814 0.049905 0.041422
#
#
# Mechanical properties :
#
#
# Convention : Reuss Voigt Hill
#
# Bulk Modulus (GPa) = 9.67551 42.94373 26.30962
# Shear Modulus (GPa) = 12.59915 34.20230 23.40072
#
# Velocity S-wave (km/s) = 2.38372 3.92747 3.24863
# Velocity P-wave (km/s) = 3.45540 6.31934 5.09283
#
# Compressibility (1/GPa) = 0.10335369
#
# Stress axis : x y z
#
# Youngs Moduli (GPa) = 22.45388 81.51759 23.49711
#
# Poissons Ratio (x) = 1.14411 -0.68716
# Poissons Ratio (y) = 0.31514 0.31048
# Poissons Ratio (z) = -0.65666 1.07712
#
# Static dielectric constant tensor:
#      x y z
#    x 1.829280 0.036790 0.029810 
#    y 0.036790 1.877040 0.008190 
#    z 0.029810 0.008190 1.851420 
# 
# From -- ./inp_files/369346.got.cif
#   From: 2010.05.17/outbox.cif.g08.bks.cpg/sg2_185_cif.got.tgz:369346.got - 2010.06.03 11:33:40.
