data_PCOD9020305
_publ_section_title
;
Structure prediction by ZEFSAII (Michael W. Deem and Ramdas Pophale) SiO2 
 PCOD9020305
Probable space group: P -1
;
_chemical_formula_sum "Si O2"
_cell_formula_units_Z 16
_cell_length_a 14.571717
_cell_length_b 7.286711
_cell_length_c 7.986459
_cell_angle_alpha 96.383934
_cell_angle_beta 57.238431
_cell_angle_gamma 69.484165
_cell_volume 617.236588
_symmetry_space_group_name_H-M "P -1"
_symmetry_group_IT_number 2
_symmetry_cell_setting 'triclinic'
loop_
_space_group_symop_operation_xyz
x,y,z
-x,-y,-z
loop_
_atom_site_type_symbol
_atom_site_label
_atom_site_fract_x
_atom_site_fract_y
_atom_site_fract_z
Si Si1 0.523034 0.853410 0.126690
Si Si2 0.328176 0.828815 0.123273
Si Si3 0.953936 0.216221 0.959493
Si Si4 0.970517 0.411738 0.296499
Si Si5 0.878056 0.126039 0.452429
Si Si6 0.704469 0.335059 0.326720
Si Si7 0.527615 0.219369 0.340107
Si Si8 0.788870 0.676877 0.778124
O O1 0.413443 0.797580 0.201688
O O2 0.514656 0.012537 0.297359
O O3 0.665212 0.664431 0.949047
O O4 0.500000 0.000000 0.000000
O O5 0.208898 0.811885 0.295022
O O6 0.265041 0.071430 0.145102
O O7 0.428193 0.708422 0.866172
O O8 0.962020 0.371427 0.105045
O O9 0.808720 0.295074 0.080028
O O10 0.000000 0.000000 0.000000
O O11 0.050138 0.120013 0.700796
O O12 0.979149 0.205948 0.363316
O O13 0.846542 0.591733 0.528955
O O14 0.094142 0.424325 0.221089
O O15 0.781948 0.264014 0.414070
O O16 0.638091 0.193650 0.350092
O O17 0.600474 0.580135 0.456191
#
# Coordination Sequence:
#
# PCOD9020305 Si02
#       8
#     2   2   2   2   2   2   2   2
#     4   8  18  30  53  72 103 138 172 206 256 308
#     4  10  22  34  52  81 110 135 167 219 272 299
#     4   8  18  30  53  72 103 138 172 206 256 308
#     4   9  18  33  57  78  96 146 175 219 242 311
#     4  10  22  34  52  81 110 135 167 219 272 299
#     4   9  18  33  56  77 103 133 188 206 251 315
#     4   9  18  33  57  78  96 146 175 219 242 311
#     4   9  18  33  56  77 103 133 188 206 251 315
#
# _framework density 25.921990000000001
#
# number of rings (size 3 to 8) (size 9 to 14) (size 15 to 20)
#    0.000    3.500    0.000    0.000   21.000    1.000 
#    0.000    1.250    0.000    0.000    0.000    0.000 
#    0.000    0.000    0.000    0.000    0.000    0.000 
#
# Total GULP energy -89304.142733 kJ/mol
# GULP energy per Si atom -5581.508921 kJ/mol
# Density = 2.586299 g / cm^3
# Si number density = 25.921990 Si / 1000 Ang^3
#
#
#
# Elastic Constant Matrix: (Units=GPa)
#
#
# Indices 1 2 3 4 5 6 
#
# 1 102.6400 1.4684 28.6422 2.9546 -18.7382 0.0631
# 2 1.4684 33.4185 24.6762 -3.4402 -6.1358 -6.2574
# 3 28.6422 24.6762 155.8857 7.0490 -14.6584 10.1812
# 4 2.9546 -3.4402 7.0490 37.3215 2.7049 -0.7942
# 5 -18.7382 -6.1358 -14.6584 2.7049 47.2318 -2.8471
# 6 0.0631 -6.2574 10.1812 -0.7942 -2.8471 7.3728
#
#
#
# Elastic Compliance Matrix: (Units=1/GPa)
#
#
# Indices 1 2 3 4 5 6 
#
# 1 0.011359 0.004282 -0.002930 -0.000094 0.004725 0.009398
# 2 0.004282 0.055342 -0.013702 0.008232 0.008383 0.069978
# 3 -0.002930 -0.013702 0.010993 -0.003622 -0.000984 -0.027555
# 4 -0.000094 0.008232 -0.003622 0.028619 -0.000842 0.014747
# 5 0.004725 0.008383 -0.000984 -0.000842 0.024962 0.017982
# 6 0.009398 0.069978 -0.027555 0.014747 0.017982 0.241528
#
#
# Mechanical properties :
#
#
# Convention : Reuss Voigt Hill
#
# Bulk Modulus (GPa) = 18.86980 44.61309 31.74144
# Shear Modulus (GPa) = 12.04333 34.19571 23.11952
#
# Velocity S-wave (km/s) = 2.15779 3.63599 2.98969
# Velocity P-wave (km/s) = 3.67469 5.90551 4.91825
#
# Compressibility (1/GPa) = 0.05299473
#
# Stress axis : x y z
#
# Youngs Moduli (GPa) = 88.03796 18.06944 90.96582
#
# Poissons Ratio (x) = -0.07738 0.26654
# Poissons Ratio (y) = -0.37699 1.24638
# Poissons Ratio (z) = 0.25796 0.24758
#
# Static dielectric constant tensor:
#      x y z
#    x 2.082300 0.044410 0.056010 
#    y 0.044410 2.132110 -0.038920 
#    z 0.056010 -0.038920 2.102130 
# 
# From -- ./inp_files/446293.got.cif
#   From: 2010.05.17/outbox.cif.g08.bks.cpg/sg2_224_cif.got.tgz:446293.got - 2010.06.03 11:33:40.
