data_PCOD9020666
_publ_section_title
;
Structure prediction by ZEFSAII (Michael W. Deem and Ramdas Pophale) SiO2 
 PCOD9020666
Probable space group: P -1
;
_chemical_formula_sum "Si O2"
_cell_formula_units_Z 15
_cell_length_a 8.787797
_cell_length_b 13.428782
_cell_length_c 12.195874
_cell_angle_alpha 43.847346
_cell_angle_beta 39.221607
_cell_angle_gamma 61.673344
_cell_volume 618.670973
_symmetry_space_group_name_H-M "P -1"
_symmetry_group_IT_number 2
_symmetry_cell_setting 'triclinic'
loop_
_space_group_symop_operation_xyz
x,y,z
-x,-y,-z
loop_
_atom_site_type_symbol
_atom_site_label
_atom_site_fract_x
_atom_site_fract_y
_atom_site_fract_z
Si Si1 0.836052 0.745390 0.775964
Si Si2 0.113398 0.957664 0.084585
Si Si3 0.767094 0.653325 0.134353
Si Si4 0.968252 0.622377 0.506687
Si Si5 0.553563 0.976698 0.680802
Si Si6 0.212444 0.845933 0.784738
Si Si7 0.500000 0.500000 0.000000
Si Si8 0.696777 0.338559 0.498202
O O1 0.771099 0.896138 0.652301
O O2 0.667014 0.611532 0.911594
O O3 0.124092 0.751324 0.589486
O O4 0.777788 0.720913 0.955369
O O5 0.035947 0.786294 0.290948
O O6 0.399864 0.993030 0.863037
O O7 0.980874 0.044318 0.179031
O O8 0.000000 0.000000 0.000000
O O9 0.685595 0.479618 0.318412
O O10 0.580654 0.718378 0.264425
O O11 0.043129 0.687843 0.999675
O O12 0.690751 0.581507 0.735960
O O13 0.000000 0.500000 0.500000
O O14 0.156750 0.615017 0.507225
O O15 0.379144 0.863395 0.785219
O O16 0.632281 0.111089 0.445963
#
# Coordination Sequence:
#
# PCOD9020666 Si02
#       8
#     2   2   2   2   2   2   1   2
#     4  11  23  42  65  97 130 171 225 284 338 401
#     4  10  22  40  62  98 137 172 218 276 335 405
#     4  11  24  43  64  93 136 179 223 277 343 407
#     4  11  22  39  68  98 131 174 226 280 336 392
#     4  10  22  42  65  95 131 168 229 280 330 406
#     4  10  23  41  66  94 132 179 219 281 342 398
#     4  10  22  36  64  98 126 166 220 276 332 386
#     4  10  24  42  62  94 136 172 223 280 333 411
#
# _framework density 24.245518000000001
#
# number of rings (size 3 to 8) (size 9 to 14) (size 15 to 20)
#    0.000    1.600    0.000    4.400    7.467    1.600 
#    0.000    4.667    0.000    0.000    0.000    0.000 
#    0.000    0.000    0.000    0.000    0.000    0.000 
#
# Total GULP energy -83653.691136 kJ/mol
# GULP energy per Si atom -5576.912742 kJ/mol
# Density = 2.419033 g / cm^3
# Si number density = 24.245518 Si / 1000 Ang^3
#
#
#
# Elastic Constant Matrix: (Units=GPa)
#
#
# Indices 1 2 3 4 5 6 
#
# 1 57.1174 6.7823 16.2573 -8.8780 6.5820 -2.4452
# 2 6.7823 74.7775 30.1789 14.9213 13.9404 -13.6570
# 3 16.2573 30.1789 159.3641 26.4771 4.3123 -11.3029
# 4 -8.8780 14.9213 26.4771 28.3048 -0.2608 -5.4889
# 5 6.5820 13.9404 4.3123 -0.2608 45.4540 -1.8110
# 6 -2.4452 -13.6570 -11.3029 -5.4889 -1.8110 43.1043
#
#
#
# Elastic Compliance Matrix: (Units=1/GPa)
#
#
# Indices 1 2 3 4 5 6 
#
# 1 0.020703 -0.002172 -0.003410 0.010987 -0.001909 0.000911
# 2 -0.002172 0.017252 -0.001348 -0.007822 -0.004742 0.003794
# 3 -0.003410 -0.001348 0.008235 -0.007959 0.000101 0.000530
# 4 0.010987 -0.007822 -0.007959 0.050870 0.001959 0.002618
# 5 -0.001909 -0.004742 0.000101 0.001959 0.023719 -0.000338
# 6 0.000911 0.003794 0.000530 0.002618 -0.000338 0.024911
#
#
# Mechanical properties :
#
#
# Convention : Reuss Voigt Hill
#
# Bulk Modulus (GPa) = 30.93085 44.18846 37.55966
# Shear Modulus (GPa) = 29.35515 39.24199 34.29857
#
# Velocity S-wave (km/s) = 3.48335 4.02745 3.76524
# Velocity P-wave (km/s) = 5.38176 6.31602 5.86752
#
# Compressibility (1/GPa) = 0.03233018
#
# Stress axis : x y z
#
# Youngs Moduli (GPa) = 48.30214 57.96393 121.42978
#
# Poissons Ratio (x) = 0.12588 0.41406
# Poissons Ratio (y) = 0.10490 0.16374
# Poissons Ratio (z) = 0.16471 0.07816
#
# Static dielectric constant tensor:
#      x y z
#    x 1.907940 0.007130 -0.065090 
#    y 0.007130 1.977000 0.041320 
#    z -0.065090 0.041320 1.932300 
# 
# From -- ./inp_files/398523.got.cif
#   From: 2010.05.17/outbox.cif.g08.bks.cpg/sg2_200_cif.got.tgz:398523.got - 2010.06.03 11:33:40.
