data_PCOD9020583
_publ_section_title
;
Structure prediction by ZEFSAII (Michael W. Deem and Ramdas Pophale) SiO2 
 PCOD9020583
Probable space group: P -1
;
_chemical_formula_sum "Si O2"
_cell_formula_units_Z 12
_cell_length_a 10.485451
_cell_length_b 12.314393
_cell_length_c 9.719973
_cell_angle_alpha 69.072265
_cell_angle_beta 64.632307
_cell_angle_gamma 24.960445
_cell_volume 476.951708
_symmetry_space_group_name_H-M "P -1"
_symmetry_group_IT_number 2
_symmetry_cell_setting 'triclinic'
loop_
_space_group_symop_operation_xyz
x,y,z
-x,-y,-z
loop_
_atom_site_type_symbol
_atom_site_label
_atom_site_fract_x
_atom_site_fract_y
_atom_site_fract_z
Si Si1 0.351026 0.228183 0.411109
Si Si2 0.610956 0.052881 0.085983
Si Si3 0.810089 0.076641 0.198280
Si Si4 0.580058 0.445486 0.716992
Si Si5 0.134508 0.630834 0.637540
Si Si6 0.417446 0.186708 0.805788
O O1 0.352558 0.234677 0.242456
O O2 0.606456 0.139789 0.362507
O O3 0.000000 0.500000 0.500000
O O4 0.500000 0.000000 0.500000
O O5 0.823658 0.996584 0.083175
O O6 0.743141 0.823191 0.122776
O O7 0.468342 0.180152 0.945793
O O8 0.597573 0.346894 0.181240
O O9 0.152547 0.831390 0.215958
O O10 0.320754 0.566930 0.696389
O O11 0.756301 0.398346 0.545842
O O12 0.248173 0.415966 0.704987
O O13 0.767176 0.916999 0.704725
#
# Coordination Sequence:
#
# PCOD9020583 Si02
#       6
#     2   2   2   2   2   2
#     4  10  22  36  61  96 122 158 204 253 327 359
#     4   9  26  41  65  97 130 161 212 252 322 376
#     4  10  23  38  67  90 132 152 205 275 310 355
#     4  11  23  44  63  98 122 163 215 272 294 374
#     4  11  26  41  68  89 127 172 214 246 324 360
#     4  11  24  45  63  91 132 173 201 256 307 396
#
# _framework density 25.159780999999999
#
# number of rings (size 3 to 8) (size 9 to 14) (size 15 to 20)
#    1.000    0.667    0.000    3.000    7.000    9.333 
#    0.000    5.833    0.000    0.000    0.000    0.000 
#    0.000    0.000    0.000    0.000    0.000    0.000 
#
# Total GULP energy -67144.981123 kJ/mol
# GULP energy per Si atom -5595.415094 kJ/mol
# Density = 2.510252 g / cm^3
# Si number density = 25.159781 Si / 1000 Ang^3
#
#
#
# Elastic Constant Matrix: (Units=GPa)
#
#
# Indices 1 2 3 4 5 6 
#
# 1 74.2953 26.0291 15.0980 2.1511 27.8281 -1.3261
# 2 26.0291 159.0539 35.3273 -0.6680 -11.1668 14.0263
# 3 15.0980 35.3273 118.8119 0.0397 2.8579 7.3560
# 4 2.1511 -0.6680 0.0397 33.5606 5.6960 -2.7267
# 5 27.8281 -11.1668 2.8579 5.6960 35.6609 -6.3751
# 6 -1.3261 14.0263 7.3560 -2.7267 -6.3751 28.9981
#
#
#
# Elastic Compliance Matrix: (Units=1/GPa)
#
#
# Indices 1 2 3 4 5 6 
#
# 1 0.022520 -0.004783 -0.000943 0.001707 -0.019360 -0.000513
# 2 -0.004783 0.008108 -0.001800 -0.000762 0.006106 -0.002413
# 3 -0.000943 -0.001800 0.009198 0.000024 -0.000872 -0.001695
# 4 0.001707 -0.000762 0.000024 0.030878 -0.006148 0.001992
# 5 -0.019360 0.006106 -0.000872 -0.006148 0.047219 0.006185
# 6 -0.000513 -0.002413 -0.001695 0.001992 0.006185 0.037606
#
#
# Mechanical properties :
#
#
# Convention : Reuss Voigt Hill
#
# Bulk Modulus (GPa) = 40.36478 56.11888 48.24183
# Shear Modulus (GPa) = 27.95832 38.02435 32.99134
#
# Velocity S-wave (km/s) = 3.33713 3.89178 3.62508
# Velocity P-wave (km/s) = 5.56118 6.52289 6.06114
#
# Compressibility (1/GPa) = 0.02477407
#
# Stress axis : x y z
#
# Youngs Moduli (GPa) = 44.40520 123.33473 108.72330
#
# Poissons Ratio (x) = 0.58988 0.10250
# Poissons Ratio (y) = 0.21238 0.19573
# Poissons Ratio (z) = 0.04186 0.22203
#
# Static dielectric constant tensor:
#      x y z
#    x 2.076540 -0.006720 -0.017550 
#    y -0.006720 1.879660 0.038870 
#    z -0.017550 0.038870 1.995000 
# 
# From -- ./inp_files/429749.got.cif
#   From: 2010.05.17/outbox.cif.g08.bks.cpg/sg2_215_cif.got.tgz:429749.got - 2010.06.03 11:33:40.
