data_PCOD9020473
_publ_section_title
;
Structure prediction by ZEFSAII (Michael W. Deem and Ramdas Pophale) SiO2 
 PCOD9020473
Probable space group: P -1
;
_chemical_formula_sum "Si O2"
_cell_formula_units_Z 16
_cell_length_a 25.503864
_cell_length_b 9.203954
_cell_length_c 16.014903
_cell_angle_alpha 38.445283
_cell_angle_beta 18.653297
_cell_angle_gamma 38.186592
_cell_volume 729.117739
_symmetry_space_group_name_H-M "P -1"
_symmetry_group_IT_number 2
_symmetry_cell_setting 'triclinic'
loop_
_space_group_symop_operation_xyz
x,y,z
-x,-y,-z
loop_
_atom_site_type_symbol
_atom_site_label
_atom_site_fract_x
_atom_site_fract_y
_atom_site_fract_z
Si Si1 0.437365 0.945058 0.711551
Si Si2 0.021475 0.268169 0.367080
Si Si3 0.260037 0.910568 0.730182
Si Si4 0.328384 0.374278 0.947659
Si Si5 0.794038 0.393531 0.806511
Si Si6 0.887094 0.632560 0.987686
Si Si7 0.723244 0.182158 0.442894
Si Si8 0.988736 0.044305 0.219747
O O1 0.583570 0.968607 0.542950
O O2 0.269590 0.144146 0.893166
O O3 0.500000 0.000000 0.500000
O O4 0.375785 0.699187 0.913872
O O5 0.888251 0.412146 0.569693
O O6 0.205794 0.248245 0.136970
O O7 0.011474 0.411793 0.231264
O O8 0.000000 0.000000 0.500000
O O9 0.313274 0.635475 0.808272
O O10 0.219942 0.912699 0.692359
O O11 0.108950 0.036069 0.961369
O O12 0.522649 0.245437 0.715330
O O13 0.256091 0.412155 0.133300
O O14 0.924452 0.179609 0.753881
O O15 0.796766 0.419373 0.239822
O O16 0.998402 0.725927 0.847515
O O17 0.810919 0.025237 0.458488
#
# Coordination Sequence:
#
# PCOD9020473 Si02
#       8
#     2   2   2   2   2   2   2   2
#     4  11  16  32  60  85 113 144 184 247 280 329
#     4  12  22  38  62  86 114 151 203 243 278 336
#     4  11  20  35  58  88 121 145 193 233 294 333
#     4  11  22  37  61  88 115 149 194 251 278 333
#     4  10  22  39  62  85 116 152 198 231 291 339
#     4  11  20  36  58  88 116 152 191 240 286 339
#     4  12  22  36  58  93 119 145 192 237 298 339
#     4  10  22  36  56  87 123 157 176 233 297 356
#
# _framework density 21.944330000000001
#
# number of rings (size 3 to 8) (size 9 to 14) (size 15 to 20)
#    0.000    1.000    8.750    2.250    0.000    0.000 
#    0.000    0.625    0.000    0.750    0.000    0.000 
#    0.000    0.000    0.000    0.000    0.000    0.000 
#
# Total GULP energy -89452.968184 kJ/mol
# GULP energy per Si atom -5590.810512 kJ/mol
# Density = 2.189438 g / cm^3
# Si number density = 21.944330 Si / 1000 Ang^3
#
#
#
# Elastic Constant Matrix: (Units=GPa)
#
#
# Indices 1 2 3 4 5 6 
#
# 1 143.3699 36.4621 71.0812 9.0891 -15.0627 39.6095
# 2 36.4621 29.8067 22.1129 -2.2602 -1.7498 16.6720
# 3 71.0812 22.1129 117.4448 2.6576 -9.1961 13.8716
# 4 9.0891 -2.2602 2.6576 23.0842 13.6091 1.6531
# 5 -15.0627 -1.7498 -9.1961 13.6091 54.2520 1.6470
# 6 39.6095 16.6720 13.8716 1.6531 1.6470 27.7377
#
#
#
# Elastic Compliance Matrix: (Units=1/GPa)
#
#
# Indices 1 2 3 4 5 6 
#
# 1 0.019030 -0.007994 -0.007031 -0.010238 0.006968 -0.018657
# 2 -0.007994 0.060394 -0.004373 0.013392 -0.003666 -0.023277
# 3 -0.007031 -0.004373 0.012825 0.000565 -0.000250 0.006237
# 4 -0.010238 0.013392 0.000565 0.058392 -0.017078 0.003822
# 5 0.006968 -0.003666 -0.000250 -0.017078 0.024736 -0.008073
# 6 -0.018657 -0.023277 0.006237 0.003822 -0.008073 0.073817
#
#
# Mechanical properties :
#
#
# Convention : Reuss Voigt Hill
#
# Bulk Modulus (GPa) = 18.70918 61.10376 39.90647
# Shear Modulus (GPa) = 16.35020 31.74580 24.04800
#
# Velocity S-wave (km/s) = 2.73257 3.80761 3.31397
# Velocity P-wave (km/s) = 4.30118 6.87284 5.73307
#
# Compressibility (1/GPa) = 0.05344971
#
# Stress axis : x y z
#
# Youngs Moduli (GPa) = 52.54973 16.55807 77.97538
#
# Poissons Ratio (x) = 0.13237 0.54826
# Poissons Ratio (y) = 0.42010 0.34102
# Poissons Ratio (z) = 0.36949 0.07242
#
# Static dielectric constant tensor:
#      x y z
#    x 1.812310 -0.012640 0.024820 
#    y -0.012640 1.872150 -0.028020 
#    z 0.024820 -0.028020 1.818890 
# 
# From -- ./inp_files/257357.got.cif
#   From: 2010.05.17/outbox.cif.g08.bks.cpg/sg2_129_cif.got.tgz:257357.got - 2010.06.03 11:33:40.
