data_PCOD9020357
_publ_section_title
;
Structure prediction by ZEFSAII (Michael W. Deem and Ramdas Pophale) SiO2 
 PCOD9020357
Probable space group: P -1
;
_chemical_formula_sum "Si O2"
_cell_formula_units_Z 16
_cell_length_a 11.332721
_cell_length_b 5.429386
_cell_length_c 15.355868
_cell_angle_alpha 63.565845
_cell_angle_beta 65.425062
_cell_angle_gamma 50.187112
_cell_volume 638.020894
_symmetry_space_group_name_H-M "P -1"
_symmetry_group_IT_number 2
_symmetry_cell_setting 'triclinic'
loop_
_space_group_symop_operation_xyz
x,y,z
-x,-y,-z
loop_
_atom_site_type_symbol
_atom_site_label
_atom_site_fract_x
_atom_site_fract_y
_atom_site_fract_z
Si Si1 0.815868 0.105965 0.938016
Si Si2 0.682841 0.748973 0.964064
Si Si3 0.847441 0.061304 0.174177
Si Si4 0.356452 0.461129 0.543066
Si Si5 0.670419 0.714466 0.779238
Si Si6 0.313804 0.298846 0.774173
Si Si7 0.844512 0.737189 0.397639
Si Si8 0.147926 0.115700 0.428292
O O1 0.782920 0.825301 0.983377
O O2 0.994735 0.985204 0.901129
O O3 0.733340 0.368412 0.001548
O O4 0.727152 0.341730 0.843726
O O5 0.712764 0.802705 0.845587
O O6 0.500000 0.000000 0.000000
O O7 0.799376 0.832840 0.177600
O O8 0.886954 0.897577 0.284582
O O9 0.720807 0.444916 0.178306
O O10 0.500000 0.500000 0.500000
O O11 0.305480 0.478524 0.657445
O O12 0.332690 0.167850 0.570956
O O13 0.256498 0.720794 0.454314
O O14 0.486968 0.968687 0.781556
O O15 0.759996 0.747238 0.667746
O O16 0.864171 0.826839 0.473634
O O17 0.973805 0.339572 0.408734
#
# Coordination Sequence:
#
# PCOD9020357 Si02
#       8
#     2   2   2   2   2   2   2   2
#     4  10  22  41  68  96 121 160 206 252 304 372
#     4  10  22  42  72  99 122 154 202 258 314 372
#     4  11  22  41  60  90 127 170 207 252 306 366
#     4  11  22  35  52  78 120 170 207 256 301 352
#     4  10  24  37  64  95 123 162 209 261 305 370
#     4  11  24  38  60  87 131 169 209 251 314 358
#     4  10  22  35  55  79 119 167 213 258 298 351
#     4  11  20  39  52  87 115 164 214 257 300 346
#
# _framework density 25.077549999999999
#
# number of rings (size 3 to 8) (size 9 to 14) (size 15 to 20)
#    0.750    0.750    3.750    1.500    1.750    2.500 
#    0.000    0.000    0.000    4.500    0.000    0.000 
#    0.000    0.000    0.000    0.000    0.000    0.000 
#
# Total GULP energy -89289.002141 kJ/mol
# GULP energy per Si atom -5580.562634 kJ/mol
# Density = 2.502047 g / cm^3
# Si number density = 25.077550 Si / 1000 Ang^3
#
#
#
# Elastic Constant Matrix: (Units=GPa)
#
#
# Indices 1 2 3 4 5 6 
#
# 1 104.2923 17.0827 25.1481 10.9821 -20.4680 14.6052
# 2 17.0827 56.3848 9.2455 -17.9761 -8.9365 -2.8117
# 3 25.1481 9.2455 94.6098 -21.2863 2.3209 11.7181
# 4 10.9821 -17.9761 -21.2863 32.2020 -0.0710 2.8791
# 5 -20.4680 -8.9365 2.3209 -0.0710 42.9121 3.7322
# 6 14.6052 -2.8117 11.7181 2.8791 3.7322 47.3572
#
#
#
# Elastic Compliance Matrix: (Units=1/GPa)
#
#
# Indices 1 2 3 4 5 6 
#
# 1 0.015192 -0.006790 -0.005949 -0.012589 0.006425 -0.003357
# 2 -0.006790 0.025550 0.003259 0.018600 0.001804 0.001532
# 3 -0.005949 0.003259 0.015406 0.014243 -0.002757 -0.002433
# 4 -0.012589 0.018600 0.014243 0.055290 -0.002663 -0.001689
# 5 0.006425 0.001804 -0.002757 -0.002663 0.027164 -0.003171
# 6 -0.003357 0.001532 -0.002433 -0.001689 -0.003171 0.023197
#
#
# Mechanical properties :
#
#
# Convention : Reuss Voigt Hill
#
# Bulk Modulus (GPa) = 26.89044 39.80439 33.34742
# Shear Modulus (GPa) = 25.88591 38.08164 31.98378
#
# Velocity S-wave (km/s) = 3.21633 3.90109 3.57514
# Velocity P-wave (km/s) = 4.95371 6.01651 5.51079
#
# Compressibility (1/GPa) = 0.03718793
#
# Stress axis : x y z
#
# Youngs Moduli (GPa) = 65.82487 39.13885 64.90977
#
# Poissons Ratio (x) = 0.26575 0.38614
# Poissons Ratio (y) = 0.44694 -0.21153
# Poissons Ratio (z) = 0.39158 -0.12754
#
# Static dielectric constant tensor:
#      x y z
#    x 2.023230 -0.026440 0.027000 
#    y -0.026440 2.186140 -0.041020 
#    z 0.027000 -0.041020 2.022140 
# 
# From -- ./inp_files/98463.got.cif
#   From: 2010.05.17/outbox.cif.g08.bks.cpg/sg2_50_cif.got.tgz:98463.got - 2010.06.03 11:33:40.
