data_PCOD9020624
_publ_section_title
;
Structure prediction by ZEFSAII (Michael W. Deem and Ramdas Pophale) SiO2 
 PCOD9020624
Probable space group: P -1
;
_chemical_formula_sum "Si O2"
_cell_formula_units_Z 16
_cell_length_a 9.109152
_cell_length_b 5.289091
_cell_length_c 20.282077
_cell_angle_alpha 63.388512
_cell_angle_beta 67.768397
_cell_angle_gamma 95.085277
_cell_volume 768.371226
_symmetry_space_group_name_H-M "P -1"
_symmetry_group_IT_number 2
_symmetry_cell_setting 'triclinic'
loop_
_space_group_symop_operation_xyz
x,y,z
-x,-y,-z
loop_
_atom_site_type_symbol
_atom_site_label
_atom_site_fract_x
_atom_site_fract_y
_atom_site_fract_z
Si Si1 0.778017 0.687594 0.116253
Si Si2 0.112929 0.299234 0.479606
Si Si3 0.628659 0.201804 0.283791
Si Si4 0.585415 0.347459 0.702373
Si Si5 0.531454 0.201582 0.871100
Si Si6 0.959679 0.778513 0.943187
Si Si7 0.342985 0.607370 0.031933
Si Si8 0.386544 0.162415 0.541760
O O1 0.782251 0.391539 0.188779
O O2 0.582635 0.585764 0.142507
O O3 0.852780 0.831455 0.017052
O O4 0.874463 0.944000 0.121728
O O5 0.244501 0.484881 0.382087
O O6 0.228144 0.204208 0.525318
O O7 0.000000 0.500000 0.500000
O O8 0.000000 0.000000 0.500000
O O9 0.528716 0.430346 0.298228
O O10 0.511880 0.936351 0.290923
O O11 0.670694 0.039875 0.359767
O O12 0.618587 0.233919 0.782457
O O13 0.640202 0.273787 0.909928
O O14 0.386623 0.886911 0.942274
O O15 0.829463 0.648497 0.922287
O O16 0.000000 0.500000 0.000000
O O17 0.500000 0.500000 0.000000
O O18 0.500000 0.500000 0.500000
O O19 0.500000 0.000000 0.500000
#
# Coordination Sequence:
#
# PCOD9020624 Si02
#       8
#     2   2   2   2   2   2   2   2
#     4  10  22  36  63  95 125 174 220 282 337 392
#     4  12  25  44  71 104 145 182 221 282 366 420
#     4  11  22  41  72 102 129 170 243 289 325 408
#     4  11  23  42  71 100 130 181 229 284 342 412
#     4  10  22  37  64  92 124 171 232 276 322 406
#     4  11  21  38  61  88 132 173 220 273 345 393
#     4  11  21  38  61  92 126 175 226 270 330 401
#     4  12  22  44  73 105 131 180 235 282 340 416
#
# _framework density 20.823264999999999
#
# number of rings (size 3 to 8) (size 9 to 14) (size 15 to 20)
#    0.000    1.000    5.000    2.250    3.500    0.000 
#    0.000    2.500    0.000    0.000    0.000    0.000 
#    0.000    0.000    0.000    0.000    0.000    0.000 
#
# Total GULP energy -89112.240345 kJ/mol
# GULP energy per Si atom -5569.515022 kJ/mol
# Density = 2.077587 g / cm^3
# Si number density = 20.823265 Si / 1000 Ang^3
#
#
#
# Elastic Constant Matrix: (Units=GPa)
#
#
# Indices 1 2 3 4 5 6 
#
# 1 107.8604 53.3712 34.1369 -4.2656 7.2818 15.9308
# 2 53.3712 141.1018 32.5740 -17.9055 -3.5732 15.0576
# 3 34.1369 32.5740 124.2040 -6.0882 26.5891 23.2126
# 4 -4.2656 -17.9055 -6.0882 33.6944 2.4327 -5.5242
# 5 7.2818 -3.5732 26.5891 2.4327 27.6406 -0.6294
# 6 15.9308 15.0576 23.2126 -5.5242 -0.6294 51.8283
#
#
#
# Elastic Compliance Matrix: (Units=1/GPa)
#
#
# Indices 1 2 3 4 5 6 
#
# 1 0.012262 -0.004301 -0.001408 -0.001151 -0.002377 -0.002040
# 2 -0.004301 0.009803 -0.002020 0.003988 0.003989 -0.000148
# 3 -0.001408 -0.002020 0.012469 0.001121 -0.012088 -0.004592
# 4 -0.001151 0.003988 0.001121 0.032422 -0.003065 0.002112
# 5 -0.002377 0.003989 -0.012088 -0.003065 0.049338 0.005258
# 6 -0.002040 -0.000148 -0.004592 0.002112 0.005258 0.022310
#
#
# Mechanical properties :
#
#
# Convention : Reuss Voigt Hill
#
# Bulk Modulus (GPa) = 52.42404 68.14784 60.28594
# Shear Modulus (GPa) = 31.16802 39.50492 35.33647
#
# Velocity S-wave (km/s) = 3.87303 4.36036 4.12390
# Velocity P-wave (km/s) = 6.72539 7.62549 7.18954
#
# Compressibility (1/GPa) = 0.01907522
#
# Stress axis : x y z
#
# Youngs Moduli (GPa) = 81.55556 102.00851 80.19931
#
# Poissons Ratio (x) = 0.43877 0.11295
# Poissons Ratio (y) = 0.35080 0.16197
# Poissons Ratio (z) = 0.11486 0.20601
#
# Static dielectric constant tensor:
#      x y z
#    x 1.769860 -0.029620 0.032900 
#    y -0.029620 1.783520 -0.007530 
#    z 0.032900 -0.007530 1.786330 
# 
# From -- ./inp_files/585541.got.cif
#   From: 2010.05.17/outbox.cif.g08.bks.cpg/sg2_293_cif.got.tgz:585541.got - 2010.06.03 11:33:40.
