data_PCOD9020636
_publ_section_title
;
Structure prediction by ZEFSAII (Michael W. Deem and Ramdas Pophale) SiO2 
 PCOD9020636
Probable space group: P -1
;
_chemical_formula_sum "Si O2"
_cell_formula_units_Z 14
_cell_length_a 5.227441
_cell_length_b 15.703912
_cell_length_c 14.607479
_cell_angle_alpha 149.555467
_cell_angle_beta 101.421064
_cell_angle_gamma 90.664190
_cell_volume 554.007888
_symmetry_space_group_name_H-M "P -1"
_symmetry_group_IT_number 2
_symmetry_cell_setting 'triclinic'
loop_
_space_group_symop_operation_xyz
x,y,z
-x,-y,-z
loop_
_atom_site_type_symbol
_atom_site_label
_atom_site_fract_x
_atom_site_fract_y
_atom_site_fract_z
Si Si1 0.697464 0.344320 0.820444
Si Si2 0.862474 0.441433 0.288386
Si Si3 0.649747 0.685566 0.738736
Si Si4 0.114848 0.080176 0.809383
Si Si5 0.817252 0.809053 0.677228
Si Si6 0.459714 0.606469 0.957135
Si Si7 0.491798 0.883433 0.568973
O O1 0.579773 0.281581 0.854727
O O2 0.697689 0.205428 0.613621
O O3 0.488999 0.431049 0.840256
O O4 0.000000 0.500000 0.000000
O O5 0.581837 0.314743 0.204615
O O6 0.932401 0.645185 0.521348
O O7 0.091490 0.353816 0.236709
O O8 0.789071 0.443312 0.178663
O O9 0.500000 0.500000 0.500000
O O10 0.732858 0.824757 0.789566
O O11 0.258990 0.285333 0.978914
O O12 0.342134 0.998942 0.717290
O O13 0.032193 0.000122 0.831582
O O14 0.810087 0.993316 0.660541
O O15 0.556953 0.761768 0.542123
#
# Coordination Sequence:
#
# PCOD9020636 Si02
#       7
#     2   2   2   2   2   2   2
#     4  11  27  43  73  93 132 171 225 275 328 394
#     4  11  23  38  68  94 133 168 221 272 321 377
#     4  10  22  36  64 102 125 170 221 271 315 384
#     4  10  25  41  70  92 140 172 216 264 332 392
#     4   9  21  39  66  92 132 164 223 257 324 379
#     4  11  26  46  62 103 130 174 219 275 331 391
#     4  10  24  43  66  97 128 179 210 274 320 393
#
# _framework density 25.270401
#
# number of rings (size 3 to 8) (size 9 to 14) (size 15 to 20)
#    0.857    0.857    1.429    1.714   16.000    1.143 
#    0.000    1.429    0.000    0.000    0.000    0.000 
#    0.000    0.000    0.000    0.000    0.000    0.000 
#
# Total GULP energy -78272.469229 kJ/mol
# GULP energy per Si atom -5590.890659 kJ/mol
# Density = 2.521288 g / cm^3
# Si number density = 25.270401 Si / 1000 Ang^3
#
#
#
# Elastic Constant Matrix: (Units=GPa)
#
#
# Indices 1 2 3 4 5 6 
#
# 1 121.6269 42.3269 13.7729 -3.8016 10.9986 -3.5738
# 2 42.3269 146.1062 25.1383 -15.7306 1.2694 24.4568
# 3 13.7729 25.1383 44.4747 -9.2843 4.8092 -0.9546
# 4 -3.8016 -15.7306 -9.2843 44.5482 0.1022 3.6790
# 5 10.9986 1.2694 4.8092 0.1022 37.2377 -1.7684
# 6 -3.5738 24.4568 -0.9546 3.6790 -1.7684 34.4740
#
#
#
# Elastic Compliance Matrix: (Units=1/GPa)
#
#
# Indices 1 2 3 4 5 6 
#
# 1 0.009768 -0.003266 -0.001006 -0.000793 -0.002487 0.003259
# 2 -0.003266 0.010203 -0.004372 0.003071 0.000794 -0.007985
# 3 -0.001006 -0.004372 0.026395 0.003614 -0.002821 0.003198
# 4 -0.000793 0.003071 0.003614 0.024617 -0.000634 -0.004820
# 5 -0.002487 0.000794 -0.002821 -0.000634 0.027957 0.000603
# 6 0.003259 -0.007985 0.003198 -0.004820 0.000603 0.035644
#
#
# Mechanical properties :
#
#
# Convention : Reuss Voigt Hill
#
# Bulk Modulus (GPa) = 34.38836 52.74266 43.56551
# Shear Modulus (GPa) = 30.94751 38.64995 34.79873
#
# Velocity S-wave (km/s) = 3.50330 3.91507 3.71489
# Velocity P-wave (km/s) = 5.47740 6.43068 5.97309
#
# Compressibility (1/GPa) = 0.02907961
#
# Stress axis : x y z
#
# Youngs Moduli (GPa) = 102.37272 98.01037 37.88562
#
# Poissons Ratio (x) = 0.32011 0.03810
# Poissons Ratio (y) = 0.33436 0.16563
# Poissons Ratio (z) = 0.10294 0.42848
#
# Static dielectric constant tensor:
#      x y z
#    x 1.955300 0.062530 -0.012200 
#    y 0.062530 2.115550 -0.012010 
#    z -0.012200 -0.012010 2.099580 
# 
# From -- ./inp_files/484533.got.cif
#   From: 2010.05.17/outbox.cif.g08.bks.cpg/sg2_243_cif.got.tgz:484533.got - 2010.06.03 11:33:40.
