data_PCOD9020382
_publ_section_title
;
Structure prediction by ZEFSAII (Michael W. Deem and Ramdas Pophale) SiO2 
 PCOD9020382
Probable space group: P -1
;
_chemical_formula_sum "Si O2"
_cell_formula_units_Z 16
_cell_length_a 21.696229
_cell_length_b 9.054772
_cell_length_c 5.351493
_cell_angle_alpha 96.901326
_cell_angle_beta 116.371028
_cell_angle_gamma 128.784053
_cell_volume 603.060018
_symmetry_space_group_name_H-M "P -1"
_symmetry_group_IT_number 2
_symmetry_cell_setting 'triclinic'
loop_
_space_group_symop_operation_xyz
x,y,z
-x,-y,-z
loop_
_atom_site_type_symbol
_atom_site_label
_atom_site_fract_x
_atom_site_fract_y
_atom_site_fract_z
Si Si1 0.393133 0.519311 0.285263
Si Si2 0.718488 0.901616 0.304438
Si Si3 0.889128 0.241091 0.316818
Si Si4 0.901837 0.664879 0.799692
Si Si5 0.560405 0.250023 0.079692
Si Si6 0.262680 0.811232 0.300255
Si Si7 0.128673 0.044289 0.113692
Si Si8 0.736529 0.440886 0.094287
O O1 0.437772 0.632658 0.660545
O O2 0.356498 0.295761 0.082705
O O3 0.461931 0.703260 0.216565
O O4 0.285485 0.443126 0.065286
O O5 0.831433 0.152230 0.459149
O O6 0.668554 0.965442 0.355936
O O7 0.761006 0.835877 0.543046
O O8 0.000000 0.500000 0.500000
O O9 0.801197 0.177263 0.977605
O O10 0.889838 0.072109 0.199510
O O11 0.827248 0.429802 0.764835
O O12 0.855556 0.596174 0.418262
O O13 0.885805 0.804447 0.899523
O O14 0.025195 0.827143 0.049809
O O15 0.675071 0.368038 0.229152
O O16 0.500000 0.000000 0.000000
O O17 0.314351 0.775877 0.201575
#
# Coordination Sequence:
#
# PCOD9020382 Si02
#       8
#     2   2   2   2   2   2   2   2
#     4  10  23  39  71  99 133 165 220 266 329 401
#     4  11  23  39  60  90 129 182 222 274 324 386
#     4  11  23  37  55  82 124 180 232 273 323 380
#     4  11  21  38  55  91 122 170 222 282 325 377
#     4  10  22  42  71 104 132 163 209 272 336 405
#     4  11  23  37  58  86 127 171 220 269 328 382
#     4  10  22  35  58  82 125 169 228 275 329 369
#     4  10  22  36  65  92 127 163 213 269 322 391
#
# _framework density 26.531351999999998
#
# number of rings (size 3 to 8) (size 9 to 14) (size 15 to 20)
#    0.750    0.750    1.250    4.125    7.000    2.000 
#    0.000    3.125    0.000    1.500    0.000    0.000 
#    0.000    0.000    0.000    0.000    0.000    0.000 
#
# Total GULP energy -89411.819218 kJ/mol
# GULP energy per Si atom -5588.238701 kJ/mol
# Density = 2.647097 g / cm^3
# Si number density = 26.531352 Si / 1000 Ang^3
#
#
#
# Elastic Constant Matrix: (Units=GPa)
#
#
# Indices 1 2 3 4 5 6 
#
# 1 79.1501 33.7135 52.1569 17.9682 -42.1079 -2.5964
# 2 33.7135 106.1494 38.4375 15.1702 -11.4876 1.6170
# 3 52.1569 38.4375 117.4234 23.2715 -45.5342 -10.7143
# 4 17.9682 15.1702 23.2715 42.4342 -10.5072 -8.6968
# 5 -42.1079 -11.4876 -45.5342 -10.5072 56.1921 13.1438
# 6 -2.5964 1.6170 -10.7143 -8.6968 13.1438 38.4168
#
#
#
# Elastic Compliance Matrix: (Units=1/GPa)
#
#
# Indices 1 2 3 4 5 6 
#
# 1 0.026649 -0.004647 -0.003413 -0.004794 0.016703 -0.005755
# 2 -0.004647 0.011825 -0.002926 -0.001701 -0.003568 -0.000792
# 3 -0.003413 -0.002926 0.014896 -0.003569 0.008141 0.000453
# 4 -0.004794 -0.001701 -0.003569 0.028719 -0.002925 0.006255
# 5 0.016703 -0.003568 0.008141 -0.002925 0.037999 -0.010113
# 6 -0.005755 -0.000792 0.000453 0.006255 -0.010113 0.030677
#
#
# Mechanical properties :
#
#
# Convention : Reuss Voigt Hill
#
# Bulk Modulus (GPa) = 31.85032 61.25986 46.55509
# Shear Modulus (GPa) = 27.29232 39.30295 33.29764
#
# Velocity S-wave (km/s) = 3.21079 3.85304 3.54648
# Velocity P-wave (km/s) = 5.07704 6.55243 5.86134
#
# Compressibility (1/GPa) = 0.03139686
#
# Stress axis : x y z
#
# Youngs Moduli (GPa) = 37.52549 84.56663 67.13394
#
# Poissons Ratio (x) = 0.39300 0.22916
# Poissons Ratio (y) = 0.17439 0.19640
# Poissons Ratio (z) = 0.12809 0.24740
#
# Static dielectric constant tensor:
#      x y z
#    x 2.097940 0.039760 -0.008070 
#    y 0.039760 2.124190 -0.010720 
#    z -0.008070 -0.010720 2.203570 
# 
# From -- ./inp_files/126473.got.cif
#   From: 2010.05.17/outbox.cif.g08.bks.cpg/sg2_64_cif.got.tgz:126473.got - 2010.06.03 11:33:40.
