data_PCOD9020466
_publ_section_title
;
Structure prediction by ZEFSAII (Michael W. Deem and Ramdas Pophale) SiO2 
 PCOD9020466
Probable space group: P -1
;
_chemical_formula_sum "Si O2"
_cell_formula_units_Z 16
_cell_length_a 8.972566
_cell_length_b 15.295370
_cell_length_c 13.431360
_cell_angle_alpha 63.000601
_cell_angle_beta 147.761088
_cell_angle_gamma 118.744418
_cell_volume 857.736749
_symmetry_space_group_name_H-M "P -1"
_symmetry_group_IT_number 2
_symmetry_cell_setting 'triclinic'
loop_
_space_group_symop_operation_xyz
x,y,z
-x,-y,-z
loop_
_atom_site_type_symbol
_atom_site_label
_atom_site_fract_x
_atom_site_fract_y
_atom_site_fract_z
Si Si1 0.314746 0.348280 0.547592
Si Si2 0.196670 0.559797 0.365927
Si Si3 0.113518 0.743176 0.354121
Si Si4 0.523566 0.667278 0.149126
Si Si5 0.304467 0.753132 0.788125
Si Si6 0.616604 0.733079 0.782117
Si Si7 0.182899 0.464042 0.033586
Si Si8 0.869806 0.883915 0.993801
O O1 0.221986 0.451331 0.476969
O O2 0.497263 0.383065 0.534274
O O3 0.521891 0.322077 0.764374
O O4 0.031619 0.264408 0.412741
O O5 0.102894 0.638453 0.345568
O O6 0.985020 0.538455 0.163352
O O7 0.403229 0.768846 0.566346
O O8 0.848487 0.721738 0.289959
O O9 0.048850 0.826402 0.198260
O O10 0.464903 0.550675 0.146866
O O11 0.343500 0.712695 0.941460
O O12 0.438834 0.695733 0.803699
O O13 0.535121 0.858176 0.854067
O O14 0.740811 0.643368 0.852964
O O15 0.850941 0.825354 0.908157
O O16 0.000000 0.500000 0.000000
O O17 0.000000 0.000000 0.000000
#
# Coordination Sequence:
#
# PCOD9020466 Si02
#       8
#     2   2   2   2   2   2   2   2
#     4  11  21  35  52  81 117 158 187 225 267 333
#     4  11  23  35  50  82 123 155 189 224 271 330
#     4  11  22  36  58  85 110 150 188 229 285 337
#     4  11  20  33  55  75 113 154 186 227 269 327
#     4   9  20  35  56  82 108 145 190 232 281 330
#     4  10  22  36  55  84 113 145 187 232 275 335
#     4  12  22  34  51  82 119 159 189 219 273 328
#     4   9  20  39  60  85 112 137 182 249 295 330
#
# _framework density 18.653742000000001
#
# number of rings (size 3 to 8) (size 9 to 14) (size 15 to 20)
#    0.750    0.750    5.000    0.750    3.500    2.500 
#    0.000    0.000    0.000    0.750    0.000   14.875 
#    0.000    0.000    0.000    0.000    0.000    0.000 
#
# Total GULP energy -89130.566618 kJ/mol
# GULP energy per Si atom -5570.660414 kJ/mol
# Density = 1.861128 g / cm^3
# Si number density = 18.653742 Si / 1000 Ang^3
#
#
#
# Elastic Constant Matrix: (Units=GPa)
#
#
# Indices 1 2 3 4 5 6 
#
# 1 29.6920 6.9019 18.3912 6.4579 -14.8489 1.7573
# 2 6.9019 94.9390 39.8210 18.2736 -6.5958 13.3916
# 3 18.3912 39.8210 107.7819 17.5544 -22.7264 6.3615
# 4 6.4579 18.2736 17.5544 18.6174 -2.1240 3.0547
# 5 -14.8489 -6.5958 -22.7264 -2.1240 28.7807 2.9787
# 6 1.7573 13.3916 6.3615 3.0547 2.9787 13.0543
#
#
#
# Elastic Compliance Matrix: (Units=1/GPa)
#
#
# Indices 1 2 3 4 5 6 
#
# 1 0.050590 0.003129 -0.001232 -0.014529 0.026011 -0.011955
# 2 0.003129 0.015866 -0.003073 -0.011184 0.003380 -0.013353
# 3 -0.001232 -0.003073 0.014242 -0.008236 0.009702 -0.003908
# 4 -0.014529 -0.011184 -0.008236 0.075849 -0.011198 0.002249
# 5 0.026011 0.003380 0.009702 -0.011198 0.058086 -0.022331
# 6 -0.011955 -0.013353 -0.003908 0.002249 -0.022331 0.098385
#
#
# Mechanical properties :
#
#
# Convention : Reuss Voigt Hill
#
# Bulk Modulus (GPa) = 12.76411 40.29346 26.52879
# Shear Modulus (GPa) = 14.64190 23.24373 18.94281
#
# Velocity S-wave (km/s) = 2.80470 3.53379 3.19014
# Velocity P-wave (km/s) = 4.16485 6.18853 5.27465
#
# Compressibility (1/GPa) = 0.07834466
#
# Stress axis : x y z
#
# Youngs Moduli (GPa) = 19.76660 63.02934 70.21692
#
# Poissons Ratio (x) = -0.19720 0.08651
# Poissons Ratio (y) = -0.06184 0.21579
# Poissons Ratio (z) = 0.02435 0.19370
#
# Static dielectric constant tensor:
#      x y z
#    x 1.700660 0.021070 -0.007130 
#    y 0.021070 1.615250 0.018060 
#    z -0.007130 0.018060 1.680700 
# 
# From -- ./inp_files/450125.got.cif
#   From: 2010.05.17/outbox.cif.g08.bks.cpg/sg2_226_cif.got.tgz:450125.got - 2010.06.03 11:33:40.
