data_PCOD9020538
_publ_section_title
;
Structure prediction by ZEFSAII (Michael W. Deem and Ramdas Pophale) SiO2 
 PCOD9020538
Probable space group: P -1
;
_chemical_formula_sum "Si O2"
_cell_formula_units_Z 12
_cell_length_a 5.765065
_cell_length_b 23.309504
_cell_length_c 11.740578
_cell_angle_alpha 158.449697
_cell_angle_beta 121.214421
_cell_angle_gamma 58.810923
_cell_volume 492.387835
_symmetry_space_group_name_H-M "P -1"
_symmetry_group_IT_number 2
_symmetry_cell_setting 'triclinic'
loop_
_space_group_symop_operation_xyz
x,y,z
-x,-y,-z
loop_
_atom_site_type_symbol
_atom_site_label
_atom_site_fract_x
_atom_site_fract_y
_atom_site_fract_z
Si Si1 0.642093 0.923376 0.211561
Si Si2 0.770527 0.884618 0.822971
Si Si3 0.166034 0.144931 0.464889
Si Si4 0.279441 0.586845 0.745332
Si Si5 0.926858 0.200207 0.722619
Si Si6 0.741893 0.312501 0.319458
O O1 0.822425 0.832512 0.185507
O O2 0.409671 0.057731 0.441767
O O3 0.822841 0.026604 0.371015
O O4 0.460981 0.800706 0.881859
O O5 0.725557 0.813482 0.554058
O O6 0.944873 0.735475 0.654460
O O7 0.500000 0.000000 0.000000
O O8 0.981817 0.012685 0.133117
O O9 0.997108 0.254415 0.714851
O O10 0.570004 0.480262 0.609895
O O11 0.263579 0.703759 0.849015
O O12 0.000000 0.500000 0.500000
O O13 0.267634 0.672905 0.022005
#
# Coordination Sequence:
#
# PCOD9020538 Si02
#       6
#     2   2   2   2   2   2
#     4  10  22  36  62  97 130 158 213 263 321 367
#     4  10  22  40  63  90 127 170 215 263 313 373
#     4  10  22  36  59  95 126 159 212 269 315 371
#     4  11  24  41  63  93 133 171 208 259 327 387
#     4  11  23  35  64  97 131 163 204 271 321 376
#     4  10  24  42  63  93 128 175 215 256 316 389
#
# _framework density 24.371030999999999
#
# number of rings (size 3 to 8) (size 9 to 14) (size 15 to 20)
#    0.000    1.667    1.667    1.500   14.000    1.333 
#    0.000    0.833    0.000    5.000    0.000    3.500 
#    0.000    0.000    0.000    0.000    0.000    0.000 
#
# Total GULP energy -66812.999669 kJ/mol
# GULP energy per Si atom -5567.749972 kJ/mol
# Density = 2.431556 g / cm^3
# Si number density = 24.371031 Si / 1000 Ang^3
#
#
#
# Elastic Constant Matrix: (Units=GPa)
#
#
# Indices 1 2 3 4 5 6 
#
# 1 100.8233 59.2617 31.6978 -3.7581 -33.9338 -2.9971
# 2 59.2617 122.2524 35.1484 -1.0329 -41.2329 -17.0562
# 3 31.6978 35.1484 65.2240 -6.1752 -24.5910 12.2416
# 4 -3.7581 -1.0329 -6.1752 23.7148 3.5288 -14.8083
# 5 -33.9338 -41.2329 -24.5910 3.5288 66.6032 -13.6383
# 6 -2.9971 -17.0562 12.2416 -14.8083 -13.6383 41.7368
#
#
#
# Elastic Compliance Matrix: (Units=1/GPa)
#
#
# Indices 1 2 3 4 5 6 
#
# 1 0.015290 -0.004730 -0.003647 0.002090 0.003862 0.002238
# 2 -0.004730 0.016561 -0.005419 0.005159 0.008129 0.012504
# 3 -0.003647 -0.005419 0.022047 -0.000762 0.001158 -0.008835
# 4 0.002090 0.005159 -0.000762 0.057045 0.006010 0.024685
# 5 0.003862 0.008129 0.001158 0.006010 0.024893 0.013526
# 6 0.002238 0.012504 -0.008835 0.024685 0.013526 0.045000
#
#
# Mechanical properties :
#
#
# Convention : Reuss Voigt Hill
#
# Bulk Modulus (GPa) = 38.01714 60.05726 49.03720
# Shear Modulus (GPa) = 23.02041 37.22376 30.12208
#
# Velocity S-wave (km/s) = 3.07674 3.91241 3.51946
# Velocity P-wave (km/s) = 5.31554 6.71607 6.05642
#
# Compressibility (1/GPa) = 0.02630392
#
# Stress axis : x y z
#
# Youngs Moduli (GPa) = 65.40249 60.38446 45.35678
#
# Poissons Ratio (x) = 0.28564 0.16544
# Poissons Ratio (y) = 0.30938 0.24579
# Poissons Ratio (z) = 0.23855 0.32723
#
# Static dielectric constant tensor:
#      x y z
#    x 2.142050 0.035990 0.020910 
#    y 0.035990 2.003450 0.009580 
#    z 0.020910 0.009580 1.988320 
# 
# From -- ./inp_files/365528.got.cif
#   From: 2010.05.17/outbox.cif.g08.bks.cpg/sg2_183_cif.got.tgz:365528.got - 2010.06.03 11:33:40.
