data_PCOD9020359
_publ_section_title
;
Structure prediction by ZEFSAII (Michael W. Deem and Ramdas Pophale) SiO2 
 PCOD9020359
Probable space group: P -1
;
_chemical_formula_sum "Si O2"
_cell_formula_units_Z 16
_cell_length_a 8.739596
_cell_length_b 15.713548
_cell_length_c 12.194904
_cell_angle_alpha 39.656599
_cell_angle_beta 85.296539
_cell_angle_gamma 62.970675
_cell_volume 839.725466
_symmetry_space_group_name_H-M "P -1"
_symmetry_group_IT_number 2
_symmetry_cell_setting 'triclinic'
loop_
_space_group_symop_operation_xyz
x,y,z
-x,-y,-z
loop_
_atom_site_type_symbol
_atom_site_label
_atom_site_fract_x
_atom_site_fract_y
_atom_site_fract_z
Si Si1 0.237216 0.654996 0.423195
Si Si2 0.841859 0.945131 0.254301
Si Si3 0.479117 0.635379 0.626832
Si Si4 0.096776 0.945455 0.430476
Si Si5 0.182398 0.379821 0.691190
Si Si6 0.146731 0.146804 0.062787
Si Si7 0.730709 0.283603 0.879691
Si Si8 0.589750 0.833170 0.317231
O O1 0.349494 0.677787 0.484644
O O2 0.243609 0.494931 0.608851
O O3 0.318984 0.638166 0.315217
O O4 0.013664 0.822899 0.278889
O O5 0.709752 0.884862 0.319507
O O6 0.956314 0.934015 0.368081
O O7 0.704985 0.140800 0.034097
O O8 0.314003 0.764093 0.596212
O O9 0.613995 0.432758 0.828213
O O10 0.613521 0.687331 0.533517
O O11 0.119482 0.084532 0.242816
O O12 0.000000 0.000000 0.500000
O O13 0.336080 0.231087 0.746574
O O14 0.000000 0.500000 0.500000
O O15 0.139840 0.306228 0.869780
O O16 0.361094 0.986582 0.174330
O O17 0.961532 0.185419 0.972962
#
# Coordination Sequence:
#
# PCOD9020359 Si02
#       8
#     2   2   2   2   2   2   2   2
#     4  11  21  34  53  83 124 162 190 221 287 345
#     4  10  22  35  58  85 114 153 194 241 281 344
#     4  10  22  37  59  86 113 158 196 236 283 348
#     4   9  21  45  66  81 109 150 196 248 298 335
#     4  12  20  33  55  87 124 160 187 231 280 346
#     4  10  22  35  55  84 116 152 194 232 282 341
#     4  11  20  37  53  84 122 157 193 226 282 349
#     4  11  21  36  53  87 122 154 188 231 290 347
#
# _framework density 19.053846
#
# number of rings (size 3 to 8) (size 9 to 14) (size 15 to 20)
#    0.000    1.500    3.750    1.875    1.750    3.000 
#    0.000    5.000    0.000    3.000    0.000    0.000 
#    0.000    0.000    0.000    0.000    0.000    0.000 
#
# Total GULP energy -89199.961088 kJ/mol
# GULP energy per Si atom -5574.997568 kJ/mol
# Density = 1.901048 g / cm^3
# Si number density = 19.053846 Si / 1000 Ang^3
#
#
#
# Elastic Constant Matrix: (Units=GPa)
#
#
# Indices 1 2 3 4 5 6 
#
# 1 87.5163 35.6918 34.7008 -12.7353 -23.7048 -3.2349
# 2 35.6918 112.2739 47.1329 2.6244 -17.8133 -16.9454
# 3 34.7008 47.1329 89.7742 -16.6355 -25.7326 -6.3497
# 4 -12.7353 2.6244 -16.6355 22.0012 2.9686 -6.1974
# 5 -23.7048 -17.8133 -25.7326 2.9686 44.0958 -11.4803
# 6 -3.2349 -16.9454 -6.3497 -6.1974 -11.4803 25.3451
#
#
#
# Elastic Compliance Matrix: (Units=1/GPa)
#
#
# Indices 1 2 3 4 5 6 
#
# 1 0.016972 -0.003336 0.000319 0.011171 0.008985 0.006817
# 2 -0.003336 0.014186 -0.006112 -0.006598 0.002669 0.007123
# 3 0.000319 -0.006112 0.022241 0.019406 0.012479 0.011924
# 4 0.011171 -0.006598 0.019406 0.072797 0.016876 0.027320
# 5 0.008985 0.002669 0.012479 0.016876 0.042382 0.029382
# 6 0.006817 0.007123 0.011924 0.027320 0.029382 0.068064
#
#
# Mechanical properties :
#
#
# Convention : Reuss Voigt Hill
#
# Bulk Modulus (GPa) = 28.45738 58.29061 43.37399
# Shear Modulus (GPa) = 18.75369 29.75768 24.25568
#
# Velocity S-wave (km/s) = 3.14067 3.95621 3.57179
# Velocity P-wave (km/s) = 5.30278 7.17828 6.31059
#
# Compressibility (1/GPa) = 0.03514027
#
# Stress axis : x y z
#
# Youngs Moduli (GPa) = 58.92168 70.49191 44.96169
#
# Poissons Ratio (x) = 0.23515 -0.01433
# Poissons Ratio (y) = 0.19655 0.27482
# Poissons Ratio (z) = -0.01878 0.43086
#
# Static dielectric constant tensor:
#      x y z
#    x 1.708050 -0.014930 -0.001670 
#    y -0.014930 1.649800 -0.054190 
#    z -0.001670 -0.054190 1.745860 
# 
# From -- ./inp_files/178247.got.cif
#   From: 2010.05.17/outbox.cif.g08.bks.cpg/sg2_90_cif.got.tgz:178247.got - 2010.06.03 11:33:40.
