data_PCOD9020525
_publ_section_title
;
Structure prediction by ZEFSAII (Michael W. Deem and Ramdas Pophale) SiO2 
 PCOD9020525
Probable space group: P -1
;
_chemical_formula_sum "Si O2"
_cell_formula_units_Z 16
_cell_length_a 5.880332
_cell_length_b 12.531090
_cell_length_c 17.410821
_cell_angle_alpha 64.568060
_cell_angle_beta 89.708321
_cell_angle_gamma 133.232656
_cell_volume 751.800398
_symmetry_space_group_name_H-M "P -1"
_symmetry_group_IT_number 2
_symmetry_cell_setting 'triclinic'
loop_
_space_group_symop_operation_xyz
x,y,z
-x,-y,-z
loop_
_atom_site_type_symbol
_atom_site_label
_atom_site_fract_x
_atom_site_fract_y
_atom_site_fract_z
Si Si1 0.737812 0.988192 0.464030
Si Si2 0.023382 0.617971 0.523553
Si Si3 0.113865 0.792358 0.733922
Si Si4 0.992886 0.922664 0.100750
Si Si5 0.072430 0.967145 0.788976
Si Si6 0.831401 0.224140 0.780732
Si Si7 0.953834 0.150843 0.649011
Si Si8 0.192668 0.536204 0.258728
O O1 0.432851 0.790018 0.488893
O O2 0.500000 0.000000 0.500000
O O3 0.965658 0.151171 0.353295
O O4 0.000000 0.000000 0.500000
O O5 0.921047 0.704778 0.459068
O O6 0.000000 0.500000 0.500000
O O7 0.838442 0.524270 0.635028
O O8 0.983054 0.616080 0.757728
O O9 0.957053 0.796334 0.807307
O O10 0.536899 0.965069 0.691777
O O11 0.127361 0.054857 0.131828
O O12 0.594492 0.720046 0.178263
O O13 0.207595 0.886512 0.117898
O O14 0.000000 0.000000 0.000000
O O15 0.456718 0.103026 0.781432
O O16 0.094009 0.074945 0.688837
O O17 0.022829 0.243081 0.701558
O O18 0.990568 0.408089 0.753453
#
# Coordination Sequence:
#
# PCOD9020525 Si02
#       8
#     2   2   2   2   2   2   2   2
#     4  11  25  43  61  94 139 192 234 273 338 402
#     4  11  22  41  62  95 133 180 224 276 324 394
#     4  10  22  36  59  87 128 169 212 264 321 396
#     4  10  23  43  67  90 119 161 212 274 339 401
#     4   9  20  38  63  88 120 167 209 259 322 397
#     4   9  19  40  60  89 120 155 207 259 324 388
#     4   9  19  37  60  86 124 168 212 252 320 378
#     4  11  22  38  61  95 125 163 218 265 330 380
#
# _framework density 21.282245
#
# number of rings (size 3 to 8) (size 9 to 14) (size 15 to 20)
#    0.000    2.000    2.500    0.000    5.250    4.000 
#    2.250    6.875    0.000    7.500    0.000    0.000 
#    0.000    0.000    0.000    0.000    0.000    0.000 
#
# Total GULP energy -89161.723657 kJ/mol
# GULP energy per Si atom -5572.607729 kJ/mol
# Density = 2.123381 g / cm^3
# Si number density = 21.282245 Si / 1000 Ang^3
#
#
#
# Elastic Constant Matrix: (Units=GPa)
#
#
# Indices 1 2 3 4 5 6 
#
# 1 88.2535 48.7722 42.4047 4.9752 33.0705 -13.2890
# 2 48.7722 172.6738 30.7999 2.7994 9.3448 -43.4712
# 3 42.4047 30.7999 127.7402 7.2355 35.5941 -5.0404
# 4 4.9752 2.7994 7.2355 15.9638 3.4104 -2.5116
# 5 33.0705 9.3448 35.5941 3.4104 32.0718 -0.2113
# 6 -13.2890 -43.4712 -5.0404 -2.5116 -0.2113 42.0611
#
#
#
# Elastic Compliance Matrix: (Units=1/GPa)
#
#
# Indices 1 2 3 4 5 6 
#
# 1 0.022331 -0.004555 -0.000226 -0.001169 -0.021310 0.002143
# 2 -0.004555 0.009105 -0.001422 0.000943 0.003574 0.007875
# 3 -0.000226 -0.001422 0.011755 -0.002469 -0.012138 -0.000340
# 4 -0.001169 0.000943 -0.002469 0.065313 -0.003248 0.004193
# 5 -0.021310 0.003574 -0.012138 -0.003248 0.065900 -0.004357
# 6 0.002143 0.007875 -0.000340 0.004193 -0.004357 0.032779
#
#
# Mechanical properties :
#
#
# Convention : Reuss Voigt Hill
#
# Bulk Modulus (GPa) = 32.48311 70.29123 51.38717
# Shear Modulus (GPa) = 21.75318 35.79870 28.77594
#
# Velocity S-wave (km/s) = 3.20054 4.10578 3.68109
# Velocity P-wave (km/s) = 5.38090 7.45496 6.50117
#
# Compressibility (1/GPa) = 0.03078523
#
# Stress axis : x y z
#
# Youngs Moduli (GPa) = 44.78104 109.82377 85.07118
#
# Poissons Ratio (x) = 0.50028 0.01923
# Poissons Ratio (y) = 0.20399 0.12094
# Poissons Ratio (z) = 0.01012 0.15613
#
# Static dielectric constant tensor:
#      x y z
#    x 1.935320 -0.066210 -0.009980 
#    y -0.066210 1.808780 0.036060 
#    z -0.009980 0.036060 1.781610 
# 
# From -- ./inp_files/549490.got.cif
#   From: 2010.05.17/outbox.cif.g08.bks.cpg/sg2_275_cif.got.tgz:549490.got - 2010.06.03 11:33:40.
