data_PCOD9020011
_publ_section_title
;
Structure prediction by ZEFSAII (Michael W. Deem and Ramdas Pophale) SiO2 
 PCOD9020011
Probable space group: P -1
;
_chemical_formula_sum "Si O2"
_cell_formula_units_Z 16
_cell_length_a 8.984173
_cell_length_b 14.602848
_cell_length_c 6.448262
_cell_angle_alpha 100.267320
_cell_angle_beta 71.964315
_cell_angle_gamma 57.552394
_cell_volume 613.139361
_symmetry_space_group_name_H-M "P -1"
_symmetry_group_IT_number 2
_symmetry_cell_setting 'triclinic'
loop_
_space_group_symop_operation_xyz
x,y,z
-x,-y,-z
loop_
_atom_site_type_symbol
_atom_site_label
_atom_site_fract_x
_atom_site_fract_y
_atom_site_fract_z
Si Si1 0.942981 0.004110 0.783202
Si Si2 0.561291 0.221865 0.224262
Si Si3 0.922111 0.383183 0.637549
Si Si4 0.680778 0.026978 0.409257
Si Si5 0.227734 0.120498 0.347386
Si Si6 0.175744 0.387728 0.174257
Si Si7 0.690686 0.364498 0.418209
Si Si8 0.858016 0.784984 0.005412
O O1 0.915099 0.907664 0.695588
O O2 0.142400 0.971485 0.579747
O O3 0.727400 0.136208 0.940869
O O4 0.000000 0.000000 0.000000
O O5 0.550576 0.135650 0.347787
O O6 0.362526 0.323354 0.226239
O O7 0.628032 0.282307 0.365551
O O8 0.862178 0.493935 0.844906
O O9 0.751075 0.377064 0.627771
O O10 0.096917 0.246905 0.578111
O O11 0.000128 0.409169 0.406516
O O12 0.388863 0.005228 0.371641
O O13 0.801207 0.900232 0.191160
O O14 0.272923 0.155878 0.130594
O O15 0.201035 0.299448 0.951781
O O16 0.500000 0.500000 0.500000
O O17 0.898420 0.301145 0.170595
#
# Coordination Sequence:
#
# PCOD9020011 Si02
#       8
#     2   2   2   2   2   2   2   2
#     4  10  17  33  54  82 114 139 182 228 270 329
#     4  11  19  32  56  86 110 141 188 225 275 327
#     4   9  18  35  52  82 109 140 194 221 270 333
#     4  11  20  34  57  85 111 147 178 227 280 328
#     4  10  19  34  58  81 111 148 179 226 276 327
#     4   9  19  33  57  77 108 153 181 228 274 320
#     4  10  17  30  58  83 108 138 184 231 266 323
#     4  10  20  38  55  84 111 146 189 220 275 330
#
# _framework density 26.095210999999999
#
# number of rings (size 3 to 8) (size 9 to 14) (size 15 to 20)
#    0.000    2.250    5.000    2.625    0.000    0.500 
#    0.000    3.125    0.000    8.250    0.000    0.000 
#    0.000    0.000    0.000    0.000    0.000    0.000 
#
# Total GULP energy -89227.007495 kJ/mol
# GULP energy per Si atom -5576.687968 kJ/mol
# Density = 2.603582 g / cm^3
# Si number density = 26.095211 Si / 1000 Ang^3
#
#
#
# Elastic Constant Matrix: (Units=GPa)
#
#
# Indices 1 2 3 4 5 6 
#
# 1 124.5759 41.3681 49.6703 29.0033 32.1680 9.5216
# 2 41.3681 135.4939 46.8050 35.1387 6.5405 3.5839
# 3 49.6703 46.8050 90.8430 35.3072 18.8973 16.2406
# 4 29.0033 35.1387 35.3072 33.8657 12.8619 9.2874
# 5 32.1680 6.5405 18.8973 12.8619 58.1645 22.4411
# 6 9.5216 3.5839 16.2406 9.2874 22.4411 44.5972
#
#
#
# Elastic Compliance Matrix: (Units=1/GPa)
#
#
# Indices 1 2 3 4 5 6 
#
# 1 0.012013 -0.001196 -0.003840 -0.003659 -0.005378 0.002398
# 2 -0.001196 0.010606 -0.001868 -0.008959 0.001619 0.001134
# 3 -0.003840 -0.001868 0.020626 -0.015466 0.000414 -0.003529
# 4 -0.003659 -0.008959 -0.015466 0.060550 -0.003997 -0.003465
# 5 -0.005378 0.001619 0.000414 -0.003997 0.024915 -0.010838
# 6 0.002398 0.001134 -0.003529 -0.003465 -0.010838 0.029280
#
#
# Mechanical properties :
#
#
# Convention : Reuss Voigt Hill
#
# Bulk Modulus (GPa) = 33.97196 69.62218 51.79707
# Shear Modulus (GPa) = 27.53141 41.53013 34.53077
#
# Velocity S-wave (km/s) = 3.25166 3.99367 3.64161
# Velocity P-wave (km/s) = 5.21003 6.92848 6.12977
#
# Compressibility (1/GPa) = 0.02943604
#
# Stress axis : x y z
#
# Youngs Moduli (GPa) = 83.24617 94.28489 48.48228
#
# Poissons Ratio (x) = 0.11278 0.18617
# Poissons Ratio (y) = 0.09958 0.09058
# Poissons Ratio (z) = 0.31965 0.17615
#
# Static dielectric constant tensor:
#      x y z
#    x 2.141520 0.022160 -0.007370 
#    y 0.022160 2.176270 -0.158840 
#    z -0.007370 -0.158840 2.344800 
# 
# From -- ./inp_files/403865.got.cif
#   From: 2010.05.17/outbox.cif.g08.bks.cpg/sg2_202_cif.got.tgz:403865.got - 2010.06.03 11:33:40.
