data_PCOD9020469
_publ_section_title
;
Structure prediction by ZEFSAII (Michael W. Deem and Ramdas Pophale) SiO2 
 PCOD9020469
Probable space group: P -1
;
_chemical_formula_sum "Si O2"
_cell_formula_units_Z 16
_cell_length_a 26.047309
_cell_length_b 10.715996
_cell_length_c 18.072229
_cell_angle_alpha 33.555168
_cell_angle_beta 23.241268
_cell_angle_gamma 22.787977
_cell_volume 767.837660
_symmetry_space_group_name_H-M "P -1"
_symmetry_group_IT_number 2
_symmetry_cell_setting 'triclinic'
loop_
_space_group_symop_operation_xyz
x,y,z
-x,-y,-z
loop_
_atom_site_type_symbol
_atom_site_label
_atom_site_fract_x
_atom_site_fract_y
_atom_site_fract_z
Si Si1 0.241824 0.608572 0.658795
Si Si2 0.857381 0.821680 0.212058
Si Si3 0.539403 0.221533 0.337463
Si Si4 0.938737 0.013548 0.734888
Si Si5 0.293172 0.862178 0.592964
Si Si6 0.743774 0.436176 0.575146
Si Si7 0.655165 0.675404 0.735116
Si Si8 0.257053 0.197575 0.951688
O O1 0.414489 0.471472 0.446923
O O2 0.192490 0.848240 0.668947
O O3 0.308191 0.298325 0.765832
O O4 0.072649 0.788494 0.737318
O O5 0.787652 0.649268 0.401151
O O6 0.750993 0.014354 0.181211
O O7 0.792096 0.045429 0.258065
O O8 0.078579 0.540173 0.054528
O O9 0.442889 0.411650 0.295125
O O10 0.500000 0.000000 0.500000
O O11 0.790050 0.397333 0.754215
O O12 0.082732 0.890989 0.536595
O O13 0.821982 0.937334 0.907263
O O14 0.500000 0.500000 0.500000
O O15 0.299387 0.118111 0.437843
O O16 0.709805 0.464262 0.693143
O O17 0.431217 0.944317 0.900119
#
# Coordination Sequence:
#
# PCOD9020469 Si02
#       8
#     2   2   2   2   2   2   2   2
#     4  11  21  36  57  82 110 145 183 226 269 319
#     4   9  18  31  52  82 108 138 181 225 269 320
#     4   9  15  29  51  79 109 135 178 230 268 311
#     4  10  22  36  56  85 113 141 181 227 279 323
#     4  11  20  38  59  80 106 145 191 225 262 320
#     4   8  17  32  54  78 105 142 182 225 271 317
#     4  11  21  37  58  80 113 149 179 224 272 326
#     4  11  21  35  55  83 113 144 178 224 277 330
#
# _framework density 20.837738000000002
#
# number of rings (size 3 to 8) (size 9 to 14) (size 15 to 20)
#    0.000    2.000    2.500    3.375    0.000    2.000 
#    0.000    0.000    0.000    0.750    0.000    0.000 
#    0.000    0.000    0.000    0.000    0.000    0.000 
#
# Total GULP energy -89269.071970 kJ/mol
# GULP energy per Si atom -5579.316998 kJ/mol
# Density = 2.079031 g / cm^3
# Si number density = 20.837738 Si / 1000 Ang^3
#
#
#
# Elastic Constant Matrix: (Units=GPa)
#
#
# Indices 1 2 3 4 5 6 
#
# 1 52.0793 23.5975 5.8266 8.0608 -4.6120 14.8443
# 2 23.5975 103.4439 15.6540 15.9945 -7.3411 -3.6080
# 3 5.8266 15.6540 34.8765 15.7474 -5.4385 6.8376
# 4 8.0608 15.9945 15.7474 32.8610 2.9614 -3.3155
# 5 -4.6120 -7.3411 -5.4385 2.9614 19.7023 3.5949
# 6 14.8443 -3.6080 6.8376 -3.3155 3.5949 26.3200
#
#
#
# Elastic Compliance Matrix: (Units=1/GPa)
#
#
# Indices 1 2 3 4 5 6 
#
# 1 0.031627 -0.006616 0.011190 -0.013791 0.014735 -0.025401
# 2 -0.006616 0.012432 -0.004949 -0.001477 0.000766 0.006431
# 3 0.011190 -0.004949 0.051969 -0.030260 0.024719 -0.027679
# 4 -0.013791 -0.001477 -0.030260 0.053863 -0.024902 0.025623
# 5 0.014735 0.000766 0.024719 -0.024902 0.070043 -0.027331
# 6 -0.025401 0.006431 -0.027679 0.025623 -0.027331 0.067353
#
#
# Mechanical properties :
#
#
# Convention : Reuss Voigt Hill
#
# Bulk Modulus (GPa) = 10.49563 31.17287 20.83425
# Shear Modulus (GPa) = 15.63497 25.46477 20.54987
#
# Velocity S-wave (km/s) = 2.74217 3.49958 3.14377
# Velocity P-wave (km/s) = 3.88249 5.59658 4.81640
#
# Compressibility (1/GPa) = 0.09527773
#
# Stress axis : x y z
#
# Youngs Moduli (GPa) = 31.61864 80.43590 19.24242
#
# Poissons Ratio (x) = 0.53216 -0.21533
# Poissons Ratio (y) = 0.20919 0.09524
# Poissons Ratio (z) = -0.35382 0.39811
#
# Static dielectric constant tensor:
#      x y z
#    x 1.779640 -0.024130 0.028740 
#    y -0.024130 1.782230 0.028050 
#    z 0.028740 0.028050 1.789910 
# 
# From -- ./inp_files/260196.got.cif
#   From: 2010.05.17/outbox.cif.g08.bks.cpg/sg2_131_cif.got.tgz:260196.got - 2010.06.03 11:33:40.
