data_PCOD9020864
_publ_section_title
;
Structure prediction by ZEFSAII (Michael W. Deem and Ramdas Pophale) SiO2 
 PCOD9020864
Probable space group: P -1
;
_chemical_formula_sum "Si O2"
_cell_formula_units_Z 14
_cell_length_a 19.906861
_cell_length_b 26.197217
_cell_length_c 5.430292
_cell_angle_alpha 129.691933
_cell_angle_beta 61.030631
_cell_angle_gamma 160.853158
_cell_volume 630.318449
_symmetry_space_group_name_H-M "P -1"
_symmetry_group_IT_number 2
_symmetry_cell_setting 'triclinic'
loop_
_space_group_symop_operation_xyz
x,y,z
-x,-y,-z
loop_
_atom_site_type_symbol
_atom_site_label
_atom_site_fract_x
_atom_site_fract_y
_atom_site_fract_z
Si Si1 0.460458 0.137988 0.863942
Si Si2 0.383370 0.797979 0.715837
Si Si3 0.074859 0.669225 0.910925
Si Si4 0.914465 0.601486 0.489706
Si Si5 0.943768 0.758733 0.673616
Si Si6 0.640325 0.569086 0.274390
Si Si7 0.828670 0.802919 0.271176
O O1 0.501283 0.124397 0.512506
O O2 0.208976 0.966051 0.763247
O O3 0.478930 0.114080 0.016848
O O4 0.668469 0.361855 0.186101
O O5 0.297122 0.802865 0.912072
O O6 0.149229 0.562230 0.407550
O O7 0.043574 0.688014 0.779963
O O8 0.052463 0.688782 0.269811
O O9 0.886649 0.656751 0.663071
O O10 0.763975 0.608088 0.301769
O O11 0.897322 0.794094 0.965811
O O12 0.500000 0.500000 0.500000
O O13 0.829898 0.772879 0.448089
O O14 0.435672 0.386318 0.881765
O O15 0.000000 0.000000 0.500000
#
# Coordination Sequence:
#
# PCOD9020864 Si02
#       7
#     2   2   2   2   2   2   2
#     4  10  22  37  60  94 129 169 214 266 323 374
#     4   9  18  37  61  90 124 171 225 263 310 381
#     4   9  18  37  63  86 125 175 219 265 315 376
#     4  10  22  38  60  93 127 173 213 263 330 372
#     4  11  25  39  63  92 132 161 207 266 322 391
#     4   9  22  43  65  93 125 162 206 262 319 396
#     4  10  23  44  70  95 122 167 215 261 323 395
#
# _framework density 22.210995
#
# number of rings (size 3 to 8) (size 9 to 14) (size 15 to 20)
#    0.000    2.286    0.000    0.857    4.000   10.286 
#    2.571    4.286    0.000    0.000    0.000    0.000 
#    0.000    0.000    0.000    0.000    0.000    0.000 
#
# Total GULP energy -78222.473993 kJ/mol
# GULP energy per Si atom -5587.319571 kJ/mol
# Density = 2.216044 g / cm^3
# Si number density = 22.210995 Si / 1000 Ang^3
#
#
#
# Elastic Constant Matrix: (Units=GPa)
#
#
# Indices 1 2 3 4 5 6 
#
# 1 144.7417 44.4567 32.3887 1.9983 4.0684 2.0548
# 2 44.4567 108.6041 26.1685 -6.6010 6.8051 1.7493
# 3 32.3887 26.1685 64.1042 2.8313 -7.1136 -1.7159
# 4 1.9983 -6.6010 2.8313 33.2669 -10.9512 0.0427
# 5 4.0684 6.8051 -7.1136 -10.9512 35.8640 1.4046
# 6 2.0548 1.7493 -1.7159 0.0427 1.4046 47.8160
#
#
#
# Elastic Compliance Matrix: (Units=1/GPa)
#
#
# Indices 1 2 3 4 5 6 
#
# 1 0.008541 -0.002666 -0.003347 -0.001249 -0.001495 -0.000345
# 2 -0.002666 0.011430 -0.003636 0.002103 -0.001931 -0.000379
# 3 -0.003347 -0.003636 0.019344 -0.000626 0.004683 0.000834
# 4 -0.001249 0.002103 -0.000626 0.033892 0.009982 -0.000369
# 5 -0.001495 -0.001931 0.004683 0.009982 0.032422 -0.000658
# 6 -0.000345 -0.000379 0.000834 -0.000369 -0.000658 0.020992
#
#
# Mechanical properties :
#
#
# Convention : Reuss Voigt Hill
#
# Bulk Modulus (GPa) = 49.95727 58.16419 54.06073
# Shear Modulus (GPa) = 32.76718 37.68514 35.22616
#
# Velocity S-wave (km/s) = 3.84509 4.12356 3.98675
# Velocity P-wave (km/s) = 6.50030 6.99397 6.75165
#
# Compressibility (1/GPa) = 0.02001711
#
# Stress axis : x y z
#
# Youngs Moduli (GPa) = 117.08376 87.48691 51.69434
#
# Poissons Ratio (x) = 0.23328 0.17301
# Poissons Ratio (y) = 0.31220 0.18796
# Poissons Ratio (z) = 0.39185 0.31811
#
# Static dielectric constant tensor:
#      x y z
#    x 1.821390 -0.034950 0.053100 
#    y -0.034950 1.828090 -0.008580 
#    z 0.053100 -0.008580 1.910000 
# 
# From -- ./inp_files/51106.got.cif
#   From: 2010.05.17/outbox.cif.g08.bks.cpg/sg2_26_cif.got.tgz:51106.got - 2010.06.03 11:33:40.
