data_PCOD9020513
_publ_section_title
;
Structure prediction by ZEFSAII (Michael W. Deem and Ramdas Pophale) SiO2 
 PCOD9020513
Probable space group: P -1
;
_chemical_formula_sum "Si O2"
_cell_formula_units_Z 16
_cell_length_a 13.311863
_cell_length_b 18.521990
_cell_length_c 26.732261
_cell_angle_alpha 162.212832
_cell_angle_beta 21.252368
_cell_angle_gamma 152.684984
_cell_volume 729.807096
_symmetry_space_group_name_H-M "P -1"
_symmetry_group_IT_number 2
_symmetry_cell_setting 'triclinic'
loop_
_space_group_symop_operation_xyz
x,y,z
-x,-y,-z
loop_
_atom_site_type_symbol
_atom_site_label
_atom_site_fract_x
_atom_site_fract_y
_atom_site_fract_z
Si Si1 0.119548 0.854119 0.255042
Si Si2 0.547455 0.108439 0.702164
Si Si3 0.623856 0.133672 0.228878
Si Si4 0.612368 0.114256 0.955391
Si Si5 0.320770 0.523476 0.028471
Si Si6 0.074607 0.799376 0.762242
Si Si7 0.315937 0.347207 0.330188
Si Si8 0.743826 0.310242 0.188339
O O1 0.209075 0.831199 0.140351
O O2 0.229944 0.632444 0.089544
O O3 0.300151 0.074873 0.339130
O O4 0.801192 0.928451 0.458613
O O5 0.586756 0.263401 0.836994
O O6 0.260964 0.963376 0.747332
O O7 0.532273 0.305765 0.795020
O O8 0.759669 0.187940 0.253953
O O9 0.695438 0.323709 0.278559
O O10 0.780122 0.898660 0.981144
O O11 0.766095 0.919775 0.790924
O O12 0.337620 0.961581 0.966894
O O13 0.500718 0.324368 0.179709
O O14 0.040000 0.410308 0.105306
O O15 0.075917 0.536725 0.566100
O O16 0.524578 0.430317 0.332475
#
# Coordination Sequence:
#
# PCOD9020513 Si02
#       8
#     2   2   2   2   2   2   2   2
#     4  11  22  39  63  89 125 161 202 255 303 367
#     4  11  24  37  59  92 135 162 198 244 314 383
#     4  10  22  36  58  91 129 143 210 255 295 367
#     4   8  20  40  61  93 112 156 215 261 291 357
#     4  11  22  38  61  88 130 166 195 248 313 365
#     4  11  21  38  59  94 122 162 196 259 303 368
#     4   9  19  37  68  83 119 160 207 256 310 346
#     4   9  18  37  59  84 118 156 195 255 297 356
#
# _framework density 21.923601000000001
#
# number of rings (size 3 to 8) (size 9 to 14) (size 15 to 20)
#    0.750    1.250    2.500    1.125    1.750    2.500 
#    0.000    5.000    2.750    1.500    0.000    0.000 
#    0.000    0.000    0.000    0.000    0.000    0.000 
#
# Total GULP energy -89150.337396 kJ/mol
# GULP energy per Si atom -5571.896087 kJ/mol
# Density = 2.187370 g / cm^3
# Si number density = 21.923601 Si / 1000 Ang^3
#
#
#
# Elastic Constant Matrix: (Units=GPa)
#
#
# Indices 1 2 3 4 5 6 
#
# 1 12.6851 17.3004 19.7896 21.3004 -26.4916 -48.8728
# 2 17.3004 73.3127 13.5127 -6.3928 -1.2868 -15.0584
# 3 19.7896 13.5127 125.8603 15.5731 -0.3349 -12.9454
# 4 21.3004 -6.3928 15.5731 12.0044 15.2873 1.5707
# 5 -26.4916 -1.2868 -0.3349 15.2873 2.8408 -20.1676
# 6 -48.8728 -15.0584 -12.9454 1.5707 -20.1676 23.8541
#
#
#
# Elastic Compliance Matrix: (Units=1/GPa)
#
#
# Indices 1 2 3 4 5 6 
#
# 1 0.008502 -0.001067 -0.003362 0.014468 -0.019932 -0.002884
# 2 -0.001067 0.016877 -0.002037 0.010084 0.001852 0.008263
# 3 -0.003362 -0.002037 0.009537 -0.008280 0.000802 -0.001775
# 4 0.014468 0.010084 -0.008280 0.065084 0.003682 0.030342
# 5 -0.019932 0.001852 0.000802 0.003682 0.026585 -0.016999
# 6 -0.002884 0.008263 -0.001775 0.030342 -0.016999 0.023896
#
#
# Mechanical properties :
#
#
# Convention : Reuss Voigt Hill
#
# Bulk Modulus (GPa) = 45.49076 34.78484 40.13780
# Shear Modulus (GPa) = 29.28448 18.49021 23.88734
#
# Velocity S-wave (km/s) = 3.65876 2.90727 3.30445
# Velocity P-wave (km/s) = 6.21638 5.21253 5.73646
#
# Compressibility (1/GPa) = 0.02198248
#
# Stress axis : x y z
#
# Youngs Moduli (GPa) = 117.62480 59.25358 104.85843
#
# Poissons Ratio (x) = 0.06323 0.35254
# Poissons Ratio (y) = 0.12553 0.21359
# Poissons Ratio (z) = 0.39546 0.12070
#
# Static dielectric constant tensor:
#      x y z
#    x 1.846980 -0.048490 -0.060500 
#    y -0.048490 1.817190 0.071840 
#    z -0.060500 0.071840 1.851280 
# 
# From -- ./inp_files/474853.got.cif
#   From: 2010.05.17/outbox.cif.g08.bks.cpg/sg2_238_cif.got.tgz:474853.got - 2010.06.03 11:33:40.
