data_PCOD9020021
_publ_section_title
;
Structure prediction by ZEFSAII (Michael W. Deem and Ramdas Pophale) SiO2 
 PCOD9020021
Probable space group: P -1
;
_chemical_formula_sum "Si O2"
_cell_formula_units_Z 16
_cell_length_a 9.145935
_cell_length_b 15.708551
_cell_length_c 7.585519
_cell_angle_alpha 137.245340
_cell_angle_beta 114.028487
_cell_angle_gamma 83.268871
_cell_volume 646.024438
_symmetry_space_group_name_H-M "P -1"
_symmetry_group_IT_number 2
_symmetry_cell_setting 'triclinic'
loop_
_space_group_symop_operation_xyz
x,y,z
-x,-y,-z
loop_
_atom_site_type_symbol
_atom_site_label
_atom_site_fract_x
_atom_site_fract_y
_atom_site_fract_z
Si Si1 0.067685 0.273122 0.455344
Si Si2 0.782756 0.939458 0.681939
Si Si3 0.498039 0.026138 0.751059
Si Si4 0.841070 0.415814 0.679687
Si Si5 0.415953 0.267798 0.030264
Si Si6 0.605175 0.527590 0.917159
Si Si7 0.119486 0.909879 0.371824
Si Si8 0.132052 0.349931 0.203487
O O1 0.094713 0.131660 0.277380
O O2 0.101355 0.335335 0.372745
O O3 0.893550 0.287755 0.461669
O O4 0.219179 0.366593 0.787156
O O5 0.691923 0.835409 0.324949
O O6 0.644878 0.965272 0.786537
O O7 0.858340 0.067994 0.795052
O O8 0.528599 0.181161 0.026615
O O9 0.500000 0.000000 0.500000
O O10 0.307416 0.955246 0.610926
O O11 0.668674 0.412161 0.688620
O O12 0.845938 0.508409 0.652266
O O13 0.000000 0.500000 0.000000
O O14 0.486195 0.402106 0.160534
O O15 0.291849 0.300430 0.159597
O O16 0.500000 0.500000 0.000000
O O17 0.000000 0.000000 0.500000
O O18 0.023141 0.759036 0.130171
#
# Coordination Sequence:
#
# PCOD9020021 Si02
#       8
#     2   2   2   2   2   2   2   2
#     4  10  21  37  54  80 118 147 176 233 284 323
#     4   9  18  35  52  74 116 147 184 225 273 322
#     4   8  15  31  51  77 106 137 186 225 261 315
#     4   9  20  38  57  79 108 145 186 229 273 332
#     4   8  15  31  53  76 107 140 177 230 267 324
#     4   9  18  36  59  80 101 145 190 225 275 336
#     4  10  17  30  58  86 102 141 197 228 262 334
#     4  11  19  33  59  84 111 144 182 232 289 317
#
# _framework density 24.766864000000002
#
# number of rings (size 3 to 8) (size 9 to 14) (size 15 to 20)
#    0.000    3.000    2.500    1.125    0.000    0.500 
#   18.000    3.125    8.250    0.000    0.000    0.000 
#    0.000    0.000    0.000    0.000    0.000    0.000 
#
# Total GULP energy -89314.705099 kJ/mol
# GULP energy per Si atom -5582.169069 kJ/mol
# Density = 2.471049 g / cm^3
# Si number density = 24.766864 Si / 1000 Ang^3
#
#
#
# Elastic Constant Matrix: (Units=GPa)
#
#
# Indices 1 2 3 4 5 6 
#
# 1 180.8255 68.2633 32.7665 29.1679 -19.5268 -28.9324
# 2 68.2633 84.2334 19.9076 12.6111 -12.4077 -25.3776
# 3 32.7665 19.9076 63.7649 0.6506 -2.2571 -20.4268
# 4 29.1679 12.6111 0.6506 23.4989 -7.3572 -16.0934
# 5 -19.5268 -12.4077 -2.2571 -7.3572 35.4323 8.0134
# 6 -28.9324 -25.3776 -20.4268 -16.0934 8.0134 35.9413
#
#
#
# Elastic Compliance Matrix: (Units=1/GPa)
#
#
# Indices 1 2 3 4 5 6 
#
# 1 0.010111 -0.006546 -0.004419 -0.011487 0.001631 -0.004501
# 2 -0.006546 0.019828 0.000835 0.005902 0.002038 0.011394
# 3 -0.004419 0.000835 0.023149 0.016098 -0.001327 0.017693
# 4 -0.011487 0.005902 0.016098 0.081858 0.004790 0.039655
# 5 0.001631 0.002038 -0.001327 0.004790 0.031392 -0.002856
# 6 -0.004501 0.011394 0.017693 0.039655 -0.002856 0.060694
#
#
# Mechanical properties :
#
#
# Convention : Reuss Voigt Hill
#
# Bulk Modulus (GPa) = 30.46046 63.41095 46.93570
# Shear Modulus (GPa) = 19.36231 32.83360 26.09795
#
# Velocity S-wave (km/s) = 2.79907 3.64498 3.24967
# Velocity P-wave (km/s) = 4.77200 6.58583 5.75088
#
# Compressibility (1/GPa) = 0.03282945
#
# Stress axis : x y z
#
# Youngs Moduli (GPa) = 98.90458 50.43279 43.19783
#
# Poissons Ratio (x) = 0.33011 0.19089
# Poissons Ratio (y) = 0.64738 -0.03607
# Poissons Ratio (z) = 0.43706 -0.04211
#
# Static dielectric constant tensor:
#      x y z
#    x 1.996980 -0.044090 0.035000 
#    y -0.044090 1.994160 0.004310 
#    z 0.035000 0.004310 2.065440 
# 
# From -- ./inp_files/218962.got.cif
#   From: 2010.05.17/outbox.cif.g08.bks.cpg/sg2_110_cif.got.tgz:218962.got - 2010.06.03 11:33:40.
