data_PCOD9020134
_publ_section_title
;
Structure prediction by ZEFSAII (Michael W. Deem and Ramdas Pophale) SiO2 
 PCOD9020134
Probable space group: P -1
;
_chemical_formula_sum "Si O2"
_cell_formula_units_Z 16
_cell_length_a 12.027533
_cell_length_b 9.056580
_cell_length_c 19.293721
_cell_angle_alpha 48.564878
_cell_angle_beta 31.902832
_cell_angle_gamma 36.015933
_cell_volume 650.985967
_symmetry_space_group_name_H-M "P -1"
_symmetry_group_IT_number 2
_symmetry_cell_setting 'triclinic'
loop_
_space_group_symop_operation_xyz
x,y,z
-x,-y,-z
loop_
_atom_site_type_symbol
_atom_site_label
_atom_site_fract_x
_atom_site_fract_y
_atom_site_fract_z
Si Si1 0.773026 0.777436 0.965748
Si Si2 0.272028 0.614826 0.497613
Si Si3 0.314810 0.950398 0.576436
Si Si4 0.556118 0.491650 0.178038
Si Si5 0.009756 0.704633 0.471584
Si Si6 0.776053 0.201129 0.869742
Si Si7 0.095607 0.075571 0.862557
Si Si8 0.256929 0.415482 0.715035
O O1 0.027185 0.614108 0.830164
O O2 0.788382 0.958285 0.951244
O O3 0.726174 0.585536 0.079878
O O4 0.500000 0.000000 0.000000
O O5 0.513321 0.342852 0.424242
O O6 0.034486 0.707592 0.540213
O O7 0.210652 0.571927 0.620571
O O8 0.437066 0.721908 0.379331
O O9 0.500000 0.000000 0.500000
O O10 0.243530 0.042268 0.506899
O O11 0.034618 0.098340 0.717476
O O12 0.283990 0.647045 0.317999
O O13 0.469701 0.583691 0.114758
O O14 0.694229 0.197080 0.201451
O O15 0.000000 0.500000 0.500000
O O16 0.846141 0.263715 0.884841
O O17 0.212649 0.213105 0.782991
O O18 0.000000 0.000000 0.000000
#
# Coordination Sequence:
#
# PCOD9020134 Si02
#       8
#     2   2   2   2   2   2   2   2
#     4  10  21  46  72  97 135 186 239 279 348 421
#     4  11  24  45  68 100 149 180 230 290 354 421
#     4  11  20  39  71 101 132 175 228 285 347 407
#     4  10  24  43  67 101 138 175 234 289 344 411
#     4  11  24  40  70 108 129 178 238 283 345 419
#     4  10  23  42  71  96 133 184 227 285 343 411
#     4  12  25  43  66 101 138 178 233 280 347 411
#     4  11  25  45  70 101 145 194 223 290 366 405
#
# _framework density 24.578102999999999
#
# number of rings (size 3 to 8) (size 9 to 14) (size 15 to 20)
#    0.000    1.250    3.750    1.500    3.500    2.000 
#    0.000    3.750    0.000    0.000    0.000    0.000 
#    0.000    0.000    0.000    0.000    0.000    0.000 
#
# Total GULP energy -89478.160082 kJ/mol
# GULP energy per Si atom -5592.385005 kJ/mol
# Density = 2.452216 g / cm^3
# Si number density = 24.578103 Si / 1000 Ang^3
#
#
#
# Elastic Constant Matrix: (Units=GPa)
#
#
# Indices 1 2 3 4 5 6 
#
# 1 137.3391 33.9327 13.4714 -17.2118 -16.0062 -9.8844
# 2 33.9327 90.1331 12.3460 -14.0039 -21.3823 -0.2776
# 3 13.4714 12.3460 97.7751 -15.6317 -11.8473 18.5424
# 4 -17.2118 -14.0039 -15.6317 37.5388 15.7508 -6.3728
# 5 -16.0062 -21.3823 -11.8473 15.7508 43.7889 -9.8327
# 6 -9.8844 -0.2776 18.5424 -6.3728 -9.8327 45.9955
#
#
#
# Elastic Compliance Matrix: (Units=1/GPa)
#
#
# Indices 1 2 3 4 5 6 
#
# 1 0.008656 -0.002380 -0.000840 0.002594 0.001484 0.002861
# 2 -0.002380 0.013598 -0.000714 0.001691 0.005241 0.001213
# 3 -0.000840 -0.000714 0.011855 0.003393 0.000339 -0.004422
# 4 0.002594 0.001691 0.003393 0.034027 -0.009106 0.001968
# 5 0.001484 0.005241 0.000339 -0.009106 0.030536 0.005480
# 6 0.002861 0.001213 -0.004422 0.001968 0.005480 0.025590
#
#
# Mechanical properties :
#
#
# Convention : Reuss Voigt Hill
#
# Bulk Modulus (GPa) = 38.10667 49.41640 43.76154
# Shear Modulus (GPa) = 35.49205 43.16446 39.32825
#
# Velocity S-wave (km/s) = 3.80419 4.19527 4.00451
# Velocity P-wave (km/s) = 5.90202 6.60428 6.26300
#
# Compressibility (1/GPa) = 0.02624212
#
# Stress axis : x y z
#
# Youngs Moduli (GPa) = 115.53273 73.53907 84.34974
#
# Poissons Ratio (x) = 0.17499 0.07086
# Poissons Ratio (y) = 0.27492 0.06021
# Poissons Ratio (z) = 0.09706 0.05249
#
# Static dielectric constant tensor:
#      x y z
#    x 2.019340 -0.166670 0.035170 
#    y -0.166670 1.786940 0.011160 
#    z 0.035170 0.011160 1.953360 
# 
# From -- ./inp_files/472368.got.cif
#   From: 2010.05.17/outbox.cif.g08.bks.cpg/sg2_237_cif.got.tgz:472368.got - 2010.06.03 11:33:40.
