data_PCOD9020935
_publ_section_title
;
Structure prediction by ZEFSAII (Michael W. Deem and Ramdas Pophale) SiO2 
 PCOD9020935
Probable space group: P -1
;
_chemical_formula_sum "Si O2"
_cell_formula_units_Z 12
_cell_length_a 14.605369
_cell_length_b 17.286885
_cell_length_c 5.310237
_cell_angle_alpha 95.165244
_cell_angle_beta 83.550107
_cell_angle_gamma 158.767438
_cell_volume 482.078338
_symmetry_space_group_name_H-M "P -1"
_symmetry_group_IT_number 2
_symmetry_cell_setting 'triclinic'
loop_
_space_group_symop_operation_xyz
x,y,z
-x,-y,-z
loop_
_atom_site_type_symbol
_atom_site_label
_atom_site_fract_x
_atom_site_fract_y
_atom_site_fract_z
Si Si1 0.243693 0.135758 0.954681
Si Si2 0.534212 0.267541 0.542346
Si Si3 0.087576 0.653379 0.411381
Si Si4 0.420204 0.018121 0.803332
Si Si5 0.119091 0.890735 0.161471
Si Si6 0.556650 0.493172 0.238924
O O1 0.460370 0.288366 0.722908
O O2 0.388389 0.285365 0.189498
O O3 0.125347 0.957746 0.952690
O O4 0.000000 0.000000 0.000000
O O5 0.819343 0.486577 0.404880
O O6 0.508340 0.170176 0.699461
O O7 0.317501 0.080174 0.352582
O O8 0.251073 0.832559 0.614164
O O9 0.000000 0.500000 0.500000
O O10 0.304878 0.804702 0.178665
O O11 0.231767 0.897884 0.044987
O O12 0.832262 0.674418 0.260268
O O13 0.500000 0.500000 0.500000
O O14 0.500000 0.500000 0.000000
#
# Coordination Sequence:
#
# PCOD9020935 Si02
#       6
#     2   2   2   2   2   2
#     4  11  23  42  64  89 130 173 222 272 328 392
#     4  10  22  37  62  93 126 169 216 270 327 391
#     4   9  18  39  64  88 126 167 209 269 330 400
#     4   9  20  39  62  90 127 166 211 268 331 397
#     4  11  24  40  64  94 128 171 221 274 332 394
#     4  12  27  43  66  96 132 178 225 278 334 393
#
# _framework density 24.892218
#
# number of rings (size 3 to 8) (size 9 to 14) (size 15 to 20)
#    0.000    1.667    1.667    2.000    4.667    3.333 
#    0.000    7.500    0.000    0.000    0.000    0.000 
#    0.000    0.000    0.000    0.000    0.000    0.000 
#
# Total GULP energy -66881.907242 kJ/mol
# GULP energy per Si atom -5573.492270 kJ/mol
# Density = 2.483556 g / cm^3
# Si number density = 24.892218 Si / 1000 Ang^3
#
#
#
# Elastic Constant Matrix: (Units=GPa)
#
#
# Indices 1 2 3 4 5 6 
#
# 1 181.1982 67.3075 59.9981 -22.8885 -38.9336 34.5464
# 2 67.3075 191.8441 55.4490 -8.7335 -42.6676 73.7492
# 3 59.9981 55.4490 117.4057 1.8021 -49.1039 28.3308
# 4 -22.8885 -8.7335 1.8021 35.3870 4.5558 -10.8004
# 5 -38.9336 -42.6676 -49.1039 4.5558 48.5861 -11.7869
# 6 34.5464 73.7492 28.3308 -10.8004 -11.7869 63.6042
#
#
#
# Elastic Compliance Matrix: (Units=1/GPa)
#
#
# Indices 1 2 3 4 5 6 
#
# 1 0.007941 -0.001028 -0.002450 0.004448 0.002364 -0.000836
# 2 -0.001028 0.011668 0.001504 -0.002756 0.008144 -0.012599
# 3 -0.002450 0.001504 0.017298 -0.006033 0.015902 -0.006195
# 4 0.004448 -0.002756 -0.006033 0.034031 -0.006179 0.008100
# 5 0.002364 0.008144 0.015902 -0.006179 0.043668 -0.010768
# 6 -0.000836 -0.012599 -0.006195 0.008100 -0.010768 0.032925
#
#
# Mechanical properties :
#
#
# Convention : Reuss Voigt Hill
#
# Bulk Modulus (GPa) = 30.34196 95.10635 62.72415
# Shear Modulus (GPa) = 30.77576 50.02834 40.40205
#
# Velocity S-wave (km/s) = 3.52001 4.48794 4.03312
# Velocity P-wave (km/s) = 5.36063 8.07129 6.85135
#
# Compressibility (1/GPa) = 0.03295766
#
# Stress axis : x y z
#
# Youngs Moduli (GPa) = 125.92209 85.70502 57.81058
#
# Poissons Ratio (x) = 0.08811 0.14165
# Poissons Ratio (y) = 0.12946 -0.08693
# Poissons Ratio (z) = 0.30855 -0.12887
#
# Static dielectric constant tensor:
#      x y z
#    x 2.194780 -0.119310 0.169440 
#    y -0.119310 1.890390 -0.138640 
#    z 0.169440 -0.138640 2.070240 
# 
# From -- ./inp_files/4567.got.cif
#   From: 2010.05.17/outbox.cif.g08.bks.cpg/sg2_3_cif.got.tgz:4567.got - 2010.06.03 11:33:40.
