data_PCOD9020475
_publ_section_title
;
Structure prediction by ZEFSAII (Michael W. Deem and Ramdas Pophale) SiO2 
 PCOD9020475
Probable space group: P -1
;
_chemical_formula_sum "Si O2"
_cell_formula_units_Z 16
_cell_length_a 14.102352
_cell_length_b 9.571220
_cell_length_c 7.366850
_cell_angle_alpha 128.011146
_cell_angle_beta 123.035716
_cell_angle_gamma 64.869317
_cell_volume 650.798654
_symmetry_space_group_name_H-M "P -1"
_symmetry_group_IT_number 2
_symmetry_cell_setting 'triclinic'
loop_
_space_group_symop_operation_xyz
x,y,z
-x,-y,-z
loop_
_atom_site_type_symbol
_atom_site_label
_atom_site_fract_x
_atom_site_fract_y
_atom_site_fract_z
Si Si1 0.907951 0.174544 0.084596
Si Si2 0.287410 0.304584 0.698986
Si Si3 0.451665 0.255792 0.147085
Si Si4 0.675942 0.363534 0.537566
Si Si5 0.329914 0.707119 0.125936
Si Si6 0.070845 0.184715 0.567821
Si Si7 0.445882 0.172281 0.474550
Si Si8 0.917257 0.246541 0.754173
O O1 0.958827 0.240055 0.373050
O O2 0.773775 0.156084 0.957537
O O3 0.915151 0.290505 0.001307
O O4 0.000000 0.000000 0.000000
O O5 0.171614 0.255374 0.620947
O O6 0.322422 0.239073 0.481616
O O7 0.382235 0.211994 0.865875
O O8 0.295976 0.515031 0.885516
O O9 0.580805 0.287131 0.256564
O O10 0.383462 0.442705 0.304371
O O11 0.449934 0.141879 0.238408
O O12 0.684330 0.248584 0.639462
O O13 0.808046 0.353567 0.623656
O O14 0.466795 0.694042 0.253851
O O15 0.035901 0.263697 0.792119
O O16 0.094059 0.967833 0.438956
O O17 0.500000 0.000000 0.500000
#
# Coordination Sequence:
#
# PCOD9020475 Si02
#       8
#     2   2   2   2   2   2   2   2
#     4   9  19  36  63  83 119 163 195 248 295 343
#     4  11  24  40  61  90 128 155 199 255 294 366
#     4   9  20  39  58  91 118 157 192 244 306 355
#     4   8  16  36  67  81 118 160 198 239 300 359
#     4   9  20  41  62  89 123 161 200 245 305 355
#     4  10  22  36  56  89 119 156 205 241 297 352
#     4  11  25  40  64  93 120 157 203 247 302 366
#     4   9  19  38  58  84 117 157 200 252 289 352
#
# _framework density 24.585176000000001
#
# number of rings (size 3 to 8) (size 9 to 14) (size 15 to 20)
#    0.000    2.500    0.000    1.125    7.000    4.000 
#    4.500    5.625    0.000    0.000    0.000    0.000 
#    0.000    0.000    0.000    0.000    0.000    0.000 
#
# Total GULP energy -89204.068865 kJ/mol
# GULP energy per Si atom -5575.254304 kJ/mol
# Density = 2.452922 g / cm^3
# Si number density = 24.585176 Si / 1000 Ang^3
#
#
#
# Elastic Constant Matrix: (Units=GPa)
#
#
# Indices 1 2 3 4 5 6 
#
# 1 95.6456 10.1904 -16.7499 11.2970 1.0012 -16.7984
# 2 10.1904 70.1156 2.8482 -13.7356 7.6279 -15.6665
# 3 -16.7499 2.8482 21.1584 -9.2157 0.0137 -1.8905
# 4 11.2970 -13.7356 -9.2157 34.0954 -2.0897 5.2176
# 5 1.0012 7.6279 0.0137 -2.0897 34.5352 -3.1770
# 6 -16.7984 -15.6665 -1.8905 5.2176 -3.1770 25.7514
#
#
#
# Elastic Compliance Matrix: (Units=1/GPa)
#
#
# Indices 1 2 3 4 5 6 
#
# 1 0.014867 -0.001044 0.011153 -0.003944 0.000545 0.010748
# 2 -0.001044 0.017820 0.000199 0.006094 -0.002746 0.008601
# 3 0.011153 0.000199 0.062047 0.011742 0.001213 0.009722
# 4 -0.003944 0.006094 0.011742 0.037132 0.000508 -0.005464
# 5 0.000545 -0.002746 0.001213 0.000508 0.029793 0.002347
# 6 0.010748 0.008601 0.009722 -0.005464 0.002347 0.053187
#
#
# Mechanical properties :
#
#
# Convention : Reuss Voigt Hill
#
# Bulk Modulus (GPa) = 8.66926 19.94411 14.30669
# Shear Modulus (GPa) = 21.48860 31.58513 26.53686
#
# Velocity S-wave (km/s) = 2.95964 3.58819 3.28896
# Velocity P-wave (km/s) = 3.90040 5.02958 4.50054
#
# Compressibility (1/GPa) = 0.11535005
#
# Stress axis : x y z
#
# Youngs Moduli (GPa) = 67.26123 56.11589 16.11686
#
# Poissons Ratio (x) = 0.05859 -0.17974
# Poissons Ratio (y) = 0.07023 -0.00321
# Poissons Ratio (z) = -0.75013 -0.01119
#
# Static dielectric constant tensor:
#      x y z
#    x 0.133600 -0.420660 -1.167390 
#    y -0.420660 1.939870 -0.263380 
#    z -1.167390 -0.263380 1.228640 
# 
# From -- ./inp_files/304220.got.cif
#   From: 2010.05.17/outbox.cif.g08.bks.cpg/sg2_153_cif.got.tgz:304220.got - 2010.06.03 11:33:40.
