data_PCOD9020730
_publ_section_title
;
Structure prediction by ZEFSAII (Michael W. Deem and Ramdas Pophale) SiO2 
 PCOD9020730
Probable space group: P -1
;
_chemical_formula_sum "Si O2"
_cell_formula_units_Z 16
_cell_length_a 7.951893
_cell_length_b 14.152997
_cell_length_c 9.514024
_cell_angle_alpha 111.914745
_cell_angle_beta 94.511132
_cell_angle_gamma 53.860654
_cell_volume 787.799745
_symmetry_space_group_name_H-M "P -1"
_symmetry_group_IT_number 2
_symmetry_cell_setting 'triclinic'
loop_
_space_group_symop_operation_xyz
x,y,z
-x,-y,-z
loop_
_atom_site_type_symbol
_atom_site_label
_atom_site_fract_x
_atom_site_fract_y
_atom_site_fract_z
Si Si1 0.578918 0.180088 0.044193
Si Si2 0.148420 0.854540 0.694486
Si Si3 0.246691 0.600287 0.023511
Si Si4 0.950182 0.125891 0.834021
Si Si5 0.020201 0.630361 0.748466
Si Si6 0.183062 0.468344 0.161503
Si Si7 0.221348 0.093517 0.091738
Si Si8 0.268887 0.595465 0.473855
O O1 0.662760 0.181962 0.206096
O O2 0.371616 0.318646 0.067617
O O3 0.763082 0.151372 0.935083
O O4 0.582257 0.055592 0.957494
O O5 0.215064 0.734994 0.537975
O O6 0.960691 0.881085 0.798233
O O7 0.054770 0.990152 0.690532
O O8 0.152592 0.736769 0.164082
O O9 0.134621 0.543389 0.054879
O O10 0.500000 0.500000 0.000000
O O11 0.178821 0.626201 0.869087
O O12 0.133888 0.099707 0.934909
O O13 0.114403 0.602590 0.584818
O O14 0.982354 0.532994 0.754884
O O15 0.802316 0.776883 0.815958
O O16 0.259518 0.534659 0.298615
O O17 0.500000 0.500000 0.500000
#
# Coordination Sequence:
#
# PCOD9020730 Si02
#       8
#     2   2   2   2   2   2   2   2
#     4   9  14  27  48  79 101 130 165 213 259 300
#     4   8  14  28  50  74 100 130 172 216 248 290
#     4  11  20  35  55  78 102 137 179 211 251 308
#     4   8  14  28  50  74 100 130 172 216 248 290
#     4  10  22  37  50  76 109 139 165 213 267 307
#     4  12  22  31  51  81 112 135 167 212 263 308
#     4   7  14  27  50  70 101 130 166 210 258 302
#     4  11  20  35  55  78 102 137 179 211 251 308
#
# _framework density 20.309729999999998
#
# number of rings (size 3 to 8) (size 9 to 14) (size 15 to 20)
#    0.000    2.500    2.500    3.750    0.000    0.500 
#    0.000    0.625    0.000    0.000    0.000    1.750 
#    0.000    0.000    0.000    0.000    0.000    0.000 
#
# Total GULP energy -89127.263227 kJ/mol
# GULP energy per Si atom -5570.453952 kJ/mol
# Density = 2.026350 g / cm^3
# Si number density = 20.309730 Si / 1000 Ang^3
#
#
#
# Elastic Constant Matrix: (Units=GPa)
#
#
# Indices 1 2 3 4 5 6 
#
# 1 37.3440 16.3710 -2.8697 8.0479 -0.8481 20.6250
# 2 16.3710 135.4229 18.5753 30.0657 -1.0566 26.1768
# 3 -2.8697 18.5753 42.2289 12.1509 2.6897 2.8734
# 4 8.0479 30.0657 12.1509 30.5627 2.9469 2.0139
# 5 -0.8481 -1.0566 2.6897 2.9469 21.8080 3.9061
# 6 20.6250 26.1768 2.8734 2.0139 3.9061 39.0659
#
#
#
# Elastic Compliance Matrix: (Units=1/GPa)
#
#
# Indices 1 2 3 4 5 6 
#
# 1 0.043876 0.002001 0.007851 -0.015712 0.007439 -0.025016
# 2 0.002001 0.011445 -0.001389 -0.011045 0.003807 -0.008435
# 3 0.007851 -0.001389 0.028551 -0.011663 -0.000879 -0.004625
# 4 -0.015712 -0.011045 -0.011663 0.052293 -0.009425 0.014801
# 5 0.007439 0.003807 -0.000879 -0.009425 0.049662 -0.010893
# 6 -0.025016 -0.008435 -0.004625 0.014801 -0.010893 0.045123
#
#
# Mechanical properties :
#
#
# Convention : Reuss Voigt Hill
#
# Bulk Modulus (GPa) = 9.92083 31.01654 20.46868
# Shear Modulus (GPa) = 20.19196 30.48191 25.33694
#
# Velocity S-wave (km/s) = 3.15652 3.87829 3.53587
# Velocity P-wave (km/s) = 4.26382 5.94640 5.17397
#
# Compressibility (1/GPa) = 0.10079803
#
# Stress axis : x y z
#
# Youngs Moduli (GPa) = 22.79171 87.37380 35.02454
#
# Poissons Ratio (x) = -0.17484 -0.27497
# Poissons Ratio (y) = -0.04561 0.04864
# Poissons Ratio (z) = -0.17893 0.12135
#
# Static dielectric constant tensor:
#      x y z
#    x 1.817950 0.047130 -0.013330 
#    y 0.047130 1.773090 0.023490 
#    z -0.013330 0.023490 1.723090 
# 
# From -- ./inp_files/203113.got.cif
#   From: 2010.05.17/outbox.cif.g08.bks.cpg/sg2_102_cif.got.tgz:203113.got - 2010.06.03 11:33:40.
