data_PCOD9020452
_publ_section_title
;
Structure prediction by ZEFSAII (Michael W. Deem and Ramdas Pophale) SiO2 
 PCOD9020452
Probable space group: P -1
;
_chemical_formula_sum "Si O2"
_cell_formula_units_Z 16
_cell_length_a 13.640671
_cell_length_b 16.693376
_cell_length_c 8.199673
_cell_angle_alpha 43.469568
_cell_angle_beta 64.937085
_cell_angle_gamma 34.593656
_cell_volume 653.108014
_symmetry_space_group_name_H-M "P -1"
_symmetry_group_IT_number 2
_symmetry_cell_setting 'triclinic'
loop_
_space_group_symop_operation_xyz
x,y,z
-x,-y,-z
loop_
_atom_site_type_symbol
_atom_site_label
_atom_site_fract_x
_atom_site_fract_y
_atom_site_fract_z
Si Si1 0.311899 0.821389 0.608595
Si Si2 0.179975 0.538753 0.919671
Si Si3 0.145270 0.190817 0.604582
Si Si4 0.878563 0.961623 0.920516
Si Si5 0.268509 0.122307 0.289534
Si Si6 0.729283 0.649803 0.204818
Si Si7 0.703263 0.521734 0.720236
Si Si8 0.981121 0.109666 0.648923
O O1 0.527866 0.588629 0.769288
O O2 0.197553 0.934105 0.355387
O O3 0.340375 0.930869 0.481045
O O4 0.170630 0.897861 0.732085
O O5 0.262183 0.446857 0.176401
O O6 0.288298 0.395587 0.894281
O O7 0.965246 0.675451 0.865491
O O8 0.151466 0.702592 0.665513
O O9 0.284838 0.122631 0.473466
O O10 0.049341 0.156568 0.645015
O O11 0.962313 0.437475 0.393482
O O12 0.234623 0.048767 0.908909
O O13 0.875746 0.090255 0.821816
O O14 0.094032 0.718907 0.109933
O O15 0.339556 0.159084 0.066437
O O16 0.649539 0.651226 0.412950
#
# Coordination Sequence:
#
# PCOD9020452 Si02
#       8
#     2   2   2   2   2   2   2   2
#     4  10  22  36  53  84 116 140 189 232 267 337
#     4   9  18  37  57  83 114 146 183 239 275 323
#     4   8  17  32  59  85 106 144 187 232 276 332
#     4  11  19  37  59  81 112 150 183 230 284 326
#     4   9  17  38  57  81 111 147 186 231 279 330
#     4   9  19  35  60  83 113 146 190 230 277 336
#     4  11  22  37  56  85 115 149 187 228 278 332
#     4   9  18  36  59  80 112 148 186 229 278 332
#
# _framework density 24.498244
#
# number of rings (size 3 to 8) (size 9 to 14) (size 15 to 20)
#    0.000    3.000    2.500    2.250    0.000    1.500 
#    6.750    0.625    0.000    3.000    0.000    0.000 
#    0.000    0.000    0.000    0.000    0.000    0.000 
#
# Total GULP energy -89207.231979 kJ/mol
# GULP energy per Si atom -5575.451999 kJ/mol
# Density = 2.444248 g / cm^3
# Si number density = 24.498244 Si / 1000 Ang^3
#
#
#
# Elastic Constant Matrix: (Units=GPa)
#
#
# Indices 1 2 3 4 5 6 
#
# 1 8.4576 17.3716 44.9777 8.6943 -13.8786 -6.7999
# 2 17.3716 60.5534 21.3638 16.4491 11.0413 -5.2324
# 3 44.9777 21.3638 43.3580 22.5904 -4.2627 -4.4010
# 4 8.6943 16.4491 22.5904 33.0735 -5.9734 1.9226
# 5 -13.8786 11.0413 -4.2627 -5.9734 36.9944 7.2196
# 6 -6.7999 -5.2324 -4.4010 1.9226 7.2196 24.9095
#
#
#
# Elastic Compliance Matrix: (Units=1/GPa)
#
#
# Indices 1 2 3 4 5 6 
#
# 1 -0.018713 0.002123 0.026034 -0.015530 -0.007826 0.003404
# 2 0.002123 0.024200 -0.010288 -0.007866 -0.010335 0.007448
# 3 0.026034 -0.010288 0.003664 -0.002095 0.012506 0.002130
# 4 -0.015530 -0.007866 -0.002095 0.041210 0.005063 -0.010910
# 5 -0.007826 -0.010335 0.012506 0.005063 0.031718 -0.011682
# 6 0.003404 0.007448 0.002130 -0.010910 -0.011682 0.047243
#
#
# Mechanical properties :
#
#
# Convention : Reuss Voigt Hill
#
# Bulk Modulus (GPa) = 22.27767 31.08835 26.68301
# Shear Modulus (GPa) = 46.06300 20.90589 33.48444
#
# Velocity S-wave (km/s) = 4.34090 2.92441 3.70105
# Velocity P-wave (km/s) = 5.85131 4.91126 5.40177
#
# Compressibility (1/GPa) = 0.04488800
#
# Stress axis : x y z
#
# Youngs Moduli (GPa) = -53.43779 41.32237 272.92236
#
# Poissons Ratio (x) = -0.08775 -7.10518
# Poissons Ratio (y) = 0.11347 2.80796
# Poissons Ratio (z) = 1.39118 0.42514
#
# Static dielectric constant tensor:
#      x y z
#    x 2.024230 0.027820 0.055130 
#    y 0.027820 1.987580 0.072140 
#    z 0.055130 0.072140 2.092960 
# 
# From -- ./inp_files/337092.got.cif
#   From: 2010.05.17/outbox.cif.g08.bks.cpg/sg2_169_cif.got.tgz:337092.got - 2010.06.03 11:33:40.
