data_PCOD9020212
_publ_section_title
;
Structure prediction by ZEFSAII (Michael W. Deem and Ramdas Pophale) SiO2 
 PCOD9020212
Probable space group: P -1
;
_chemical_formula_sum "Si O2"
_cell_formula_units_Z 14
_cell_length_a 17.453323
_cell_length_b 5.230199
_cell_length_c 8.575961
_cell_angle_alpha 114.111141
_cell_angle_beta 56.437376
_cell_angle_gamma 86.594068
_cell_volume 551.960626
_symmetry_space_group_name_H-M "P -1"
_symmetry_group_IT_number 2
_symmetry_cell_setting 'triclinic'
loop_
_space_group_symop_operation_xyz
x,y,z
-x,-y,-z
loop_
_atom_site_type_symbol
_atom_site_label
_atom_site_fract_x
_atom_site_fract_y
_atom_site_fract_z
Si Si1 0.764507 0.941669 0.842787
Si Si2 0.899501 0.073956 0.950031
Si Si3 0.788982 0.634985 0.447083
Si Si4 0.607910 0.568750 0.521537
Si Si5 0.914658 0.826169 0.166791
Si Si6 0.441458 0.564561 0.917220
Si Si7 0.636895 0.875786 0.244640
O O1 0.838415 0.089206 0.868456
O O2 0.821139 0.674402 0.593535
O O3 0.671672 0.191988 0.915876
O O4 0.721255 0.808994 0.001113
O O5 0.017240 0.998442 0.800328
O O6 0.845818 0.351886 0.200080
O O7 0.888527 0.823481 0.014235
O O8 0.680727 0.629034 0.578286
O O9 0.814725 0.891465 0.389937
O O10 0.501611 0.679942 0.751432
O O11 0.639713 0.704084 0.363735
O O12 0.623051 0.220849 0.384530
O O13 0.000000 0.500000 0.000000
O O14 0.441942 0.240397 0.779671
O O15 0.500000 0.500000 0.000000
#
# Coordination Sequence:
#
# PCOD9020212 Si02
#       7
#     2   2   2   2   2   2   2
#     4  12  27  46  74 111 153 200 255 315 376 450
#     4  10  21  47  71 108 146 194 245 312 375 463
#     4  11  24  43  72 112 144 198 243 316 378 446
#     4  12  27  47  79 103 152 204 260 313 379 447
#     4   9  21  43  78 103 146 191 246 303 387 457
#     4  12  29  48  70 111 155 201 263 316 372 447
#     4  12  25  49  72 105 141 206 258 312 379 443
#
# _framework density 25.364128999999998
#
# number of rings (size 3 to 8) (size 9 to 14) (size 15 to 20)
#    0.000    0.857    2.857    2.571    4.000    4.000 
#    2.571    6.429    0.000    0.000    0.000    0.000 
#    0.000    0.000    0.000    0.000    0.000    0.000 
#
# Total GULP energy -77963.307955 kJ/mol
# GULP energy per Si atom -5568.807711 kJ/mol
# Density = 2.530640 g / cm^3
# Si number density = 25.364129 Si / 1000 Ang^3
#
#
#
# Elastic Constant Matrix: (Units=GPa)
#
#
# Indices 1 2 3 4 5 6 
#
# 1 197.5928 40.8340 50.7752 5.4109 14.5266 7.1922
# 2 40.8340 121.8073 29.7723 -10.7907 7.4338 -3.3967
# 3 50.7752 29.7723 61.7422 9.7196 20.3772 16.1729
# 4 5.4109 -10.7907 9.7196 24.8474 6.4301 -7.0667
# 5 14.5266 7.4338 20.3772 6.4301 45.9805 -12.4348
# 6 7.1922 -3.3967 16.1729 -7.0667 -12.4348 36.9951
#
#
#
# Elastic Compliance Matrix: (Units=1/GPa)
#
#
# Indices 1 2 3 4 5 6 
#
# 1 0.006590 -0.000650 -0.006109 0.000920 0.001110 0.001879
# 2 -0.000650 0.012134 -0.010976 0.011369 0.004112 0.009593
# 3 -0.006109 -0.010976 0.046066 -0.024912 -0.021902 -0.032079
# 4 0.000920 0.011369 -0.024912 0.060118 0.007468 0.025749
# 5 0.001110 0.004112 -0.021902 0.007468 0.035655 0.023147
# 6 0.001879 0.009593 -0.032079 0.025749 0.023147 0.054269
#
#
# Mechanical properties :
#
#
# Convention : Reuss Voigt Hill
#
# Bulk Modulus (GPa) = 34.10712 69.32282 51.71497
# Shear Modulus (GPa) = 19.22516 38.88199 29.05357
#
# Velocity S-wave (km/s) = 2.75611 3.91954 3.38813
# Velocity P-wave (km/s) = 4.85843 6.91911 5.97823
#
# Compressibility (1/GPa) = 0.02931939
#
# Stress axis : x y z
#
# Youngs Moduli (GPa) = 151.74691 82.41257 21.70785
#
# Poissons Ratio (x) = 0.05355 0.13262
# Poissons Ratio (y) = 0.09861 0.23827
# Poissons Ratio (z) = 0.92706 0.90459
#
# Static dielectric constant tensor:
#      x y z
#    x 2.053280 0.109960 -0.044350 
#    y 0.109960 2.411860 -0.012690 
#    z -0.044350 -0.012690 2.058940 
# 
# From -- ./inp_files/322871.got.cif
#   From: 2010.05.17/outbox.cif.g08.bks.cpg/sg2_162_cif.got.tgz:322871.got - 2010.06.03 11:33:40.
