data_PCOD9020301
_publ_section_title
;
Structure prediction by ZEFSAII (Michael W. Deem and Ramdas Pophale) SiO2 
 PCOD9020301
Probable space group: P -1
;
_chemical_formula_sum "Si O2"
_cell_formula_units_Z 15
_cell_length_a 15.791364
_cell_length_b 5.060430
_cell_length_c 10.748343
_cell_angle_alpha 68.525630
_cell_angle_beta 53.317696
_cell_angle_gamma 67.569875
_cell_volume 625.546416
_symmetry_space_group_name_H-M "P -1"
_symmetry_group_IT_number 2
_symmetry_cell_setting 'triclinic'
loop_
_space_group_symop_operation_xyz
x,y,z
-x,-y,-z
loop_
_atom_site_type_symbol
_atom_site_label
_atom_site_fract_x
_atom_site_fract_y
_atom_site_fract_z
Si Si1 0.646149 0.479122 0.781518
Si Si2 0.875768 0.490017 0.114321
Si Si3 0.753279 0.098798 0.152414
Si Si4 0.770376 0.701728 0.415437
Si Si5 0.672438 0.655706 0.983320
Si Si6 0.949093 0.814483 0.427235
Si Si7 0.153434 0.999374 0.258664
Si Si8 0.500000 0.000000 0.000000
O O1 0.689593 0.608456 0.599527
O O2 0.611644 0.708540 0.887181
O O3 0.752626 0.285562 0.788536
O O4 0.565797 0.276188 0.858012
O O5 0.850440 0.239981 0.093361
O O6 0.828562 0.472294 0.298639
O O7 0.803864 0.807130 0.082827
O O8 0.000000 0.500000 0.000000
O O9 0.710756 0.973615 0.336508
O O10 0.679223 0.356042 0.097705
O O11 0.869981 0.773330 0.394013
O O12 0.788765 0.733115 0.853559
O O13 0.583122 0.918441 0.070084
O O14 0.882218 0.995190 0.566620
O O15 0.000000 0.500000 0.500000
O O16 0.048097 0.965494 0.281530
#
# Coordination Sequence:
#
# PCOD9020301 Si02
#       8
#     2   2   2   2   2   2   2   1
#     4  11  22  45  65 104 127 176 228 299 354 418
#     4  10  24  45  63  99 144 200 237 271 332 415
#     4  10  26  42  69  95 144 188 230 290 344 415
#     4  10  24  39  67  96 144 186 234 286 339 406
#     4  11  23  46  66 101 131 180 228 297 360 423
#     4  11  20  37  53 102 130 182 224 279 328 403
#     4  10  22  33  65  92 142 171 229 283 341 405
#     4  10  26  40  80  96 134 166 234 298 376 428
#
# _framework density 23.979032
#
# number of rings (size 3 to 8) (size 9 to 14) (size 15 to 20)
#    0.800    0.800    2.667    0.800    5.600    3.200 
#    0.000    0.667    0.000    2.400    0.000    0.000 
#    0.000    0.000    0.000    0.000    0.000    0.000 
#
# Total GULP energy -83644.351536 kJ/mol
# GULP energy per Si atom -5576.290102 kJ/mol
# Density = 2.392445 g / cm^3
# Si number density = 23.979032 Si / 1000 Ang^3
#
#
#
# Elastic Constant Matrix: (Units=GPa)
#
#
# Indices 1 2 3 4 5 6 
#
# 1 87.8023 22.4632 72.7281 -9.2221 -15.2264 7.1075
# 2 22.4632 92.5640 45.2164 -13.5297 -0.6150 -4.1362
# 3 72.7281 45.2164 166.3940 -24.6230 -4.0600 -5.4976
# 4 -9.2221 -13.5297 -24.6230 44.7959 -0.0579 6.6538
# 5 -15.2264 -0.6150 -4.0600 -0.0579 41.6916 -10.4031
# 6 7.1075 -4.1362 -5.4976 6.6538 -10.4031 52.2121
#
#
#
# Elastic Compliance Matrix: (Units=1/GPa)
#
#
# Indices 1 2 3 4 5 6 
#
# 1 0.019699 -0.000815 -0.008393 -0.000436 0.005759 -0.002427
# 2 -0.000815 0.012678 -0.002773 0.002061 -0.000250 0.000511
# 3 -0.008393 -0.002773 0.010912 0.003235 -0.001710 0.001319
# 4 -0.000436 0.002061 0.003235 0.025037 -0.000457 -0.002719
# 5 0.005759 -0.000250 -0.001710 -0.000457 0.027031 0.004460
# 6 -0.002427 0.000511 0.001319 -0.002719 0.004460 0.020898
#
#
# Mechanical properties :
#
#
# Convention : Reuss Voigt Hill
#
# Bulk Modulus (GPa) = 51.73926 69.73064 60.73495
# Shear Modulus (GPa) = 34.09249 41.49676 37.79462
#
# Velocity S-wave (km/s) = 3.77472 4.16449 3.97439
# Velocity P-wave (km/s) = 6.37352 7.22959 6.81501
#
# Compressibility (1/GPa) = 0.01932768
#
# Stress axis : x y z
#
# Youngs Moduli (GPa) = 50.76412 78.87564 91.63864
#
# Poissons Ratio (x) = 0.06425 0.76912
# Poissons Ratio (y) = 0.04135 0.25415
# Poissons Ratio (z) = 0.42606 0.21876
#
# Static dielectric constant tensor:
#      x y z
#    x 1.941230 -0.000280 0.069580 
#    y -0.000280 2.153470 0.044170 
#    z 0.069580 0.044170 1.929820 
# 
# From -- ./inp_files/459011.got.cif
#   From: 2010.05.17/outbox.cif.g08.bks.cpg/sg2_230_cif.got.tgz:459011.got - 2010.06.03 11:33:40.
