data_PCOD9020445
_publ_section_title
;
Structure prediction by ZEFSAII (Michael W. Deem and Ramdas Pophale) SiO2 
 PCOD9020445
Probable space group: P -1
;
_chemical_formula_sum "Si O2"
_cell_formula_units_Z 14
_cell_length_a 16.964138
_cell_length_b 12.014582
_cell_length_c 5.526616
_cell_angle_alpha 71.091208
_cell_angle_beta 52.641053
_cell_angle_gamma 46.488100
_cell_volume 640.683352
_symmetry_space_group_name_H-M "P -1"
_symmetry_group_IT_number 2
_symmetry_cell_setting 'triclinic'
loop_
_space_group_symop_operation_xyz
x,y,z
-x,-y,-z
loop_
_atom_site_type_symbol
_atom_site_label
_atom_site_fract_x
_atom_site_fract_y
_atom_site_fract_z
Si Si1 0.868598 0.029538 0.274342
Si Si2 0.727244 0.441525 0.850031
Si Si3 0.458569 0.226340 0.909369
Si Si4 0.383575 0.075832 0.853264
Si Si5 0.746634 0.365950 0.374195
Si Si6 0.443269 0.664577 0.727372
Si Si7 0.219671 0.004255 0.051025
O O1 0.767920 0.213711 0.384251
O O2 0.867644 0.958916 0.577492
O O3 0.835818 0.985643 0.118177
O O4 0.000000 0.000000 0.000000
O O5 0.812149 0.348344 0.520752
O O6 0.641378 0.625107 0.840956
O O7 0.791482 0.400112 0.025998
O O8 0.634557 0.397962 0.094763
O O9 0.371811 0.210698 0.906798
O O10 0.533652 0.268991 0.592807
O O11 0.562940 0.058966 0.953845
O O12 0.500000 0.000000 0.500000
O O13 0.264015 0.104835 0.923471
O O14 0.593323 0.512296 0.609099
O O15 0.352770 0.819874 0.949730
#
# Coordination Sequence:
#
# PCOD9020445 Si02
#       7
#     2   2   2   2   2   2   2
#     4  12  26  43  61  89 125 170 216 257 311 372
#     4  11  22  33  58  91 124 159 198 246 322 377
#     4  10  22  36  51  88 140 165 202 241 299 406
#     4  11  23  36  57  88 134 179 204 240 307 395
#     4  11  21  35  56  90 122 156 189 258 316 378
#     4  11  20  35  60  94 127 154 197 251 336 374
#     4  12  24  39  64  90 129 166 203 261 311 375
#
# _framework density 21.851669999999999
#
# number of rings (size 3 to 8) (size 9 to 14) (size 15 to 20)
#    0.000    0.857    4.286    4.286    6.000    0.000 
#    0.000    0.000    0.000    0.000    0.000   14.000 
#    0.000    0.000    0.000    0.000    0.000    0.000 
#
# Total GULP energy -78111.415596 kJ/mol
# GULP energy per Si atom -5579.386828 kJ/mol
# Density = 2.180193 g / cm^3
# Si number density = 21.851670 Si / 1000 Ang^3
#
#
#
# Elastic Constant Matrix: (Units=GPa)
#
#
# Indices 1 2 3 4 5 6 
#
# 1 126.2417 21.0986 51.8059 16.1111 26.2083 34.0933
# 2 21.0986 49.6501 3.2652 -4.6947 5.3298 23.2089
# 3 51.8059 3.2652 115.0849 -2.2677 27.6113 1.0341
# 4 16.1111 -4.6947 -2.2677 16.4465 1.0128 12.2977
# 5 26.2083 5.3298 27.6113 1.0128 39.9063 0.3731
# 6 34.0933 23.2089 1.0341 12.2977 0.3731 34.9739
#
#
#
# Elastic Compliance Matrix: (Units=1/GPa)
#
#
# Indices 1 2 3 4 5 6 
#
# 1 0.015837 -0.000454 -0.005662 -0.006650 -0.006136 -0.012566
# 2 -0.000454 0.051289 0.002540 0.055768 -0.009227 -0.053180
# 3 -0.005662 0.002540 0.012650 0.007771 -0.005578 0.000787
# 4 -0.006650 0.055768 0.007771 0.146412 -0.011405 -0.082116
# 5 -0.006136 -0.009227 -0.005578 -0.011405 0.034321 0.015914
# 6 -0.012566 -0.053180 0.000787 -0.082116 0.015914 0.104814
#
#
# Mechanical properties :
#
#
# Convention : Reuss Voigt Hill
#
# Bulk Modulus (GPa) = 13.76948 49.25737 31.51342
# Shear Modulus (GPa) = 12.60449 32.58582 22.59515
#
# Velocity S-wave (km/s) = 2.40431 3.86583 3.21911
# Velocity P-wave (km/s) = 3.74468 6.52049 5.31693
#
# Compressibility (1/GPa) = 0.07262441
#
# Stress axis : x y z
#
# Youngs Moduli (GPa) = 63.14378 19.49718 79.04951
#
# Poissons Ratio (x) = 0.00885 0.44758
# Poissons Ratio (y) = 0.02865 -0.20076
# Poissons Ratio (z) = 0.35752 -0.04952
#
# Static dielectric constant tensor:
#      x y z
#    x 1.940310 -0.067260 0.095680 
#    y -0.067260 1.872430 -0.000450 
#    z 0.095680 -0.000450 1.870210 
# 
# From -- ./inp_files/109627.got.cif
#   From: 2010.05.17/outbox.cif.g08.bks.cpg/sg2_55_cif.got.tgz:109627.got - 2010.06.03 11:33:40.
