data_PCOD9020180
_publ_section_title
;
Structure prediction by ZEFSAII (Michael W. Deem and Ramdas Pophale) SiO2 
 PCOD9020180
Probable space group: P -1
;
_chemical_formula_sum "Si O2"
_cell_formula_units_Z 16
_cell_length_a 9.437261
_cell_length_b 10.053347
_cell_length_c 11.100229
_cell_angle_alpha 102.368208
_cell_angle_beta 142.007005
_cell_angle_gamma 90.913331
_cell_volume 602.603958
_symmetry_space_group_name_H-M "P -1"
_symmetry_group_IT_number 2
_symmetry_cell_setting 'triclinic'
loop_
_space_group_symop_operation_xyz
x,y,z
-x,-y,-z
loop_
_atom_site_type_symbol
_atom_site_label
_atom_site_fract_x
_atom_site_fract_y
_atom_site_fract_z
Si Si1 0.149846 0.594274 0.509622
Si Si2 0.695874 0.107746 0.067204
Si Si3 0.495459 0.345584 0.926434
Si Si4 0.501753 0.565655 0.327844
Si Si5 0.805781 0.954842 0.643367
Si Si6 0.027020 0.860673 0.424991
Si Si7 0.291535 0.871292 0.186354
Si Si8 0.892037 0.581610 0.780652
O O1 0.412382 0.572462 0.677748
O O2 0.153930 0.756936 0.554979
O O3 0.038428 0.525408 0.290260
O O4 0.000000 0.500000 0.500000
O O5 0.683359 0.269825 0.089678
O O6 0.611348 0.063065 0.865115
O O7 0.971057 0.102717 0.254433
O O8 0.500000 0.000000 0.000000
O O9 0.492651 0.356103 0.780720
O O10 0.245445 0.239803 0.785331
O O11 0.500000 0.500000 0.000000
O O12 0.525952 0.863250 0.417003
O O13 0.254354 0.510645 0.224632
O O14 0.704181 0.633031 0.579674
O O15 0.850880 0.090431 0.610603
O O16 0.818634 0.021733 0.795871
O O17 0.000000 0.000000 0.500000
O O18 0.088487 0.721208 0.992005
#
# Coordination Sequence:
#
# PCOD9020180 Si02
#       8
#     2   2   2   2   2   2   2   2
#     4  10  21  46  82 121 168 218 280 358 428 505
#     4  12  28  54  85 125 171 231 292 363 439 519
#     4  12  28  49  83 133 174 230 293 371 437 517
#     4   9  22  48  81 128 176 218 288 365 433 511
#     4  11  28  55  83 127 182 229 288 355 443 534
#     4  12  26  49  76 122 173 224 280 353 438 512
#     4  11  27  54  86 126 177 235 287 358 439 532
#     4   9  22  48  85 129 170 228 289 361 438 512
#
# _framework density 26.551435000000001
#
# number of rings (size 3 to 8) (size 9 to 14) (size 15 to 20)
#    0.750    0.500    2.500    1.125    3.500    5.000 
#    9.000    1.250    0.000    0.750    6.500    0.000 
#    0.000    0.000    0.000    0.000    0.000    0.000 
#
# Total GULP energy -89575.916843 kJ/mol
# GULP energy per Si atom -5598.494803 kJ/mol
# Density = 2.649100 g / cm^3
# Si number density = 26.551435 Si / 1000 Ang^3
#
#
#
# Elastic Constant Matrix: (Units=GPa)
#
#
# Indices 1 2 3 4 5 6 
#
# 1 169.7941 60.6768 47.3826 13.3474 -4.9181 -9.0967
# 2 60.6768 165.5918 65.1233 -0.2782 4.9667 -18.9227
# 3 47.3826 65.1233 161.1553 7.1644 15.0820 -10.9104
# 4 13.3474 -0.2782 7.1644 67.7344 -3.2101 2.1783
# 5 -4.9181 4.9667 15.0820 -3.2101 49.8829 -4.0306
# 6 -9.0967 -18.9227 -10.9104 2.1783 -4.0306 48.3722
#
#
#
# Elastic Compliance Matrix: (Units=1/GPa)
#
#
# Indices 1 2 3 4 5 6 
#
# 1 0.007158 -0.002112 -0.001288 -0.001236 0.001257 0.000390
# 2 -0.002112 0.008048 -0.002511 0.000644 -0.000035 0.002153
# 3 -0.001288 -0.002511 0.007869 -0.000709 -0.002270 0.000393
# 4 -0.001236 0.000644 -0.000709 0.015153 0.000943 -0.000744
# 5 0.001257 -0.000035 -0.002270 0.000943 0.021036 0.001421
# 6 0.000390 0.002153 0.000393 -0.000744 0.001421 0.021829
#
#
# Mechanical properties :
#
#
# Convention : Reuss Voigt Hill
#
# Bulk Modulus (GPa) = 88.85121 93.65627 91.25374
# Shear Modulus (GPa) = 51.72423 54.75513 53.23968
#
# Velocity S-wave (km/s) = 4.41849 4.54610 4.48275
# Velocity P-wave (km/s) = 7.71798 7.93134 7.82539
#
# Compressibility (1/GPa) = 0.01125477
#
# Stress axis : x y z
#
# Youngs Moduli (GPa) = 139.70644 124.24767 127.07955
#
# Poissons Ratio (x) = 0.26237 0.16362
# Poissons Ratio (y) = 0.29501 0.31911
# Poissons Ratio (z) = 0.17987 0.31200
#
# Static dielectric constant tensor:
#      x y z
#    x 2.063490 -0.064090 -0.012400 
#    y -0.064090 2.096320 0.009430 
#    z -0.012400 0.009430 2.143900 
# 
# From -- ./inp_files/382786.got.cif
#   From: 2010.05.17/outbox.cif.g08.bks.cpg/sg2_192_cif.got.tgz:382786.got - 2010.06.03 11:33:40.
