data_PCOD9020927
_publ_section_title
;
Structure prediction by ZEFSAII (Michael W. Deem and Ramdas Pophale) SiO2 
 PCOD9020927
Probable space group: P -1
;
_chemical_formula_sum "Si O2"
_cell_formula_units_Z 16
_cell_length_a 19.541298
_cell_length_b 8.656177
_cell_length_c 9.453150
_cell_angle_alpha 105.193880
_cell_angle_beta 75.794505
_cell_angle_gamma 151.178021
_cell_volume 743.500681
_symmetry_space_group_name_H-M "P -1"
_symmetry_group_IT_number 2
_symmetry_cell_setting 'triclinic'
loop_
_space_group_symop_operation_xyz
x,y,z
-x,-y,-z
loop_
_atom_site_type_symbol
_atom_site_label
_atom_site_fract_x
_atom_site_fract_y
_atom_site_fract_z
Si Si1 0.929731 0.704326 0.027391
Si Si2 0.761524 0.187518 0.752521
Si Si3 0.412455 0.708770 0.078692
Si Si4 0.791061 0.531179 0.638287
Si Si5 0.897504 0.700506 0.341371
Si Si6 0.984015 0.514622 0.347438
Si Si7 0.187978 0.001801 0.924870
Si Si8 0.615821 0.857791 0.002094
O O1 0.843844 0.574016 0.179946
O O2 0.833503 0.450348 0.890744
O O3 0.000000 0.000000 0.000000
O O4 0.051830 0.814860 0.023856
O O5 0.764015 0.290797 0.631999
O O6 0.856610 0.216952 0.717842
O O7 0.618291 0.879548 0.835131
O O8 0.313539 0.585293 0.225918
O O9 0.544430 0.868999 0.113445
O O10 0.307433 0.377708 0.967014
O O11 0.500000 0.000000 0.000000
O O12 0.785516 0.547316 0.475525
O O13 0.958075 0.909938 0.662368
O O14 0.946346 0.623210 0.358144
O O15 0.000000 0.500000 0.500000
O O16 0.874223 0.180929 0.239127
O O17 0.244308 0.951826 0.960589
O O18 0.500000 0.500000 0.000000
#
# Coordination Sequence:
#
# PCOD9020927 Si02
#       8
#     2   2   2   2   2   2   2   2
#     4  11  20  35  64  95 129 161 211 280 332 386
#     4  11  20  37  60  93 122 166 221 262 333 390
#     4  11  21  40  66  94 128 179 227 266 315 393
#     4  11  22  37  59  96 129 169 214 265 327 393
#     4  11  22  38  60  94 137 163 207 271 346 391
#     4  11  23  39  65  94 131 173 206 273 344 396
#     4  10  22  40  60 100 128 161 229 269 326 391
#     4  10  22  37  62  91 126 173 221 274 312 375
#
# _framework density 21.519818999999998
#
# number of rings (size 3 to 8) (size 9 to 14) (size 15 to 20)
#    0.000    1.250    5.000    1.500    1.750    2.000 
#    0.000    0.000    0.000   11.250    0.000    0.000 
#    0.000    0.000    0.000    0.000    0.000    0.000 
#
# Total GULP energy -89068.720044 kJ/mol
# GULP energy per Si atom -5566.795003 kJ/mol
# Density = 2.147084 g / cm^3
# Si number density = 21.519819 Si / 1000 Ang^3
#
#
#
# Elastic Constant Matrix: (Units=GPa)
#
#
# Indices 1 2 3 4 5 6 
#
# 1 98.2385 18.3809 26.3198 -17.7848 -10.5415 4.3938
# 2 18.3809 107.1646 26.4752 -25.6051 -7.0290 -4.5545
# 3 26.3198 26.4752 109.0056 -31.3001 -6.6546 9.7534
# 4 -17.7848 -25.6051 -31.3001 41.4523 2.3610 -1.7535
# 5 -10.5415 -7.0290 -6.6546 2.3610 29.0692 -4.9106
# 6 4.3938 -4.5545 9.7534 -1.7535 -4.9106 31.3400
#
#
#
# Elastic Compliance Matrix: (Units=1/GPa)
#
#
# Indices 1 2 3 4 5 6 
#
# 1 0.011676 -0.000660 -0.001459 0.003284 0.003378 -0.000566
# 2 -0.000660 0.011386 -0.000995 0.005986 0.002264 0.002746
# 3 -0.001459 -0.000995 0.012384 0.007925 0.000879 -0.003213
# 4 0.003284 0.005986 0.007925 0.035129 0.001627 0.000164
# 5 0.003378 0.002264 0.000879 0.001627 0.037171 0.005497
# 6 -0.000566 0.002746 -0.003213 0.000164 0.005497 0.034257
#
#
# Mechanical properties :
#
#
# Convention : Reuss Voigt Hill
#
# Bulk Modulus (GPa) = 34.22501 50.75116 42.48808
# Shear Modulus (GPa) = 31.65155 36.58785 34.11970
#
# Velocity S-wave (km/s) = 3.83927 4.12781 3.98616
# Velocity P-wave (km/s) = 5.96589 6.80831 6.40097
#
# Compressibility (1/GPa) = 0.02921840
#
# Stress axis : x y z
#
# Youngs Moduli (GPa) = 85.64576 87.82833 80.74626
#
# Poissons Ratio (x) = 0.05797 0.11782
# Poissons Ratio (y) = 0.05653 0.08032
# Poissons Ratio (z) = 0.12497 0.08736
#
# Static dielectric constant tensor:
#      x y z
#    x 1.880900 -0.044310 -0.009390 
#    y -0.044310 1.874690 -0.003170 
#    z -0.009390 -0.003170 1.860590 
# 
# From -- ./inp_files/343651.got.cif
#   From: 2010.05.17/outbox.cif.g08.bks.cpg/sg2_172_cif.got.tgz:343651.got - 2010.06.03 11:33:40.
