data_PCOD9020120
_publ_section_title
;
Structure prediction by ZEFSAII (Michael W. Deem and Ramdas Pophale) SiO2 
 PCOD9020120
Probable space group: P -1
;
_chemical_formula_sum "Si O2"
_cell_formula_units_Z 14
_cell_length_a 15.082736
_cell_length_b 8.213354
_cell_length_c 17.894366
_cell_angle_alpha 124.716713
_cell_angle_beta 160.591159
_cell_angle_gamma 53.431643
_cell_volume 591.391330
_symmetry_space_group_name_H-M "P -1"
_symmetry_group_IT_number 2
_symmetry_cell_setting 'triclinic'
loop_
_space_group_symop_operation_xyz
x,y,z
-x,-y,-z
loop_
_atom_site_type_symbol
_atom_site_label
_atom_site_fract_x
_atom_site_fract_y
_atom_site_fract_z
Si Si1 0.754447 0.444289 0.337546
Si Si2 0.810178 0.594805 0.115266
Si Si3 0.298045 0.550845 0.255071
Si Si4 0.594751 0.814480 0.846579
Si Si5 0.986431 0.012666 0.592448
Si Si6 0.135384 0.919573 0.312659
Si Si7 0.317590 0.301635 0.499998
O O1 0.734391 0.564761 0.430946
O O2 0.000000 0.500000 0.500000
O O3 0.830952 0.201162 0.340240
O O4 0.442749 0.483758 0.069956
O O5 0.080111 0.417098 0.285384
O O6 0.715418 0.676428 0.977848
O O7 0.880258 0.792692 0.262241
O O8 0.471324 0.333119 0.309624
O O9 0.391253 0.691637 0.302367
O O10 0.294101 0.688329 0.361241
O O11 0.000000 0.500000 0.000000
O O12 0.308481 0.961188 0.673432
O O13 0.831897 0.926266 0.040200
O O14 0.924653 0.013960 0.632451
O O15 0.282925 0.078577 0.432893
#
# Coordination Sequence:
#
# PCOD9020120 Si02
#       7
#     2   2   2   2   2   2   2
#     4  12  26  43  68 100 140 173 223 278 334 399
#     4  11  24  43  69  98 138 175 226 271 335 400
#     4  10  21  46  71  96 133 177 227 279 325 397
#     4  10  22  45  67 101 132 173 231 273 325 405
#     4  11  23  45  68  98 130 183 223 275 329 398
#     4  10  24  40  70  98 135 173 225 273 338 392
#     4  12  24  45  67 104 137 174 220 282 335 396
#
# _framework density 23.672986999999999
#
# number of rings (size 3 to 8) (size 9 to 14) (size 15 to 20)
#    0.000    1.143    4.286    0.857    2.000    5.714 
#    5.143    0.714    0.000    0.000    0.000    0.000 
#    0.000    0.000    0.000    0.000    0.000    0.000 
#
# Total GULP energy -78188.501520 kJ/mol
# GULP energy per Si atom -5584.892966 kJ/mol
# Density = 2.361911 g / cm^3
# Si number density = 23.672987 Si / 1000 Ang^3
#
#
#
# Elastic Constant Matrix: (Units=GPa)
#
#
# Indices 1 2 3 4 5 6 
#
# 1 115.6390 12.0391 39.5997 24.8726 17.5401 -13.4489
# 2 12.0391 97.3444 27.1495 16.5093 -5.4252 -16.1174
# 3 39.5997 27.1495 103.7606 18.3496 28.0936 17.9552
# 4 24.8726 16.5093 18.3496 36.7424 7.2153 8.7754
# 5 17.5401 -5.4252 28.0936 7.2153 46.9926 15.2793
# 6 -13.4489 -16.1174 17.9552 8.7754 15.2793 34.8256
#
#
#
# Elastic Compliance Matrix: (Units=1/GPa)
#
#
# Indices 1 2 3 4 5 6 
#
# 1 0.015893 0.004551 -0.006610 -0.012579 -0.005066 0.017043
# 2 0.004551 0.015954 -0.006905 -0.010566 0.001048 0.014904
# 3 -0.006610 -0.006905 0.016955 0.003188 -0.004646 -0.013255
# 4 -0.012579 -0.010566 0.003188 0.044031 0.002473 -0.023571
# 5 -0.005066 0.001048 -0.004646 0.002473 0.029850 -0.012795
# 6 0.017043 0.014904 -0.013255 -0.023571 -0.012795 0.060581
#
#
# Mechanical properties :
#
#
# Convention : Reuss Voigt Hill
#
# Bulk Modulus (GPa) = 32.39042 52.70227 42.54635
# Shear Modulus (GPa) = 23.64259 39.57584 31.60921
#
# Velocity S-wave (km/s) = 3.16367 4.09317 3.65806
# Velocity P-wave (km/s) = 5.20166 6.68204 5.98777
#
# Compressibility (1/GPa) = 0.03087332
#
# Stress axis : x y z
#
# Youngs Moduli (GPa) = 62.91985 62.68079 58.98065
#
# Poissons Ratio (x) = -0.28524 0.38983
# Poissons Ratio (y) = -0.28633 0.40728
# Poissons Ratio (z) = 0.41587 0.43283
#
# Static dielectric constant tensor:
#      x y z
#    x 1.962340 0.007010 -0.009510 
#    y 0.007010 1.873750 0.003220 
#    z -0.009510 0.003220 1.916530 
# 
# From -- ./inp_files/68850.got.cif
#   From: 2010.05.17/outbox.cif.g08.bks.cpg/sg2_35_cif.got.tgz:68850.got - 2010.06.03 11:33:40.
