data_PCOD9020765
_publ_section_title
;
Structure prediction by ZEFSAII (Michael W. Deem and Ramdas Pophale) SiO2 
 PCOD9020765
Probable space group: P -1
;
_chemical_formula_sum "Si O2"
_cell_formula_units_Z 16
_cell_length_a 12.782585
_cell_length_b 14.434814
_cell_length_c 15.191379
_cell_angle_alpha 148.953233
_cell_angle_beta 38.132870
_cell_angle_gamma 119.192550
_cell_volume 724.267241
_symmetry_space_group_name_H-M "P -1"
_symmetry_group_IT_number 2
_symmetry_cell_setting 'triclinic'
loop_
_space_group_symop_operation_xyz
x,y,z
-x,-y,-z
loop_
_atom_site_type_symbol
_atom_site_label
_atom_site_fract_x
_atom_site_fract_y
_atom_site_fract_z
Si Si1 0.424724 0.251775 0.279201
Si Si2 0.952287 0.596814 0.847500
Si Si3 0.212258 0.333338 0.172639
Si Si4 0.323378 0.439062 0.875330
Si Si5 0.880255 0.001438 0.994958
Si Si6 0.588587 0.311335 0.865043
Si Si7 0.452857 0.435284 0.591824
Si Si8 0.240550 0.906590 0.592333
O O1 0.391009 0.339360 0.474753
O O2 0.567072 0.335331 0.222033
O O3 0.193308 0.408358 0.519523
O O4 0.500000 0.000000 0.000000
O O5 0.823986 0.604036 0.855090
O O6 0.855864 0.579083 0.986025
O O7 0.892436 0.841005 0.085804
O O8 0.000000 0.500000 0.500000
O O9 0.413247 0.327606 0.054424
O O10 0.241659 0.104858 0.986269
O O11 0.348203 0.444894 0.760406
O O12 0.550259 0.242258 0.608114
O O13 0.275433 0.656470 0.133031
O O14 0.701234 0.246723 0.282551
O O15 0.070344 0.854983 0.680586
O O16 0.000000 0.000000 0.000000
O O17 0.704058 0.103776 0.555054
O O18 0.500000 0.500000 0.000000
#
# Coordination Sequence:
#
# PCOD9020765 Si02
#       8
#     2   2   2   2   2   2   2   2
#     4  11  28  51  72  94 130 182 249 290 335 402
#     4  12  24  43  66  98 137 183 223 275 345 412
#     4  12  24  35  64 105 139 174 220 273 349 416
#     4  11  23  41  69 100 143 172 216 277 349 417
#     4  12  22  37  68 102 134 173 218 278 348 410
#     4  10  22  37  56  99 144 178 207 262 339 418
#     4  11  25  48  70 100 136 180 230 296 340 400
#     4  11  21  39  63 101 146 169 209 269 348 420
#
# _framework density 22.091290999999998
#
# number of rings (size 3 to 8) (size 9 to 14) (size 15 to 20)
#    0.000    0.750    6.250    1.875    5.250    0.500 
#    0.000    0.625    0.000    0.000    0.000    0.000 
#    0.000    0.000    0.000    0.000    0.000    0.000 
#
# Total GULP energy -89225.107713 kJ/mol
# GULP energy per Si atom -5576.569232 kJ/mol
# Density = 2.204101 g / cm^3
# Si number density = 22.091291 Si / 1000 Ang^3
#
#
#
# Elastic Constant Matrix: (Units=GPa)
#
#
# Indices 1 2 3 4 5 6 
#
# 1 38.0629 10.6161 -9.6488 13.1665 16.6587 0.4301
# 2 10.6161 125.0197 24.5669 -12.1763 17.1466 9.1043
# 3 -9.6488 24.5669 72.1323 13.2746 16.9885 1.0948
# 4 13.1665 -12.1763 13.2746 45.6065 -0.5420 11.1434
# 5 16.6587 17.1466 16.9885 -0.5420 31.0106 -8.4761
# 6 0.4301 9.1043 1.0948 11.1434 -8.4761 29.9670
#
#
#
# Elastic Compliance Matrix: (Units=1/GPa)
#
#
# Indices 1 2 3 4 5 6 
#
# 1 0.067153 -0.007277 0.028448 -0.029549 -0.048870 -0.002627
# 2 -0.007277 0.011165 -0.006107 0.008400 -0.000502 -0.006330
# 3 0.028448 -0.006107 0.030015 -0.018711 -0.028913 -0.000869
# 4 -0.029549 0.008400 -0.018711 0.041145 0.019098 -0.011342
# 5 -0.048870 -0.000502 -0.028913 0.019098 0.079692 0.017349
# 6 -0.002627 -0.006330 -0.000869 -0.011342 0.017349 0.044487
#
#
# Mechanical properties :
#
#
# Convention : Reuss Voigt Hill
#
# Bulk Modulus (GPa) = 7.22223 31.80927 19.51575
# Shear Modulus (GPa) = 17.26033 35.29553 26.27793
#
# Velocity S-wave (km/s) = 2.79824 4.00148 3.45268
# Velocity P-wave (km/s) = 3.70359 5.98158 4.97473
#
# Compressibility (1/GPa) = 0.13846148
#
# Stress axis : x y z
#
# Youngs Moduli (GPa) = 14.89142 89.56834 33.31664
#
# Poissons Ratio (x) = 0.65175 -0.94781
# Poissons Ratio (y) = 0.10836 0.20348
# Poissons Ratio (z) = -0.42364 0.54703
#
# Static dielectric constant tensor:
#      x y z
#    x 1.873810 0.005160 0.062690 
#    y 0.005160 1.899490 0.040130 
#    z 0.062690 0.040130 1.904710 
# 
# From -- ./inp_files/522564.got.cif
#   From: 2010.05.17/outbox.cif.g08.bks.cpg/sg2_262_cif.got.tgz:522564.got - 2010.06.03 11:33:40.
