data_PCOD9020450
_publ_section_title
;
Structure prediction by ZEFSAII (Michael W. Deem and Ramdas Pophale) SiO2 
 PCOD9020450
Probable space group: P -1
;
_chemical_formula_sum "Si O2"
_cell_formula_units_Z 15
_cell_length_a 13.992871
_cell_length_b 15.767861
_cell_length_c 6.119460
_cell_angle_alpha 120.854773
_cell_angle_beta 122.508936
_cell_angle_gamma 37.012464
_cell_volume 676.050840
_symmetry_space_group_name_H-M "P -1"
_symmetry_group_IT_number 2
_symmetry_cell_setting 'triclinic'
loop_
_space_group_symop_operation_xyz
x,y,z
-x,-y,-z
loop_
_atom_site_type_symbol
_atom_site_label
_atom_site_fract_x
_atom_site_fract_y
_atom_site_fract_z
Si Si1 0.378726 0.628470 0.188728
Si Si2 0.739983 0.006375 0.397090
Si Si3 0.104083 0.484407 0.412853
Si Si4 0.874867 0.716563 0.062374
Si Si5 0.240668 0.874830 0.029423
Si Si6 0.195019 0.554240 0.985195
Si Si7 0.000000 0.000000 0.500000
Si Si8 0.511325 0.708855 0.772651
O O1 0.473443 0.634773 0.488117
O O2 0.500000 0.500000 0.000000
O O3 0.262791 0.774753 0.103899
O O4 0.271534 0.614318 0.160301
O O5 0.761853 0.877500 0.206506
O O6 0.877032 0.985563 0.411409
O O7 0.566657 0.154849 0.286248
O O8 0.761890 0.022756 0.699192
O O9 0.978733 0.612441 0.259299
O O10 0.206974 0.503235 0.687431
O O11 0.000000 0.500000 0.500000
O O12 0.196119 0.336047 0.212430
O O13 0.011419 0.672488 0.003588
O O14 0.403556 0.771119 0.942861
O O15 0.091381 0.945609 0.780291
O O16 0.301511 0.415233 0.086941
#
# Coordination Sequence:
#
# PCOD9020450 Si02
#       8
#     2   2   2   2   2   2   1   2
#     4  11  23  36  59  93 131 168 211 250 306 375
#     4  10  23  38  61  86 131 169 201 252 317 370
#     4   9  22  43  64  94 119 153 219 273 314 369
#     4  10  23  42  67  92 122 160 214 270 315 364
#     4  10  22  38  53  85 133 166 210 246 295 379
#     4  11  23  37  67  92 123 168 208 263 316 359
#     4  10  22  36  52  86 124 168 206 244 298 376
#     4  10  23  40  56  92 132 164 205 249 301 384
#
# _framework density 22.187677999999998
#
# number of rings (size 3 to 8) (size 9 to 14) (size 15 to 20)
#    0.000    1.867    1.333    0.800    9.333    4.267 
#    0.000    0.667    0.000    8.000    0.000    0.000 
#    0.000    0.000    0.000    0.000    0.000    0.000 
#
# Total GULP energy -83605.309843 kJ/mol
# GULP energy per Si atom -5573.687323 kJ/mol
# Density = 2.213718 g / cm^3
# Si number density = 22.187678 Si / 1000 Ang^3
#
#
#
# Elastic Constant Matrix: (Units=GPa)
#
#
# Indices 1 2 3 4 5 6 
#
# 1 44.7822 -1.3202 -9.7174 10.1951 -13.0029 1.2528
# 2 -1.3202 76.2434 59.8349 17.7567 10.9356 5.0386
# 3 -9.7174 59.8349 132.2258 9.0464 -0.5910 10.2713
# 4 10.1951 17.7567 9.0464 45.8834 1.1669 0.1020
# 5 -13.0029 10.9356 -0.5910 1.1669 14.1560 -2.1601
# 6 1.2528 5.0386 10.2713 0.1020 -2.1601 23.4729
#
#
#
# Elastic Compliance Matrix: (Units=1/GPa)
#
#
# Indices 1 2 3 4 5 6 
#
# 1 0.038288 -0.010506 0.008201 -0.007188 0.044333 0.000734
# 2 -0.010506 0.030272 -0.014004 -0.005759 -0.033585 -0.002875
# 3 0.008201 -0.014004 0.014739 0.000223 0.018617 -0.002169
# 4 -0.007188 -0.005759 0.000223 0.025678 -0.004103 0.001033
# 5 0.044333 -0.033585 0.018617 -0.004103 0.139887 0.009587
# 6 0.000734 -0.002875 -0.002169 0.001033 0.009587 0.045007
#
#
# Mechanical properties :
#
#
# Convention : Reuss Voigt Hill
#
# Bulk Modulus (GPa) = 19.73097 38.98290 29.35693
# Shear Modulus (GPa) = 14.56093 30.33272 22.44683
#
# Velocity S-wave (km/s) = 2.56454 3.70144 3.18414
# Velocity P-wave (km/s) = 4.20490 5.98960 5.17477
#
# Compressibility (1/GPa) = 0.05068175
#
# Stress axis : x y z
#
# Youngs Moduli (GPa) = 26.11751 33.03332 67.84716
#
# Poissons Ratio (x) = 0.34706 -0.55643
# Poissons Ratio (y) = 0.27440 0.95012
# Poissons Ratio (z) = -0.21419 0.46259
#
# Static dielectric constant tensor:
#      x y z
#    x 1.837040 -0.021320 -0.009570 
#    y -0.021320 1.827310 0.037480 
#    z -0.009570 0.037480 1.832340 
# 
# From -- ./inp_files/67858.got.cif
#   From: 2010.05.17/outbox.cif.g08.bks.cpg/sg2_34_cif.got.tgz:67858.got - 2010.06.03 11:33:40.
