data_PCOD9020700
_publ_section_title
;
Structure prediction by ZEFSAII (Michael W. Deem and Ramdas Pophale) SiO2 
 PCOD9020700
Probable space group: P -1
;
_chemical_formula_sum "Si O2"
_cell_formula_units_Z 10
_cell_length_a 8.368205
_cell_length_b 11.926737
_cell_length_c 6.863202
_cell_angle_alpha 126.853071
_cell_angle_beta 89.632599
_cell_angle_gamma 127.343716
_cell_volume 360.479480
_symmetry_space_group_name_H-M "P -1"
_symmetry_group_IT_number 2
_symmetry_cell_setting 'triclinic'
loop_
_space_group_symop_operation_xyz
x,y,z
-x,-y,-z
loop_
_atom_site_type_symbol
_atom_site_label
_atom_site_fract_x
_atom_site_fract_y
_atom_site_fract_z
Si Si1 0.331279 0.071493 0.602897
Si Si2 0.272346 0.818082 0.671444
Si Si3 0.492343 0.573307 0.835840
Si Si4 0.208969 0.461388 0.364974
Si Si5 0.093658 0.066697 0.289989
O O1 0.233329 0.023415 0.335060
O O2 0.330460 0.928483 0.577161
O O3 0.545949 0.324843 0.905979
O O4 0.135257 0.031715 0.687613
O O5 0.215775 0.617139 0.430533
O O6 0.031621 0.709569 0.677722
O O7 0.500000 0.000000 0.000000
O O8 0.729042 0.628992 0.866742
O O9 0.715547 0.681303 0.408011
O O10 0.000000 0.000000 0.000000
O O11 0.436616 0.609935 0.668056
#
# Coordination Sequence:
#
# PCOD9020700 Si02
#       5
#     2   2   2   2   2
#     4  11  24  41  71 106 132 185 234 279 347 412
#     4  11  22  40  64 103 147 185 223 280 349 417
#     4  11  21  41  70 103 136 179 236 289 336 407
#     4  10  22  36  67 102 140 189 222 280 354 404
#     4  11  24  43  70 101 142 177 233 291 341 406
#
# _framework density 27.740829999999999
#
# number of rings (size 3 to 8) (size 9 to 14) (size 15 to 20)
#    0.000    1.200    4.000    3.000    0.000    0.000 
#    0.000    1.000    0.000   12.000    0.000    0.000 
#    0.000    0.000    0.000    0.000    0.000    0.000 
#
# Total GULP energy -55923.390125 kJ/mol
# GULP energy per Si atom -5592.339013 kJ/mol
# Density = 2.767769 g / cm^3
# Si number density = 27.740830 Si / 1000 Ang^3
#
#
#
# Elastic Constant Matrix: (Units=GPa)
#
#
# Indices 1 2 3 4 5 6 
#
# 1 112.1763 65.7210 23.8076 15.3283 -11.3322 -22.8944
# 2 65.7210 158.2187 47.4384 -13.0957 -12.8598 -41.1005
# 3 23.8076 47.4384 88.0493 -6.0051 -5.7904 -19.0849
# 4 15.3283 -13.0957 -6.0051 38.7837 -5.6650 7.2795
# 5 -11.3322 -12.8598 -5.7904 -5.6650 38.3089 -2.2250
# 6 -22.8944 -41.1005 -19.0849 7.2795 -2.2250 85.7545
#
#
#
# Elastic Compliance Matrix: (Units=1/GPa)
#
#
# Indices 1 2 3 4 5 6 
#
# 1 0.013868 -0.005681 -0.000824 -0.007653 0.001024 0.001472
# 2 -0.005681 0.010989 -0.003291 0.005310 0.002449 0.002630
# 3 -0.000824 -0.003291 0.013761 0.001267 0.000988 0.001183
# 4 -0.007653 0.005310 0.001267 0.031765 0.004303 -0.001801
# 5 0.001024 0.002449 0.000988 0.004303 0.028132 0.002032
# 6 0.001472 0.002630 0.001183 -0.001801 0.002032 0.013784
#
#
# Mechanical properties :
#
#
# Convention : Reuss Voigt Hill
#
# Bulk Modulus (GPa) = 52.56305 70.26426 61.41365
# Shear Modulus (GPa) = 36.17104 47.33457 41.75281
#
# Velocity S-wave (km/s) = 3.61486 4.13524 3.88377
# Velocity P-wave (km/s) = 6.03424 6.94147 6.50369
#
# Compressibility (1/GPa) = 0.01902477
#
# Stress axis : x y z
#
# Youngs Moduli (GPa) = 72.11085 91.00292 72.66846
#
# Poissons Ratio (x) = 0.51697 0.05991
# Poissons Ratio (y) = 0.40965 0.23915
# Poissons Ratio (z) = 0.05945 0.29949
#
# Static dielectric constant tensor:
#      x y z
#    x 2.214990 0.017200 0.062370 
#    y 0.017200 2.351560 0.168770 
#    z 0.062370 0.168770 2.414650 
# 
# From -- ./inp_files/173922.got.cif
#   From: 2010.05.17/outbox.cif.g08.bks.cpg/sg2_87_cif.got.tgz:173922.got - 2010.06.03 11:33:40.
