data_PCOD9020904
_publ_section_title
;
Structure prediction by ZEFSAII (Michael W. Deem and Ramdas Pophale) SiO2 
 PCOD9020904
Probable space group: P -1
;
_chemical_formula_sum "Si O2"
_cell_formula_units_Z 13
_cell_length_a 10.166298
_cell_length_b 5.454468
_cell_length_c 11.578015
_cell_angle_alpha 91.224119
_cell_angle_beta 118.380944
_cell_angle_gamma 113.414251
_cell_volume 500.457545
_symmetry_space_group_name_H-M "P -1"
_symmetry_group_IT_number 2
_symmetry_cell_setting 'triclinic'
loop_
_space_group_symop_operation_xyz
x,y,z
-x,-y,-z
loop_
_atom_site_type_symbol
_atom_site_label
_atom_site_fract_x
_atom_site_fract_y
_atom_site_fract_z
Si Si1 0.758140 0.874636 0.493019
Si Si2 0.500000 0.000000 0.500000
Si Si3 0.941061 0.471115 0.126021
Si Si4 0.016553 0.041912 0.196382
Si Si5 0.337167 0.397569 0.011127
Si Si6 0.481238 0.706254 0.706717
Si Si7 0.145233 0.711242 0.647210
O O1 0.680967 0.060790 0.517533
O O2 0.603540 0.568774 0.412341
O O3 0.888062 0.871345 0.641025
O O4 0.820989 0.994709 0.392876
O O5 0.561910 0.952762 0.652891
O O6 0.037935 0.298024 0.129415
O O7 0.917289 0.400698 0.252369
O O8 0.049332 0.798296 0.156148
O O9 0.751426 0.403348 0.007337
O O10 0.812464 0.865011 0.117506
O O11 0.389470 0.319276 0.152737
O O12 0.500000 0.500000 0.000000
O O13 0.324439 0.707944 0.709183
O O14 0.000000 0.500000 0.500000
#
# Coordination Sequence:
#
# PCOD9020904 Si02
#       7
#     2   1   2   2   2   2   2
#     4  11  24  40  70  92 133 178 234 282 333 396
#     4  10  26  46  66  96 130 172 242 286 338 380
#     4  10  22  37  61  95 140 175 210 259 333 409
#     4  10  23  41  63  95 140 178 220 271 332 408
#     4  10  22  41  61 102 141 178 213 269 344 413
#     4  11  23  43  66  97 130 181 224 281 334 401
#     4  11  20  34  59  98 135 170 215 269 338 402
#
# _framework density 25.976229
#
# number of rings (size 3 to 8) (size 9 to 14) (size 15 to 20)
#    0.923    0.615    3.077    1.385    6.462    4.308 
#    0.000    0.769    0.000    2.769    0.000    0.000 
#    0.000    0.000    0.000    0.000    0.000    0.000 
#
# Total GULP energy -72367.961807 kJ/mol
# GULP energy per Si atom -5566.766293 kJ/mol
# Density = 2.591711 g / cm^3
# Si number density = 25.976229 Si / 1000 Ang^3
#
#
#
# Elastic Constant Matrix: (Units=GPa)
#
#
# Indices 1 2 3 4 5 6 
#
# 1 47.3541 88.8661 80.9403 -37.5763 3.5161 54.1963
# 2 88.8661 -18.4304 -3.1539 1.5499 31.2037 -89.5508
# 3 80.9403 -3.1539 231.9763 -26.7245 30.0558 -19.1898
# 4 -37.5763 1.5499 -26.7245 43.6385 -4.3829 29.9343
# 5 3.5161 31.2037 30.0558 -4.3829 56.0671 -4.4848
# 6 54.1963 -89.5508 -19.1898 29.9343 -4.4848 -15.1760
#
#
#
# Elastic Compliance Matrix: (Units=1/GPa)
#
#
# Indices 1 2 3 4 5 6 
#
# 1 0.008470 0.004759 -0.002013 0.000941 -0.001467 0.007002
# 2 0.004759 0.007998 -0.000675 0.009432 -0.004405 -0.009438
# 3 -0.002013 -0.000675 0.005464 0.003336 -0.002393 -0.002827
# 4 0.000941 0.009432 0.003336 0.026612 -0.005215 -0.002481
# 5 -0.001467 -0.004405 -0.002393 -0.005215 0.021818 0.007047
# 6 0.007002 -0.009438 -0.002827 -0.002481 0.007047 0.011403
#
#
# Mechanical properties :
#
#
# Convention : Reuss Voigt Hill
#
# Bulk Modulus (GPa) = 38.35255 66.02277 52.18766
# Shear Modulus (GPa) = 57.92740 23.18909 40.55825
#
# Velocity S-wave (km/s) = 4.72743 2.99106 3.95569
# Velocity P-wave (km/s) = 6.67792 6.11558 6.40293
#
# Compressibility (1/GPa) = 0.02607389
#
# Stress axis : x y z
#
# Youngs Moduli (GPa) = 118.06575 125.03453 183.00270
#
# Poissons Ratio (x) = -0.59502 0.36836
# Poissons Ratio (y) = -0.56186 0.12354
# Poissons Ratio (z) = 0.23765 0.08441
#
# Static dielectric constant tensor:
#      x y z
#    x 2.247210 -0.111680 -0.031580 
#    y -0.111680 2.242620 -0.012010 
#    z -0.031580 -0.012010 1.986520 
# 
# From -- ./inp_files/64836.got.cif
#   From: 2010.05.17/outbox.cif.g08.bks.cpg/sg2_33_cif.got.tgz:64836.got - 2010.06.03 11:33:40.
