data_PCOD9020669
_publ_section_title
;
Structure prediction by ZEFSAII (Michael W. Deem and Ramdas Pophale) SiO2 
 PCOD9020669
Probable space group: P -1
;
_chemical_formula_sum "Si O2"
_cell_formula_units_Z 14
_cell_length_a 21.254495
_cell_length_b 9.566854
_cell_length_c 5.368652
_cell_angle_alpha 108.926995
_cell_angle_beta 124.300651
_cell_angle_gamma 43.813742
_cell_volume 617.840506
_symmetry_space_group_name_H-M "P -1"
_symmetry_group_IT_number 2
_symmetry_cell_setting 'triclinic'
loop_
_space_group_symop_operation_xyz
x,y,z
-x,-y,-z
loop_
_atom_site_type_symbol
_atom_site_label
_atom_site_fract_x
_atom_site_fract_y
_atom_site_fract_z
Si Si1 0.587040 0.529148 0.947687
Si Si2 0.086397 0.327821 0.398399
Si Si3 0.192793 0.884734 0.981385
Si Si4 0.885593 0.466614 0.811113
Si Si5 0.487220 0.712955 0.330744
Si Si6 0.111646 0.871941 0.308670
Si Si7 0.250179 0.105021 0.014007
O O1 0.535605 0.683576 0.690341
O O2 0.536032 0.432732 0.794002
O O3 0.706879 0.334867 0.036966
O O4 0.563248 0.635215 0.220695
O O5 0.120795 0.428461 0.390201
O O6 0.187981 0.130099 0.648212
O O7 0.000000 0.500000 0.500000
O O8 0.010710 0.318146 0.070869
O O9 0.107040 0.965828 0.617273
O O10 0.220238 0.022511 0.107828
O O11 0.177535 0.849424 0.208950
O O12 0.855301 0.338336 0.666857
O O13 0.805759 0.665157 0.922363
O O14 0.374579 0.940158 0.169657
O O15 0.000000 0.000000 0.000000
#
# Coordination Sequence:
#
# PCOD9020669 Si02
#       7
#     2   2   2   2   2   2   2
#     4   9  18  36  56  87 122 154 192 252 311 352
#     4   9  20  36  60  85 120 159 205 252 300 357
#     4  11  25  41  64  91 127 164 203 252 309 364
#     4  10  23  39  61  86 126 164 204 252 305 362
#     4   9  18  32  60  90 117 148 202 256 299 353
#     4  12  27  42  63  91 128 167 204 246 302 374
#     4  10  22  36  65  93 119 158 209 258 303 357
#
# _framework density 22.659569000000001
#
# number of rings (size 3 to 8) (size 9 to 14) (size 15 to 20)
#    0.000    2.000    0.000    2.143   14.000    2.286 
#    0.000    0.000    0.000    5.143    0.000    0.000 
#    0.000    0.000    0.000    0.000    0.000    0.000 
#
# Total GULP energy -78126.078800 kJ/mol
# GULP energy per Si atom -5580.434200 kJ/mol
# Density = 2.260799 g / cm^3
# Si number density = 22.659569 Si / 1000 Ang^3
#
#
#
# Elastic Constant Matrix: (Units=GPa)
#
#
# Indices 1 2 3 4 5 6 
#
# 1 67.7500 4.3681 11.3901 15.6731 -22.4164 9.7103
# 2 4.3681 71.1768 11.0038 1.8779 3.4371 7.5413
# 3 11.3901 11.0038 70.4262 -9.9810 -22.4493 -1.6515
# 4 15.6731 1.8779 -9.9810 41.4816 -4.3754 6.7786
# 5 -22.4164 3.4371 -22.4493 -4.3754 28.0635 1.3290
# 6 9.7103 7.5413 -1.6515 6.7786 1.3290 38.7732
#
#
#
# Elastic Compliance Matrix: (Units=1/GPa)
#
#
# Indices 1 2 3 4 5 6 
#
# 1 0.022972 -0.001992 0.001989 -0.005219 0.019610 -0.005041
# 2 -0.001992 0.015535 -0.004733 -0.001511 -0.007412 -0.002206
# 3 0.001989 -0.004733 0.022388 0.007188 0.021227 -0.000608
# 4 -0.005219 -0.001511 0.007188 0.029115 0.006467 -0.003405
# 5 0.019610 -0.007412 0.021227 0.006467 0.070484 -0.006112
# 6 -0.005041 -0.002206 -0.000608 -0.003405 -0.006112 0.028261
#
#
# Mechanical properties :
#
#
# Convention : Reuss Voigt Hill
#
# Bulk Modulus (GPa) = 19.44707 29.20855 24.32781
# Shear Modulus (GPa) = 23.21587 33.83639 28.52613
#
# Velocity S-wave (km/s) = 3.20433 3.86845 3.55195
# Velocity P-wave (km/s) = 4.72136 5.73335 5.25179
#
# Compressibility (1/GPa) = 0.05142162
#
# Stress axis : x y z
#
# Youngs Moduli (GPa) = 43.53078 64.37036 44.66664
#
# Poissons Ratio (x) = 0.12826 -0.08885
# Poissons Ratio (y) = 0.08673 0.21143
# Poissons Ratio (z) = -0.08659 0.30470
#
# Static dielectric constant tensor:
#      x y z
#    x 1.847050 -0.013300 -0.007320 
#    y -0.013300 1.954860 0.085070 
#    z -0.007320 0.085070 1.988810 
# 
# From -- ./inp_files/105241.got.cif
#   From: 2010.05.17/outbox.cif.g08.bks.cpg/sg2_53_cif.got.tgz:105241.got - 2010.06.03 11:33:40.
