data_PCOD9020770
_publ_section_title
;
Structure prediction by ZEFSAII (Michael W. Deem and Ramdas Pophale) SiO2 
 PCOD9020770
Probable space group: P -1
;
_chemical_formula_sum "Si O2"
_cell_formula_units_Z 16
_cell_length_a 6.726292
_cell_length_b 12.413030
_cell_length_c 15.579908
_cell_angle_alpha 115.056377
_cell_angle_beta 85.203517
_cell_angle_gamma 135.685511
_cell_volume 772.168716
_symmetry_space_group_name_H-M "P -1"
_symmetry_group_IT_number 2
_symmetry_cell_setting 'triclinic'
loop_
_space_group_symop_operation_xyz
x,y,z
-x,-y,-z
loop_
_atom_site_type_symbol
_atom_site_label
_atom_site_fract_x
_atom_site_fract_y
_atom_site_fract_z
Si Si1 0.762455 0.720523 0.242209
Si Si2 0.576657 0.556693 0.615982
Si Si3 0.733692 0.137665 0.286166
Si Si4 0.541062 0.754129 0.403857
Si Si5 0.143643 0.559336 0.706114
Si Si6 0.176905 0.761811 0.116117
Si Si7 0.108003 0.478758 0.121276
Si Si8 0.672024 0.030628 0.587963
O O1 0.698447 0.818626 0.326181
O O2 0.408223 0.543737 0.168120
O O3 0.954536 0.762376 0.166961
O O4 0.002754 0.777343 0.324667
O O5 0.500000 0.500000 0.500000
O O6 0.509411 0.402420 0.614138
O O7 0.379859 0.566758 0.673507
O O8 0.925085 0.752550 0.677937
O O9 0.774469 0.290074 0.303405
O O10 0.556849 0.057976 0.355249
O O11 0.515543 0.966252 0.173309
O O12 0.705538 0.907483 0.519376
O O13 0.194022 0.639997 0.368760
O O14 0.115141 0.591880 0.815648
O O15 0.183303 0.642139 0.131655
O O16 0.049492 0.668169 0.996795
O O17 0.500000 0.000000 0.500000
#
# Coordination Sequence:
#
# PCOD9020770 Si02
#       8
#     2   2   2   2   2   2   2   2
#     4  10  22  37  61  89 126 158 203 250 309 368
#     4  11  22  37  62  81 123 170 204 244 299 362
#     4  10  24  40  57  92 123 160 208 251 303 369
#     4  10  22  37  57  90 120 163 208 238 300 368
#     4  10  22  41  61  87 123 166 204 253 300 367
#     4  10  22  41  64  94 122 155 207 264 316 362
#     4  10  22  41  67  89 120 163 206 259 316 368
#     4  11  24  38  60  92 133 165 201 254 304 363
#
# _framework density 20.720859999999998
#
# number of rings (size 3 to 8) (size 9 to 14) (size 15 to 20)
#    0.000    1.750    0.000    3.000   10.500    5.500 
#    0.000    0.625    0.000    0.000    0.000    0.000 
#    0.000    0.000    0.000    0.000    0.000    0.000 
#
# Total GULP energy -89101.154848 kJ/mol
# GULP energy per Si atom -5568.822178 kJ/mol
# Density = 2.067370 g / cm^3
# Si number density = 20.720860 Si / 1000 Ang^3
#
#
#
# Elastic Constant Matrix: (Units=GPa)
#
#
# Indices 1 2 3 4 5 6 
#
# 1 144.1127 57.5683 68.0160 4.0855 6.0018 43.6822
# 2 57.5683 70.3152 56.2581 2.4355 2.6860 21.4161
# 3 68.0160 56.2581 166.6871 14.1519 15.2102 30.5356
# 4 4.0855 2.4355 14.1519 31.8115 -0.7643 0.2222
# 5 6.0018 2.6860 15.2102 -0.7643 28.8058 -7.5994
# 6 43.6822 21.4161 30.5356 0.2222 -7.5994 32.9524
#
#
#
# Elastic Compliance Matrix: (Units=1/GPa)
#
#
# Indices 1 2 3 4 5 6 
#
# 1 0.015349 -0.006961 0.000103 -0.001537 -0.007284 -0.017588
# 2 -0.006961 0.024598 -0.005528 0.001522 0.001791 -0.001234
# 3 0.000103 -0.005528 0.010217 -0.004251 -0.007019 -0.007602
# 4 -0.001537 0.001522 -0.004251 0.033483 0.004863 0.005883
# 5 -0.007284 0.001791 -0.007019 0.004863 0.046690 0.025732
# 6 -0.017588 -0.001234 -0.007602 0.005883 0.025732 0.067403
#
#
# Mechanical properties :
#
#
# Convention : Reuss Voigt Hill
#
# Bulk Modulus (GPa) = 39.38124 82.75554 61.06839
# Shear Modulus (GPa) = 21.64729 31.99876 26.82303
#
# Velocity S-wave (km/s) = 3.23570 3.93399 3.60181
# Velocity P-wave (km/s) = 5.74513 7.78846 6.84349
#
# Compressibility (1/GPa) = 0.02539280
#
# Stress axis : x y z
#
# Youngs Moduli (GPa) = 65.15081 40.65291 97.87702
#
# Poissons Ratio (x) = 0.28298 -0.01012
# Poissons Ratio (y) = 0.45350 0.54110
# Poissons Ratio (z) = -0.00674 0.22475
#
# Static dielectric constant tensor:
#      x y z
#    x 1.827310 -0.027880 0.010840 
#    y -0.027880 1.791370 -0.008970 
#    z 0.010840 -0.008970 1.751080 
# 
# From -- ./inp_files/482893.got.cif
#   From: 2010.05.17/outbox.cif.g08.bks.cpg/sg2_242_cif.got.tgz:482893.got - 2010.06.03 11:33:40.
