data_PCOD9020546
_publ_section_title
;
Structure prediction by ZEFSAII (Michael W. Deem and Ramdas Pophale) SiO2 
 PCOD9020546
Probable space group: P -1
;
_chemical_formula_sum "Si O2"
_cell_formula_units_Z 15
_cell_length_a 8.722529
_cell_length_b 11.356151
_cell_length_c 22.888253
_cell_angle_alpha 47.513237
_cell_angle_beta 32.369928
_cell_angle_gamma 40.551372
_cell_volume 785.434818
_symmetry_space_group_name_H-M "P -1"
_symmetry_group_IT_number 2
_symmetry_cell_setting 'triclinic'
loop_
_space_group_symop_operation_xyz
x,y,z
-x,-y,-z
loop_
_atom_site_type_symbol
_atom_site_label
_atom_site_fract_x
_atom_site_fract_y
_atom_site_fract_z
Si Si1 0.734903 0.443755 0.824854
Si Si2 0.948868 0.159021 0.757409
Si Si3 0.178365 0.354812 0.076853
Si Si4 0.500000 0.000000 0.000000
Si Si5 0.669436 0.255348 0.234834
Si Si6 0.314090 0.999485 0.927412
Si Si7 0.726539 0.467508 0.628970
Si Si8 0.769319 0.629179 0.209403
O O1 0.975807 0.276475 0.762419
O O2 0.566964 0.628523 0.779861
O O3 0.931361 0.445382 0.817363
O O4 0.438963 0.404490 0.949531
O O5 0.879933 0.287908 0.680580
O O6 0.236509 0.954153 0.725221
O O7 0.643672 0.125761 0.881058
O O8 0.013223 0.267920 0.115448
O O9 0.906425 0.532820 0.135180
O O10 0.368575 0.197088 0.115795
O O11 0.709029 0.983673 0.000300
O O12 0.498660 0.361664 0.313592
O O13 0.358312 0.158413 0.830010
O O14 0.000000 0.000000 0.000000
O O15 0.500583 0.430442 0.668835
O O16 0.000000 0.500000 0.500000
#
# Coordination Sequence:
#
# PCOD9020546 Si02
#       8
#     2   2   2   1   2   2   2   2
#     4  11  22  33  55  89 123 160 191 247 305 366
#     4  11  20  38  59  87 120 154 202 242 303 368
#     4  11  21  34  54  85 125 166 199 233 298 370
#     4  12  20  34  60  86 124 164 188 244 308 368
#     4  10  22  36  60  86 114 159 208 243 299 368
#     4  12  23  36  55  89 127 166 200 242 302 369
#     4  10  23  43  64  84 112 157 212 258 300 353
#     4  11  23  38  57  87 125 158 203 253 299 360
#
# _framework density 19.097702000000002
#
# number of rings (size 3 to 8) (size 9 to 14) (size 15 to 20)
#    0.000    1.067    5.333    0.800    1.867    1.600 
#    0.000    2.667    0.000    1.600    0.000    0.000 
#    0.000    0.000    0.000    0.000    0.000    0.000 
#
# Total GULP energy -83519.165765 kJ/mol
# GULP energy per Si atom -5567.944384 kJ/mol
# Density = 1.905423 g / cm^3
# Si number density = 19.097702 Si / 1000 Ang^3
#
#
#
# Elastic Constant Matrix: (Units=GPa)
#
#
# Indices 1 2 3 4 5 6 
#
# 1 93.3204 17.2781 23.4606 -6.3504 -1.6663 -5.1353
# 2 17.2781 130.8122 25.7195 -18.6801 0.8249 -6.5334
# 3 23.4606 25.7195 106.1024 -11.7212 -5.6259 -3.5852
# 4 -6.3504 -18.6801 -11.7212 17.6269 -1.7758 -0.1002
# 5 -1.6663 0.8249 -5.6259 -1.7758 14.0228 -4.3980
# 6 -5.1353 -6.5334 -3.5852 -0.1002 -4.3980 23.8742
#
#
#
# Elastic Compliance Matrix: (Units=1/GPa)
#
#
# Indices 1 2 3 4 5 6 
#
# 1 0.011662 -0.000715 -0.001984 0.002304 0.001654 0.002329
# 2 -0.000715 0.009348 -0.000971 0.009108 0.000902 0.002463
# 3 -0.001984 -0.000971 0.011166 0.006272 0.005744 0.002069
# 4 0.002304 0.009108 0.006272 0.072791 0.013586 0.006738
# 5 0.001654 0.000902 0.005744 0.013586 0.080616 0.016373
# 6 0.002329 0.002463 0.002069 0.006738 0.016373 0.046416
#
#
# Mechanical properties :
#
#
# Convention : Reuss Voigt Hill
#
# Bulk Modulus (GPa) = 40.26519 51.46128 45.86323
# Shear Modulus (GPa) = 20.19238 28.68989 24.44113
#
# Velocity S-wave (km/s) = 3.25517 3.88012 3.58130
# Velocity P-wave (km/s) = 5.93782 6.86138 6.41624
#
# Compressibility (1/GPa) = 0.02483535
#
# Stress axis : x y z
#
# Youngs Moduli (GPa) = 85.75224 106.97686 89.55553
#
# Poissons Ratio (x) = 0.07652 0.17770
# Poissons Ratio (y) = 0.06134 0.08692
# Poissons Ratio (z) = 0.17015 0.10383
#
# Static dielectric constant tensor:
#      x y z
#    x 1.685330 0.014020 -0.010710 
#    y 0.014020 1.723640 0.025280 
#    z -0.010710 0.025280 1.640140 
# 
# From -- ./inp_files/330990.got.cif
#   From: 2010.05.17/outbox.cif.g08.bks.cpg/sg2_166_cif.got.tgz:330990.got - 2010.06.03 11:33:40.
