data_PCOD9020878
_publ_section_title
;
Structure prediction by ZEFSAII (Michael W. Deem and Ramdas Pophale) SiO2 
 PCOD9020878
Probable space group: P -1
;
_chemical_formula_sum "Si O2"
_cell_formula_units_Z 16
_cell_length_a 5.582223
_cell_length_b 25.468659
_cell_length_c 16.050437
_cell_angle_alpha 21.053006
_cell_angle_beta 76.712138
_cell_angle_gamma 87.022366
_cell_volume 706.311083
_symmetry_space_group_name_H-M "P -1"
_symmetry_group_IT_number 2
_symmetry_cell_setting 'triclinic'
loop_
_space_group_symop_operation_xyz
x,y,z
-x,-y,-z
loop_
_atom_site_type_symbol
_atom_site_label
_atom_site_fract_x
_atom_site_fract_y
_atom_site_fract_z
Si Si1 0.870305 0.997091 0.850603
Si Si2 0.052063 0.390480 0.400213
Si Si3 0.162591 0.027960 0.532440
Si Si4 0.584462 0.974176 0.237281
Si Si5 0.586554 0.803570 0.314646
Si Si6 0.894682 0.229895 0.310473
Si Si7 0.179289 0.390796 0.206606
Si Si8 0.205510 0.731719 0.921944
O O1 0.592389 0.933662 0.912118
O O2 0.769140 0.957894 0.012030
O O3 0.088407 0.927732 0.920590
O O4 0.048554 0.194329 0.530009
O O5 0.718089 0.286107 0.571294
O O6 0.242559 0.301935 0.537917
O O7 0.141179 0.457959 0.198647
O O8 0.129149 0.545728 0.224953
O O9 0.153546 0.851550 0.811464
O O10 0.474161 0.163240 0.286211
O O11 0.000000 0.000000 0.500000
O O12 0.023745 0.102073 0.497040
O O13 0.549020 0.859665 0.327473
O O14 0.423947 0.866942 0.489412
O O15 0.949784 0.280855 0.134938
O O16 0.035932 0.373304 0.154181
O O17 0.500000 0.500000 0.000000
#
# Coordination Sequence:
#
# PCOD9020878 Si02
#       8
#     2   2   2   2   2   2   2   2
#     4  11  23  40  60  82 131 171 219 255 297 375
#     4  12  26  37  64  92 132 168 211 258 312 371
#     4   9  20  41  61  86 122 167 211 261 317 385
#     4  11  21  37  59  91 118 168 214 255 305 369
#     4  12  23  42  58  89 126 175 219 254 303 371
#     4  10  22  37  61  87 133 163 210 255 321 381
#     4  11  24  38  58  95 131 167 202 251 323 374
#     4  10  23  38  62  89 127 166 214 260 323 372
#
# _framework density 22.652906000000002
#
# number of rings (size 3 to 8) (size 9 to 14) (size 15 to 20)
#    0.000    1.250    3.750    2.250   10.500    0.500 
#    0.000    0.000    0.000    0.000    0.000   12.250 
#    0.000    0.000    0.000    0.000    0.000    0.000 
#
# Total GULP energy -89272.715964 kJ/mol
# GULP energy per Si atom -5579.544748 kJ/mol
# Density = 2.260135 g / cm^3
# Si number density = 22.652906 Si / 1000 Ang^3
#
#
#
# Elastic Constant Matrix: (Units=GPa)
#
#
# Indices 1 2 3 4 5 6 
#
# 1 149.5252 13.2756 28.6636 -12.2633 -0.3684 -19.6106
# 2 13.2756 61.9499 23.7514 -22.0069 5.3427 -25.5449
# 3 28.6636 23.7514 73.1572 -11.4950 1.1212 -17.3054
# 4 -12.2633 -22.0069 -11.4950 39.2783 -5.1506 4.5790
# 5 -0.3684 5.3427 1.1212 -5.1506 31.1668 2.2064
# 6 -19.6106 -25.5449 -17.3054 4.5790 2.2064 39.7225
#
#
#
# Elastic Compliance Matrix: (Units=1/GPa)
#
#
# Indices 1 2 3 4 5 6 
#
# 1 0.007626 0.001401 -0.002305 0.002098 0.000038 0.003417
# 2 0.001401 0.029145 -0.004006 0.013184 -0.003816 0.016381
# 3 -0.002305 -0.004006 0.016946 0.001598 0.000068 0.003481
# 4 0.002098 0.013184 0.001598 0.033619 0.002826 0.006178
# 5 0.000038 -0.003816 0.000068 0.002826 0.033530 -0.004594
# 6 0.003417 0.016381 0.003481 0.006178 -0.004594 0.038456
#
#
# Mechanical properties :
#
#
# Convention : Reuss Voigt Hill
#
# Bulk Modulus (GPa) = 22.78099 46.22369 34.50234
# Shear Modulus (GPa) = 27.20712 36.62964 31.91838
#
# Velocity S-wave (km/s) = 3.46937 4.02555 3.75776
# Velocity P-wave (km/s) = 5.11146 6.48508 5.83880
#
# Compressibility (1/GPa) = 0.04389626
#
# Stress axis : x y z
#
# Youngs Moduli (GPa) = 131.13569 34.31080 59.00946
#
# Poissons Ratio (x) = -0.04806 0.13603
# Poissons Ratio (y) = -0.18368 0.23640
# Poissons Ratio (z) = 0.30229 0.13745
#
# Static dielectric constant tensor:
#      x y z
#    x 2.052540 0.025810 0.113940 
#    y 0.025810 1.826920 -0.005090 
#    z 0.113940 -0.005090 1.892880 
# 
# From -- ./inp_files/551368.got.cif
#   From: 2010.05.17/outbox.cif.g08.bks.cpg/sg2_276_cif.got.tgz:551368.got - 2010.06.03 11:33:40.
