data_PCOD9020897
_publ_section_title
;
Structure prediction by ZEFSAII (Michael W. Deem and Ramdas Pophale) SiO2 
 PCOD9020897
Probable space group: P -1
;
_chemical_formula_sum "Si O2"
_cell_formula_units_Z 16
_cell_length_a 9.477490
_cell_length_b 25.445340
_cell_length_c 5.092514
_cell_angle_alpha 92.893247
_cell_angle_beta 84.307575
_cell_angle_gamma 149.345084
_cell_volume 621.607130
_symmetry_space_group_name_H-M "P -1"
_symmetry_group_IT_number 2
_symmetry_cell_setting 'triclinic'
loop_
_space_group_symop_operation_xyz
x,y,z
-x,-y,-z
loop_
_atom_site_type_symbol
_atom_site_label
_atom_site_fract_x
_atom_site_fract_y
_atom_site_fract_z
Si Si1 0.233194 0.182093 0.786566
Si Si2 0.381021 0.906031 0.911501
Si Si3 0.576280 0.559445 0.756822
Si Si4 0.470656 0.155390 0.945095
Si Si5 0.445114 0.331536 0.175864
Si Si6 0.820543 0.392550 0.432817
Si Si7 0.947418 0.173905 0.574475
Si Si8 0.845918 0.290200 0.402679
O O1 0.240899 0.125709 0.892396
O O2 0.534415 0.286431 0.615396
O O3 0.984232 0.122654 0.625647
O O4 0.238950 0.229584 0.017641
O O5 0.578702 0.919555 0.952870
O O6 0.134780 0.820696 0.149618
O O7 0.267254 0.879014 0.630751
O O8 0.500000 0.000000 0.000000
O O9 0.500000 0.500000 0.500000
O O10 0.454079 0.577502 0.868606
O O11 0.911731 0.672213 0.704835
O O12 0.500000 0.500000 0.000000
O O13 0.670750 0.217579 0.669206
O O14 0.640548 0.232509 0.180409
O O15 0.700624 0.373429 0.172726
O O16 0.263793 0.285708 0.458795
O O17 0.986930 0.392280 0.433480
O O18 0.000000 0.500000 0.500000
#
# Coordination Sequence:
#
# PCOD9020897 Si02
#       8
#     2   2   2   2   2   2   2   2
#     4  10  23  42  69  95 129 184 226 267 327 393
#     4  12  25  45  73 105 135 167 210 275 339 395
#     4  12  27  39  56  87 127 170 224 280 330 379
#     4  11  23  44  67  98 128 167 223 266 318 410
#     4  11  22  42  66  88 129 180 225 266 332 392
#     4  10  22  37  61  93 132 169 227 282 328 368
#     4  11  24  44  72  98 132 175 220 261 326 412
#     4  11  23  41  62  92 124 176 219 272 328 378
#
# _framework density 25.739733999999999
#
# number of rings (size 3 to 8) (size 9 to 14) (size 15 to 20)
#    0.000    1.000    2.500    4.125    5.250    1.500 
#    0.000    1.250    0.000    0.000    0.000    0.000 
#    0.000    0.000    0.000    0.000    0.000    0.000 
#
# Total GULP energy -89207.514905 kJ/mol
# GULP energy per Si atom -5575.469682 kJ/mol
# Density = 2.568115 g / cm^3
# Si number density = 25.739734 Si / 1000 Ang^3
#
#
#
# Elastic Constant Matrix: (Units=GPa)
#
#
# Indices 1 2 3 4 5 6 
#
# 1 204.8364 50.5795 45.2147 -2.0698 47.3002 -45.9890
# 2 50.5795 71.3933 15.0529 1.6761 14.5999 -34.6558
# 3 45.2147 15.0529 135.6650 3.1960 18.9927 -2.5903
# 4 -2.0698 1.6761 3.1960 28.2316 -1.2350 -1.9494
# 5 47.3002 14.5999 18.9927 -1.2350 51.9598 -10.2292
# 6 -45.9890 -34.6558 -2.5903 -1.9494 -10.2292 54.2301
#
#
#
# Elastic Compliance Matrix: (Units=1/GPa)
#
#
# Indices 1 2 3 4 5 6 
#
# 1 0.007950 -0.002141 -0.001629 0.000970 -0.005159 0.004357
# 2 -0.002141 0.021809 -0.001271 -0.000557 -0.001409 0.011774
# 3 -0.001629 -0.001271 0.008271 -0.001200 -0.001635 -0.002150
# 4 0.000970 -0.000557 -0.001200 0.035831 0.000933 0.001873
# 5 -0.005159 -0.001409 -0.001635 0.000933 0.024832 -0.000636
# 6 0.004357 0.011774 -0.002150 0.001873 -0.000636 0.029504
#
#
# Mechanical properties :
#
#
# Convention : Reuss Voigt Hill
#
# Bulk Modulus (GPa) = 35.78260 70.39875 53.09068
# Shear Modulus (GPa) = 33.87629 46.95415 40.41522
#
# Velocity S-wave (km/s) = 3.63176 4.27569 3.96681
# Velocity P-wave (km/s) = 5.61410 7.19617 6.45380
#
# Compressibility (1/GPa) = 0.02794654
#
# Stress axis : x y z
#
# Youngs Moduli (GPa) = 125.79285 45.85327 120.90084
#
# Poissons Ratio (x) = 0.09818 0.19699
# Poissons Ratio (y) = 0.26935 0.15366
# Poissons Ratio (z) = 0.20496 0.05828
#
# Static dielectric constant tensor:
#      x y z
#    x 2.160910 -0.028520 0.018610 
#    y -0.028520 2.084420 -0.008980 
#    z 0.018610 -0.008980 2.103940 
# 
# From -- ./inp_files/53110.got.cif
#   From: 2010.05.17/outbox.cif.g08.bks.cpg/sg2_27_cif.got.tgz:53110.got - 2010.06.03 11:33:40.
