data_PCOD9020249
_publ_section_title
;
Structure prediction by ZEFSAII (Michael W. Deem and Ramdas Pophale) SiO2 
 PCOD9020249
Probable space group: P -1
;
_chemical_formula_sum "Si O2"
_cell_formula_units_Z 12
_cell_length_a 18.375509
_cell_length_b 4.998279
_cell_length_c 5.094123
_cell_angle_alpha 86.751834
_cell_angle_beta 96.501307
_cell_angle_gamma 65.995738
_cell_volume 421.933441
_symmetry_space_group_name_H-M "P -1"
_symmetry_group_IT_number 2
_symmetry_cell_setting 'triclinic'
loop_
_space_group_symop_operation_xyz
x,y,z
-x,-y,-z
loop_
_atom_site_type_symbol
_atom_site_label
_atom_site_fract_x
_atom_site_fract_y
_atom_site_fract_z
Si Si1 0.401816 0.286555 0.675483
Si Si2 0.168919 0.045055 0.336766
Si Si3 0.818570 0.526201 0.292889
Si Si4 0.416052 0.888478 0.215700
Si Si5 0.710307 0.317480 0.010533
Si Si6 0.993830 0.199659 0.236099
O O1 0.387567 0.129323 0.422456
O O2 0.488519 0.296348 0.695252
O O3 0.408056 0.065695 0.931663
O O4 0.333710 0.596758 0.726393
O O5 0.171976 0.754336 0.504809
O O6 0.214756 0.948926 0.084903
O O7 0.207538 0.200513 0.539484
O O8 0.073608 0.259266 0.264659
O O9 0.905615 0.458101 0.211723
O O10 0.755115 0.537972 0.043393
O O11 0.364431 0.696950 0.180304
O O12 0.000000 0.000000 0.500000
O O13 0.000000 0.000000 0.000000
#
# Coordination Sequence:
#
# PCOD9020249 Si02
#       6
#     2   2   2   2   2   2
#     4  10  24  45  69  98 137 185 234 288 355 429
#     4  11  26  45  70 104 145 190 239 295 355 423
#     4  11  26  45  70 104 145 190 239 295 355 423
#     4  10  24  45  69  98 137 185 234 288 355 429
#     4  12  25  39  70 100 146 176 242 289 369 402
#     4  10  21  48  70 103 141 195 238 292 350 427
#
# _framework density 28.440501000000001
#
# number of rings (size 3 to 8) (size 9 to 14) (size 15 to 20)
#    0.000    1.333    1.667    2.000    9.333    0.000 
#    0.000    8.333    0.000    0.000    0.000    0.000 
#    0.000    0.000    0.000    0.000    0.000    0.000 
#
# Total GULP energy -67221.098709 kJ/mol
# GULP energy per Si atom -5601.758226 kJ/mol
# Density = 2.837577 g / cm^3
# Si number density = 28.440501 Si / 1000 Ang^3
#
#
#
# Elastic Constant Matrix: (Units=GPa)
#
#
# Indices 1 2 3 4 5 6 
#
# 1 234.8684 79.7434 94.0157 25.8010 17.5960 -43.9558
# 2 79.7434 125.5912 51.1983 24.7260 -11.1811 3.2385
# 3 94.0157 51.1983 225.8867 42.6303 -11.7452 10.6174
# 4 25.8010 24.7260 42.6303 65.0115 3.8175 -13.2834
# 5 17.5960 -11.1811 -11.7452 3.8175 63.3611 -3.4098
# 6 -43.9558 3.2385 10.6174 -13.2834 -3.4098 62.0850
#
#
#
# Elastic Compliance Matrix: (Units=1/GPa)
#
#
# Indices 1 2 3 4 5 6 
#
# 1 0.008835 -0.005200 -0.003523 0.002528 -0.003775 0.007462
# 2 -0.005200 0.012322 0.000617 -0.004297 0.003715 -0.005145
# 3 -0.003523 0.000617 0.006930 -0.004448 0.002396 -0.004531
# 4 0.002528 -0.004297 -0.004448 0.020544 -0.003146 0.006997
# 5 -0.003775 0.003715 0.002396 -0.003146 0.017961 -0.002963
# 6 0.007462 -0.005145 -0.004531 0.006997 -0.002963 0.023768
#
#
# Mechanical properties :
#
#
# Convention : Reuss Voigt Hill
#
# Bulk Modulus (GPa) = 84.19954 115.14011 99.66982
# Shear Modulus (GPa) = 45.23734 62.18412 53.71073
#
# Velocity S-wave (km/s) = 3.99255 4.68104 4.35044
# Velocity P-wave (km/s) = 7.13609 8.35396 7.76892
#
# Compressibility (1/GPa) = 0.01187655
#
# Stress axis : x y z
#
# Youngs Moduli (GPa) = 113.18686 81.15833 144.29605
#
# Poissons Ratio (x) = 0.42201 0.50831
# Poissons Ratio (y) = 0.58855 -0.08908
# Poissons Ratio (z) = 0.39872 -0.05010
#
# Static dielectric constant tensor:
#      x y z
#    x 2.181990 -0.008640 0.018330 
#    y -0.008640 2.332410 -0.187380 
#    z 0.018330 -0.187380 2.183270 
# 
# From -- ./inp_files/5375.got.cif
#   From: 2010.05.17/outbox.cif.g08.bks.cpg/sg2_3_cif.got.tgz:5375.got - 2010.06.03 11:33:40.
