data_PCOD9020071
_publ_section_title
;
Structure prediction by ZEFSAII (Michael W. Deem and Ramdas Pophale) SiO2 
 PCOD9020071
Probable space group: P -1
;
_chemical_formula_sum "Si O2"
_cell_formula_units_Z 16
_cell_length_a 8.734301
_cell_length_b 8.190516
_cell_length_c 11.127578
_cell_angle_alpha 114.180264
_cell_angle_beta 89.781042
_cell_angle_gamma 71.057483
_cell_volume 678.191175
_symmetry_space_group_name_H-M "P -1"
_symmetry_group_IT_number 2
_symmetry_cell_setting 'triclinic'
loop_
_space_group_symop_operation_xyz
x,y,z
-x,-y,-z
loop_
_atom_site_type_symbol
_atom_site_label
_atom_site_fract_x
_atom_site_fract_y
_atom_site_fract_z
Si Si1 0.683406 0.933327 0.526281
Si Si2 0.264569 0.957754 0.694412
Si Si3 0.014081 0.048544 0.154020
Si Si4 0.680370 0.213360 0.826413
Si Si5 0.605021 0.635830 0.574621
Si Si6 0.128432 0.398362 0.866441
Si Si7 0.385138 0.370251 0.020698
Si Si8 0.845530 0.623811 0.772275
O O1 0.773158 0.996247 0.433955
O O2 0.704878 0.715719 0.499733
O O3 0.500000 0.000000 0.500000
O O4 0.681066 0.067474 0.678649
O O5 0.211359 0.171457 0.808736
O O6 0.453984 0.827792 0.673186
O O7 0.151785 0.871204 0.744579
O O8 0.106810 0.197331 0.213627
O O9 0.131953 0.851534 0.153507
O O10 0.000000 0.000000 0.000000
O O11 0.613709 0.435970 0.858143
O O12 0.558778 0.216352 0.937628
O O13 0.500000 0.500000 0.500000
O O14 0.741577 0.558183 0.654170
O O15 0.017879 0.466733 0.769090
O O16 0.286348 0.448961 0.918933
O O17 0.000000 0.500000 0.000000
O O18 0.275756 0.303263 0.091568
#
# Coordination Sequence:
#
# PCOD9020071 Si02
#       8
#     2   2   2   2   2   2   2   2
#     4  10  23  46  72  99 141 189 248 294 342 450
#     4  11  26  48  76 100 148 203 239 292 373 428
#     4  12  25  43  69 109 149 181 238 312 367 429
#     4  11  23  43  68 108 139 190 254 282 368 438
#     4  11  26  50  72 108 144 191 248 306 359 428
#     4  10  21  46  69 104 144 184 236 291 358 440
#     4  10  22  39  73 102 142 196 232 299 363 442
#     4  11  24  43  72 105 148 180 243 311 364 422
#
# _framework density 23.592169999999999
#
# number of rings (size 3 to 8) (size 9 to 14) (size 15 to 20)
#    0.000    1.250    1.250    5.250    5.250    2.000 
#    2.250    1.250    0.000    0.000    0.000    0.000 
#    0.000    0.000    0.000    0.000    0.000    0.000 
#
# Total GULP energy -89166.915235 kJ/mol
# GULP energy per Si atom -5572.932202 kJ/mol
# Density = 2.353847 g / cm^3
# Si number density = 23.592170 Si / 1000 Ang^3
#
#
#
# Elastic Constant Matrix: (Units=GPa)
#
#
# Indices 1 2 3 4 5 6 
#
# 1 99.9980 21.9265 39.6856 -11.5339 0.3899 10.9205
# 2 21.9265 58.8551 23.9117 4.6947 13.8946 5.7769
# 3 39.6856 23.9117 92.0758 -7.5487 14.7496 16.0432
# 4 -11.5339 4.6947 -7.5487 39.8489 1.9174 1.3267
# 5 0.3899 13.8946 14.7496 1.9174 54.6266 -4.5967
# 6 10.9205 5.7769 16.0432 1.3267 -4.5967 45.3191
#
#
#
# Elastic Compliance Matrix: (Units=1/GPa)
#
#
# Indices 1 2 3 4 5 6 
#
# 1 0.013083 -0.003630 -0.004552 0.003295 0.001860 -0.000986
# 2 -0.003630 0.021162 -0.003386 -0.003942 -0.004384 -0.000954
# 3 -0.004552 -0.003386 0.015225 0.002284 -0.003659 -0.004299
# 4 0.003295 -0.003942 0.002284 0.027048 -0.000753 -0.001968
# 5 0.001860 -0.004384 -0.003659 -0.000753 0.020719 0.003529
# 6 -0.000986 -0.000954 -0.004299 -0.001968 0.003529 0.024362
#
#
# Mechanical properties :
#
#
# Convention : Reuss Voigt Hill
#
# Bulk Modulus (GPa) = 37.97459 46.88629 42.43044
# Shear Modulus (GPa) = 32.57043 38.98592 35.77817
#
# Velocity S-wave (km/s) = 3.71962 4.06950 3.89849
# Velocity P-wave (km/s) = 5.88036 6.48058 6.18775
#
# Compressibility (1/GPa) = 0.02633340
#
# Stress axis : x y z
#
# Youngs Moduli (GPa) = 76.43289 47.25457 65.68356
#
# Poissons Ratio (x) = 0.17153 0.29902
# Poissons Ratio (y) = 0.27745 0.22240
# Poissons Ratio (z) = 0.34795 0.16000
#
# Static dielectric constant tensor:
#      x y z
#    x 1.962410 0.050240 0.004750 
#    y 0.050240 1.972940 -0.058890 
#    z 0.004750 -0.058890 1.934100 
# 
# From -- ./inp_files/382944.got.cif
#   From: 2010.05.17/outbox.cif.g08.bks.cpg/sg2_192_cif.got.tgz:382944.got - 2010.06.03 11:33:40.
