data_PCOD9020324
_publ_section_title
;
Structure prediction by ZEFSAII (Michael W. Deem and Ramdas Pophale) SiO2 
 PCOD9020324
Probable space group: P -1
;
_chemical_formula_sum "Si O2"
_cell_formula_units_Z 15
_cell_length_a 12.087619
_cell_length_b 27.005875
_cell_length_c 5.299208
_cell_angle_alpha 130.143086
_cell_angle_beta 112.714381
_cell_angle_gamma 31.874138
_cell_volume 640.075630
_symmetry_space_group_name_H-M "P -1"
_symmetry_group_IT_number 2
_symmetry_cell_setting 'triclinic'
loop_
_space_group_symop_operation_xyz
x,y,z
-x,-y,-z
loop_
_atom_site_type_symbol
_atom_site_label
_atom_site_fract_x
_atom_site_fract_y
_atom_site_fract_z
Si Si1 0.772249 0.285003 0.585636
Si Si2 0.994350 0.702410 0.206644
Si Si3 0.000000 0.000000 0.500000
Si Si4 0.279320 0.135507 0.001251
Si Si5 0.643206 0.276622 0.954235
Si Si6 0.262088 0.356380 0.765339
Si Si7 0.145767 0.367889 0.200771
Si Si8 0.744085 0.981079 0.099625
O O1 0.724037 0.285302 0.827483
O O2 0.780985 0.357966 0.812186
O O3 0.624204 0.319330 0.349643
O O4 0.029344 0.145217 0.270544
O O5 0.884347 0.762587 0.583398
O O6 0.824490 0.803109 0.162640
O O7 0.024282 0.613453 0.888856
O O8 0.178497 0.864495 0.321021
O O9 0.807233 0.026663 0.368806
O O10 0.519701 0.062072 0.011211
O O11 0.283242 0.056305 0.808277
O O12 0.410879 0.351325 0.904888
O O13 0.303332 0.298645 0.356607
O O14 0.291339 0.299778 0.851884
O O15 0.000000 0.500000 0.000000
O O16 0.000000 0.500000 0.500000
#
# Coordination Sequence:
#
# PCOD9020324 Si02
#       8
#     2   2   1   2   2   2   2   2
#     4  10  22  40  59  87 129 168 204 250 316 379
#     4  11  21  37  64  89 118 166 212 257 310 381
#     4  10  22  34  58  88 132 164 208 244 320 380
#     4  10  22  37  59  85 126 170 222 254 303 367
#     4  11  23  40  61  91 127 171 204 259 314 382
#     4  10  22  42  66  90 122 160 208 266 320 364
#     4  10  22  39  64  93 123 150 201 276 318 362
#     4   9  21  38  54  87 130 173 209 263 298 374
#
# _framework density 23.434730999999999
#
# number of rings (size 3 to 8) (size 9 to 14) (size 15 to 20)
#    0.000    1.867    0.000    4.000    3.733    9.067 
#    0.000    0.000    0.000   19.200    0.000    0.000 
#    0.000    0.000    0.000    0.000    0.000    0.000 
#
# Total GULP energy -83522.447917 kJ/mol
# GULP energy per Si atom -5568.163194 kJ/mol
# Density = 2.338139 g / cm^3
# Si number density = 23.434731 Si / 1000 Ang^3
#
#
#
# Elastic Constant Matrix: (Units=GPa)
#
#
# Indices 1 2 3 4 5 6 
#
# 1 117.6132 19.8441 44.8892 -7.7476 44.3760 -8.2081
# 2 19.8441 59.9641 36.9235 -11.5260 -10.5327 -29.2944
# 3 44.8892 36.9235 70.2438 -34.8677 21.0337 20.2105
# 4 -7.7476 -11.5260 -34.8677 27.1905 0.7075 -2.5901
# 5 44.3760 -10.5327 21.0337 0.7075 50.0181 -15.0255
# 6 -8.2081 -29.2944 20.2105 -2.5901 -15.0255 35.9817
#
#
#
# Elastic Compliance Matrix: (Units=1/GPa)
#
#
# Indices 1 2 3 4 5 6 
#
# 1 0.016303 -0.004082 -0.008218 -0.007361 -0.011911 -0.000492
# 2 -0.004082 0.001648 0.021180 0.025648 -0.009373 -0.013554
# 3 -0.008218 0.021180 -0.002209 0.005704 0.020253 0.025477
# 4 -0.007361 0.025648 0.005704 0.055000 0.016866 0.027000
# 5 -0.011911 -0.009373 0.020253 0.016866 0.015631 -0.013983
# 6 -0.000492 -0.013554 0.025477 0.027000 -0.013983 -0.001561
#
#
# Mechanical properties :
#
#
# Convention : Reuss Voigt Hill
#
# Bulk Modulus (GPa) = 29.84922 50.12609 39.98765
# Shear Modulus (GPa) = 63.92304 32.38234 48.15269
#
# Velocity S-wave (km/s) = 5.22841 3.72130 4.53786
# Velocity P-wave (km/s) = 7.01521 6.31666 6.67508
#
# Compressibility (1/GPa) = 0.03350172
#
# Stress axis : x y z
#
# Youngs Moduli (GPa) = 61.33973 606.92129 -452.78491
#
# Poissons Ratio (x) = 2.47728 -3.72115
# Poissons Ratio (y) = 0.25037 9.59001
# Poissons Ratio (z) = 0.50411 -12.85463
#
# Static dielectric constant tensor:
#      x y z
#    x 1.913160 -0.012770 -0.000080 
#    y -0.012770 1.902140 -0.033270 
#    z -0.000080 -0.033270 1.900650 
# 
# From -- ./inp_files/85274.got.cif
#   From: 2010.05.17/outbox.cif.g08.bks.cpg/sg2_43_cif.got.tgz:85274.got - 2010.06.03 11:33:40.
