data_PCOD9020890
_publ_section_title
;
Structure prediction by ZEFSAII (Michael W. Deem and Ramdas Pophale) SiO2 
 PCOD9020890
Probable space group: P -1
;
_chemical_formula_sum "Si O2"
_cell_formula_units_Z 14
_cell_length_a 5.518622
_cell_length_b 17.600966
_cell_length_c 9.142201
_cell_angle_alpha 68.979669
_cell_angle_beta 135.248599
_cell_angle_gamma 113.547602
_cell_volume 569.246590
_symmetry_space_group_name_H-M "P -1"
_symmetry_group_IT_number 2
_symmetry_cell_setting 'triclinic'
loop_
_space_group_symop_operation_xyz
x,y,z
-x,-y,-z
loop_
_atom_site_type_symbol
_atom_site_label
_atom_site_fract_x
_atom_site_fract_y
_atom_site_fract_z
Si Si1 0.716762 0.625503 0.531992
Si Si2 0.324874 0.920320 0.071648
Si Si3 0.006457 0.482665 0.839811
Si Si4 0.637688 0.022787 0.382283
Si Si5 0.557892 0.764547 0.180801
Si Si6 0.262400 0.335534 0.143515
Si Si7 0.401268 0.183484 0.158347
O O1 0.011500 0.569724 0.698449
O O2 0.365326 0.570357 0.344596
O O3 0.766746 0.708724 0.400776
O O4 0.657654 0.643089 0.666308
O O5 0.538623 0.847860 0.201988
O O6 0.331144 0.960693 0.203743
O O7 0.941072 0.877858 0.879445
O O8 0.500000 0.000000 0.000000
O O9 0.000000 0.500000 0.000000
O O10 0.266691 0.418424 0.988969
O O11 0.663956 0.121504 0.296959
O O12 0.500000 0.000000 0.500000
O O13 0.000000 0.000000 0.500000
O O14 0.707251 0.790224 0.066917
O O15 0.153761 0.713119 0.013301
O O16 0.473206 0.268820 0.219797
#
# Coordination Sequence:
#
# PCOD9020890 Si02
#       7
#     2   2   2   2   2   2   2
#     4   9  17  34  64  92 128 174 217 272 337 414
#     4  11  23  45  67  88 128 182 231 286 357 416
#     4   8  15  33  63  96 126 168 221 269 337 402
#     4  12  28  43  67 100 132 177 239 297 353 420
#     4  10  22  37  61  91 131 171 224 276 346 406
#     4   9  20  38  60  93 130 173 218 279 336 409
#     4  11  24  43  64  90 133 177 225 289 350 416
#
# _framework density 24.593910999999999
#
# number of rings (size 3 to 8) (size 9 to 14) (size 15 to 20)
#    0.000    2.000    1.429    1.286    6.000    0.000 
#    0.000    0.714    0.000   29.143    0.000    0.000 
#    0.000    0.000    0.000    0.000    0.000    0.000 
#
# Total GULP energy -78223.128299 kJ/mol
# GULP energy per Si atom -5587.366307 kJ/mol
# Density = 2.453793 g / cm^3
# Si number density = 24.593911 Si / 1000 Ang^3
#
#
#
# Elastic Constant Matrix: (Units=GPa)
#
#
# Indices 1 2 3 4 5 6 
#
# 1 75.2426 49.9998 55.2604 -19.2349 12.5586 -18.2876
# 2 49.9998 197.0444 87.5806 -27.8012 9.1928 -22.6214
# 3 55.2604 87.5806 168.9239 -24.3661 3.8533 -19.9450
# 4 -19.2349 -27.8012 -24.3661 62.2325 -5.8729 -3.0533
# 5 12.5586 9.1928 3.8533 -5.8729 51.4417 -6.0239
# 6 -18.2876 -22.6214 -19.9450 -3.0533 -6.0239 38.1600
#
#
#
# Elastic Compliance Matrix: (Units=1/GPa)
#
#
# Indices 1 2 3 4 5 6 
#
# 1 0.020911 -0.001888 -0.004479 0.003872 -0.003246 0.006359
# 2 -0.001888 0.007210 -0.002623 0.001695 -0.000191 0.002104
# 3 -0.004479 -0.002623 0.009039 0.001157 0.001169 0.001300
# 4 0.003872 0.001695 0.001157 0.018866 0.001428 0.005200
# 5 -0.003246 -0.000191 0.001169 0.001428 0.020612 0.002311
# 6 0.006359 0.002104 0.001300 0.005200 0.002311 0.031960
#
#
# Mechanical properties :
#
#
# Convention : Reuss Voigt Hill
#
# Bulk Modulus (GPa) = 52.13655 91.87695 72.00675
# Shear Modulus (GPa) = 37.60257 46.92483 42.26370
#
# Velocity S-wave (km/s) = 3.91441 4.37279 4.14993
# Velocity P-wave (km/s) = 6.45562 7.93308 7.23218
#
# Compressibility (1/GPa) = 0.01918040
#
# Stress axis : x y z
#
# Youngs Moduli (GPa) = 47.82141 138.70579 110.63704
#
# Poissons Ratio (x) = 0.26185 0.49550
# Poissons Ratio (y) = 0.09028 0.29020
# Poissons Ratio (z) = 0.21417 0.36383
#
# Static dielectric constant tensor:
#      x y z
#    x 2.008400 0.064030 0.080410 
#    y 0.064030 2.026640 -0.006500 
#    z 0.080410 -0.006500 1.912570 
# 
# From -- ./inp_files/104440.got.cif
#   From: 2010.05.17/outbox.cif.g08.bks.cpg/sg2_53_cif.got.tgz:104440.got - 2010.06.03 11:33:40.
