data_PCOD9020104
_publ_section_title
;
Structure prediction by ZEFSAII (Michael W. Deem and Ramdas Pophale) SiO2 
 PCOD9020104
Probable space group: P -1
;
_chemical_formula_sum "Si O2"
_cell_formula_units_Z 16
_cell_length_a 14.482685
_cell_length_b 18.978483
_cell_length_c 5.368323
_cell_angle_alpha 98.151016
_cell_angle_beta 93.123439
_cell_angle_gamma 29.014723
_cell_volume 700.993100
_symmetry_space_group_name_H-M "P -1"
_symmetry_group_IT_number 2
_symmetry_cell_setting 'triclinic'
loop_
_space_group_symop_operation_xyz
x,y,z
-x,-y,-z
loop_
_atom_site_type_symbol
_atom_site_label
_atom_site_fract_x
_atom_site_fract_y
_atom_site_fract_z
Si Si1 0.501392 0.231087 0.348665
Si Si2 0.221879 0.338672 0.689332
Si Si3 0.705430 0.834640 0.029043
Si Si4 0.830972 0.114643 0.836054
Si Si5 0.586182 0.625557 0.081668
Si Si6 0.949426 0.311899 0.745010
Si Si7 0.027118 0.593753 0.593383
Si Si8 0.924979 0.933416 0.407026
O O1 0.384409 0.242869 0.453164
O O2 0.418146 0.311570 0.109899
O O3 0.729906 0.064575 0.276591
O O4 0.463052 0.314910 0.610392
O O5 0.306649 0.232578 0.863486
O O6 0.026089 0.428777 0.633614
O O7 0.140292 0.474572 0.766095
O O8 0.846624 0.791355 0.186938
O O9 0.822877 0.749496 0.750859
O O10 0.500000 0.000000 0.000000
O O11 0.906529 0.125011 0.667721
O O12 0.838642 0.028838 0.688073
O O13 0.615684 0.277648 0.969085
O O14 0.000000 0.000000 0.000000
O O15 0.774940 0.449156 0.977068
O O16 0.894117 0.391033 0.524357
O O17 0.988228 0.203445 0.645820
#
# Coordination Sequence:
#
# PCOD9020104 Si02
#       8
#     2   2   2   2   2   2   2   2
#     4  11  23  41  70 100 136 187 244 279 351 426
#     4  10  22  38  64  90 126 187 231 284 334 416
#     4  11  26  40  62  94 144 185 231 295 350 408
#     4  10  21  46  70  99 139 179 235 283 363 437
#     4  11  24  44  71 103 141 186 234 300 348 432
#     4  11  25  43  65 103 140 180 238 296 356 413
#     4  10  22  41  61  90 135 174 235 283 348 406
#     4  10  24  41  70 102 138 183 229 297 354 430
#
# _framework density 22.824760000000001
#
# number of rings (size 3 to 8) (size 9 to 14) (size 15 to 20)
#    0.000    1.500    2.500    1.125    5.250    2.500 
#    0.000    0.625    0.000    0.000    0.000    0.000 
#    0.000    0.000    0.000    0.000    0.000    0.000 
#
# Total GULP energy -89129.586096 kJ/mol
# GULP energy per Si atom -5570.599131 kJ/mol
# Density = 2.277281 g / cm^3
# Si number density = 22.824760 Si / 1000 Ang^3
#
#
#
# Elastic Constant Matrix: (Units=GPa)
#
#
# Indices 1 2 3 4 5 6 
#
# 1 101.0689 56.0024 33.5500 18.5032 -2.2523 11.4466
# 2 56.0024 179.0156 61.1771 5.0538 -0.2565 9.7759
# 3 33.5500 61.1771 78.2893 2.5170 -12.2964 8.9820
# 4 18.5032 5.0538 2.5170 29.8441 -10.3350 9.8304
# 5 -2.2523 -0.2565 -12.2964 -10.3350 38.8199 11.4235
# 6 11.4466 9.7759 8.9820 9.8304 11.4235 38.9342
#
#
#
# Elastic Compliance Matrix: (Units=1/GPa)
#
#
# Indices 1 2 3 4 5 6 
#
# 1 0.014476 -0.002841 -0.004296 -0.009563 -0.003333 0.000841
# 2 -0.002841 0.008413 -0.005785 -0.000191 -0.002215 0.000756
# 3 -0.004296 -0.005785 0.021429 0.008033 0.010826 -0.007433
# 4 -0.009563 -0.000191 0.008033 0.052252 0.021327 -0.018444
# 5 -0.003333 -0.002215 0.010826 0.021327 0.039979 -0.018076
# 6 0.000841 0.000756 -0.007433 -0.018444 -0.018076 0.036923
#
#
# Mechanical properties :
#
#
# Convention : Reuss Voigt Hill
#
# Bulk Modulus (GPa) = 54.12908 73.31477 63.72192
# Shear Modulus (GPa) = 24.33408 35.36260 29.84834
#
# Velocity S-wave (km/s) = 3.26870 3.94040 3.62016
# Velocity P-wave (km/s) = 6.16542 7.27274 6.74185
#
# Compressibility (1/GPa) = 0.01847436
#
# Stress axis : x y z
#
# Youngs Moduli (GPa) = 69.08127 118.86641 46.66501
#
# Poissons Ratio (x) = 0.33773 0.20046
# Poissons Ratio (y) = 0.19628 0.26995
# Poissons Ratio (z) = 0.29675 0.68762
#
# Static dielectric constant tensor:
#      x y z
#    x 2.019140 -0.121570 0.049270 
#    y -0.121570 1.923160 -0.047160 
#    z 0.049270 -0.047160 1.962170 
# 
# From -- ./inp_files/45719.got.cif
#   From: 2010.05.17/outbox.cif.g08.bks.cpg/sg2_23_cif.got.tgz:45719.got - 2010.06.03 11:33:40.
