data_PCOD9020443
_publ_section_title
;
Structure prediction by ZEFSAII (Michael W. Deem and Ramdas Pophale) SiO2 
 PCOD9020443
Probable space group: P -1
;
_chemical_formula_sum "Si O2"
_cell_formula_units_Z 14
_cell_length_a 9.735356
_cell_length_b 8.742757
_cell_length_c 8.434874
_cell_angle_alpha 112.132641
_cell_angle_beta 85.373832
_cell_angle_gamma 79.286168
_cell_volume 644.412669
_symmetry_space_group_name_H-M "P -1"
_symmetry_group_IT_number 2
_symmetry_cell_setting 'triclinic'
loop_
_space_group_symop_operation_xyz
x,y,z
-x,-y,-z
loop_
_atom_site_type_symbol
_atom_site_label
_atom_site_fract_x
_atom_site_fract_y
_atom_site_fract_z
Si Si1 0.518413 0.041310 0.776381
Si Si2 0.751782 0.767810 0.765709
Si Si3 0.107260 0.495336 0.130649
Si Si4 0.414245 0.527164 0.356358
Si Si5 0.136016 0.245234 0.602537
Si Si6 0.647421 0.601464 0.137051
Si Si7 0.691658 0.092226 0.461627
O O1 0.606402 0.056149 0.612605
O O2 0.633382 0.944215 0.853082
O O3 0.404894 0.935320 0.690019
O O4 0.431981 0.231884 0.888022
O O5 0.858119 0.692455 0.867584
O O6 0.667869 0.619378 0.703986
O O7 0.832158 0.768241 0.592076
O O8 0.249592 0.520623 0.041933
O O9 0.019682 0.638867 0.309186
O O10 0.000000 0.500000 0.000000
O O11 0.500000 0.500000 0.500000
O O12 0.530030 0.529144 0.209780
O O13 0.307453 0.712322 0.449783
O O14 0.166557 0.056851 0.602695
O O15 0.253397 0.331093 0.714427
#
# Coordination Sequence:
#
# PCOD9020443 Si02
#       7
#     2   2   2   2   2   2   2
#     4   8  14  27  49  77 102 123 164 206 251 295
#     4  11  19  30  55  83  97 127 173 211 247 295
#     4  10  22  36  50  70 104 142 172 205 239 292
#     4  11  17  29  53  84 105 122 158 214 264 298
#     4   9  17  34  55  74  98 134 177 202 234 298
#     4   9  18  33  52  76 107 133 155 204 267 299
#     4   8  14  27  49  77 103 127 154 209 257 288
#
# _framework density 21.725209
#
# number of rings (size 3 to 8) (size 9 to 14) (size 15 to 20)
#    0.000    2.571    2.857    2.143    0.000    1.143 
#    0.000    0.714    0.000    2.571    0.000    0.000 
#    0.000    0.000    0.000    0.000    0.000    0.000 
#
# Total GULP energy -78136.694239 kJ/mol
# GULP energy per Si atom -5581.192446 kJ/mol
# Density = 2.167576 g / cm^3
# Si number density = 21.725209 Si / 1000 Ang^3
#
#
#
# Elastic Constant Matrix: (Units=GPa)
#
#
# Indices 1 2 3 4 5 6 
#
# 1 65.8315 42.4603 29.4937 7.2946 -19.0484 -19.4677
# 2 42.4603 126.4787 23.7270 -9.2837 -10.9061 -32.4432
# 3 29.4937 23.7270 54.4742 -5.3039 -19.3356 -12.6927
# 4 7.2946 -9.2837 -5.3039 38.0880 -13.0862 4.5740
# 5 -19.0484 -10.9061 -19.3356 -13.0862 40.6883 4.4109
# 6 -19.4677 -32.4432 -12.6927 4.5740 4.4109 34.8094
#
#
#
# Elastic Compliance Matrix: (Units=1/GPa)
#
#
# Indices 1 2 3 4 5 6 
#
# 1 0.027336 -0.005818 -0.010383 -0.007861 0.003047 0.006726
# 2 -0.005818 0.012073 0.000347 0.003545 0.001001 0.007533
# 3 -0.010383 0.000347 0.029797 0.010186 0.012400 0.002472
# 4 -0.007861 0.003545 0.010186 0.035257 0.013858 -0.003767
# 5 0.003047 0.001001 0.012400 0.013858 0.036545 0.000706
# 6 0.006726 0.007533 0.002472 -0.003767 0.000706 0.040817
#
#
# Mechanical properties :
#
#
# Convention : Reuss Voigt Hill
#
# Bulk Modulus (GPa) = 26.66821 48.68294 37.67558
# Shear Modulus (GPa) = 22.12060 32.79070 27.45565
#
# Velocity S-wave (km/s) = 3.19439 3.88924 3.55881
# Velocity P-wave (km/s) = 5.08993 6.52881 5.85375
#
# Compressibility (1/GPa) = 0.03749782
#
# Stress axis : x y z
#
# Youngs Moduli (GPa) = 36.58118 82.82746 33.56042
#
# Poissons Ratio (x) = 0.48191 0.34846
# Poissons Ratio (y) = 0.21284 -0.01164
# Poissons Ratio (z) = 0.37983 -0.02873
#
# Static dielectric constant tensor:
#      x y z
#    x 1.841240 -0.087740 -0.006830 
#    y -0.087740 1.832140 -0.004330 
#    z -0.006830 -0.004330 1.880990 
# 
# From -- ./inp_files/168017.got.cif
#   From: 2010.05.17/outbox.cif.g08.bks.cpg/sg2_85_cif.got.tgz:168017.got - 2010.06.03 11:33:40.
