data_PCOD9020079
_publ_section_title
;
Structure prediction by ZEFSAII (Michael W. Deem and Ramdas Pophale) SiO2 
 PCOD9020079
Probable space group: P -1
;
_chemical_formula_sum "Si O2"
_cell_formula_units_Z 16
_cell_length_a 19.624193
_cell_length_b 18.740573
_cell_length_c 5.559078
_cell_angle_alpha 133.704514
_cell_angle_beta 47.525802
_cell_angle_gamma 153.353456
_cell_volume 652.261619
_symmetry_space_group_name_H-M "P -1"
_symmetry_group_IT_number 2
_symmetry_cell_setting 'triclinic'
loop_
_space_group_symop_operation_xyz
x,y,z
-x,-y,-z
loop_
_atom_site_type_symbol
_atom_site_label
_atom_site_fract_x
_atom_site_fract_y
_atom_site_fract_z
Si Si1 0.686806 0.601729 0.878581
Si Si2 0.826675 0.069545 0.854260
Si Si3 0.519783 0.428085 0.472311
Si Si4 0.320122 0.976387 0.403844
Si Si5 0.912514 0.923240 0.281660
Si Si6 0.901064 0.564403 0.867577
Si Si7 0.135461 0.635438 0.181465
Si Si8 0.398194 0.664457 0.266613
O O1 0.599860 0.634011 0.189590
O O2 0.829162 0.746249 0.043825
O O3 0.688721 0.587150 0.556775
O O4 0.613976 0.437615 0.759704
O O5 0.738777 0.039276 0.757059
O O6 0.820687 0.947110 0.564465
O O7 0.766958 0.047629 0.214122
O O8 0.006110 0.260175 0.855845
O O9 0.500000 0.500000 0.500000
O O10 0.512465 0.313816 0.116972
O O11 0.271913 0.820088 0.182209
O O12 0.496940 0.160111 0.462604
O O13 0.000000 0.000000 0.500000
O O14 0.000000 0.000000 0.000000
O O15 0.822061 0.433021 0.962345
O O16 0.771467 0.458652 0.722201
O O17 0.048186 0.626409 0.569383
O O18 0.000000 0.500000 0.000000
#
# Coordination Sequence:
#
# PCOD9020079 Si02
#       8
#     2   2   2   2   2   2   2   2
#     4  10  23  40  61  90 134 181 223 269 339 386
#     4  11  24  45  67  96 136 182 228 270 344 409
#     4   9  21  38  63  85 128 178 219 270 331 391
#     4  11  25  43  71 100 133 174 227 282 335 414
#     4  12  27  41  64  97 136 178 230 284 324 390
#     4  10  23  42  71  96 131 176 221 278 343 417
#     4  10  21  46  69  96 131 177 214 271 362 415
#     4  11  24  40  66 100 131 172 231 282 329 392
#
# _framework density 24.530034000000001
#
# number of rings (size 3 to 8) (size 9 to 14) (size 15 to 20)
#    0.000    1.500    1.250    2.250   12.250    2.500 
#    0.000    0.625    0.000    0.000    0.000    0.000 
#    0.000    0.000    0.000    0.000    0.000    0.000 
#
# Total GULP energy -89182.728493 kJ/mol
# GULP energy per Si atom -5573.920531 kJ/mol
# Density = 2.447420 g / cm^3
# Si number density = 24.530034 Si / 1000 Ang^3
#
#
#
# Elastic Constant Matrix: (Units=GPa)
#
#
# Indices 1 2 3 4 5 6 
#
# 1 120.5978 37.3309 18.4419 14.7246 28.6231 0.8062
# 2 37.3309 96.2846 37.2765 44.8621 4.0428 1.2944
# 3 18.4419 37.2765 87.4190 22.8188 21.7857 2.2397
# 4 14.7246 44.8621 22.8188 65.9451 6.3770 2.9448
# 5 28.6231 4.0428 21.7857 6.3770 48.8909 4.8315
# 6 0.8062 1.2944 2.2397 2.9448 4.8315 31.0975
#
#
#
# Elastic Compliance Matrix: (Units=1/GPa)
#
#
# Indices 1 2 3 4 5 6 
#
# 1 0.011158 -0.005050 0.001189 0.001162 -0.006875 0.000793
# 2 -0.005050 0.019214 -0.005708 -0.010476 0.005286 -0.000087
# 3 0.001189 -0.005708 0.015678 -0.001134 -0.007091 0.000287
# 4 0.001162 -0.010476 -0.001134 0.022690 -0.002137 -0.001329
# 5 -0.006875 0.005286 -0.007091 -0.002137 0.027841 -0.003654
# 6 0.000793 -0.000087 0.000287 -0.001329 -0.003654 0.032813
#
#
# Mechanical properties :
#
#
# Convention : Reuss Voigt Hill
#
# Bulk Modulus (GPa) = 37.15863 54.48887 45.82375
# Shear Modulus (GPa) = 31.74562 43.27020 37.50791
#
# Velocity S-wave (km/s) = 3.60134 4.20452 3.91456
# Velocity P-wave (km/s) = 5.69859 6.76993 6.25723
#
# Compressibility (1/GPa) = 0.02691165
#
# Stress axis : x y z
#
# Youngs Moduli (GPa) = 89.62344 52.04567 63.78253
#
# Poissons Ratio (x) = 0.26282 -0.07584
# Poissons Ratio (y) = 0.45257 0.36410
# Poissons Ratio (z) = -0.10656 0.29710
#
# Static dielectric constant tensor:
#      x y z
#    x 2.021330 0.119840 -0.004980 
#    y 0.119840 2.396850 0.067230 
#    z -0.004980 0.067230 2.235250 
# 
# From -- ./inp_files/111714.got.cif
#   From: 2010.05.17/outbox.cif.g08.bks.cpg/sg2_56_cif.got.tgz:111714.got - 2010.06.03 11:33:40.
