data_PCOD9020887
_publ_section_title
;
Structure prediction by ZEFSAII (Michael W. Deem and Ramdas Pophale) SiO2 
 PCOD9020887
Probable space group: P -1
;
_chemical_formula_sum "Si O2"
_cell_formula_units_Z 12
_cell_length_a 7.109105
_cell_length_b 13.018100
_cell_length_c 7.650724
_cell_angle_alpha 51.437261
_cell_angle_beta 111.023917
_cell_angle_gamma 126.515024
_cell_volume 444.880871
_symmetry_space_group_name_H-M "P -1"
_symmetry_group_IT_number 2
_symmetry_cell_setting 'triclinic'
loop_
_space_group_symop_operation_xyz
x,y,z
-x,-y,-z
loop_
_atom_site_type_symbol
_atom_site_label
_atom_site_fract_x
_atom_site_fract_y
_atom_site_fract_z
Si Si1 0.095066 0.210774 0.770906
Si Si2 0.852628 0.570679 0.729475
Si Si3 0.766279 0.670268 0.959813
Si Si4 0.766264 0.403121 0.398171
Si Si5 0.510079 0.221745 0.061759
Si Si6 0.576220 0.064105 0.762045
O O1 0.213649 0.357204 0.529987
O O2 0.039418 0.234164 0.929518
O O3 0.289455 0.165172 0.911208
O O4 0.834609 0.110670 0.721604
O O5 0.847436 0.651329 0.820115
O O6 0.696283 0.388453 0.877268
O O7 0.110663 0.606213 0.728806
O O8 0.654196 0.506376 0.199355
O O9 0.605684 0.745852 0.842091
O O10 0.598722 0.230414 0.587980
O O11 0.000000 0.500000 0.500000
O O12 0.578913 0.092944 0.233178
O O13 0.500000 0.000000 0.000000
#
# Coordination Sequence:
#
# PCOD9020887 Si02
#       6
#     2   2   2   2   2   2
#     4   9  22  38  63  87 118 153 205 233 295 348
#     4  11  20  38  65  89 118 157 197 246 290 349
#     4  10  22  38  64  88 120 153 204 240 289 352
#     4  11  20  40  61  89 117 156 204 239 290 358
#     4  10  22  37  61  91 122 152 197 244 297 348
#     4  11  22  37  64  88 120 158 196 245 301 346
#
# _framework density 26.973509
#
# number of rings (size 3 to 8) (size 9 to 14) (size 15 to 20)
#    1.000    0.667    3.333    3.000    0.000    0.000 
#    0.000    4.167    3.667    0.000    0.000    0.000 
#    0.000    0.000    0.000    0.000    0.000    0.000 
#
# Total GULP energy -66880.807376 kJ/mol
# GULP energy per Si atom -5573.400615 kJ/mol
# Density = 2.691212 g / cm^3
# Si number density = 26.973509 Si / 1000 Ang^3
#
#
#
# Elastic Constant Matrix: (Units=GPa)
#
#
# Indices 1 2 3 4 5 6 
#
# 1 90.3799 37.7392 42.0026 3.3392 -11.1603 -24.5037
# 2 37.7392 97.1187 48.3269 -13.5216 -6.2886 -32.5882
# 3 42.0026 48.3269 125.7931 -7.9958 -6.5086 -15.4362
# 4 3.3392 -13.5216 -7.9958 47.7848 -3.4989 1.1198
# 5 -11.1603 -6.2886 -6.5086 -3.4989 44.3811 2.5720
# 6 -24.5037 -32.5882 -15.4362 1.1198 2.5720 52.4371
#
#
#
# Elastic Compliance Matrix: (Units=1/GPa)
#
#
# Indices 1 2 3 4 5 6 
#
# 1 0.015522 -0.003025 -0.003522 -0.002446 0.002518 0.004265
# 2 -0.003025 0.016745 -0.004178 0.004136 0.000883 0.007631
# 3 -0.003522 -0.004178 0.010660 0.000890 0.000221 -0.001134
# 4 -0.002446 0.004136 0.000890 0.022524 0.001812 0.001120
# 5 0.002518 0.000883 0.000221 0.001812 0.023431 0.000603
# 6 0.004265 0.007631 -0.001134 0.001120 0.000603 0.025419
#
#
# Mechanical properties :
#
#
# Convention : Reuss Voigt Hill
#
# Bulk Modulus (GPa) = 46.56416 63.26991 54.91704
# Shear Modulus (GPa) = 34.98695 41.26880 38.12787
#
# Velocity S-wave (km/s) = 3.60541 3.91573 3.76377
# Velocity P-wave (km/s) = 5.88493 6.62957 6.26832
#
# Compressibility (1/GPa) = 0.02147574
#
# Stress axis : x y z
#
# Youngs Moduli (GPa) = 64.42327 59.71945 93.81207
#
# Poissons Ratio (x) = 0.18067 0.33045
# Poissons Ratio (y) = 0.19490 0.39193
# Poissons Ratio (z) = 0.22693 0.24950
#
# Static dielectric constant tensor:
#      x y z
#    x 2.119070 0.007010 0.063230 
#    y 0.007010 2.349950 0.038630 
#    z 0.063230 0.038630 2.143300 
# 
# From -- ./inp_files/211751.got.cif
#   From: 2010.05.17/outbox.cif.g08.bks.cpg/sg2_106_cif.got.tgz:211751.got - 2010.06.03 11:33:40.
