data_PCOD9020604
_publ_section_title
;
Structure prediction by ZEFSAII (Michael W. Deem and Ramdas Pophale) SiO2 
 PCOD9020604
Probable space group: P -1
;
_chemical_formula_sum "Si O2"
_cell_formula_units_Z 16
_cell_length_a 15.600995
_cell_length_b 11.384406
_cell_length_c 23.578733
_cell_angle_alpha 151.060495
_cell_angle_beta 158.629716
_cell_angle_gamma 39.031582
_cell_volume 720.907209
_symmetry_space_group_name_H-M "P -1"
_symmetry_group_IT_number 2
_symmetry_cell_setting 'triclinic'
loop_
_space_group_symop_operation_xyz
x,y,z
-x,-y,-z
loop_
_atom_site_type_symbol
_atom_site_label
_atom_site_fract_x
_atom_site_fract_y
_atom_site_fract_z
Si Si1 0.362234 0.551103 0.091652
Si Si2 0.748440 0.303656 0.040215
Si Si3 0.774175 0.855877 0.335523
Si Si4 0.201639 0.812535 0.202516
Si Si5 0.250010 0.072215 0.891545
Si Si6 0.177317 0.349079 0.401816
Si Si7 0.099254 0.333446 0.554959
Si Si8 0.299806 0.400887 0.172615
O O1 0.260651 0.640183 0.008495
O O2 0.223229 0.293764 0.925379
O O3 0.364346 0.758978 0.228444
O O4 0.634432 0.520587 0.235163
O O5 0.746361 0.569324 0.179638
O O6 0.991252 0.254349 0.195972
O O7 0.500953 0.110460 0.824157
O O8 0.850705 0.866537 0.452410
O O9 0.000000 0.000000 0.500000
O O10 0.249169 0.648083 0.215482
O O11 0.234030 0.099866 0.357463
O O12 0.921928 0.699550 0.965172
O O13 0.044960 0.826444 0.651727
O O14 0.270144 0.191774 0.016669
O O15 0.500000 0.000000 0.000000
O O16 0.424281 0.527352 0.607923
O O17 0.057835 0.499969 0.438563
#
# Coordination Sequence:
#
# PCOD9020604 Si02
#       8
#     2   2   2   2   2   2   2   2
#     4  10  23  42  61  88 127 160 200 250 307 356
#     4   9  20  36  57  92 120 155 202 247 296 366
#     4   9  17  34  58  85 125 161 190 238 309 356
#     4  10  24  42  62  82 122 170 200 249 301 363
#     4  11  22  38  61  92 120 155 203 256 296 354
#     4  11  22  38  64  91 121 157 201 251 305 357
#     4  10  22  36  62  95 119 154 200 253 304 356
#     4  10  23  43  61  87 122 160 209 245 306 362
#
# _framework density 22.194257
#
# number of rings (size 3 to 8) (size 9 to 14) (size 15 to 20)
#    0.000    2.000    1.250    1.875    1.750    8.000 
#    0.000    0.625    0.000    0.000    0.000    0.000 
#    0.000    0.000    0.000    0.000    0.000    0.000 
#
# Total GULP energy -89332.422156 kJ/mol
# GULP energy per Si atom -5583.276385 kJ/mol
# Density = 2.214374 g / cm^3
# Si number density = 22.194257 Si / 1000 Ang^3
#
#
#
# Elastic Constant Matrix: (Units=GPa)
#
#
# Indices 1 2 3 4 5 6 
#
# 1 36.4828 10.8936 16.9439 -12.3824 7.0788 4.4202
# 2 10.8936 51.1894 20.0423 -1.9056 -10.9579 -10.3843
# 3 16.9439 20.0423 94.4582 -14.4164 -2.7223 4.7657
# 4 -12.3824 -1.9056 -14.4164 24.0081 -6.5311 -2.4914
# 5 7.0788 -10.9579 -2.7223 -6.5311 27.3192 -3.7171
# 6 4.4202 -10.3843 4.7657 -2.4914 -3.7171 31.0187
#
#
#
# Elastic Compliance Matrix: (Units=1/GPa)
#
#
# Indices 1 2 3 4 5 6 
#
# 1 0.040772 -0.012160 -0.002524 0.013760 -0.013770 -0.010038
# 2 -0.012160 0.030463 -0.004620 -0.000552 0.016765 0.014606
# 3 -0.002524 -0.004620 0.013148 0.006308 0.001272 -0.002548
# 4 0.013760 -0.000552 0.006308 0.055619 0.010494 0.002610
# 5 -0.013770 0.016765 0.001272 0.010494 0.051491 0.014392
# 6 -0.010038 0.014606 -0.002548 0.002610 0.014392 0.040885
#
#
# Mechanical properties :
#
#
# Convention : Reuss Voigt Hill
#
# Bulk Modulus (GPa) = 21.84650 30.87667 26.36158
# Shear Modulus (GPa) = 17.46763 25.41921 21.44342
#
# Velocity S-wave (km/s) = 2.80846 3.38791 3.11170
# Velocity P-wave (km/s) = 4.51456 5.40797 4.98133
#
# Compressibility (1/GPa) = 0.04577392
#
# Stress axis : x y z
#
# Youngs Moduli (GPa) = 24.52693 32.82634 76.05844
#
# Poissons Ratio (x) = 0.39917 0.19195
# Poissons Ratio (y) = 0.29825 0.35142
# Poissons Ratio (z) = 0.06190 0.15167
#
# Static dielectric constant tensor:
#      x y z
#    x 1.907240 -0.004330 0.006640 
#    y -0.004330 1.886460 -0.039950 
#    z 0.006640 -0.039950 1.880270 
# 
# From -- ./inp_files/620348.got.cif
#   From: 2010.05.17/outbox.cif.g08.bks.cpg/sg2_311_cif.got.tgz:620348.got - 2010.06.03 11:33:40.
