data_PCOD9020501
_publ_section_title
;
Structure prediction by ZEFSAII (Michael W. Deem and Ramdas Pophale) SiO2 
 PCOD9020501
Probable space group: P -1
;
_chemical_formula_sum "Si O2"
_cell_formula_units_Z 16
_cell_length_a 15.052884
_cell_length_b 19.073916
_cell_length_c 7.851885
_cell_angle_alpha 123.151143
_cell_angle_beta 69.161050
_cell_angle_gamma 156.531844
_cell_volume 675.906515
_symmetry_space_group_name_H-M "P -1"
_symmetry_group_IT_number 2
_symmetry_cell_setting 'triclinic'
loop_
_space_group_symop_operation_xyz
x,y,z
-x,-y,-z
loop_
_atom_site_type_symbol
_atom_site_label
_atom_site_fract_x
_atom_site_fract_y
_atom_site_fract_z
Si Si1 0.197317 0.052275 0.981763
Si Si2 0.619352 0.080019 0.339466
Si Si3 0.330635 0.328967 0.098879
Si Si4 0.547674 0.813425 0.713016
Si Si5 0.772265 0.381830 0.593853
Si Si6 0.705775 0.769667 0.375768
Si Si7 0.760866 0.053436 0.425042
Si Si8 0.826764 0.201109 0.899785
O O1 0.275364 0.211692 0.116248
O O2 0.412429 0.182796 0.116728
O O3 0.155859 0.969752 0.723014
O O4 0.929476 0.833237 0.964604
O O5 0.385942 0.902907 0.137884
O O6 0.500000 0.000000 0.500000
O O7 0.797325 0.301490 0.463309
O O8 0.746856 0.096730 0.318526
O O9 0.549894 0.570796 0.315468
O O10 0.379384 0.318685 0.876745
O O11 0.286430 0.625880 0.559505
O O12 0.636830 0.805278 0.534769
O O13 0.710589 0.028987 0.853497
O O14 0.508590 0.175006 0.604365
O O15 0.966955 0.587502 0.849361
O O16 0.000000 0.000000 0.500000
O O17 0.909986 0.226721 0.697358
#
# Coordination Sequence:
#
# PCOD9020501 Si02
#       8
#     2   2   2   2   2   2   2   2
#     4  11  22  43  56  93 129 154 194 255 312 358
#     4   7  15  31  55  86 115 155 198 250 287 342
#     4  10  24  41  65  85 119 158 203 251 301 361
#     4  10  22  36  58  86 119 155 195 246 295 356
#     4   9  18  35  59  85 117 159 207 240 287 357
#     4  11  22  43  64  87 111 160 208 245 293 365
#     4   9  19  35  57  87 123 153 196 249 302 354
#     4   9  18  35  59  86 115 160 204 245 286 355
#
# _framework density 23.671914999999998
#
# number of rings (size 3 to 8) (size 9 to 14) (size 15 to 20)
#    0.000    3.000    1.250    1.500    1.750    6.000 
#    2.250    2.500    0.000    1.500    0.000    0.000 
#    0.000    0.000    0.000    0.000    0.000    0.000 
#
# Total GULP energy -89341.236750 kJ/mol
# GULP energy per Si atom -5583.827297 kJ/mol
# Density = 2.361804 g / cm^3
# Si number density = 23.671915 Si / 1000 Ang^3
#
#
#
# Elastic Constant Matrix: (Units=GPa)
#
#
# Indices 1 2 3 4 5 6 
#
# 1 90.2962 15.2168 39.0555 17.9687 7.4062 -14.7869
# 2 15.2168 50.8880 28.9610 15.8560 2.0976 -6.0190
# 3 39.0555 28.9610 161.6198 21.4899 11.6531 -2.9578
# 4 17.9687 15.8560 21.4899 49.1405 3.6219 -7.9452
# 5 7.4062 2.0976 11.6531 3.6219 33.3014 -10.9806
# 6 -14.7869 -6.0190 -2.9578 -7.9452 -10.9806 28.6715
#
#
#
# Elastic Compliance Matrix: (Units=1/GPa)
#
#
# Indices 1 2 3 4 5 6 
#
# 1 0.013925 -0.001102 -0.002728 -0.002583 0.000196 0.006028
# 2 -0.001102 0.023893 -0.003345 -0.005443 0.001554 0.003190
# 3 -0.002728 -0.003345 0.007797 -0.001584 -0.002648 -0.002758
# 4 -0.002583 -0.005443 -0.001584 0.024408 0.000203 0.004203
# 5 0.000196 0.001554 -0.002648 0.000203 0.035322 0.013738
# 6 0.006028 0.003190 -0.002758 0.004203 0.013738 0.044798
#
#
# Mechanical properties :
#
#
# Convention : Reuss Voigt Hill
#
# Bulk Modulus (GPa) = 31.98369 52.14118 42.06243
# Shear Modulus (GPa) = 28.58534 36.86073 32.72303
#
# Velocity S-wave (km/s) = 3.47877 3.95036 3.72204
# Velocity P-wave (km/s) = 5.44760 6.54840 6.02320
#
# Compressibility (1/GPa) = 0.03126593
#
# Stress axis : x y z
#
# Youngs Moduli (GPa) = 71.81104 41.85271 128.25360
#
# Poissons Ratio (x) = 0.04611 0.34987
# Poissons Ratio (y) = 0.07911 0.42905
# Poissons Ratio (z) = 0.19590 0.14001
#
# Static dielectric constant tensor:
#      x y z
#    x 1.975900 -0.000540 0.014230 
#    y -0.000540 1.970870 -0.029600 
#    z 0.014230 -0.029600 1.880990 
# 
# From -- ./inp_files/317798.got.cif
#   From: 2010.05.17/outbox.cif.g08.bks.cpg/sg2_159_cif.got.tgz:317798.got - 2010.06.03 11:33:40.
