data_PCOD9020312
_publ_section_title
;
Structure prediction by ZEFSAII (Michael W. Deem and Ramdas Pophale) SiO2 
 PCOD9020312
Probable space group: P -1
;
_chemical_formula_sum "Si O2"
_cell_formula_units_Z 16
_cell_length_a 26.039381
_cell_length_b 16.563960
_cell_length_c 14.138690
_cell_angle_alpha 29.144902
_cell_angle_beta 159.697096
_cell_angle_gamma 161.124301
_cell_volume 679.176301
_symmetry_space_group_name_H-M "P -1"
_symmetry_group_IT_number 2
_symmetry_cell_setting 'triclinic'
loop_
_space_group_symop_operation_xyz
x,y,z
-x,-y,-z
loop_
_atom_site_type_symbol
_atom_site_label
_atom_site_fract_x
_atom_site_fract_y
_atom_site_fract_z
Si Si1 0.237822 0.244740 0.487651
Si Si2 0.553446 0.838278 0.193372
Si Si3 0.990479 0.368022 0.972507
Si Si4 0.645640 0.190686 0.313638
Si Si5 0.126742 0.616182 0.761233
Si Si6 0.330114 0.732017 0.357144
Si Si7 0.190946 0.276912 0.681244
Si Si8 0.478311 0.572889 0.042422
O O1 0.353905 0.259030 0.583373
O O2 0.067697 0.255032 0.182106
O O3 0.430790 0.450069 0.686455
O O4 0.075808 0.962784 0.538604
O O5 0.744914 0.100226 0.311892
O O6 0.483958 0.888570 0.928146
O O7 0.324073 0.648589 0.051093
O O8 0.161479 0.567225 0.146170
O O9 0.024354 0.517354 0.790261
O O10 0.752392 0.192229 0.792214
O O11 0.911680 0.407162 0.538548
O O12 0.559875 0.969697 0.458227
O O13 0.591635 0.310519 0.156933
O O14 0.293221 0.535302 0.555362
O O15 0.312940 0.250002 0.850775
O O16 0.274775 0.327200 0.881686
#
# Coordination Sequence:
#
# PCOD9020312 Si02
#       8
#     2   2   2   2   2   2   2   2
#     4  11  22  40  61  86 122 164 197 247 298 350
#     4  10  23  42  67  88 115 157 210 250 297 350
#     4  11  23  38  61  91 126 159 197 244 303 359
#     4  11  22  40  62  90 122 155 199 251 301 354
#     4  11  23  43  65  90 117 158 204 254 297 353
#     4  11  23  37  60  92 125 159 195 244 300 364
#     4  11  22  38  57  89 127 159 198 240 293 367
#     4  10  22  34  56  86 119 159 197 233 296 359
#
# _framework density 23.557946999999999
#
# number of rings (size 3 to 8) (size 9 to 14) (size 15 to 20)
#    0.000    1.250    2.500    3.750    5.250    4.500 
#    0.000    0.000    0.000    0.750    0.000    0.000 
#    0.000    0.000    0.000    0.000    0.000    0.000 
#
# Total GULP energy -89400.029700 kJ/mol
# GULP energy per Si atom -5587.501856 kJ/mol
# Density = 2.350433 g / cm^3
# Si number density = 23.557947 Si / 1000 Ang^3
#
#
#
# Elastic Constant Matrix: (Units=GPa)
#
#
# Indices 1 2 3 4 5 6 
#
# 1 101.6163 25.9552 11.3965 5.8470 27.1307 3.8649
# 2 25.9552 75.9932 31.4700 17.5612 8.6569 9.4774
# 3 11.3965 31.4700 62.4670 9.7737 8.8217 4.1445
# 4 5.8470 17.5612 9.7737 35.9310 -3.7156 5.4918
# 5 27.1307 8.6569 8.8217 -3.7156 30.4030 2.7203
# 6 3.8649 9.4774 4.1445 5.4918 2.7203 27.8750
#
#
#
# Elastic Compliance Matrix: (Units=1/GPa)
#
#
# Indices 1 2 3 4 5 6 
#
# 1 0.013930 -0.003437 0.001216 -0.002279 -0.012145 0.000691
# 2 -0.003437 0.019626 -0.007921 -0.006383 -0.000672 -0.003695
# 3 0.001216 -0.007921 0.020900 -0.002623 -0.005255 0.000447
# 4 -0.002279 -0.006383 -0.002623 0.033692 0.009146 -0.004654
# 5 -0.012145 -0.000672 -0.005255 0.009146 0.046893 -0.003685
# 6 0.000691 -0.003695 0.000447 -0.004654 -0.003685 0.038245
#
#
# Mechanical properties :
#
#
# Convention : Reuss Voigt Hill
#
# Bulk Modulus (GPa) = 29.26462 41.96888 35.61675
# Shear Modulus (GPa) = 24.39480 30.25880 27.32680
#
# Velocity S-wave (km/s) = 3.22145 3.58780 3.40955
# Velocity P-wave (km/s) = 5.12702 5.91751 5.53639
#
# Compressibility (1/GPa) = 0.03417095
#
# Stress axis : x y z
#
# Youngs Moduli (GPa) = 71.78727 50.95337 47.84667
#
# Poissons Ratio (x) = 0.17514 -0.05819
# Poissons Ratio (y) = 0.24675 0.37901
# Poissons Ratio (z) = -0.08731 0.40362
#
# Static dielectric constant tensor:
#      x y z
#    x 1.877550 -0.010980 -0.008900 
#    y -0.010980 1.911140 -0.028770 
#    z -0.008900 -0.028770 1.969350 
# 
# From -- ./inp_files/403000.got.cif
#   From: 2010.05.17/outbox.cif.g08.bks.cpg/sg2_202_cif.got.tgz:403000.got - 2010.06.03 11:33:40.
