data_PCOD9020006
_publ_section_title
;
Structure prediction by ZEFSAII (Michael W. Deem and Ramdas Pophale) SiO2 
 PCOD9020006
Probable space group: P -1
;
_chemical_formula_sum "Si O2"
_cell_formula_units_Z 16
_cell_length_a 11.276030
_cell_length_b 12.434763
_cell_length_c 11.339699
_cell_angle_alpha 105.717542
_cell_angle_beta 117.584204
_cell_angle_gamma 127.174665
_cell_volume 703.009106
_symmetry_space_group_name_H-M "P -1"
_symmetry_group_IT_number 2
_symmetry_cell_setting 'triclinic'
loop_
_space_group_symop_operation_xyz
x,y,z
-x,-y,-z
loop_
_atom_site_type_symbol
_atom_site_label
_atom_site_fract_x
_atom_site_fract_y
_atom_site_fract_z
Si Si1 0.926223 0.587866 0.640408
Si Si2 0.533231 0.692275 0.048325
Si Si3 0.081742 0.237910 0.108843
Si Si4 0.390679 0.257391 0.176753
Si Si5 0.718575 0.228468 0.532296
Si Si6 0.284793 0.944641 0.725586
Si Si7 0.809349 0.093857 0.705668
Si Si8 0.916349 0.797746 0.338900
O O1 0.881751 0.638304 0.744432
O O2 0.674159 0.418106 0.390320
O O3 0.930126 0.463912 0.650232
O O4 0.179539 0.807593 0.751647
O O5 0.744284 0.785417 0.259052
O O6 0.516937 0.812988 0.093056
O O7 0.623641 0.737113 0.968731
O O8 0.275755 0.436843 0.866272
O O9 0.318334 0.321228 0.227425
O O10 0.011079 0.232335 0.945289
O O11 0.832670 0.988547 0.962462
O O12 0.633568 0.086214 0.344189
O O13 0.804580 0.209708 0.672071
O O14 0.473581 0.122837 0.433487
O O15 0.038259 0.835275 0.524169
O O16 0.868822 0.045393 0.617890
#
# Coordination Sequence:
#
# PCOD9020006 Si02
#       8
#     2   2   2   2   2   2   2   2
#     4  12  23  42  65  97 125 172 215 260 320 374
#     4  11  21  41  65  99 127 166 210 257 329 377
#     4  11  23  41  67  94 128 170 209 260 330 375
#     4  11  22  41  64  97 135 157 211 270 316 387
#     4  10  24  44  64  91 134 168 219 265 302 375
#     4  11  23  42  64  94 128 171 211 261 317 373
#     4  10  21  46  63  89 128 173 207 267 312 369
#     4  10  22  41  66  93 131 162 210 267 315 382
#
# _framework density 22.759307
#
# number of rings (size 3 to 8) (size 9 to 14) (size 15 to 20)
#    0.000    1.250    5.000    1.125    0.000    0.500 
#   13.500    1.250    0.000    0.000    0.000    0.000 
#    0.000    0.000    0.000    0.000    0.000    0.000 
#
# Total GULP energy -89494.638786 kJ/mol
# GULP energy per Si atom -5593.414924 kJ/mol
# Density = 2.270751 g / cm^3
# Si number density = 22.759307 Si / 1000 Ang^3
#
#
#
# Elastic Constant Matrix: (Units=GPa)
#
#
# Indices 1 2 3 4 5 6 
#
# 1 67.1636 29.4605 3.6898 22.3505 -16.3533 1.4973
# 2 29.4605 94.3736 6.0090 1.9437 -8.3289 6.3042
# 3 3.6898 6.0090 32.5675 -3.3936 5.1417 -9.1175
# 4 22.3505 1.9437 -3.3936 29.7641 -3.4188 -10.0933
# 5 -16.3533 -8.3289 5.1417 -3.4188 38.3682 -0.2839
# 6 1.4973 6.3042 -9.1175 -10.0933 -0.2839 20.2559
#
#
#
# Elastic Compliance Matrix: (Units=1/GPa)
#
#
# Indices 1 2 3 4 5 6 
#
# 1 0.031936 -0.005976 -0.013766 -0.031398 0.011198 -0.022186
# 2 -0.005976 0.012894 -0.002613 0.002202 0.000771 -0.003639
# 3 -0.013766 -0.002613 0.047404 0.027149 -0.010098 0.036555
# 4 -0.031398 0.002202 0.027149 0.076664 -0.009328 0.051926
# 5 0.011198 0.000771 -0.010098 -0.009328 0.031453 -0.009820
# 6 -0.022186 -0.003639 0.036555 0.051926 -0.009820 0.094332
#
#
# Mechanical properties :
#
#
# Convention : Reuss Voigt Hill
#
# Bulk Modulus (GPa) = 21.04222 30.26926 25.65574
# Shear Modulus (GPa) = 14.07515 28.00733 21.04124
#
# Velocity S-wave (km/s) = 2.48953 3.51178 3.04388
# Velocity P-wave (km/s) = 4.18680 5.45638 4.86320
#
# Compressibility (1/GPa) = 0.04752350
#
# Stress axis : x y z
#
# Youngs Moduli (GPa) = 31.31229 77.55576 21.09510
#
# Poissons Ratio (x) = 0.46348 0.29040
# Poissons Ratio (y) = 0.18712 0.05513
# Poissons Ratio (z) = 0.43106 0.20267
#
# Static dielectric constant tensor:
#      x y z
#    x 1.839470 -0.011010 0.024550 
#    y -0.011010 1.829400 0.000470 
#    z 0.024550 0.000470 1.854580 
# 
# From -- ./inp_files/95054.got.cif
#   From: 2010.05.17/outbox.cif.g08.bks.cpg/sg2_48_cif.got.tgz:95054.got - 2010.06.03 11:33:40.
