data_PCOD9020053
_publ_section_title
;
Structure prediction by ZEFSAII (Michael W. Deem and Ramdas Pophale) SiO2 
 PCOD9020053
Probable space group: P -1
;
_chemical_formula_sum "Si O2"
_cell_formula_units_Z 15
_cell_length_a 12.130125
_cell_length_b 9.250502
_cell_length_c 12.463768
_cell_angle_alpha 97.840410
_cell_angle_beta 25.509346
_cell_angle_gamma 90.780184
_cell_volume 576.682083
_symmetry_space_group_name_H-M "P -1"
_symmetry_group_IT_number 2
_symmetry_cell_setting 'triclinic'
loop_
_space_group_symop_operation_xyz
x,y,z
-x,-y,-z
loop_
_atom_site_type_symbol
_atom_site_label
_atom_site_fract_x
_atom_site_fract_y
_atom_site_fract_z
Si Si1 0.939235 0.238532 0.887298
Si Si2 0.500000 0.500000 0.500000
Si Si3 0.738152 0.509707 0.663313
Si Si4 0.610726 0.819474 0.370960
Si Si5 0.517829 0.754852 0.200025
Si Si6 0.604484 0.191578 0.003133
Si Si7 0.813443 0.928453 0.553733
Si Si8 0.028923 0.526274 0.760517
O O1 0.076914 0.202699 0.876389
O O2 0.154231 0.154536 0.600856
O O3 0.868856 0.420245 0.951111
O O4 0.693292 0.185472 0.050695
O O5 0.544612 0.679894 0.481548
O O6 0.237068 0.557891 0.663832
O O7 0.653983 0.358688 0.695205
O O8 0.812486 0.563074 0.486910
O O9 0.000000 0.500000 0.500000
O O10 0.479979 0.635280 0.943807
O O11 0.532019 0.784395 0.316931
O O12 0.500000 0.000000 0.500000
O O13 0.384087 0.909731 0.276278
O O14 0.823952 0.669198 0.902228
O O15 0.872222 0.098316 0.702905
O O16 0.333991 0.143946 0.234001
#
# Coordination Sequence:
#
# PCOD9020053 Si02
#       8
#     2   1   2   2   2   2   2   2
#     4   9  20  39  68 100 142 193 230 292 363 444
#     4  10  24  40  72 102 148 200 240 302 376 458
#     4  12  26  47  74  98 139 194 252 311 368 438
#     4  11  21  41  65 106 147 192 247 296 375 452
#     4  12  25  43  68 108 146 185 248 311 366 448
#     4  10  21  46  68 101 139 191 243 296 370 443
#     4  10  22  41  73  99 149 190 234 304 367 447
#     4  11  23  44  70 106 144 190 246 306 367 454
#
# _framework density 26.010864999999999
#
# number of rings (size 3 to 8) (size 9 to 14) (size 15 to 20)
#    0.800    0.533    5.333    0.000    1.867    4.800 
#    0.000    2.667    0.000    0.000    0.000    0.000 
#    0.000    0.000    0.000    0.000    0.000    0.000 
#
# Total GULP energy -83518.556121 kJ/mol
# GULP energy per Si atom -5567.903741 kJ/mol
# Density = 2.595166 g / cm^3
# Si number density = 26.010865 Si / 1000 Ang^3
#
#
#
# Elastic Constant Matrix: (Units=GPa)
#
#
# Indices 1 2 3 4 5 6 
#
# 1 120.9589 25.5419 38.3287 2.4293 -26.3330 26.6737
# 2 25.5419 122.6864 48.0618 24.5756 -5.4773 11.9097
# 3 38.3287 48.0618 155.8891 21.9599 -24.0685 11.7729
# 4 2.4293 24.5756 21.9599 47.0114 4.8927 -18.0249
# 5 -26.3330 -5.4773 -24.0685 4.8927 39.5711 -5.0092
# 6 26.6737 11.9097 11.7729 -18.0249 -5.0092 42.0195
#
#
#
# Elastic Compliance Matrix: (Units=1/GPa)
#
#
# Indices 1 2 3 4 5 6 
#
# 1 0.011942 -0.000342 -0.000550 -0.004071 0.007025 -0.008238
# 2 -0.000342 0.010834 -0.001851 -0.006817 0.000329 -0.005220
# 3 -0.000550 -0.001851 0.008788 -0.004794 0.004928 -0.003057
# 4 -0.004071 -0.006817 -0.004794 0.035935 -0.008446 0.020268
# 5 0.007025 0.000329 0.004928 -0.008446 0.033326 -0.005584
# 6 -0.008238 -0.005220 -0.003057 0.020268 -0.005584 0.039393
#
#
# Mechanical properties :
#
#
# Convention : Reuss Voigt Hill
#
# Bulk Modulus (GPa) = 38.34692 69.26659 53.80675
# Shear Modulus (GPa) = 32.38414 44.89386 38.63900
#
# Velocity S-wave (km/s) = 3.53232 4.15898 3.85839
# Velocity P-wave (km/s) = 5.60455 7.05340 6.37030
#
# Compressibility (1/GPa) = 0.02607771
#
# Stress axis : x y z
#
# Youngs Moduli (GPa) = 83.74022 92.30139 113.79237
#
# Poissons Ratio (x) = 0.03153 0.06264
# Poissons Ratio (y) = 0.02860 0.21062
# Poissons Ratio (z) = 0.04610 0.17084
#
# Static dielectric constant tensor:
#      x y z
#    x 2.048800 0.018830 0.118920 
#    y 0.018830 2.126950 -0.031910 
#    z 0.118920 -0.031910 2.135240 
# 
# From -- ./inp_files/135249.got.cif
#   From: 2010.05.17/outbox.cif.g08.bks.cpg/sg2_68_cif.got.tgz:135249.got - 2010.06.03 11:33:40.
