data_PCOD9020673
_publ_section_title
;
Structure prediction by ZEFSAII (Michael W. Deem and Ramdas Pophale) SiO2 
 PCOD9020673
Probable space group: P -1
;
_chemical_formula_sum "Si O2"
_cell_formula_units_Z 14
_cell_length_a 8.832723
_cell_length_b 8.882728
_cell_length_c 10.026193
_cell_angle_alpha 92.223796
_cell_angle_beta 116.888687
_cell_angle_gamma 90.344582
_cell_volume 700.822041
_symmetry_space_group_name_H-M "P -1"
_symmetry_group_IT_number 2
_symmetry_cell_setting 'triclinic'
loop_
_space_group_symop_operation_xyz
x,y,z
-x,-y,-z
loop_
_atom_site_type_symbol
_atom_site_label
_atom_site_fract_x
_atom_site_fract_y
_atom_site_fract_z
Si Si1 0.431385 0.333022 0.506517
Si Si2 0.096236 0.662220 0.541262
Si Si3 0.106332 0.161559 0.312706
Si Si4 0.776338 0.168672 0.651564
Si Si5 0.756967 0.552572 0.010667
Si Si6 0.614841 0.517543 0.242855
Si Si7 0.047546 0.743328 0.004811
O O1 0.500000 0.500000 0.500000
O O2 0.264129 0.280031 0.358994
O O3 0.583447 0.217834 0.555215
O O4 0.375628 0.352607 0.638467
O O5 0.112633 0.726251 0.401199
O O6 0.283690 0.624512 0.667263
O O7 0.000000 0.500000 0.500000
O O8 0.006701 0.774298 0.610773
O O9 0.998023 0.150646 0.133162
O O10 0.186549 0.002983 0.373628
O O11 0.830673 0.196446 0.827280
O O12 0.580681 0.527230 0.861474
O O13 0.873869 0.687088 0.005155
O O14 0.703001 0.569144 0.142906
O O15 0.865793 0.402547 0.030626
#
# Coordination Sequence:
#
# PCOD9020673 Si02
#       7
#     2   2   2   2   2   2   2
#     4  12  23  41  69  96 125 170 218 269 313 384
#     4  12  23  41  69  96 125 170 218 269 313 384
#     4  12  26  43  64  96 136 170 210 267 334 383
#     4  12  26  43  64  96 136 170 210 267 334 383
#     4  10  22  36  65  98 123 168 217 277 308 372
#     4  11  20  38  64  97 128 154 222 269 318 362
#     4  11  23  40  65  90 128 173 219 258 319 384
#
# _framework density 19.97654
#
# number of rings (size 3 to 8) (size 9 to 14) (size 15 to 20)
#    0.000    0.571    5.714    3.000    4.000    0.000 
#    0.000    0.000    0.000    1.714    0.000    0.000 
#    0.000    0.000    0.000    0.000    0.000    0.000 
#
# Total GULP energy -78277.029348 kJ/mol
# GULP energy per Si atom -5591.216382 kJ/mol
# Density = 1.993107 g / cm^3
# Si number density = 19.976540 Si / 1000 Ang^3
#
#
#
# Elastic Constant Matrix: (Units=GPa)
#
#
# Indices 1 2 3 4 5 6 
#
# 1 93.1531 13.6289 18.7950 -8.6336 -2.2637 -18.9827
# 2 13.6289 59.4642 -5.5147 -16.2634 -7.3370 -21.1073
# 3 18.7950 -5.5147 85.7212 -10.7657 -4.9991 -6.5185
# 4 -8.6336 -16.2634 -10.7657 20.1989 -8.0676 7.0745
# 5 -2.2637 -7.3370 -4.9991 -8.0676 38.2477 1.5808
# 6 -18.9827 -21.1073 -6.5185 7.0745 1.5808 33.6654
#
#
#
# Elastic Compliance Matrix: (Units=1/GPa)
#
#
# Indices 1 2 3 4 5 6 
#
# 1 0.012640 -0.000196 -0.001988 0.002324 0.000689 0.006098
# 2 -0.000196 0.032944 0.007926 0.030678 0.013195 0.015013
# 3 -0.001988 0.007926 0.015120 0.014982 0.006402 0.003327
# 4 0.002324 0.030678 0.014982 0.093302 0.027556 0.002546
# 5 0.000689 0.013195 0.006402 0.027556 0.035265 0.002454
# 6 0.006098 0.015013 0.003327 0.002546 0.002454 0.042550
#
#
# Mechanical properties :
#
#
# Convention : Reuss Voigt Hill
#
# Bulk Modulus (GPa) = 13.85266 32.46187 23.15727
# Shear Modulus (GPa) = 20.45844 32.51770 26.48807
#
# Velocity S-wave (km/s) = 3.20366 4.03897 3.64532
# Velocity P-wave (km/s) = 4.54248 6.16736 5.41620
#
# Compressibility (1/GPa) = 0.07218831
#
# Stress axis : x y z
#
# Youngs Moduli (GPa) = 79.11568 30.35421 66.13969
#
# Poissons Ratio (x) = 0.00595 0.13149
# Poissons Ratio (y) = 0.01550 -0.52425
# Poissons Ratio (z) = 0.15729 -0.24060
#
# Static dielectric constant tensor:
#      x y z
#    x 1.713690 0.010380 0.001650 
#    y 0.010380 1.678180 -0.004250 
#    z 0.001650 -0.004250 1.738870 
# 
# From -- ./inp_files/158967.got.cif
#   From: 2010.05.17/outbox.cif.g08.bks.cpg/sg2_80_cif.got.tgz:158967.got - 2010.06.03 11:33:40.
