data_PCOD9020872
_publ_section_title
;
Structure prediction by ZEFSAII (Michael W. Deem and Ramdas Pophale) SiO2 
 PCOD9020872
Probable space group: P -1
;
_chemical_formula_sum "Si O2"
_cell_formula_units_Z 16
_cell_length_a 19.570947
_cell_length_b 5.642635
_cell_length_c 11.574544
_cell_angle_alpha 78.782744
_cell_angle_beta 40.163124
_cell_angle_gamma 94.591772
_cell_volume 753.949556
_symmetry_space_group_name_H-M "P -1"
_symmetry_group_IT_number 2
_symmetry_cell_setting 'triclinic'
loop_
_space_group_symop_operation_xyz
x,y,z
-x,-y,-z
loop_
_atom_site_type_symbol
_atom_site_label
_atom_site_fract_x
_atom_site_fract_y
_atom_site_fract_z
Si Si1 0.672803 0.599641 0.174788
Si Si2 0.448296 0.598094 0.166758
Si Si3 0.043288 0.380888 0.845471
Si Si4 0.241007 0.778630 0.417212
Si Si5 0.680846 0.940832 0.929396
Si Si6 0.585605 0.040582 0.254932
Si Si7 0.168202 0.102048 0.867074
Si Si8 0.639547 0.913497 0.539617
O O1 0.619262 0.290103 0.270116
O O2 0.781489 0.711685 0.107163
O O3 0.596250 0.766566 0.300646
O O4 0.697212 0.705494 0.001034
O O5 0.331884 0.640514 0.285311
O O6 0.419162 0.390630 0.327732
O O7 0.500000 0.500000 0.000000
O O8 0.553902 0.845186 0.048547
O O9 0.120148 0.589276 0.636721
O O10 0.124449 0.247478 0.811238
O O11 0.000000 0.500000 0.000000
O O12 0.936775 0.159667 0.945763
O O13 0.236364 0.936739 0.293873
O O14 0.298891 0.960586 0.433641
O O15 0.675147 0.125417 0.024285
O O16 0.460442 0.990135 0.374986
O O17 0.267643 0.032498 0.684654
#
# Coordination Sequence:
#
# PCOD9020872 Si02
#       8
#     2   2   2   2   2   2   2   2
#     4  10  24  43  66  95 140 182 216 273 334 403
#     4  12  21  35  61  98 142 174 212 268 336 408
#     4  11  25  45  68  94 124 168 236 288 333 381
#     4  12  22  37  66  98 130 174 217 283 333 389
#     4  10  22  37  61 101 137 173 210 263 335 414
#     4  10  22  40  63 102 137 178 219 256 337 420
#     4  11  26  45  66  92 127 176 229 288 330 388
#     4  12  21  37  63  98 133 176 218 270 338 396
#
# _framework density 21.221578000000001
#
# number of rings (size 3 to 8) (size 9 to 14) (size 15 to 20)
#    0.750    0.250    6.250    1.125    1.750    1.000 
#    0.000    0.625    0.000    1.500    0.000    0.000 
#    0.000    0.000    0.000    0.000    0.000    0.000 
#
# Total GULP energy -89338.130984 kJ/mol
# GULP energy per Si atom -5583.633186 kJ/mol
# Density = 2.117328 g / cm^3
# Si number density = 21.221578 Si / 1000 Ang^3
#
#
#
# Elastic Constant Matrix: (Units=GPa)
#
#
# Indices 1 2 3 4 5 6 
#
# 1 43.0722 11.6464 16.0029 -1.5432 10.1405 7.0640
# 2 11.6464 99.4195 20.5235 2.4411 1.7242 9.1200
# 3 16.0029 20.5235 120.2464 -12.0638 15.8085 3.6847
# 4 -1.5432 2.4411 -12.0638 25.6913 -3.4276 2.6026
# 5 10.1405 1.7242 15.8085 -3.4276 24.5492 -1.4030
# 6 7.0640 9.1200 3.6847 2.6026 -1.4030 34.4563
#
#
#
# Elastic Compliance Matrix: (Units=1/GPa)
#
#
# Indices 1 2 3 4 5 6 
#
# 1 0.027829 -0.002227 -0.001760 0.000202 -0.010484 -0.005370
# 2 -0.002227 0.010904 -0.001795 -0.001675 0.000958 -0.002072
# 3 -0.001760 -0.001795 0.009956 0.004145 -0.005022 -0.000746
# 4 0.000202 -0.001675 0.004145 0.041756 0.003019 -0.003072
# 5 -0.010484 0.000958 -0.005022 0.003019 0.048893 0.004196
# 6 -0.005370 -0.002072 -0.000746 -0.003072 0.004196 0.031154
#
#
# Mechanical properties :
#
#
# Convention : Reuss Voigt Hill
#
# Bulk Modulus (GPa) = 26.93680 39.89820 33.41750
# Shear Modulus (GPa) = 25.71582 31.24371 28.47977
#
# Velocity S-wave (km/s) = 3.48484 3.84117 3.66733
# Velocity P-wave (km/s) = 5.37706 6.20599 5.80634
#
# Compressibility (1/GPa) = 0.03712394
#
# Stress axis : x y z
#
# Youngs Moduli (GPa) = 35.93344 91.70535 100.44286
#
# Poissons Ratio (x) = 0.20425 0.17682
# Poissons Ratio (y) = 0.08003 0.18032
# Poissons Ratio (z) = 0.06326 0.16463
#
# Static dielectric constant tensor:
#      x y z
#    x 1.794890 -0.011270 0.016440 
#    y -0.011270 1.821540 0.003170 
#    z 0.016440 0.003170 1.772210 
# 
# From -- ./inp_files/468080.got.cif
#   From: 2010.05.17/outbox.cif.g08.bks.cpg/sg2_235_cif.got.tgz:468080.got - 2010.06.03 11:33:40.
