data_PCOD9020133
_publ_section_title
;
Structure prediction by ZEFSAII (Michael W. Deem and Ramdas Pophale) SiO2 
 PCOD9020133
Probable space group: P -1
;
_chemical_formula_sum "Si O2"
_cell_formula_units_Z 14
_cell_length_a 9.459362
_cell_length_b 7.965710
_cell_length_c 14.518429
_cell_angle_alpha 54.049728
_cell_angle_beta 48.007286
_cell_angle_gamma 73.936887
_cell_volume 645.836866
_symmetry_space_group_name_H-M "P -1"
_symmetry_group_IT_number 2
_symmetry_cell_setting 'triclinic'
loop_
_space_group_symop_operation_xyz
x,y,z
-x,-y,-z
loop_
_atom_site_type_symbol
_atom_site_label
_atom_site_fract_x
_atom_site_fract_y
_atom_site_fract_z
Si Si1 0.715093 0.486418 0.383189
Si Si2 0.183199 0.189325 0.358268
Si Si3 0.998436 0.643137 0.047402
Si Si4 0.959725 0.405789 0.650187
Si Si5 0.302560 0.969198 0.538350
Si Si6 0.693550 0.607987 0.933455
Si Si7 0.079941 0.063628 0.154415
O O1 0.500000 0.500000 0.500000
O O2 0.812591 0.589178 0.213129
O O3 0.721267 0.242017 0.443423
O O4 0.842736 0.580716 0.383761
O O5 0.143831 0.424110 0.311044
O O6 0.249097 0.192521 0.224578
O O7 0.313729 0.153711 0.399018
O O8 0.000000 0.000000 0.500000
O O9 0.172806 0.570797 0.052817
O O10 0.001672 0.875332 0.928769
O O11 0.000000 0.500000 0.000000
O O12 0.000000 0.500000 0.500000
O O13 0.860705 0.162159 0.783751
O O14 0.108834 0.945308 0.693030
O O15 0.500000 0.000000 0.500000
O O16 0.739164 0.744079 0.963928
O O17 0.500000 0.500000 0.000000
#
# Coordination Sequence:
#
# PCOD9020133 Si02
#       7
#     2   2   2   2   2   2   2
#     4  12  25  45  69 108 141 186 245 296 359 430
#     4  12  21  45  73  94 142 188 244 302 358 426
#     4  10  21  46  72  94 145 188 236 290 361 432
#     4  12  23  43  69 101 145 184 231 309 365 412
#     4  12  24  41  71 106 137 187 245 293 362 435
#     4  11  23  43  70 101 135 194 245 293 356 434
#     4  11  23  43  68 103 143 187 238 296 361 432
#
# _framework density 21.677302999999998
#
# number of rings (size 3 to 8) (size 9 to 14) (size 15 to 20)
#    0.000    0.571    8.571    0.857    2.000    0.571 
#    0.000    0.714    0.000    0.000    0.000    0.000 
#    0.000    0.000    0.000    0.000    0.000    0.000 
#
# Total GULP energy -77952.300016 kJ/mol
# GULP energy per Si atom -5568.021430 kJ/mol
# Density = 2.162796 g / cm^3
# Si number density = 21.677303 Si / 1000 Ang^3
#
#
#
# Elastic Constant Matrix: (Units=GPa)
#
#
# Indices 1 2 3 4 5 6 
#
# 1 144.8768 18.5376 48.5445 -6.9531 18.5000 -5.7966
# 2 18.5376 93.7227 23.9225 -21.4425 -1.2567 -8.2971
# 3 48.5445 23.9225 89.0386 -6.2644 25.1135 -11.6327
# 4 -6.9531 -21.4425 -6.2644 46.0839 -0.2216 5.3251
# 5 18.5000 -1.2567 25.1135 -0.2216 40.5692 -12.0205
# 6 -5.7966 -8.2971 -11.6327 5.3251 -12.0205 33.0726
#
#
#
# Elastic Compliance Matrix: (Units=1/GPa)
#
#
# Indices 1 2 3 4 5 6 
#
# 1 0.008558 -0.000611 -0.004114 0.000529 -0.001599 -0.000767
# 2 -0.000611 0.013167 -0.003538 0.005292 0.003621 0.002416
# 3 -0.004114 -0.003538 0.016936 -0.000161 -0.008318 0.001351
# 4 0.000529 0.005292 -0.000161 0.024544 -0.000684 -0.002837
# 5 -0.001599 0.003621 -0.008318 -0.000684 0.033607 0.010027
# 6 -0.000767 0.002416 0.001351 -0.002837 0.010027 0.035285
#
#
# Mechanical properties :
#
#
# Convention : Reuss Voigt Hill
#
# Bulk Modulus (GPa) = 45.17676 56.62750 50.90213
# Shear Modulus (GPa) = 32.05135 39.72069 35.88602
#
# Velocity S-wave (km/s) = 3.84939 4.28526 4.07315
# Velocity P-wave (km/s) = 6.37517 7.11788 6.75674
#
# Compressibility (1/GPa) = 0.02213528
#
# Stress axis : x y z
#
# Youngs Moduli (GPa) = 116.85170 75.94902 59.04703
#
# Poissons Ratio (x) = 0.04641 0.24289
# Poissons Ratio (y) = 0.07141 0.20890
# Poissons Ratio (z) = 0.48067 0.26870
#
# Static dielectric constant tensor:
#      x y z
#    x 1.556110 -0.253940 0.179740 
#    y -0.253940 1.781960 0.125350 
#    z 0.179740 0.125350 1.784250 
# 
# From -- ./inp_files/491943.got.cif
#   From: 2010.05.17/outbox.cif.g08.bks.cpg/sg2_246_cif.got.tgz:491943.got - 2010.06.03 11:33:40.
