data_PCOD9020229
_publ_section_title
;
Structure prediction by ZEFSAII (Michael W. Deem and Ramdas Pophale) SiO2 
 PCOD9020229
Probable space group: P -1
;
_chemical_formula_sum "Si O2"
_cell_formula_units_Z 13
_cell_length_a 9.340020
_cell_length_b 5.128117
_cell_length_c 14.845465
_cell_angle_alpha 99.243866
_cell_angle_beta 49.310054
_cell_angle_gamma 111.004236
_cell_volume 500.640052
_symmetry_space_group_name_H-M "P -1"
_symmetry_group_IT_number 2
_symmetry_cell_setting 'triclinic'
loop_
_space_group_symop_operation_xyz
x,y,z
-x,-y,-z
loop_
_atom_site_type_symbol
_atom_site_label
_atom_site_fract_x
_atom_site_fract_y
_atom_site_fract_z
Si Si1 0.443983 0.122700 0.279555
Si Si2 0.000000 0.000000 0.500000
Si Si3 0.849361 0.060256 0.134479
Si Si4 0.668345 0.921440 0.872723
Si Si5 0.924961 0.561498 0.796622
Si Si6 0.226102 0.555565 0.538864
Si Si7 0.640848 0.668389 0.348451
O O1 0.543711 0.373319 0.321501
O O2 0.220485 0.948320 0.394198
O O3 0.625300 0.998942 0.185380
O O4 0.410094 0.220557 0.198744
O O5 0.123328 0.328093 0.493649
O O6 0.810808 0.866761 0.227570
O O7 0.956440 0.363691 0.153436
O O8 0.000000 0.000000 0.000000
O O9 0.830950 0.228565 0.803626
O O10 0.760922 0.715093 0.873917
O O11 0.500000 0.000000 0.000000
O O12 0.069927 0.679683 0.656852
O O13 0.446603 0.769722 0.437555
O O14 0.278391 0.380896 0.591149
#
# Coordination Sequence:
#
# PCOD9020229 Si02
#       7
#     2   1   2   2   2   2   2
#     4  11  25  44  73 107 147 197 255 314 386 452
#     4  10  22  44  74 106 156 184 260 314 398 458
#     4  12  28  46  73 109 154 204 262 307 385 465
#     4  12  28  48  76 109 155 205 263 319 386 458
#     4  12  26  49  77 108 153 206 256 324 385 461
#     4  10  21  47  74 112 148 197 260 317 399 450
#     4  10  24  45  73 107 152 201 248 327 378 463
#
# _framework density 25.966757999999999
#
# number of rings (size 3 to 8) (size 9 to 14) (size 15 to 20)
#    0.000    0.923    3.077    2.308    4.308    2.462 
#    0.000    3.077    0.000    0.000    0.000    0.000 
#    0.000    0.000    0.000    0.000    0.000    0.000 
#
# Total GULP energy -72544.886084 kJ/mol
# GULP energy per Si atom -5580.375853 kJ/mol
# Density = 2.590766 g / cm^3
# Si number density = 25.966758 Si / 1000 Ang^3
#
#
#
# Elastic Constant Matrix: (Units=GPa)
#
#
# Indices 1 2 3 4 5 6 
#
# 1 125.5971 18.0426 22.1038 2.9187 -32.2146 0.1001
# 2 18.0426 86.2280 12.8057 11.7156 -0.2465 18.0612
# 3 22.1038 12.8057 139.9726 8.8739 -35.9431 10.9129
# 4 2.9187 11.7156 8.8739 30.9099 -2.4629 4.1835
# 5 -32.2146 -0.2465 -35.9431 -2.4629 53.9380 12.6903
# 6 0.1001 18.0612 10.9129 4.1835 12.6903 20.4537
#
#
#
# Elastic Compliance Matrix: (Units=1/GPa)
#
#
# Indices 1 2 3 4 5 6 
#
# 1 0.009905 -0.001431 0.000702 0.000499 0.007291 -0.003785
# 2 -0.001431 0.015539 0.001181 -0.003672 0.003553 -0.015798
# 3 0.000702 0.001181 0.010749 -0.000966 0.010647 -0.013189
# 4 0.000499 -0.003672 -0.000966 0.034817 0.002364 -0.004832
# 5 0.007291 0.003553 0.010647 0.002364 0.037832 -0.032809
# 6 -0.003785 -0.015798 -0.013189 -0.004832 -0.032809 0.091241
#
#
# Mechanical properties :
#
#
# Convention : Reuss Voigt Hill
#
# Bulk Modulus (GPa) = 26.95535 50.85578 38.90557
# Shear Modulus (GPa) = 23.63565 40.98336 32.30951
#
# Velocity S-wave (km/s) = 3.02027 3.97709 3.53124
# Velocity P-wave (km/s) = 4.75036 6.38100 5.62508
#
# Compressibility (1/GPa) = 0.03709838
#
# Stress axis : x y z
#
# Youngs Moduli (GPa) = 100.95495 64.35293 93.03398
#
# Poissons Ratio (x) = 0.09209 -0.06535
# Poissons Ratio (y) = 0.14447 -0.10988
# Poissons Ratio (z) = -0.07091 -0.07601
#
# Static dielectric constant tensor:
#      x y z
#    x 2.083210 0.016060 -0.063470 
#    y 0.016060 2.002570 0.055810 
#    z -0.063470 0.055810 2.092880 
# 
# From -- ./inp_files/24842.got.cif
#   From: 2010.05.17/outbox.cif.g08.bks.cpg/sg2_13_cif.got.tgz:24842.got - 2010.06.03 11:33:40.
