data_PCOD9020988
_publ_section_title
;
Structure prediction by ZEFSAII (Michael W. Deem and Ramdas Pophale) SiO2 
 PCOD9020988
Probable space group: P -1
;
_chemical_formula_sum "Si O2"
_cell_formula_units_Z 14
_cell_length_a 14.003849
_cell_length_b 6.636577
_cell_length_c 11.579087
_cell_angle_alpha 57.606331
_cell_angle_beta 47.706632
_cell_angle_gamma 79.953204
_cell_volume 641.639514
_symmetry_space_group_name_H-M "P -1"
_symmetry_group_IT_number 2
_symmetry_cell_setting 'triclinic'
loop_
_space_group_symop_operation_xyz
x,y,z
-x,-y,-z
loop_
_atom_site_type_symbol
_atom_site_label
_atom_site_fract_x
_atom_site_fract_y
_atom_site_fract_z
Si Si1 0.589164 0.395660 0.372316
Si Si2 0.101562 0.382749 0.019936
Si Si3 0.056476 0.138526 0.607955
Si Si4 0.230190 0.590474 0.081057
Si Si5 0.695498 0.871614 0.739931
Si Si6 0.833520 0.311636 0.634627
Si Si7 0.501877 0.849428 0.704059
O O1 0.500000 0.500000 0.500000
O O2 0.746302 0.547356 0.177229
O O3 0.511361 0.348623 0.326996
O O4 0.583319 0.120754 0.508018
O O5 0.119229 0.491710 0.103244
O O6 0.000000 0.500000 0.000000
O O7 0.033214 0.085631 0.174515
O O8 0.177288 0.065256 0.470775
O O9 0.122380 0.405623 0.534244
O O10 0.959452 0.198694 0.569830
O O11 0.291463 0.358646 0.123444
O O12 0.193370 0.660882 0.216076
O O13 0.345939 0.825244 0.864243
O O14 0.566488 0.798058 0.785834
O O15 0.712357 0.115995 0.728424
#
# Coordination Sequence:
#
# PCOD9020988 Si02
#       7
#     2   2   2   2   2   2   2
#     4  10  24  45  66  91 129 173 217 265 317 377
#     4  11  23  44  67  93 132 172 213 270 323 379
#     4  10  22  38  62  92 127 163 207 260 321 374
#     4  10  23  39  64  93 131 163 208 265 323 380
#     4  11  21  40  64  94 130 165 206 262 326 380
#     4  10  22  37  63  96 125 166 202 264 322 381
#     4  10  23  42  64  91 129 168 215 264 313 383
#
# _framework density 21.819106000000001
#
# number of rings (size 3 to 8) (size 9 to 14) (size 15 to 20)
#    0.000    1.714    1.429    1.714    6.000    2.857 
#    2.571    0.714    0.000    0.000    0.000    0.000 
#    0.000    0.000    0.000    0.000    0.000    0.000 
#
# Total GULP energy -78199.292754 kJ/mol
# GULP energy per Si atom -5585.663768 kJ/mol
# Density = 2.176945 g / cm^3
# Si number density = 21.819106 Si / 1000 Ang^3
#
#
#
# Elastic Constant Matrix: (Units=GPa)
#
#
# Indices 1 2 3 4 5 6 
#
# 1 122.8496 53.0355 9.6541 -13.4720 10.5502 29.3940
# 2 53.0355 113.7665 45.0617 4.4689 -6.5242 18.3989
# 3 9.6541 45.0617 128.5050 -15.4569 -3.6590 1.2333
# 4 -13.4720 4.4689 -15.4569 29.3231 -4.0985 1.4322
# 5 10.5502 -6.5242 -3.6590 -4.0985 22.0339 -2.6432
# 6 29.3940 18.3989 1.2333 1.4322 -2.6432 21.8701
#
#
#
# Elastic Compliance Matrix: (Units=1/GPa)
#
#
# Indices 1 2 3 4 5 6 
#
# 1 0.017765 -0.006874 0.002143 0.009817 -0.010778 -0.020160
# 2 -0.006874 0.015104 -0.005520 -0.007544 0.005200 -0.002035
# 3 0.002143 -0.005520 0.010451 0.007373 0.000537 0.000756
# 4 0.009817 -0.007544 0.007373 0.044325 0.001334 -0.010006
# 5 -0.010778 0.005200 0.000537 0.001334 0.054410 0.016570
# 6 -0.020160 -0.002035 0.000756 -0.010006 0.016570 0.077147
#
#
# Mechanical properties :
#
#
# Convention : Reuss Voigt Hill
#
# Bulk Modulus (GPa) = 43.82194 64.51374 54.16784
# Shear Modulus (GPa) = 20.21752 31.80340 26.01046
#
# Velocity S-wave (km/s) = 3.04731 3.82199 3.45642
# Velocity P-wave (km/s) = 5.70169 7.00775 6.38818
#
# Compressibility (1/GPa) = 0.02281962
#
# Stress axis : x y z
#
# Youngs Moduli (GPa) = 56.29029 66.20619 95.68201
#
# Poissons Ratio (x) = 0.45510 -0.20507
# Poissons Ratio (y) = 0.38693 0.52815
# Poissons Ratio (z) = -0.12064 0.36545
#
# Static dielectric constant tensor:
#      x y z
#    x 1.790280 0.000510 -0.015960 
#    y 0.000510 1.829830 0.009920 
#    z -0.015960 0.009920 1.855100 
# 
# From -- ./inp_files/67492.got.cif
#   From: 2010.05.17/outbox.cif.g08.bks.cpg/sg2_34_cif.got.tgz:67492.got - 2010.06.03 11:33:40.
