data_PCOD9020491
_publ_section_title
;
Structure prediction by ZEFSAII (Michael W. Deem and Ramdas Pophale) SiO2 
 PCOD9020491
Probable space group: P -1
;
_chemical_formula_sum "Si O2"
_cell_formula_units_Z 15
_cell_length_a 13.335241
_cell_length_b 19.127398
_cell_length_c 15.862286
_cell_angle_alpha 147.454678
_cell_angle_beta 154.631699
_cell_angle_gamma 20.969474
_cell_volume 620.337879
_symmetry_space_group_name_H-M "P -1"
_symmetry_group_IT_number 2
_symmetry_cell_setting 'triclinic'
loop_
_space_group_symop_operation_xyz
x,y,z
-x,-y,-z
loop_
_atom_site_type_symbol
_atom_site_label
_atom_site_fract_x
_atom_site_fract_y
_atom_site_fract_z
Si Si1 0.180629 0.323867 0.248414
Si Si2 0.350464 0.741573 0.704659
Si Si3 0.397464 0.744456 0.105851
Si Si4 0.658669 0.926608 0.747992
Si Si5 0.461408 0.751852 0.972059
Si Si6 0.890835 0.718596 0.026320
Si Si7 0.291081 0.684534 0.427265
Si Si8 0.500000 0.000000 0.500000
O O1 0.374261 0.188490 0.339091
O O2 0.371574 0.373715 0.407914
O O3 0.775950 0.517705 0.161801
O O4 0.198372 0.218923 0.075094
O O5 0.153849 0.804309 0.531115
O O6 0.584230 0.513642 0.658408
O O7 0.208770 0.819247 0.770569
O O8 0.590127 0.767475 0.897206
O O9 0.295993 0.794902 0.980693
O O10 0.473233 0.853589 0.312911
O O11 0.062222 0.808281 0.952537
O O12 0.436978 0.139702 0.834223
O O13 0.581723 0.941699 0.606516
O O14 0.795107 0.519143 0.982206
O O15 0.023527 0.783517 0.247669
#
# Coordination Sequence:
#
# PCOD9020491 Si02
#       8
#     2   2   2   2   2   2   2   1
#     4  10  22  36  57  84 115 154 188 227 286 342
#     4   9  17  32  58  85 111 146 190 236 278 332
#     4  10  22  39  57  81 113 150 194 238 280 333
#     4  11  23  40  56  81 117 151 190 236 286 339
#     4   9  17  33  57  78 105 145 188 234 278 324
#     4   9  18  35  58  84 112 148 190 234 281 336
#     4   9  17  31  55  87 113 138 189 235 270 332
#     4  10  22  38  60  82 104 140 194 244 282 326
#
# _framework density 24.180371999999998
#
# number of rings (size 3 to 8) (size 9 to 14) (size 15 to 20)
#    0.000    2.400    0.000    3.600    0.000    8.000 
#    0.000    8.000    0.000    4.000    0.000    0.000 
#    0.000    0.000    0.000    0.800    0.000    0.000 
#
# Total GULP energy -83533.676443 kJ/mol
# GULP energy per Si atom -5568.911763 kJ/mol
# Density = 2.412534 g / cm^3
# Si number density = 24.180372 Si / 1000 Ang^3
#
#
#
# Elastic Constant Matrix: (Units=GPa)
#
#
# Indices 1 2 3 4 5 6 
#
# 1 97.3327 42.1432 50.4754 8.1621 -46.6606 15.4937
# 2 42.1432 78.0350 20.5303 -8.1360 -8.5219 -3.8295
# 3 50.4754 20.5303 129.6509 4.4135 -40.7643 -9.1240
# 4 8.1621 -8.1360 4.4135 24.8727 -13.5450 -0.5637
# 5 -46.6606 -8.5219 -40.7643 -13.5450 58.2968 2.3976
# 6 15.4937 -3.8295 -9.1240 -0.5637 2.3976 22.6363
#
#
#
# Elastic Compliance Matrix: (Units=1/GPa)
#
#
# Indices 1 2 3 4 5 6 
#
# 1 0.041342 -0.020091 -0.007463 -0.006005 0.025082 -0.037510
# 2 -0.020091 0.023992 0.002012 0.009168 -0.009855 0.019894
# 3 -0.007463 0.002012 0.011786 0.002764 0.002794 0.009972
# 4 -0.006005 0.009168 0.002764 0.050202 0.009843 0.006983
# 5 0.025082 -0.009855 0.002794 0.009843 0.040926 -0.021798
# 6 -0.037510 0.019894 0.009972 0.006983 -0.021798 0.079719
#
#
# Mechanical properties :
#
#
# Convention : Reuss Voigt Hill
#
# Bulk Modulus (GPa) = 38.40865 59.03515 48.72190
# Shear Modulus (GPa) = 16.24802 33.95249 25.10026
#
# Velocity S-wave (km/s) = 2.59501 3.75124 3.22536
# Velocity P-wave (km/s) = 4.98974 6.57495 5.83641
#
# Compressibility (1/GPa) = 0.02603581
#
# Stress axis : x y z
#
# Youngs Moduli (GPa) = 24.18842 41.68094 84.84591
#
# Poissons Ratio (x) = 0.83743 0.63319
# Poissons Ratio (y) = 0.48598 -0.17073
# Poissons Ratio (z) = 0.18051 -0.08387
#
# Static dielectric constant tensor:
#      x y z
#    x 1.962670 -0.013930 -0.007010 
#    y -0.013930 1.962390 -0.047470 
#    z -0.007010 -0.047470 1.941280 
# 
# From -- ./inp_files/523049.got.cif
#   From: 2010.05.17/outbox.cif.g08.bks.cpg/sg2_262_cif.got.tgz:523049.got - 2010.06.03 11:33:40.
