data_PCOD9020015
_publ_section_title
;
Structure prediction by ZEFSAII (Michael W. Deem and Ramdas Pophale) SiO2 
 PCOD9020015
Probable space group: P -1
;
_chemical_formula_sum "Si O2"
_cell_formula_units_Z 14
_cell_length_a 6.021267
_cell_length_b 26.973131
_cell_length_c 5.938508
_cell_angle_alpha 47.714630
_cell_angle_beta 74.963172
_cell_angle_gamma 58.281030
_cell_volume 600.102600
_symmetry_space_group_name_H-M "P -1"
_symmetry_group_IT_number 2
_symmetry_cell_setting 'triclinic'
loop_
_space_group_symop_operation_xyz
x,y,z
-x,-y,-z
loop_
_atom_site_type_symbol
_atom_site_label
_atom_site_fract_x
_atom_site_fract_y
_atom_site_fract_z
Si Si1 0.218000 0.000224 0.627223
Si Si2 0.810633 0.125347 0.686679
Si Si3 0.371098 0.521658 0.716145
Si Si4 0.357474 0.376302 0.114616
Si Si5 0.046424 0.311457 0.666927
Si Si6 0.426157 0.264241 0.066448
Si Si7 0.170818 0.754358 0.381094
O O1 0.036242 0.073681 0.606977
O O2 0.500000 0.000000 0.500000
O O3 0.000000 0.000000 0.500000
O O4 0.278661 0.926467 0.990061
O O5 0.566834 0.194093 0.412837
O O6 0.909162 0.169282 0.693917
O O7 0.500000 0.500000 0.500000
O O8 0.235363 0.613814 0.463423
O O9 0.500000 0.500000 0.000000
O O10 0.243312 0.466100 0.898648
O O11 0.334921 0.344183 0.976735
O O12 0.661690 0.322075 0.277054
O O13 0.205973 0.350927 0.405966
O O14 0.057610 0.252527 0.660723
O O15 0.174517 0.269883 0.990508
O O16 0.640792 0.249553 0.862651
#
# Coordination Sequence:
#
# PCOD9020015 Si02
#       7
#     2   2   2   2   2   2   2
#     4  11  26  55  83 117 159 202 262 318 396 488
#     4  10  24  49  79 114 153 200 252 321 391 483
#     4  12  26  44  74  98 146 206 262 326 401 462
#     4  10  23  42  66 100 140 188 260 312 386 453
#     4  11  24  42  72 101 146 195 251 323 386 468
#     4  10  23  44  67 108 144 191 254 315 384 466
#     4  10  21  46  65 106 146 189 245 312 387 460
#
# _framework density 23.329343999999999
#
# number of rings (size 3 to 8) (size 9 to 14) (size 15 to 20)
#    0.000    1.429    1.429    2.143    4.000    5.143 
#   33.429    0.000    0.000    0.000    0.000    0.000 
#    0.000    0.000    0.000    0.000    0.000    0.000 
#
# Total GULP energy -78075.257790 kJ/mol
# GULP energy per Si atom -5576.804128 kJ/mol
# Density = 2.327625 g / cm^3
# Si number density = 23.329344 Si / 1000 Ang^3
#
#
#
# Elastic Constant Matrix: (Units=GPa)
#
#
# Indices 1 2 3 4 5 6 
#
# 1 93.8598 51.2853 55.5252 3.2529 2.7905 13.5518
# 2 51.2853 162.5061 46.2055 1.5720 -0.1604 29.6940
# 3 55.5252 46.2055 89.7720 4.9343 0.5711 6.4737
# 4 3.2529 1.5720 4.9343 35.9815 5.8192 -6.4140
# 5 2.7905 -0.1604 0.5711 5.8192 34.4706 15.8705
# 6 13.5518 29.6940 6.4737 -6.4140 15.8705 42.2269
#
#
#
# Elastic Compliance Matrix: (Units=1/GPa)
#
#
# Indices 1 2 3 4 5 6 
#
# 1 0.018180 -0.002460 -0.009743 -0.000697 0.000057 -0.002738
# 2 -0.002460 0.008881 -0.002503 -0.001599 0.003626 -0.006678
# 3 -0.009743 -0.002503 0.018374 -0.001133 -0.000254 0.001993
# 4 -0.000697 -0.001599 -0.001133 0.031456 -0.009847 0.010001
# 5 0.000057 0.003626 -0.000254 -0.009847 0.039351 -0.018815
# 6 -0.002738 -0.006678 0.001993 0.010001 -0.018815 0.037541
#
#
# Mechanical properties :
#
#
# Convention : Reuss Voigt Hill
#
# Bulk Modulus (GPa) = 62.41151 72.46333 67.43742
# Shear Modulus (GPa) = 26.52026 35.41061 30.96543
#
# Velocity S-wave (km/s) = 3.37527 3.90019 3.64719
# Velocity P-wave (km/s) = 6.48077 7.17011 6.83414
#
# Compressibility (1/GPa) = 0.01602269
#
# Stress axis : x y z
#
# Youngs Moduli (GPa) = 55.00600 112.60117 54.42511
#
# Poissons Ratio (x) = 0.27701 0.53026
# Poissons Ratio (y) = 0.13532 0.13623
# Poissons Ratio (z) = 0.53592 0.28184
#
# Static dielectric constant tensor:
#      x y z
#    x 2.025130 -0.111150 0.029220 
#    y -0.111150 1.825700 -0.045600 
#    z 0.029220 -0.045600 1.998510 
# 
# From -- ./inp_files/7502.got.cif
#   From: 2010.05.17/outbox.cif.g08.bks.cpg/sg2_4_cif.got.tgz:7502.got - 2010.06.03 11:33:40.
