data_PCOD9020406
_publ_section_title
;
Structure prediction by ZEFSAII (Michael W. Deem and Ramdas Pophale) SiO2 
 PCOD9020406
Probable space group: P -1
;
_chemical_formula_sum "Si O2"
_cell_formula_units_Z 16
_cell_length_a 21.983880
_cell_length_b 5.329418
_cell_length_c 15.726577
_cell_angle_alpha 98.793368
_cell_angle_beta 151.953001
_cell_angle_gamma 71.468570
_cell_volume 787.055357
_symmetry_space_group_name_H-M "P -1"
_symmetry_group_IT_number 2
_symmetry_cell_setting 'triclinic'
loop_
_space_group_symop_operation_xyz
x,y,z
-x,-y,-z
loop_
_atom_site_type_symbol
_atom_site_label
_atom_site_fract_x
_atom_site_fract_y
_atom_site_fract_z
Si Si1 0.516775 0.527939 0.258777
Si Si2 0.055447 0.817480 0.642314
Si Si3 0.309721 0.285367 0.954811
Si Si4 0.686531 0.090175 0.730365
Si Si5 0.762318 0.894195 0.307760
Si Si6 0.635173 0.590138 0.582151
Si Si7 0.370952 0.486219 0.785315
Si Si8 0.224519 0.026852 0.978909
O O1 0.616421 0.485345 0.460393
O O2 0.582515 0.587763 0.258007
O O3 0.370952 0.777580 0.118499
O O4 0.462197 0.286765 0.156824
O O5 0.202472 0.564997 0.793226
O O6 0.930192 0.724114 0.507025
O O7 0.095080 0.981047 0.774536
O O8 0.000000 0.000000 0.500000
O O9 0.298290 0.067417 0.861919
O O10 0.243165 0.276007 0.964247
O O11 0.715356 0.326192 0.726974
O O12 0.523665 0.250871 0.568271
O O13 0.774364 0.976100 0.918752
O O14 0.695891 0.827526 0.672409
O O15 0.683512 0.733082 0.252792
O O16 0.738358 0.195052 0.329329
O O17 0.500000 0.500000 0.000000
#
# Coordination Sequence:
#
# PCOD9020406 Si02
#       8
#     2   2   2   2   2   2   2   2
#     4  10  23  36  57  86 117 159 191 233 291 345
#     4  11  23  39  57  86 115 156 197 240 289 341
#     4  11  22  36  59  82 119 155 192 238 294 342
#     4   9  19  33  52  84 115 148 180 233 295 343
#     4  12  25  40  58  82 117 158 196 236 276 333
#     4   9  19  33  53  80 118 148 184 231 284 357
#     4  12  25  40  58  82 118 158 197 235 275 341
#     4  10  22  35  60  85 120 151 190 238 294 353
#
# _framework density 20.328938000000001
#
# number of rings (size 3 to 8) (size 9 to 14) (size 15 to 20)
#    0.000    1.500    2.500    2.250   14.000    0.000 
#    0.000    0.000    0.000    0.000    0.000    5.250 
#    0.000    0.000    0.000    0.000    0.000    0.000 
#
# Total GULP energy -89320.350615 kJ/mol
# GULP energy per Si atom -5582.521913 kJ/mol
# Density = 2.028267 g / cm^3
# Si number density = 20.328938 Si / 1000 Ang^3
#
#
#
# Elastic Constant Matrix: (Units=GPa)
#
#
# Indices 1 2 3 4 5 6 
#
# 1 88.9389 21.7402 45.0398 10.6239 -21.9896 13.1483
# 2 21.7402 75.4093 27.4849 2.7181 -12.0321 12.4591
# 3 45.0398 27.4849 84.8714 18.4581 -27.5522 6.0541
# 4 10.6239 2.7181 18.4581 21.8432 2.8431 0.5350
# 5 -21.9896 -12.0321 -27.5522 2.8431 33.3852 0.8860
# 6 13.1483 12.4591 6.0541 0.5350 0.8860 32.3313
#
#
#
# Elastic Compliance Matrix: (Units=1/GPa)
#
#
# Indices 1 2 3 4 5 6 
#
# 1 0.017294 -0.000815 -0.004942 -0.004979 0.007600 -0.005920
# 2 -0.000815 0.016111 -0.004275 0.001907 0.001716 -0.005155
# 3 -0.004942 -0.004275 0.027156 -0.022521 0.019576 -0.001592
# 4 -0.004979 0.001907 -0.022521 0.070426 -0.027311 0.005090
# 5 0.007600 0.001716 0.019576 -0.027311 0.054284 -0.008454
# 6 -0.005920 -0.005155 -0.001592 0.005090 -0.008454 0.035769
#
#
# Mechanical properties :
#
#
# Convention : Reuss Voigt Hill
#
# Bulk Modulus (GPa) = 24.69202 48.63884 36.66543
# Shear Modulus (GPa) = 19.63852 27.84224 23.74038
#
# Velocity S-wave (km/s) = 3.11149 3.70481 3.42103
# Velocity P-wave (km/s) = 5.00810 6.50220 5.80344
#
# Compressibility (1/GPa) = 0.04049891
#
# Stress axis : x y z
#
# Youngs Moduli (GPa) = 57.82254 62.07042 36.82449
#
# Poissons Ratio (x) = 0.05056 0.18197
# Poissons Ratio (y) = 0.04710 0.15742
# Poissons Ratio (z) = 0.28574 0.26534
#
# Static dielectric constant tensor:
#      x y z
#    x 1.745540 0.006550 0.009550 
#    y 0.006550 1.851280 -0.016540 
#    z 0.009550 -0.016540 1.718620 
# 
# From -- ./inp_files/80168.got.cif
#   From: 2010.05.17/outbox.cif.g08.bks.cpg/sg2_41_cif.got.tgz:80168.got - 2010.06.03 11:33:40.
