data_PCOD9020096
_publ_section_title
;
Structure prediction by ZEFSAII (Michael W. Deem and Ramdas Pophale) SiO2 
 PCOD9020096
Probable space group: P -1
;
_chemical_formula_sum "Si O2"
_cell_formula_units_Z 14
_cell_length_a 18.849569
_cell_length_b 7.617659
_cell_length_c 5.535427
_cell_angle_alpha 99.126200
_cell_angle_beta 121.927337
_cell_angle_gamma 54.377224
_cell_volume 535.337080
_symmetry_space_group_name_H-M "P -1"
_symmetry_group_IT_number 2
_symmetry_cell_setting 'triclinic'
loop_
_space_group_symop_operation_xyz
x,y,z
-x,-y,-z
loop_
_atom_site_type_symbol
_atom_site_label
_atom_site_fract_x
_atom_site_fract_y
_atom_site_fract_z
Si Si1 0.391538 0.540179 0.862990
Si Si2 0.260174 0.602334 0.039870
Si Si3 0.233562 0.263555 0.165514
Si Si4 0.437892 0.098919 0.657774
Si Si5 0.883921 0.661647 0.529677
Si Si6 0.834752 0.097412 0.669183
Si Si7 0.934941 0.230958 0.574834
O O1 0.401909 0.346669 0.690477
O O2 0.280299 0.768841 0.635210
O O3 0.500000 0.500000 0.000000
O O4 0.368462 0.518744 0.096381
O O5 0.256637 0.437892 0.170624
O O6 0.201619 0.843157 0.107021
O O7 0.183282 0.627123 0.703694
O O8 0.345830 0.071839 0.441312
O O9 0.163230 0.332951 0.289909
O O10 0.186835 0.250799 0.824256
O O11 0.500000 0.000000 0.500000
O O12 0.500000 0.000000 0.000000
O O13 0.967281 0.393199 0.608650
O O14 0.902868 0.843790 0.658757
O O15 0.906430 0.179772 0.768869
O O16 0.000000 0.000000 0.500000
#
# Coordination Sequence:
#
# PCOD9020096 Si02
#       7
#     2   2   2   2   2   2   2
#     4  11  26  43  62 101 141 184 240 296 350 407
#     4  10  21  46  70  93 143 188 232 291 357 423
#     4  11  22  46  66  94 138 188 235 286 355 418
#     4  12  25  41  64  94 132 180 238 295 344 411
#     4  11  25  42  75 102 136 189 233 281 362 426
#     4  11  24  44  70 101 139 187 236 290 352 428
#     4  10  23  46  72 105 143 182 230 296 360 426
#
# _framework density 26.151748000000001
#
# number of rings (size 3 to 8) (size 9 to 14) (size 15 to 20)
#    0.000    1.143    2.857    3.429    8.000    1.714 
#    0.000    0.714    0.000    0.000    0.000    0.000 
#    0.000    0.000    0.000    0.000    0.000    0.000 
#
# Total GULP energy -77970.075994 kJ/mol
# GULP energy per Si atom -5569.291142 kJ/mol
# Density = 2.609223 g / cm^3
# Si number density = 26.151748 Si / 1000 Ang^3
#
#
#
# Elastic Constant Matrix: (Units=GPa)
#
#
# Indices 1 2 3 4 5 6 
#
# 1 103.8786 37.6145 55.7723 2.0602 -11.4628 -7.3051
# 2 37.6145 117.1975 23.6447 34.6576 -2.7222 7.3107
# 3 55.7723 23.6447 165.6535 -0.5855 -11.7704 9.1267
# 4 2.0602 34.6576 -0.5855 52.8710 -10.6768 -6.7002
# 5 -11.4628 -2.7222 -11.7704 -10.6768 43.8083 15.0259
# 6 -7.3051 7.3107 9.1267 -6.7002 15.0259 34.0295
#
#
#
# Elastic Compliance Matrix: (Units=1/GPa)
#
#
# Indices 1 2 3 4 5 6 
#
# 1 0.014210 -0.005106 -0.004250 0.003697 0.001292 0.005445
# 2 -0.005106 0.013246 0.000024 -0.009355 -0.000943 -0.005374
# 3 -0.004250 0.000024 0.007863 0.000216 0.002449 -0.004065
# 4 0.003697 -0.009355 0.000216 0.026639 0.004945 0.005807
# 5 0.001292 -0.000943 0.002449 0.004945 0.029104 -0.012054
# 6 0.005445 -0.005374 -0.004065 0.005807 -0.012054 0.039266
#
#
# Mechanical properties :
#
#
# Convention : Reuss Voigt Hill
#
# Bulk Modulus (GPa) = 60.04218 68.97695 64.50957
# Shear Modulus (GPa) = 32.35321 44.12163 38.23742
#
# Velocity S-wave (km/s) = 3.52111 4.11194 3.82794
# Velocity P-wave (km/s) = 6.28808 6.99835 6.65270
#
# Compressibility (1/GPa) = 0.01665496
#
# Stress axis : x y z
#
# Youngs Moduli (GPa) = 70.37426 75.49231 127.17793
#
# Poissons Ratio (x) = 0.38547 0.54056
# Poissons Ratio (y) = 0.35934 -0.00310
# Poissons Ratio (z) = 0.29912 -0.00184
#
# Static dielectric constant tensor:
#      x y z
#    x 2.224660 0.053010 -0.112090 
#    y 0.053010 2.322370 -0.187580 
#    z -0.112090 -0.187580 2.218670 
# 
# From -- ./inp_files/117270.got.cif
#   From: 2010.05.17/outbox.cif.g08.bks.cpg/sg2_59_cif.got.tgz:117270.got - 2010.06.03 11:33:40.
