data_PCOD9020000
_publ_section_title
;
Structure prediction by ZEFSAII (Michael W. Deem and Ramdas Pophale) SiO2 
 PCOD9020000
Probable space group: P -1
;
_chemical_formula_sum "Si O2"
_cell_formula_units_Z 14
_cell_length_a 10.076360
_cell_length_b 9.781549
_cell_length_c 10.322415
_cell_angle_alpha 125.030224
_cell_angle_beta 97.881527
_cell_angle_gamma 40.900656
_cell_volume 454.306934
_symmetry_space_group_name_H-M "P -1"
_symmetry_group_IT_number 2
_symmetry_cell_setting 'triclinic'
loop_
_space_group_symop_operation_xyz
x,y,z
-x,-y,-z
loop_
_atom_site_type_symbol
_atom_site_label
_atom_site_fract_x
_atom_site_fract_y
_atom_site_fract_z
Si Si1 0.455008 0.769892 0.700022
Si Si2 0.026050 0.142830 0.360962
Si Si3 0.763950 0.655903 0.992277
Si Si4 0.937242 0.903998 0.405670
Si Si5 0.362990 0.312354 0.753235
Si Si6 0.134906 0.348180 0.545478
Si Si7 0.721617 0.241610 0.070020
O O1 0.722561 0.445915 0.501764
O O2 0.376083 0.760380 0.819648
O O3 0.425033 0.997348 0.855747
O O4 0.263858 0.926163 0.641596
O O5 0.000262 0.369126 0.415668
O O6 0.059748 0.958846 0.387075
O O7 0.228116 0.876305 0.134672
O O8 0.693333 0.593938 0.055838
O O9 0.000000 0.500000 0.000000
O O10 0.832479 0.462658 0.782094
O O11 0.860516 0.852881 0.497158
O O12 0.129772 0.468151 0.740288
O O13 0.408123 0.443867 0.768634
O O14 0.573132 0.954299 0.604005
O O15 0.000000 0.000000 0.000000
#
# Coordination Sequence:
#
# PCOD9020000 Si02
#       7
#     2   2   2   2   2   2   2
#     4  11  27  53  81 117 168 221 275 346 423 505
#     4  12  28  49  79 117 164 219 278 339 416 508
#     4  10  21  45  78 109 157 219 275 339 422 504
#     4  11  25  46  75 114 159 214 276 343 417 497
#     4  11  25  49  77 115 166 215 273 354 425 492
#     4  11  25  46  78 115 156 214 282 344 412 502
#     4  12  27  50  82 121 169 220 276 348 429 506
#
# _framework density 30.816172000000002
#
# number of rings (size 3 to 8) (size 9 to 14) (size 15 to 20)
#    0.000    0.857    0.000    6.857    0.000   10.286 
#    0.000    8.571    0.000    1.714    0.000    0.000 
#    0.000    0.000    0.000    0.000    0.000    0.000 
#
# Total GULP energy -78156.625125 kJ/mol
# GULP energy per Si atom -5582.616080 kJ/mol
# Density = 3.074603 g / cm^3
# Si number density = 30.816172 Si / 1000 Ang^3
#
#
#
# Elastic Constant Matrix: (Units=GPa)
#
#
# Indices 1 2 3 4 5 6 
#
# 1 176.6538 95.9150 65.2833 3.9037 11.3823 11.4228
# 2 95.9150 262.3092 107.2357 -6.5476 22.3436 17.8550
# 3 65.2833 107.2357 182.9305 -6.3219 28.2698 -7.8536
# 4 3.9037 -6.5476 -6.3219 84.9358 11.5676 7.7048
# 5 11.3823 22.3436 28.2698 11.5676 52.6820 20.4845
# 6 11.4228 17.8550 -7.8536 7.7048 20.4845 80.8405
#
#
#
# Elastic Compliance Matrix: (Units=1/GPa)
#
#
# Indices 1 2 3 4 5 6 
#
# 1 0.007396 -0.002070 -0.001573 -0.000621 0.000583 -0.000829
# 2 -0.002070 0.005764 -0.002644 0.000482 -0.000205 -0.001231
# 3 -0.001573 -0.002644 0.008373 0.000831 -0.004230 0.002612
# 4 -0.000621 0.000482 0.000831 0.012353 -0.003100 -0.000330
# 5 0.000583 -0.000205 -0.004230 -0.003100 0.024352 -0.006323
# 6 -0.000829 -0.001231 0.002612 -0.000330 -0.006323 0.014647
#
#
# Mechanical properties :
#
#
# Convention : Reuss Voigt Hill
#
# Bulk Modulus (GPa) = 111.64288 128.75127 120.19708
# Shear Modulus (GPa) = 56.53258 67.25563 61.89410
#
# Velocity S-wave (km/s) = 4.28776 4.67677 4.48648
# Velocity P-wave (km/s) = 7.79875 8.42817 8.11956
#
# Compressibility (1/GPa) = 0.00895713
#
# Stress axis : x y z
#
# Youngs Moduli (GPa) = 135.21218 173.50250 119.43643
#
# Poissons Ratio (x) = 0.35913 0.18788
# Poissons Ratio (y) = 0.27988 0.31584
# Poissons Ratio (z) = 0.21270 0.45882
#
# Static dielectric constant tensor:
#      x y z
#    x 2.455430 -0.031300 0.061600 
#    y -0.031300 2.454870 -0.107810 
#    z 0.061600 -0.107810 2.401600 
# 
# From -- ./inp_files/311274.got.cif
#   From: 2010.05.17/outbox.cif.g08.bks.cpg/sg2_156_cif.got.tgz:311274.got - 2010.06.03 11:33:40.
