data_PCOD9020793
_publ_section_title
;
Structure prediction by ZEFSAII (Michael W. Deem and Ramdas Pophale) SiO2 
 PCOD9020793
Probable space group: P -1
;
_chemical_formula_sum "Si O2"
_cell_formula_units_Z 16
_cell_length_a 8.081516
_cell_length_b 15.850805
_cell_length_c 12.608118
_cell_angle_alpha 26.725300
_cell_angle_beta 76.073068
_cell_angle_gamma 74.785162
_cell_volume 700.791718
_symmetry_space_group_name_H-M "P -1"
_symmetry_group_IT_number 2
_symmetry_cell_setting 'triclinic'
loop_
_space_group_symop_operation_xyz
x,y,z
-x,-y,-z
loop_
_atom_site_type_symbol
_atom_site_label
_atom_site_fract_x
_atom_site_fract_y
_atom_site_fract_z
Si Si1 0.450721 0.355022 0.277570
Si Si2 0.146685 0.613349 0.302256
Si Si3 0.233986 0.904360 0.136572
Si Si4 0.691249 0.921283 0.528502
Si Si5 0.135178 0.576513 0.114210
Si Si6 0.166700 0.795706 0.664155
Si Si7 0.589689 0.746123 0.366662
Si Si8 0.037160 0.152944 0.581144
O O1 0.344026 0.287968 0.267874
O O2 0.344321 0.553510 0.100066
O O3 0.649330 0.320804 0.259171
O O4 0.433643 0.237896 0.520665
O O5 0.181916 0.782924 0.181925
O O6 0.087092 0.668656 0.130238
O O7 0.316768 0.461652 0.438707
O O8 0.000000 0.500000 0.500000
O O9 0.403752 0.793963 0.288649
O O10 0.080011 0.919366 0.228386
O O11 0.288828 0.102945 0.865117
O O12 0.790613 0.970781 0.349677
O O13 0.500000 0.000000 0.500000
O O14 0.796304 0.004239 0.514379
O O15 0.078674 0.364823 0.368350
O O16 0.075897 0.684048 0.895688
O O17 0.068404 0.819194 0.543301
#
# Coordination Sequence:
#
# PCOD9020793 Si02
#       8
#     2   2   2   2   2   2   2   2
#     4   9  19  39  58  85 125 154 207 257 311 377
#     4  11  23  42  64  95 130 165 220 269 317 386
#     4  11  23  42  68  93 130 171 215 268 327 381
#     4   9  21  37  59  86 120 160 200 255 311 376
#     4  10  22  37  58  89 119 163 202 257 318 376
#     4  11  20  36  63  85 120 160 205 254 313 375
#     4  10  23  42  66  93 128 175 213 267 328 381
#     4  11  21  40  59  90 127 159 207 261 314 383
#
# _framework density 22.831319000000001
#
# number of rings (size 3 to 8) (size 9 to 14) (size 15 to 20)
#    0.000    1.750    2.500    1.500    1.750    1.500 
#    0.000    0.000    0.000    0.000    0.000    0.000 
#    0.000    0.000    0.000    0.000    0.000    0.000 
#
# Total GULP energy -89251.461231 kJ/mol
# GULP energy per Si atom -5578.216327 kJ/mol
# Density = 2.277935 g / cm^3
# Si number density = 22.831319 Si / 1000 Ang^3
#
#
#
# Elastic Constant Matrix: (Units=GPa)
#
#
# Indices 1 2 3 4 5 6 
#
# 1 77.8755 52.6381 31.7894 9.0396 -16.0465 0.3090
# 2 52.6381 174.8058 57.3473 26.7944 -11.8499 0.3961
# 3 31.7894 57.3473 99.0190 31.7952 -6.2871 -8.1673
# 4 9.0396 26.7944 31.7952 38.9937 -5.1220 -3.0511
# 5 -16.0465 -11.8499 -6.2871 -5.1220 21.7351 6.4083
# 6 0.3090 0.3961 -8.1673 -3.0511 6.4083 54.1543
#
#
#
# Elastic Compliance Matrix: (Units=1/GPa)
#
#
# Indices 1 2 3 4 5 6 
#
# 1 0.019565 -0.004139 -0.004327 0.003295 0.012304 -0.002004
# 2 -0.004139 0.008251 -0.002665 -0.002552 0.000251 -0.000612
# 3 -0.004327 -0.002665 0.016509 -0.010856 -0.003105 0.002290
# 4 0.003295 -0.002552 -0.010856 0.036321 0.006569 -0.000368
# 5 0.012304 0.000251 -0.003105 0.006569 0.057951 -0.007028
# 6 -0.002004 -0.000612 0.002290 -0.000368 -0.007028 0.019638
#
#
# Mechanical properties :
#
#
# Convention : Reuss Voigt Hill
#
# Bulk Modulus (GPa) = 45.32105 70.58333 57.95219
# Shear Modulus (GPa) = 26.61699 36.97166 31.79432
#
# Velocity S-wave (km/s) = 3.41810 4.02847 3.73577
# Velocity P-wave (km/s) = 5.95578 7.25399 6.63670
#
# Compressibility (1/GPa) = 0.02206480
#
# Stress axis : x y z
#
# Youngs Moduli (GPa) = 51.11072 121.20179 60.57294
#
# Poissons Ratio (x) = 0.50162 0.26208
# Poissons Ratio (y) = 0.21153 0.16142
# Poissons Ratio (z) = 0.22114 0.32298
#
# Static dielectric constant tensor:
#      x y z
#    x 1.895670 -0.018140 -0.006550 
#    y -0.018140 1.861130 -0.015940 
#    z -0.006550 -0.015940 1.903620 
# 
# From -- ./inp_files/292360.got.cif
#   From: 2010.05.17/outbox.cif.g08.bks.cpg/sg2_147_cif.got.tgz:292360.got - 2010.06.03 11:33:40.
