data_PCOD9020330
_publ_section_title
;
Structure prediction by ZEFSAII (Michael W. Deem and Ramdas Pophale) SiO2 
 PCOD9020330
Probable space group: P -1
;
_chemical_formula_sum "Si O2"
_cell_formula_units_Z 14
_cell_length_a 15.236913
_cell_length_b 9.040445
_cell_length_c 15.144149
_cell_angle_alpha 55.651340
_cell_angle_beta 28.074206
_cell_angle_gamma 74.524923
_cell_volume 651.711731
_symmetry_space_group_name_H-M "P -1"
_symmetry_group_IT_number 2
_symmetry_cell_setting 'triclinic'
loop_
_space_group_symop_operation_xyz
x,y,z
-x,-y,-z
loop_
_atom_site_type_symbol
_atom_site_label
_atom_site_fract_x
_atom_site_fract_y
_atom_site_fract_z
Si Si1 0.355369 0.832418 0.765018
Si Si2 0.858794 0.682760 0.532328
Si Si3 0.276488 0.372558 0.679294
Si Si4 0.023928 0.111009 0.834373
Si Si5 0.969286 0.416183 0.156251
Si Si6 0.656655 0.171406 0.881167
Si Si7 0.640518 0.920291 0.656529
O O1 0.505584 0.850840 0.707069
O O2 0.500000 0.000000 0.500000
O O3 0.176121 0.878174 0.947863
O O4 0.205247 0.587777 0.939609
O O5 0.722714 0.419010 0.729043
O O6 0.705740 0.756679 0.681401
O O7 0.932485 0.795841 0.332681
O O8 0.093103 0.781156 0.346610
O O9 0.500000 0.500000 0.500000
O O10 0.215637 0.543489 0.658625
O O11 0.252012 0.264197 0.641881
O O12 0.075864 0.147184 0.985395
O O13 0.869298 0.166598 0.350270
O O14 0.000000 0.500000 0.000000
O O15 0.514347 0.078808 0.130239
O O16 0.500000 0.000000 0.000000
#
# Coordination Sequence:
#
# PCOD9020330 Si02
#       7
#     2   2   2   2   2   2   2
#     4  11  23  40  64  96 145 188 220 272 339 403
#     4  11  26  47  72 102 134 175 238 286 349 415
#     4  10  22  34  59  91 134 177 219 262 326 394
#     4  10  22  40  61  95 137 180 225 274 330 410
#     4  11  23  37  60  99 138 176 227 267 323 414
#     4  11  28  49  74 100 132 176 234 300 354 401
#     4  12  25  45  72 101 141 182 226 282 350 405
#
# _framework density 21.481891000000001
#
# number of rings (size 3 to 8) (size 9 to 14) (size 15 to 20)
#    0.000    1.143    2.857    2.143    8.000    1.714 
#    0.000    0.000    0.000    0.000    0.000    0.000 
#    0.000    0.000    0.000    0.000    0.000    0.000 
#
# Total GULP energy -78251.507902 kJ/mol
# GULP energy per Si atom -5589.393422 kJ/mol
# Density = 2.143300 g / cm^3
# Si number density = 21.481891 Si / 1000 Ang^3
#
#
#
# Elastic Constant Matrix: (Units=GPa)
#
#
# Indices 1 2 3 4 5 6 
#
# 1 120.8566 45.5966 50.8762 -26.6785 -26.3759 14.6186
# 2 45.5966 87.9440 40.3934 -18.3470 -23.0913 -4.5641
# 3 50.8762 40.3934 84.4898 -20.1790 -18.6648 11.6617
# 4 -26.6785 -18.3470 -20.1790 44.1388 7.0501 -2.8726
# 5 -26.3759 -23.0913 -18.6648 7.0501 50.2717 -5.4469
# 6 14.6186 -4.5641 11.6617 -2.8726 -5.4469 39.6200
#
#
#
# Elastic Compliance Matrix: (Units=1/GPa)
#
#
# Indices 1 2 3 4 5 6 
#
# 1 0.013316 -0.003539 -0.004289 0.003941 0.002849 -0.003381
# 2 -0.003539 0.017751 -0.005599 0.002335 0.004518 0.005789
# 3 -0.004289 -0.005599 0.018696 0.003161 0.001225 -0.004168
# 4 0.003941 0.002335 0.003161 0.027375 0.000468 -0.000067
# 5 0.002849 0.004518 0.001225 0.000468 0.024117 0.002458
# 6 -0.003381 0.005789 -0.004168 -0.000067 0.002458 0.028714
#
#
# Mechanical properties :
#
#
# Convention : Reuss Voigt Hill
#
# Bulk Modulus (GPa) = 43.65035 63.00253 53.32644
# Shear Modulus (GPa) = 30.40281 37.23439 33.81860
#
# Velocity S-wave (km/s) = 3.76610 4.16780 3.97203
# Velocity P-wave (km/s) = 6.26698 7.24932 6.77597
#
# Compressibility (1/GPa) = 0.02290932
#
# Stress axis : x y z
#
# Youngs Moduli (GPa) = 75.09910 56.33430 53.48824
#
# Poissons Ratio (x) = 0.19937 0.22940
# Poissons Ratio (y) = 0.26578 0.29947
# Poissons Ratio (z) = 0.32208 0.31541
#
# Static dielectric constant tensor:
#      x y z
#    x 1.724580 0.023630 0.026380 
#    y 0.023630 1.863310 0.026380 
#    z 0.026380 0.026380 1.720830 
# 
# From -- ./inp_files/528221.got.cif
#   From: 2010.05.17/outbox.cif.g08.bks.cpg/sg2_265_cif.got.tgz:528221.got - 2010.06.03 11:33:40.
