data_PCOD9020912
_publ_section_title
;
Structure prediction by ZEFSAII (Michael W. Deem and Ramdas Pophale) SiO2 
 PCOD9020912
Probable space group: P -1
;
_chemical_formula_sum "Si O2"
_cell_formula_units_Z 16
_cell_length_a 13.759811
_cell_length_b 24.428421
_cell_length_c 8.141746
_cell_angle_alpha 38.536215
_cell_angle_beta 138.144186
_cell_angle_gamma 159.284391
_cell_volume 602.022618
_symmetry_space_group_name_H-M "P -1"
_symmetry_group_IT_number 2
_symmetry_cell_setting 'triclinic'
loop_
_space_group_symop_operation_xyz
x,y,z
-x,-y,-z
loop_
_atom_site_type_symbol
_atom_site_label
_atom_site_fract_x
_atom_site_fract_y
_atom_site_fract_z
Si Si1 0.488566 0.958496 0.898922
Si Si2 0.097434 0.271077 0.004821
Si Si3 0.139478 0.663328 0.748062
Si Si4 0.953231 0.562299 0.404545
Si Si5 0.246176 0.366103 0.622650
Si Si6 0.752701 0.011051 0.692613
Si Si7 0.947501 0.019991 0.604366
Si Si8 0.447520 0.202492 0.669106
O O1 0.400604 0.812585 0.127573
O O2 0.324094 0.938408 0.623652
O O3 0.500000 0.000000 0.000000
O O4 0.814226 0.121430 0.890984
O O5 0.081943 0.354779 0.889420
O O6 0.315337 0.386812 0.856915
O O7 0.070807 0.173593 0.318166
O O8 0.449395 0.836180 0.797586
O O9 0.170351 0.678018 0.554101
O O10 0.928661 0.632267 0.606093
O O11 0.000000 0.500000 0.000000
O O12 0.663370 0.389162 0.531071
O O13 0.000000 0.500000 0.500000
O O14 0.500000 0.500000 0.500000
O O15 0.040595 0.183856 0.733396
O O16 0.821374 0.974354 0.727383
O O17 0.202630 0.084524 0.769175
O O18 0.715302 0.868498 0.541404
#
# Coordination Sequence:
#
# PCOD9020912 Si02
#       8
#     2   2   2   2   2   2   2   2
#     4  11  19  40  71 103 130 177 235 287 345 418
#     4  10  22  42  66  95 144 177 232 284 346 409
#     4  11  27  47  66 105 139 178 234 287 343 425
#     4  11  22  38  67  98 137 173 230 292 343 394
#     4  11  27  48  67 100 143 190 237 280 341 423
#     4  12  23  45  77  95 137 190 235 281 356 416
#     4  10  23  42  67 103 135 181 230 287 360 417
#     4  10  22  37  62 101 143 166 226 290 352 406
#
# _framework density 26.577072999999999
#
# number of rings (size 3 to 8) (size 9 to 14) (size 15 to 20)
#    0.000    1.250    5.000    1.875    5.250    1.500 
#    9.000    0.625    0.000    0.000    0.000    0.000 
#    0.000    0.000    0.000    0.000    0.000    0.000 
#
# Total GULP energy -89560.488385 kJ/mol
# GULP energy per Si atom -5597.530524 kJ/mol
# Density = 2.651658 g / cm^3
# Si number density = 26.577073 Si / 1000 Ang^3
#
#
#
# Elastic Constant Matrix: (Units=GPa)
#
#
# Indices 1 2 3 4 5 6 
#
# 1 167.5528 43.6795 10.9951 -5.7514 -7.8702 4.5687
# 2 43.6795 107.1335 34.1077 -17.1101 11.4427 7.2261
# 3 10.9951 34.1077 100.6991 -26.1476 19.5571 7.1682
# 4 -5.7514 -17.1101 -26.1476 55.0385 -0.1563 2.4735
# 5 -7.8702 11.4427 19.5571 -0.1563 47.4094 -6.8082
# 6 4.5687 7.2261 7.1682 2.4735 -6.8082 40.4599
#
#
#
# Elastic Compliance Matrix: (Units=1/GPa)
#
#
# Indices 1 2 3 4 5 6 
#
# 1 0.006839 -0.002993 -0.000207 -0.000315 0.001963 0.000148
# 2 -0.002993 0.012150 -0.002520 0.002348 -0.002666 -0.001978
# 3 -0.000207 -0.002520 0.013602 0.005786 -0.005479 -0.003212
# 4 -0.000315 0.002348 0.005786 0.021754 -0.003410 -0.003313
# 5 0.001963 -0.002666 -0.005479 -0.003410 0.025124 0.005661
# 6 0.000148 -0.001978 -0.003212 -0.003313 0.005661 0.026777
#
#
# Mechanical properties :
#
#
# Convention : Reuss Voigt Hill
#
# Bulk Modulus (GPa) = 47.27727 61.43890 54.35808
# Shear Modulus (GPa) = 40.08476 47.68844 43.88660
#
# Velocity S-wave (km/s) = 3.88783 4.24057 4.06802
# Velocity P-wave (km/s) = 6.16287 6.86615 6.52399
#
# Compressibility (1/GPa) = 0.02115182
#
# Stress axis : x y z
#
# Youngs Moduli (GPa) = 146.21269 82.30572 73.51934
#
# Poissons Ratio (x) = 0.24631 0.01520
# Poissons Ratio (y) = 0.43756 0.18528
# Poissons Ratio (z) = 0.03023 0.20743
#
# Static dielectric constant tensor:
#      x y z
#    x 2.123170 0.054790 -0.102110 
#    y 0.054790 2.076080 -0.001500 
#    z -0.102110 -0.001500 2.287970 
# 
# From -- ./inp_files/282911.got.cif
#   From: 2010.05.17/outbox.cif.g08.bks.cpg/sg2_142_cif.got.tgz:282911.got - 2010.06.03 11:33:40.
