data_PCOD9020112
_publ_section_title
;
Structure prediction by ZEFSAII (Michael W. Deem and Ramdas Pophale) SiO2 
 PCOD9020112
Probable space group: P -1
;
_chemical_formula_sum "Si O2"
_cell_formula_units_Z 15
_cell_length_a 14.461643
_cell_length_b 10.522619
_cell_length_c 6.770513
_cell_angle_alpha 101.316231
_cell_angle_beta 102.566439
_cell_angle_gamma 40.682652
_cell_volume 654.740118
_symmetry_space_group_name_H-M "P -1"
_symmetry_group_IT_number 2
_symmetry_cell_setting 'triclinic'
loop_
_space_group_symop_operation_xyz
x,y,z
-x,-y,-z
loop_
_atom_site_type_symbol
_atom_site_label
_atom_site_fract_x
_atom_site_fract_y
_atom_site_fract_z
Si Si1 0.622568 0.186756 0.471589
Si Si2 0.934380 0.185577 0.402560
Si Si3 0.882607 0.826369 0.253103
Si Si4 0.081072 0.730545 0.985046
Si Si5 0.785495 0.654737 0.268288
Si Si6 0.312576 0.580536 0.367056
Si Si7 0.356905 0.090405 0.364249
Si Si8 0.500000 0.000000 0.000000
O O1 0.459694 0.350712 0.370030
O O2 0.653833 0.300640 0.590717
O O3 0.650504 0.051841 0.612384
O O4 0.725229 0.042579 0.294456
O O5 0.957444 0.133809 0.169014
O O6 0.770890 0.359295 0.448740
O O7 0.021797 0.217154 0.536080
O O8 0.000000 0.000000 0.500000
O O9 0.873202 0.682951 0.221774
O O10 0.951881 0.811046 0.082587
O O11 0.142496 0.550971 0.824867
O O12 0.206258 0.648189 0.164467
O O13 0.766508 0.707485 0.509010
O O14 0.627156 0.819704 0.150939
O O15 0.500000 0.000000 0.500000
O O16 0.376263 0.093239 0.143621
#
# Coordination Sequence:
#
# PCOD9020112 Si02
#       8
#     2   2   2   2   2   2   2   1
#     4  10  21  46  71 102 140 176 230 292 350 394
#     4  11  24  47  66  95 138 185 231 281 344 403
#     4  10  23  44  68 101 138 181 227 289 335 425
#     4  11  26  42  73 100 137 187 229 283 347 414
#     4  10  23  41  66 105 136 178 227 281 351 402
#     4  10  24  44  72 100 135 178 235 292 336 425
#     4   9  21  38  65  96 141 177 211 277 342 405
#     4  10  22  40  66 106 136 182 216 280 342 416
#
# _framework density 22.909852000000001
#
# number of rings (size 3 to 8) (size 9 to 14) (size 15 to 20)
#    0.000    1.867    1.333    0.400    9.333    5.867 
#    2.400    4.000    0.000    0.000    0.000    0.000 
#    0.000    0.000    0.000    0.000    0.000    0.000 
#
# Total GULP energy -83635.557166 kJ/mol
# GULP energy per Si atom -5575.703811 kJ/mol
# Density = 2.285771 g / cm^3
# Si number density = 22.909852 Si / 1000 Ang^3
#
#
#
# Elastic Constant Matrix: (Units=GPa)
#
#
# Indices 1 2 3 4 5 6 
#
# 1 79.6764 20.8245 33.6896 13.7072 -15.9883 -5.7343
# 2 20.8245 87.0859 49.4112 16.0624 -15.9336 -14.3906
# 3 33.6896 49.4112 171.3971 16.8675 -53.4629 -5.7673
# 4 13.7072 16.0624 16.8675 16.7654 -8.3279 -1.8345
# 5 -15.9883 -15.9336 -53.4629 -8.3279 36.6518 13.6768
# 6 -5.7343 -14.3906 -5.7673 -1.8345 13.6768 37.0588
#
#
#
# Elastic Compliance Matrix: (Units=1/GPa)
#
#
# Indices 1 2 3 4 5 6 
#
# 1 0.015368 -0.000778 -0.001093 -0.009459 0.002419 0.000545
# 2 -0.000778 0.017034 -0.005152 -0.012713 -0.006061 0.007300
# 3 -0.001093 -0.005152 0.013307 0.001453 0.019756 -0.007318
# 4 -0.009459 -0.012713 0.001453 0.084441 0.014377 -0.007300
# 5 0.002419 -0.006061 0.019756 0.014377 0.066235 -0.022638
# 6 0.000545 0.007300 -0.007318 -0.007300 -0.022638 0.036758
#
#
# Mechanical properties :
#
#
# Convention : Reuss Voigt Hill
#
# Bulk Modulus (GPa) = 31.58022 60.66778 46.12400
# Shear Modulus (GPa) = 19.39920 33.71079 26.55499
#
# Velocity S-wave (km/s) = 2.91307 3.84011 3.40826
# Velocity P-wave (km/s) = 5.01290 6.79710 5.97201
#
# Compressibility (1/GPa) = 0.03166539
#
# Stress axis : x y z
#
# Youngs Moduli (GPa) = 65.07015 58.70609 75.14632
#
# Poissons Ratio (x) = 0.04565 0.08211
# Poissons Ratio (y) = 0.05060 0.38714
# Poissons Ratio (z) = 0.07110 0.30244
#
# Static dielectric constant tensor:
#      x y z
#    x 2.016260 0.102610 0.037420 
#    y 0.102610 1.965720 0.025590 
#    z 0.037420 0.025590 1.871910 
# 
# From -- ./inp_files/93638.got.cif
#   From: 2010.05.17/outbox.cif.g08.bks.cpg/sg2_47_cif.got.tgz:93638.got - 2010.06.03 11:33:40.
