data_PCOD9020852
_publ_section_title
;
Structure prediction by ZEFSAII (Michael W. Deem and Ramdas Pophale) SiO2 
 PCOD9020852
Probable space group: P -1
;
_chemical_formula_sum "Si O2"
_cell_formula_units_Z 16
_cell_length_a 8.294310
_cell_length_b 11.932908
_cell_length_c 11.560884
_cell_angle_alpha 124.711128
_cell_angle_beta 62.236929
_cell_angle_gamma 96.800245
_cell_volume 815.186661
_symmetry_space_group_name_H-M "P -1"
_symmetry_group_IT_number 2
_symmetry_cell_setting 'triclinic'
loop_
_space_group_symop_operation_xyz
x,y,z
-x,-y,-z
loop_
_atom_site_type_symbol
_atom_site_label
_atom_site_fract_x
_atom_site_fract_y
_atom_site_fract_z
Si Si1 0.213505 0.087679 0.225553
Si Si2 0.849567 0.954612 0.239125
Si Si3 0.627622 0.240516 0.570554
Si Si4 0.114931 0.528167 0.130240
Si Si5 0.411011 0.101955 0.922676
Si Si6 0.416637 0.663959 0.098968
Si Si7 0.948187 0.384962 0.534117
Si Si8 0.782681 0.685121 0.212812
O O1 0.103107 0.239293 0.398694
O O2 0.388545 0.009420 0.200434
O O3 0.309058 0.107371 0.082782
O O4 0.053202 0.997231 0.197945
O O5 0.739545 0.926483 0.140666
O O6 0.851276 0.825845 0.248122
O O7 0.712679 0.086290 0.415909
O O8 0.625438 0.255833 0.719053
O O9 0.758194 0.337850 0.532336
O O10 0.412969 0.283145 0.639762
O O11 0.216579 0.644941 0.109576
O O12 0.100183 0.547238 0.283315
O O13 0.908848 0.566407 0.174493
O O14 0.214546 0.382919 0.956139
O O15 0.473094 0.248779 0.965470
O O16 0.500000 0.500000 0.000000
O O17 0.000000 0.500000 0.500000
#
# Coordination Sequence:
#
# PCOD9020852 Si02
#       8
#     2   2   2   2   2   2   2   2
#     4  10  25  42  59  95 122 165 213 250 302 381
#     4  11  22  40  63  88 126 160 202 255 310 369
#     4  10  22  37  60  91 113 154 207 242 312 363
#     4  10  23  37  59  94 119 156 204 257 313 360
#     4  11  23  40  67  87 125 168 204 255 314 361
#     4  11  20  37  62  90 117 158 206 252 303 367
#     4  10  24  41  64  84 124 165 206 256 306 369
#     4  11  21  38  62  89 125 155 200 260 309 368
#
# _framework density 19.627406000000001
#
# number of rings (size 3 to 8) (size 9 to 14) (size 15 to 20)
#    0.000    1.500    2.500    1.500    7.000    0.000 
#    0.000    4.375    0.000    0.000    0.000    0.000 
#    0.000    0.000    0.000    0.000    0.000    0.000 
#
# Total GULP energy -89078.224250 kJ/mol
# GULP energy per Si atom -5567.389016 kJ/mol
# Density = 1.958273 g / cm^3
# Si number density = 19.627406 Si / 1000 Ang^3
#
#
#
# Elastic Constant Matrix: (Units=GPa)
#
#
# Indices 1 2 3 4 5 6 
#
# 1 64.3299 29.2700 9.8036 0.2585 -18.6038 6.8670
# 2 29.2700 110.5123 33.8626 6.1435 -10.4579 21.8431
# 3 9.8036 33.8626 78.7706 5.5288 -6.8710 14.0134
# 4 0.2585 6.1435 5.5288 18.7671 5.7296 -2.7500
# 5 -18.6038 -10.4579 -6.8710 5.7296 33.9537 -1.0958
# 6 6.8670 21.8431 14.0134 -2.7500 -1.0958 29.4362
#
#
#
# Elastic Compliance Matrix: (Units=1/GPa)
#
#
# Indices 1 2 3 4 5 6 
#
# 1 0.020581 -0.004137 0.000654 -0.002610 0.010514 -0.001895
# 2 -0.004137 0.013073 -0.003269 -0.004881 0.001678 -0.007573
# 3 0.000654 -0.003269 0.015669 -0.005362 0.003248 -0.005566
# 4 -0.002610 -0.004881 -0.005362 0.062605 -0.014193 0.012104
# 5 0.010514 0.001678 0.003248 -0.014193 0.038616 -0.005132
# 6 -0.001895 -0.007573 -0.005566 0.012104 -0.005132 0.043623
#
#
# Mechanical properties :
#
#
# Convention : Reuss Voigt Hill
#
# Bulk Modulus (GPa) = 27.91721 44.38724 36.15222
# Shear Modulus (GPa) = 22.76765 28.47648 25.62206
#
# Velocity S-wave (km/s) = 3.40956 3.81314 3.61698
# Velocity P-wave (km/s) = 5.45478 6.48465 5.99188
#
# Compressibility (1/GPa) = 0.03582020
#
# Stress axis : x y z
#
# Youngs Moduli (GPa) = 48.58896 76.49315 63.82107
#
# Poissons Ratio (x) = 0.31644 -0.04177
# Poissons Ratio (y) = 0.20100 0.20862
# Poissons Ratio (z) = -0.03180 0.25004
#
# Static dielectric constant tensor:
#      x y z
#    x 1.855890 0.006950 -0.028250 
#    y 0.006950 1.675350 0.020740 
#    z -0.028250 0.020740 1.687030 
# 
# From -- ./inp_files/261723.got.cif
#   From: 2010.05.17/outbox.cif.g08.bks.cpg/sg2_131_cif.got.tgz:261723.got - 2010.06.03 11:33:40.
