data_PCOD9020775
_publ_section_title
;
Structure prediction by ZEFSAII (Michael W. Deem and Ramdas Pophale) SiO2 
 PCOD9020775
Probable space group: P -1
;
_chemical_formula_sum "Si O2"
_cell_formula_units_Z 14
_cell_length_a 10.238841
_cell_length_b 8.675669
_cell_length_c 9.527041
_cell_angle_alpha 136.922571
_cell_angle_beta 115.620374
_cell_angle_gamma 62.918863
_cell_volume 507.636178
_symmetry_space_group_name_H-M "P -1"
_symmetry_group_IT_number 2
_symmetry_cell_setting 'triclinic'
loop_
_space_group_symop_operation_xyz
x,y,z
-x,-y,-z
loop_
_atom_site_type_symbol
_atom_site_label
_atom_site_fract_x
_atom_site_fract_y
_atom_site_fract_z
Si Si1 0.657816 0.567167 0.628959
Si Si2 0.085114 0.683925 0.099608
Si Si3 0.674610 0.727556 0.431512
Si Si4 0.130547 0.699110 0.834115
Si Si5 0.888672 0.118844 0.372263
Si Si6 0.674088 0.763295 0.058093
Si Si7 0.417082 0.802057 0.181761
O O1 0.500000 0.500000 0.500000
O O2 0.679387 0.674333 0.561375
O O3 0.801785 0.351671 0.567189
O O4 0.639937 0.739726 0.864428
O O5 0.248327 0.508976 0.047922
O O6 0.026259 0.749541 0.955389
O O7 0.046389 0.926644 0.327867
O O8 0.000000 0.500000 0.000000
O O9 0.825358 0.580866 0.339950
O O10 0.540025 0.639783 0.233588
O O11 0.648420 0.000766 0.601294
O O12 0.103282 0.787721 0.722694
O O13 0.274497 0.782865 0.013116
O O14 0.779508 0.943475 0.229657
O O15 0.536832 0.850680 0.155779
#
# Coordination Sequence:
#
# PCOD9020775 Si02
#       7
#     2   2   2   2   2   2   2
#     4  11  23  37  62  94 128 160 204 257 313 369
#     4  10  23  42  64  89 123 172 211 258 307 367
#     4  10  22  37  57  97 128 157 200 254 314 373
#     4  11  21  40  66  90 126 162 212 257 313 370
#     4  10  23  41  63  91 126 169 208 252 309 370
#     4  11  22  41  64  92 132 162 205 257 310 369
#     4  11  22  37  65  96 125 165 202 257 319 366
#
# _framework density 27.578807999999999
#
# number of rings (size 3 to 8) (size 9 to 14) (size 15 to 20)
#    0.000    1.429    1.429    4.286    2.000    2.286 
#    0.000    2.857    0.000   10.286    0.000    0.000 
#    0.000    0.000    0.000    0.000    0.000    0.000 
#
# Total GULP energy -78179.260375 kJ/mol
# GULP energy per Si atom -5584.232884 kJ/mol
# Density = 2.751604 g / cm^3
# Si number density = 27.578808 Si / 1000 Ang^3
#
#
#
# Elastic Constant Matrix: (Units=GPa)
#
#
# Indices 1 2 3 4 5 6 
#
# 1 94.0580 15.0396 31.9277 -3.5704 -14.7904 0.3427
# 2 15.0396 96.7850 10.2737 2.4305 -5.5675 -12.4393
# 3 31.9277 10.2737 122.1987 0.5746 -28.5490 -10.3967
# 4 -3.5704 2.4305 0.5746 56.9281 -10.5967 -11.6214
# 5 -14.7904 -5.5675 -28.5490 -10.5967 52.0645 -5.4632
# 6 0.3427 -12.4393 -10.3967 -11.6214 -5.4632 31.2246
#
#
#
# Elastic Compliance Matrix: (Units=1/GPa)
#
#
# Indices 1 2 3 4 5 6 
#
# 1 0.012146 -0.001643 -0.002675 0.001018 0.001914 -0.000965
# 2 -0.001643 0.011295 0.000291 0.000767 0.001600 0.005180
# 3 -0.002675 0.000291 0.010759 0.001989 0.006157 0.005545
# 4 0.001018 0.000767 0.001989 0.020853 0.006745 0.009898
# 5 0.001914 0.001600 0.006157 0.006745 0.025686 0.009671
# 6 -0.000965 0.005180 0.005545 0.009898 0.009671 0.041323
#
#
# Mechanical properties :
#
#
# Convention : Reuss Voigt Hill
#
# Bulk Modulus (GPa) = 38.24803 47.50262 42.87532
# Shear Modulus (GPa) = 36.01501 45.09682 40.55591
#
# Velocity S-wave (km/s) = 3.61764 4.04815 3.83893
# Velocity P-wave (km/s) = 5.59897 6.25393 5.93549
#
# Compressibility (1/GPa) = 0.02614514
#
# Stress axis : x y z
#
# Youngs Moduli (GPa) = 82.33472 88.53339 92.94660
#
# Poissons Ratio (x) = 0.14544 0.24863
# Poissons Ratio (y) = 0.13526 -0.02701
# Poissons Ratio (z) = 0.22024 -0.02573
#
# Static dielectric constant tensor:
#      x y z
#    x 2.162020 -0.045540 0.001090 
#    y -0.045540 2.388450 0.080340 
#    z 0.001090 0.080340 2.163290 
# 
# From -- ./inp_files/225925.got.cif
#   From: 2010.05.17/outbox.cif.g08.bks.cpg/sg2_113_cif.got.tgz:225925.got - 2010.06.03 11:33:40.
