data_PCOD9020665
_publ_section_title
;
Structure prediction by ZEFSAII (Michael W. Deem and Ramdas Pophale) SiO2 
 PCOD9020665
Probable space group: P -1
;
_chemical_formula_sum "Si O2"
_cell_formula_units_Z 16
_cell_length_a 12.075086
_cell_length_b 13.472226
_cell_length_c 8.329132
_cell_angle_alpha 141.634845
_cell_angle_beta 83.184307
_cell_angle_gamma 121.374748
_cell_volume 601.367670
_symmetry_space_group_name_H-M "P -1"
_symmetry_group_IT_number 2
_symmetry_cell_setting 'triclinic'
loop_
_space_group_symop_operation_xyz
x,y,z
-x,-y,-z
loop_
_atom_site_type_symbol
_atom_site_label
_atom_site_fract_x
_atom_site_fract_y
_atom_site_fract_z
Si Si1 0.253589 0.203552 0.193831
Si Si2 0.961371 0.897115 0.628239
Si Si3 0.374526 0.206665 0.671654
Si Si4 0.652044 0.053811 0.103797
Si Si5 0.189493 0.722149 0.949919
Si Si6 0.352523 0.464596 0.194436
Si Si7 0.933628 0.673997 0.027726
Si Si8 0.523152 0.155216 0.825363
O O1 0.342190 0.134177 0.147449
O O2 0.344368 0.402371 0.300632
O O3 0.186920 0.228760 0.391088
O O4 0.103747 0.999766 0.854567
O O5 0.945524 0.748634 0.303447
O O6 0.994630 0.109364 0.819607
O O7 0.273616 0.958310 0.318830
O O8 0.486627 0.353464 0.691833
O O9 0.484805 0.278263 0.895791
O O10 0.275992 0.252167 0.820721
O O11 0.789364 0.241815 0.199393
O O12 0.618050 0.025592 0.261411
O O13 0.500000 0.000000 0.000000
O O14 0.304104 0.692288 0.941709
O O15 0.017957 0.588773 0.872092
O O16 0.243310 0.507342 0.234305
O O17 0.500000 0.000000 0.500000
#
# Coordination Sequence:
#
# PCOD9020665 Si02
#       8
#     2   2   2   2   2   2   2   2
#     4  10  17  31  47  77 102 138 165 210 266 300
#     4   9  18  27  50  72 108 130 169 214 252 305
#     4  10  19  36  50  75 104 142 172 207 263 307
#     4  10  19  31  49  79 105 129 171 224 253 292
#     4  10  19  33  56  77 102 134 176 220 250 295
#     4  10  21  32  52  73 112 140 164 211 261 315
#     4  10  18  32  50  80 101 134 172 214 253 297
#     4   9  19  33  54  76  98 135 178 214 251 301
#
# _framework density 26.606017999999999
#
# number of rings (size 3 to 8) (size 9 to 14) (size 15 to 20)
#    0.000    2.250    2.500    2.250    1.750    0.000 
#    0.000    2.500    0.000    0.000    0.000    9.625 
#    0.000    0.000    0.000    0.000    0.000    0.000 
#
# Total GULP energy -89419.994132 kJ/mol
# GULP energy per Si atom -5588.749633 kJ/mol
# Density = 2.654546 g / cm^3
# Si number density = 26.606018 Si / 1000 Ang^3
#
#
#
# Elastic Constant Matrix: (Units=GPa)
#
#
# Indices 1 2 3 4 5 6 
#
# 1 150.3745 50.5633 19.0421 -8.9882 -3.8321 7.4853
# 2 50.5633 140.1051 33.7725 -51.2886 -5.7175 8.1712
# 3 19.0421 33.7725 74.0408 -30.9890 0.5639 2.8205
# 4 -8.9882 -51.2886 -30.9890 51.1824 3.1260 -10.4910
# 5 -3.8321 -5.7175 0.5639 3.1260 21.9153 -16.3385
# 6 7.4853 8.1712 2.8205 -10.4910 -16.3385 35.6602
#
#
#
# Elastic Compliance Matrix: (Units=1/GPa)
#
#
# Indices 1 2 3 4 5 6 
#
# 1 0.008011 -0.003764 -0.001894 -0.003900 -0.000502 -0.002047
# 2 -0.003764 0.013200 0.000332 0.013205 0.003196 0.003088
# 3 -0.001894 0.000332 0.018703 0.011762 -0.001043 0.001824
# 4 -0.003900 0.013205 0.011762 0.041213 0.004985 0.011271
# 5 -0.000502 0.003196 -0.001043 0.004985 0.070441 0.033196
# 6 -0.002047 0.003088 0.001824 0.011271 0.033196 0.046146
#
#
# Mechanical properties :
#
#
# Convention : Reuss Voigt Hill
#
# Bulk Modulus (GPa) = 34.17336 63.47513 48.82425
# Shear Modulus (GPa) = 22.92315 39.16107 31.04211
#
# Velocity S-wave (km/s) = 2.93845 3.84068 3.41945
# Velocity P-wave (km/s) = 4.93809 6.60129 5.82931
#
# Compressibility (1/GPa) = 0.02926256
#
# Stress axis : x y z
#
# Youngs Moduli (GPa) = 124.82211 75.75652 53.46727
#
# Poissons Ratio (x) = 0.28511 0.10129
# Poissons Ratio (y) = 0.46977 -0.01774
# Poissons Ratio (z) = 0.23646 -0.02514
#
# Static dielectric constant tensor:
#      x y z
#    x 2.759520 0.051620 -0.097530 
#    y 0.051620 2.097010 0.071760 
#    z -0.097530 0.071760 2.142930 
# 
# From -- ./inp_files/268874.got.cif
#   From: 2010.05.17/outbox.cif.g08.bks.cpg/sg2_135_cif.got.tgz:268874.got - 2010.06.03 11:33:40.
