data_PCOD9020881
_publ_section_title
;
Structure prediction by ZEFSAII (Michael W. Deem and Ramdas Pophale) SiO2 
 PCOD9020881
Probable space group: P -1
;
_chemical_formula_sum "Si O2"
_cell_formula_units_Z 16
_cell_length_a 15.114158
_cell_length_b 14.734003
_cell_length_c 14.553602
_cell_angle_alpha 133.314055
_cell_angle_beta 48.590314
_cell_angle_gamma 160.623829
_cell_volume 780.985923
_symmetry_space_group_name_H-M "P -1"
_symmetry_group_IT_number 2
_symmetry_cell_setting 'triclinic'
loop_
_space_group_symop_operation_xyz
x,y,z
-x,-y,-z
loop_
_atom_site_type_symbol
_atom_site_label
_atom_site_fract_x
_atom_site_fract_y
_atom_site_fract_z
Si Si1 0.178213 0.357634 0.376744
Si Si2 0.236839 0.301948 0.594471
Si Si3 0.283596 0.269792 0.751346
Si Si4 0.689206 0.131709 0.686782
Si Si5 0.540795 0.817624 0.178172
Si Si6 0.451685 0.094548 0.569361
Si Si7 0.065038 0.185054 0.023649
Si Si8 0.220177 0.527607 0.659469
O O1 0.408925 0.477983 0.274526
O O2 0.269587 0.569905 0.409977
O O3 0.211291 0.423981 0.506885
O O4 0.898282 0.026773 0.322586
O O5 0.500000 0.500000 0.500000
O O6 0.245830 0.284797 0.684906
O O7 0.204288 0.418643 0.679420
O O8 0.000000 0.000000 0.500000
O O9 0.181081 0.258731 0.895744
O O10 0.578482 0.165035 0.766180
O O11 0.977449 0.392461 0.715513
O O12 0.694902 0.064037 0.537722
O O13 0.487662 0.860955 0.699554
O O14 0.654711 0.945714 0.291842
O O15 0.298326 0.489254 0.120388
O O16 0.789803 0.000791 0.077521
O O17 0.500000 0.000000 0.500000
O O18 0.000000 0.000000 0.000000
#
# Coordination Sequence:
#
# PCOD9020881 Si02
#       8
#     2   2   2   2   2   2   2   2
#     4  11  20  35  58  85 125 155 193 240 305 370
#     4  12  22  38  61  94 127 156 195 251 320 366
#     4  12  23  39  59  89 122 163 198 248 303 363
#     4  10  22  37  61  89 119 161 197 249 312 359
#     4  11  23  42  60  85 122 159 212 258 291 357
#     4   9  20  36  58  87 118 157 200 248 303 356
#     4  12  25  41  63  88 121 167 212 247 298 353
#     4  11  20  36  59  90 123 153 191 243 316 375
#
# _framework density 20.486924999999999
#
# number of rings (size 3 to 8) (size 9 to 14) (size 15 to 20)
#    0.000    1.000    2.500    5.625    0.000    2.000 
#    0.000   10.625    0.000    4.500    0.000    0.000 
#    0.000    0.000    0.000    0.000    0.000    0.000 
#
# Total GULP energy -89426.151353 kJ/mol
# GULP energy per Si atom -5589.134460 kJ/mol
# Density = 2.044030 g / cm^3
# Si number density = 20.486925 Si / 1000 Ang^3
#
#
#
# Elastic Constant Matrix: (Units=GPa)
#
#
# Indices 1 2 3 4 5 6 
#
# 1 135.6014 20.6597 44.9899 -16.3388 -2.2694 -17.1239
# 2 20.6597 39.2932 21.3004 -20.1622 -2.5886 9.1540
# 3 44.9899 21.3004 94.9790 -14.4651 -8.7533 -2.4800
# 4 -16.3388 -20.1622 -14.4651 29.8926 2.3655 -8.9324
# 5 -2.2694 -2.5886 -8.7533 2.3655 28.4022 -7.0824
# 6 -17.1239 9.1540 -2.4800 -8.9324 -7.0824 31.8522
#
#
#
# Elastic Compliance Matrix: (Units=1/GPa)
#
#
# Indices 1 2 3 4 5 6 
#
# 1 0.010459 -0.003350 -0.003276 0.004093 0.001106 0.007724
# 2 -0.003350 0.043486 -0.005146 0.022531 -0.001965 -0.008818
# 3 -0.003276 -0.005146 0.013934 0.001824 0.003959 0.002194
# 4 0.004093 0.022531 0.001824 0.055139 0.001245 0.011607
# 5 0.001106 -0.001965 0.003959 0.001245 0.038841 0.010453
# 6 0.007724 -0.008818 0.002194 0.011607 0.010453 0.043831
#
#
# Mechanical properties :
#
#
# Convention : Reuss Voigt Hill
#
# Bulk Modulus (GPa) = 22.55490 49.30818 35.93154
# Shear Modulus (GPa) = 20.49075 30.22429 25.35752
#
# Velocity S-wave (km/s) = 3.16600 3.84513 3.52197
# Velocity P-wave (km/s) = 4.93944 6.62070 5.84088
#
# Compressibility (1/GPa) = 0.04433627
#
# Stress axis : x y z
#
# Youngs Moduli (GPa) = 95.61274 22.99588 71.76489
#
# Poissons Ratio (x) = 0.07703 0.23511
# Poissons Ratio (y) = 0.32028 0.36928
# Poissons Ratio (z) = 0.31323 0.11833
#
# Static dielectric constant tensor:
#      x y z
#    x 1.748320 0.028650 -0.020500 
#    y 0.028650 1.740110 -0.035380 
#    z -0.020500 -0.035380 1.745600 
# 
# From -- ./inp_files/534369.got.cif
#   From: 2010.05.17/outbox.cif.g08.bks.cpg/sg2_268_cif.got.tgz:534369.got - 2010.06.03 11:33:40.
