data_PCOD9020093
_publ_section_title
;
Structure prediction by ZEFSAII (Michael W. Deem and Ramdas Pophale) SiO2 
 PCOD9020093
Probable space group: P -1
;
_chemical_formula_sum "Si O2"
_cell_formula_units_Z 15
_cell_length_a 15.801566
_cell_length_b 14.320121
_cell_length_c 13.090921
_cell_angle_alpha 42.485067
_cell_angle_beta 162.666724
_cell_angle_gamma 135.999939
_cell_volume 594.317597
_symmetry_space_group_name_H-M "P -1"
_symmetry_group_IT_number 2
_symmetry_cell_setting 'triclinic'
loop_
_space_group_symop_operation_xyz
x,y,z
-x,-y,-z
loop_
_atom_site_type_symbol
_atom_site_label
_atom_site_fract_x
_atom_site_fract_y
_atom_site_fract_z
Si Si1 0.010921 0.791336 0.490941
Si Si2 0.310110 0.731534 0.429287
Si Si3 0.500000 0.000000 0.500000
Si Si4 0.451660 0.954536 0.715977
Si Si5 0.424476 0.564700 0.499375
Si Si6 0.797786 0.800882 0.667714
Si Si7 0.935727 0.709954 0.696203
Si Si8 0.169558 0.494888 0.596507
O O1 0.060719 0.770074 0.686171
O O2 0.918659 0.639458 0.463355
O O3 0.254146 0.857102 0.642881
O O4 0.754874 0.891803 0.112078
O O5 0.424600 0.632873 0.555800
O O6 0.130977 0.634267 0.378294
O O7 0.541143 0.834366 0.666089
O O8 0.091338 0.831870 0.043420
O O9 0.637433 0.032442 0.515299
O O10 0.431249 0.105437 0.623046
O O11 0.706480 0.635943 0.712502
O O12 0.337218 0.402303 0.542850
O O13 0.178386 0.628664 0.097225
O O14 0.843921 0.819948 0.585363
O O15 0.000000 0.500000 0.500000
O O16 0.500000 0.500000 0.000000
#
# Coordination Sequence:
#
# PCOD9020093 Si02
#       8
#     2   2   1   2   2   2   2   2
#     4  12  27  49  71 111 150 198 242 306 377 446
#     4  11  24  43  75 105 142 188 247 307 366 438
#     4  12  24  50  72 102 142 192 242 306 354 442
#     4  12  29  47  74 105 153 195 252 301 371 442
#     4  10  21  46  70 109 138 189 246 305 367 437
#     4  11  25  44  73 109 143 195 252 305 368 442
#     4  10  24  43  75 104 151 189 246 307 373 442
#     4  12  27  47  73 107 148 192 246 307 376 437
#
# _framework density 25.239028999999999
#
# number of rings (size 3 to 8) (size 9 to 14) (size 15 to 20)
#    0.000    0.800    2.667    3.600    5.600    5.333 
#    0.000    0.000    0.000    0.000    0.000    0.000 
#    0.000    0.000    0.000    0.000    0.000    0.000 
#
# Total GULP energy -83783.568071 kJ/mol
# GULP energy per Si atom -5585.571205 kJ/mol
# Density = 2.518158 g / cm^3
# Si number density = 25.239029 Si / 1000 Ang^3
#
#
#
# Elastic Constant Matrix: (Units=GPa)
#
#
# Indices 1 2 3 4 5 6 
#
# 1 244.3419 48.9506 23.6013 -9.0135 -18.2552 13.1042
# 2 48.9506 94.9311 -1.3859 -16.5228 -11.2749 17.9042
# 3 23.6013 -1.3859 45.2524 -4.5302 9.1710 1.4765
# 4 -9.0135 -16.5228 -4.5302 17.7122 2.5587 11.9848
# 5 -18.2552 -11.2749 9.1710 2.5587 29.2935 -1.5007
# 6 13.1042 17.9042 1.4765 11.9848 -1.5007 53.8372
#
#
#
# Elastic Compliance Matrix: (Units=1/GPa)
#
#
# Indices 1 2 3 4 5 6 
#
# 1 0.005156 -0.002504 -0.003586 -0.001151 0.003474 0.000029
# 2 -0.002504 0.018320 0.004340 0.024107 0.001466 -0.010928
# 3 -0.003586 0.004340 0.027855 0.014139 -0.010765 -0.004782
# 4 -0.001151 0.024107 0.014139 0.104254 -0.006586 -0.031517
# 5 0.003474 0.001466 -0.010765 -0.006586 0.040892 0.001568
# 6 0.000029 -0.010928 -0.004782 -0.031517 0.001568 0.029392
#
#
# Mechanical properties :
#
#
# Convention : Reuss Voigt Hill
#
# Bulk Modulus (GPa) = 20.90764 58.53970 39.72367
# Shear Modulus (GPa) = 20.38207 41.05921 30.72064
#
# Velocity S-wave (km/s) = 2.84485 4.03775 3.49261
# Velocity P-wave (km/s) = 4.36952 6.70689 5.66017
#
# Compressibility (1/GPa) = 0.04782940
#
# Stress axis : x y z
#
# Youngs Moduli (GPa) = 193.93849 54.58606 35.90062
#
# Poissons Ratio (x) = 0.13671 0.12875
# Poissons Ratio (y) = 0.48570 -0.15581
# Poissons Ratio (z) = 0.69551 -0.23691
#
# Static dielectric constant tensor:
#      x y z
#    x 1.951920 0.025010 -0.056200 
#    y 0.025010 2.040620 0.053560 
#    z -0.056200 0.053560 1.668430 
# 
# From -- ./inp_files/454691.got.cif
#   From: 2010.05.17/outbox.cif.g08.bks.cpg/sg2_228_cif.got.tgz:454691.got - 2010.06.03 11:33:40.
