data_PCOD9020275
_publ_section_title
;
Structure prediction by ZEFSAII (Michael W. Deem and Ramdas Pophale) SiO2 
 PCOD9020275
Probable space group: P -1
;
_chemical_formula_sum "Si O2"
_cell_formula_units_Z 16
_cell_length_a 18.037541
_cell_length_b 9.910224
_cell_length_c 16.199494
_cell_angle_alpha 101.858989
_cell_angle_beta 16.480576
_cell_angle_gamma 105.586378
_cell_volume 776.746205
_symmetry_space_group_name_H-M "P -1"
_symmetry_group_IT_number 2
_symmetry_cell_setting 'triclinic'
loop_
_space_group_symop_operation_xyz
x,y,z
-x,-y,-z
loop_
_atom_site_type_symbol
_atom_site_label
_atom_site_fract_x
_atom_site_fract_y
_atom_site_fract_z
Si Si1 0.298450 0.306984 0.369383
Si Si2 0.152421 0.447045 0.205958
Si Si3 0.560746 0.286231 0.536546
Si Si4 0.226825 0.373824 0.284210
Si Si5 0.780803 0.829721 0.394299
Si Si6 0.945114 0.471812 0.267025
Si Si7 0.962861 0.097250 0.129210
Si Si8 0.748837 0.332689 0.159336
O O1 0.256789 0.266253 0.312051
O O2 0.298995 0.195437 0.427179
O O3 0.068002 0.380726 0.656763
O O4 0.564025 0.440172 0.102419
O O5 0.165252 0.332377 0.249264
O O6 0.984116 0.545968 0.442637
O O7 0.016109 0.385506 0.257693
O O8 0.665611 0.399609 0.511218
O O9 0.675865 0.352098 0.334039
O O10 0.721190 0.167217 0.372647
O O11 0.993532 0.254756 0.882105
O O12 0.500000 0.500000 0.000000
O O13 0.515018 0.763893 0.615586
O O14 0.892445 0.992855 0.269269
O O15 0.161066 0.520251 0.969717
O O16 0.244584 0.214121 0.857286
O O17 0.000000 0.000000 0.000000
#
# Coordination Sequence:
#
# PCOD9020275 Si02
#       8
#     2   2   2   2   2   2   2   2
#     4   9  18  32  50  80 110 136 171 219 267 324
#     4   9  15  30  50  74 113 138 164 208 262 333
#     4  12  24  37  56  76 106 147 186 226 269 321
#     4   8  15  27  49  78 108 138 167 199 263 329
#     4  11  21  35  57  75 104 141 184 230 269 297
#     4  10  22  32  50  81 112 141 173 217 278 328
#     4  12  23  40  56  73 100 144 196 234 263 303
#     4  11  20  36  54  77 106 141 177 227 273 322
#
# _framework density 20.598748000000001
#
# number of rings (size 3 to 8) (size 9 to 14) (size 15 to 20)
#    0.000    1.750    3.750    1.500    1.750    0.000 
#    0.000    3.125    0.000    0.000    0.000    1.750 
#    0.000    0.000    0.000    0.000    0.000    0.000 
#
# Total GULP energy -89217.804517 kJ/mol
# GULP energy per Si atom -5576.112782 kJ/mol
# Density = 2.055186 g / cm^3
# Si number density = 20.598748 Si / 1000 Ang^3
#
#
#
# Elastic Constant Matrix: (Units=GPa)
#
#
# Indices 1 2 3 4 5 6 
#
# 1 169.8376 16.4077 46.2747 -26.3439 37.2178 -14.0078
# 2 16.4077 33.6791 15.1522 -2.3901 12.4288 -5.4507
# 3 46.2747 15.1522 91.5836 -8.3368 16.1112 -0.7835
# 4 -26.3439 -2.3901 -8.3368 25.2754 -12.1799 -3.6342
# 5 37.2178 12.4288 16.1112 -12.1799 47.8915 -11.9676
# 6 -14.0078 -5.4507 -0.7835 -3.6342 -11.9676 16.3394
#
#
#
# Elastic Compliance Matrix: (Units=1/GPa)
#
#
# Indices 1 2 3 4 5 6 
#
# 1 0.009315 -0.000379 -0.003480 0.009019 -0.001533 0.008576
# 2 -0.000379 0.035126 -0.004602 -0.000276 -0.005590 0.007016
# 3 -0.003480 -0.004602 0.013704 -0.001747 -0.002715 -0.006238
# 4 0.009019 -0.000276 -0.001747 0.062047 0.018075 0.034596
# 5 -0.001533 -0.005590 -0.002715 0.018075 0.035755 0.026899
# 6 0.008576 0.007016 -0.006238 0.034596 0.026899 0.097992
#
#
# Mechanical properties :
#
#
# Convention : Reuss Voigt Hill
#
# Bulk Modulus (GPa) = 24.25770 50.08548 37.17159
# Shear Modulus (GPa) = 17.56847 32.38562 24.97704
#
# Velocity S-wave (km/s) = 2.92360 3.96942 3.48595
# Velocity P-wave (km/s) = 4.81647 6.73617 5.85553
#
# Compressibility (1/GPa) = 0.04122403
#
# Stress axis : x y z
#
# Youngs Moduli (GPa) = 107.35385 28.46908 72.97265
#
# Poissons Ratio (x) = 0.01078 0.25393
# Poissons Ratio (y) = 0.04065 0.33580
# Poissons Ratio (z) = 0.37357 0.13101
#
# Static dielectric constant tensor:
#      x y z
#    x 1.850220 -0.052060 0.008560 
#    y -0.052060 1.753880 0.057870 
#    z 0.008560 0.057870 1.816350 
# 
# From -- ./inp_files/537994.got.cif
#   From: 2010.05.17/outbox.cif.g08.bks.cpg/sg2_269_cif.got.tgz:537994.got - 2010.06.03 11:33:40.
