data_PCOD9020776
_publ_section_title
;
Structure prediction by ZEFSAII (Michael W. Deem and Ramdas Pophale) SiO2 
 PCOD9020776
Probable space group: P -1
;
_chemical_formula_sum "Si O2"
_cell_formula_units_Z 14
_cell_length_a 9.566534
_cell_length_b 9.388155
_cell_length_c 9.323659
_cell_angle_alpha 103.134003
_cell_angle_beta 107.483778
_cell_angle_gamma 41.488861
_cell_volume 529.110092
_symmetry_space_group_name_H-M "P -1"
_symmetry_group_IT_number 2
_symmetry_cell_setting 'triclinic'
loop_
_space_group_symop_operation_xyz
x,y,z
-x,-y,-z
loop_
_atom_site_type_symbol
_atom_site_label
_atom_site_fract_x
_atom_site_fract_y
_atom_site_fract_z
Si Si1 0.172310 0.818194 0.393013
Si Si2 0.282584 0.253985 0.673443
Si Si3 0.306615 0.940666 0.063502
Si Si4 0.667431 0.545534 0.453038
Si Si5 0.796757 0.212507 0.204033
Si Si6 0.915473 0.623411 0.851909
Si Si7 0.429780 0.878844 0.769431
O O1 0.409891 0.712028 0.422382
O O2 0.221857 0.617459 0.416550
O O3 0.000000 0.000000 0.500000
O O4 0.029451 0.965368 0.244075
O O5 0.285086 0.319737 0.531927
O O6 0.075749 0.451160 0.742707
O O7 0.305175 0.063938 0.655382
O O8 0.490749 0.171975 0.800187
O O9 0.276894 0.792608 0.976016
O O10 0.352867 0.979127 0.929074
O O11 0.107549 0.182281 0.114145
O O12 0.765096 0.393775 0.305062
O O13 0.630672 0.245735 0.267443
O O14 0.676080 0.735141 0.792708
O O15 0.000000 0.500000 0.000000
#
# Coordination Sequence:
#
# PCOD9020776 Si02
#       7
#     2   2   2   2   2   2   2
#     4   9  20  41  61  72 100 140 180 222 277 316
#     4  11  20  33  53  83 113 139 180 215 253 313
#     4   9  19  31  49  80 113 141 173 209 256 311
#     4  10  22  37  58  80  99 138 184 224 263 318
#     4   9  19  36  55  78 108 140 176 217 269 311
#     4  11  15  30  54  75 111 153 175 199 252 320
#     4   9  19  32  50  80 110 142 176 209 256 311
#
# _framework density 26.459523999999998
#
# number of rings (size 3 to 8) (size 9 to 14) (size 15 to 20)
#    0.857    1.429    2.857    0.857    0.000    8.571 
#    0.000    2.143    0.000    8.571    0.000    0.000 
#    0.000    0.000    0.000    0.000    0.000    0.000 
#
# Total GULP energy -78234.186295 kJ/mol
# GULP energy per Si atom -5588.156164 kJ/mol
# Density = 2.639930 g / cm^3
# Si number density = 26.459524 Si / 1000 Ang^3
#
#
#
# Elastic Constant Matrix: (Units=GPa)
#
#
# Indices 1 2 3 4 5 6 
#
# 1 56.1239 20.1296 20.3207 -13.2645 -21.6116 -3.4733
# 2 20.1296 140.1606 38.1097 -0.4317 -1.7853 -21.3072
# 3 20.3207 38.1097 75.2709 -4.8136 -7.6394 -6.4408
# 4 -13.2645 -0.4317 -4.8136 42.7655 1.3544 -3.2852
# 5 -21.6116 -1.7853 -7.6394 1.3544 48.8472 -5.0206
# 6 -3.4733 -21.3072 -6.4408 -3.2852 -5.0206 45.4746
#
#
#
# Elastic Compliance Matrix: (Units=1/GPa)
#
#
# Indices 1 2 3 4 5 6 
#
# 1 0.026185 -0.002123 -0.004233 0.007445 0.010860 0.002143
# 2 -0.002123 0.008974 -0.003814 -0.000713 -0.000843 0.003358
# 3 -0.004233 -0.003814 0.016479 0.000510 0.000584 0.000325
# 4 0.007445 -0.000713 0.000510 0.025843 0.002887 0.002493
# 5 0.010860 -0.000843 0.000584 0.002887 0.025623 0.003555
# 6 0.002143 0.003358 0.000325 0.002493 0.003555 0.024346
#
#
# Mechanical properties :
#
#
# Convention : Reuss Voigt Hill
#
# Bulk Modulus (GPa) = 31.95022 47.63059 39.79041
# Shear Modulus (GPa) = 31.60104 40.28382 35.94243
#
# Velocity S-wave (km/s) = 3.45964 3.90612 3.68964
# Velocity P-wave (km/s) = 5.29718 6.19549 5.76386
#
# Compressibility (1/GPa) = 0.03129868
#
# Stress axis : x y z
#
# Youngs Moduli (GPa) = 38.18911 111.43040 60.68344
#
# Poissons Ratio (x) = 0.23655 0.25686
# Poissons Ratio (y) = 0.08107 0.23147
# Poissons Ratio (z) = 0.16165 0.42503
#
# Static dielectric constant tensor:
#      x y z
#    x 2.135060 0.062710 0.053240 
#    y 0.062710 2.038460 0.010310 
#    z 0.053240 0.010310 2.116900 
# 
# From -- ./inp_files/423593.got.cif
#   From: 2010.05.17/outbox.cif.g08.bks.cpg/sg2_212_cif.got.tgz:423593.got - 2010.06.03 11:33:40.
