data_PCOD9020081
_publ_section_title
;
Structure prediction by ZEFSAII (Michael W. Deem and Ramdas Pophale) SiO2 
 PCOD9020081
Probable space group: P -1
;
_chemical_formula_sum "Si O2"
_cell_formula_units_Z 14
_cell_length_a 12.020165
_cell_length_b 17.831771
_cell_length_c 9.492742
_cell_angle_alpha 111.974614
_cell_angle_beta 49.572206
_cell_angle_gamma 150.739777
_cell_volume 649.005894
_symmetry_space_group_name_H-M "P -1"
_symmetry_group_IT_number 2
_symmetry_cell_setting 'triclinic'
loop_
_space_group_symop_operation_xyz
x,y,z
-x,-y,-z
loop_
_atom_site_type_symbol
_atom_site_label
_atom_site_fract_x
_atom_site_fract_y
_atom_site_fract_z
Si Si1 0.308042 0.975964 0.218072
Si Si2 0.690678 0.470630 0.028061
Si Si3 0.418499 0.337016 0.475740
Si Si4 0.806441 0.826589 0.984915
Si Si5 0.728273 0.326541 0.201328
Si Si6 0.794330 0.120104 0.440052
Si Si7 0.432312 0.517707 0.262305
O O1 0.284579 0.939614 0.375520
O O2 0.954909 0.821672 0.338078
O O3 0.513644 0.159254 0.171423
O O4 0.500000 0.000000 0.000000
O O5 0.562449 0.411637 0.252687
O O6 0.465980 0.299422 0.001846
O O7 0.628834 0.532489 0.074791
O O8 0.057161 0.620351 0.829530
O O9 0.500894 0.285387 0.417197
O O10 0.584947 0.476857 0.551822
O O11 0.054703 0.885816 0.755012
O O12 0.619560 0.686175 0.162937
O O13 0.000000 0.000000 0.000000
O O14 0.000000 0.500000 0.000000
O O15 0.074131 0.326238 0.363758
O O16 0.500000 0.000000 0.500000
#
# Coordination Sequence:
#
# PCOD9020081 Si02
#       7
#     2   2   2   2   2   2   2
#     4  12  26  43  72 102 140 184 234 284 341 417
#     4  10  21  46  69  98 140 178 235 283 347 417
#     4  11  23  43  72 103 138 173 235 290 354 396
#     4  11  26  46  70 102 140 186 228 285 349 414
#     4  10  25  40  68  99 142 175 224 289 352 400
#     4  11  27  47  68 104 139 181 237 283 341 417
#     4  11  24  43  76  97 140 182 228 285 349 415
#
# _framework density 21.571451
#
# number of rings (size 3 to 8) (size 9 to 14) (size 15 to 20)
#    0.000    1.143    2.857    3.429   12.000    3.429 
#    0.000    1.429    0.000    0.000    0.000    0.000 
#    0.000    0.000    0.000    0.000    0.000    0.000 
#
# Total GULP energy -78261.844010 kJ/mol
# GULP energy per Si atom -5590.131715 kJ/mol
# Density = 2.152235 g / cm^3
# Si number density = 21.571451 Si / 1000 Ang^3
#
#
#
# Elastic Constant Matrix: (Units=GPa)
#
#
# Indices 1 2 3 4 5 6 
#
# 1 92.4902 62.6843 43.4118 -10.3783 -27.8540 22.6550
# 2 62.6843 196.2969 56.1451 5.3674 -10.7162 5.8518
# 3 43.4118 56.1451 108.0585 7.4625 -11.5163 6.4030
# 4 -10.3783 5.3674 7.4625 33.0445 2.8165 0.8294
# 5 -27.8540 -10.7162 -11.5163 2.8165 58.0827 -8.6552
# 6 22.6550 5.8518 6.4030 0.8294 -8.6552 46.2895
#
#
#
# Elastic Compliance Matrix: (Units=1/GPa)
#
#
# Indices 1 2 3 4 5 6 
#
# 1 0.021806 -0.004996 -0.005546 0.008537 0.006807 -0.008154
# 2 -0.004996 0.007149 -0.001760 -0.002282 -0.001073 0.001625
# 3 -0.005546 -0.001760 0.012612 -0.004328 -0.000087 0.001253
# 4 0.008537 -0.002282 -0.004328 0.034337 0.000584 -0.003797
# 5 0.006807 -0.001073 -0.000087 0.000584 0.020328 0.000607
# 6 -0.008154 0.001625 0.001253 -0.003797 0.000607 0.025396
#
#
# Mechanical properties :
#
#
# Convention : Reuss Voigt Hill
#
# Bulk Modulus (GPa) = 58.95160 80.14756 69.54958
# Shear Modulus (GPa) = 32.91946 43.12364 38.02155
#
# Velocity S-wave (km/s) = 3.91073 4.47599 4.20287
# Velocity P-wave (km/s) = 6.91228 7.99673 7.47420
#
# Compressibility (1/GPa) = 0.01696307
#
# Stress axis : x y z
#
# Youngs Moduli (GPa) = 45.85914 139.88880 79.28917
#
# Poissons Ratio (x) = 0.69888 0.43970
# Poissons Ratio (y) = 0.22911 0.13957
# Poissons Ratio (z) = 0.25431 0.24623
#
# Static dielectric constant tensor:
#      x y z
#    x 1.928230 0.021190 0.054780 
#    y 0.021190 1.789170 -0.009150 
#    z 0.054780 -0.009150 1.799640 
# 
# From -- ./inp_files/158439.got.cif
#   From: 2010.05.17/outbox.cif.g08.bks.cpg/sg2_80_cif.got.tgz:158439.got - 2010.06.03 11:33:40.
