data_PCOD9020894
_publ_section_title
;
Structure prediction by ZEFSAII (Michael W. Deem and Ramdas Pophale) SiO2 
 PCOD9020894
Probable space group: P -1
;
_chemical_formula_sum "Si O2"
_cell_formula_units_Z 16
_cell_length_a 11.782717
_cell_length_b 11.186034
_cell_length_c 6.185923
_cell_angle_alpha 103.099038
_cell_angle_beta 110.598807
_cell_angle_gamma 80.308257
_cell_volume 739.812832
_symmetry_space_group_name_H-M "P -1"
_symmetry_group_IT_number 2
_symmetry_cell_setting 'triclinic'
loop_
_space_group_symop_operation_xyz
x,y,z
-x,-y,-z
loop_
_atom_site_type_symbol
_atom_site_label
_atom_site_fract_x
_atom_site_fract_y
_atom_site_fract_z
Si Si1 0.541810 0.677306 0.025935
Si Si2 0.713699 0.315865 0.386317
Si Si3 0.067608 0.305448 0.958843
Si Si4 0.852995 0.067708 0.205194
Si Si5 0.254644 0.157660 0.724691
Si Si6 0.109210 0.088830 0.222021
Si Si7 0.583813 0.437387 0.718842
Si Si8 0.903759 0.477985 0.613632
O O1 0.613381 0.797672 0.133186
O O2 0.499146 0.637930 0.215937
O O3 0.416291 0.696287 0.815458
O O4 0.618886 0.555834 0.926102
O O5 0.800694 0.198809 0.316160
O O6 0.685859 0.345237 0.632831
O O7 0.781363 0.434979 0.412300
O O8 0.166593 0.260752 0.829479
O O9 0.957128 0.370191 0.770807
O O10 0.049495 0.186627 0.045438
O O11 0.112760 0.403124 0.197279
O O12 0.001132 0.061618 0.302498
O O13 0.780654 0.969177 0.245283
O O14 0.836475 0.029614 0.926550
O O15 0.214030 0.148206 0.446017
O O16 0.500000 0.500000 0.500000
O O17 0.000000 0.500000 0.500000
#
# Coordination Sequence:
#
# PCOD9020894 Si02
#       8
#     2   2   2   2   2   2   2   2
#     4  10  23  40  62  91 119 158 203 242 297 361
#     4  11  23  40  61  88 124 158 197 246 297 356
#     4  10  22  37  61  93 120 153 201 246 301 366
#     4  10  23  40  62  88 118 160 206 248 299 357
#     4  11  22  40  63  86 119 160 204 251 296 350
#     4  10  22  41  63  88 122 159 200 250 302 355
#     4   9  21  40  61  85 120 158 196 242 295 353
#     4  11  23  38  61  93 125 154 191 248 309 360
#
# _framework density 21.627092000000001
#
# number of rings (size 3 to 8) (size 9 to 14) (size 15 to 20)
#    0.000    1.750    0.000    3.375    0.000   16.500 
#    0.000    1.250    0.000    0.000    0.000    0.000 
#    0.000    0.000    0.000    0.000    0.000    0.000 
#
# Total GULP energy -89262.245552 kJ/mol
# GULP energy per Si atom -5578.890347 kJ/mol
# Density = 2.157787 g / cm^3
# Si number density = 21.627092 Si / 1000 Ang^3
#
#
#
# Elastic Constant Matrix: (Units=GPa)
#
#
# Indices 1 2 3 4 5 6 
#
# 1 90.9426 33.7846 57.3306 24.5399 2.6499 13.3896
# 2 33.7846 61.8311 39.8302 26.4532 -7.7346 2.5343
# 3 57.3306 39.8302 107.8202 31.5688 -4.2248 1.0979
# 4 24.5399 26.4532 31.5688 38.0126 0.4609 -11.5303
# 5 2.6499 -7.7346 -4.2248 0.4609 48.8841 19.1889
# 6 13.3896 2.5343 1.0979 -11.5303 19.1889 35.5158
#
#
#
# Elastic Compliance Matrix: (Units=1/GPa)
#
#
# Indices 1 2 3 4 5 6 
#
# 1 0.020469 -0.001393 -0.007197 -0.010017 0.002947 -0.012239
# 2 -0.001393 0.030405 -0.003587 -0.021703 0.010342 -0.014167
# 3 -0.007197 -0.003587 0.016454 -0.006704 0.001518 -0.000536
# 4 -0.010017 -0.021703 -0.006704 0.064737 -0.018406 0.036494
# 5 0.002947 0.010342 0.001518 -0.018406 0.032145 -0.025239
# 6 -0.012239 -0.014167 -0.000536 0.036494 -0.025239 0.059283
#
#
# Mechanical properties :
#
#
# Convention : Reuss Voigt Hill
#
# Bulk Modulus (GPa) = 23.26958 58.05385 40.66172
# Shear Modulus (GPa) = 19.07156 33.12573 26.09864
#
# Velocity S-wave (km/s) = 2.97279 3.91791 3.47761
# Velocity P-wave (km/s) = 4.75039 6.88245 5.91330
#
# Compressibility (1/GPa) = 0.04297457
#
# Stress axis : x y z
#
# Youngs Moduli (GPa) = 48.85415 32.88978 60.77487
#
# Poissons Ratio (x) = 0.04581 0.43737
# Poissons Ratio (y) = 0.06804 0.21802
# Poissons Ratio (z) = 0.35158 0.11799
#
# Static dielectric constant tensor:
#      x y z
#    x 1.803830 -0.009130 0.011850 
#    y -0.009130 1.809860 -0.017000 
#    z 0.011850 -0.017000 1.823300 
# 
# From -- ./inp_files/71995.got.cif
#   From: 2010.05.17/outbox.cif.g08.bks.cpg/sg2_36_cif.got.tgz:71995.got - 2010.06.03 11:33:40.
