data_PCOD9020389
_publ_section_title
;
Structure prediction by ZEFSAII (Michael W. Deem and Ramdas Pophale) SiO2 
 PCOD9020389
Probable space group: P -1
;
_chemical_formula_sum "Si O2"
_cell_formula_units_Z 14
_cell_length_a 20.801680
_cell_length_b 5.068784
_cell_length_c 14.951918
_cell_angle_alpha 126.457592
_cell_angle_beta 32.583410
_cell_angle_gamma 126.573004
_cell_volume 666.167613
_symmetry_space_group_name_H-M "P -1"
_symmetry_group_IT_number 2
_symmetry_cell_setting 'triclinic'
loop_
_space_group_symop_operation_xyz
x,y,z
-x,-y,-z
loop_
_atom_site_type_symbol
_atom_site_label
_atom_site_fract_x
_atom_site_fract_y
_atom_site_fract_z
Si Si1 0.849123 0.215008 0.322353
Si Si2 0.187644 0.383003 0.869033
Si Si3 0.583836 0.139505 0.346630
Si Si4 0.243214 0.367411 0.005717
Si Si5 0.009989 0.842168 0.183380
Si Si6 0.428060 0.947314 0.322919
Si Si7 0.529560 0.292164 0.096451
O O1 0.713408 0.179775 0.511919
O O2 0.920233 0.599453 0.307179
O O3 0.842666 0.012747 0.194765
O O4 0.927092 0.010655 0.249866
O O5 0.311291 0.527555 0.698477
O O6 0.209223 0.470168 0.966542
O O7 0.085450 0.581957 0.000372
O O8 0.500000 0.000000 0.500000
O O9 0.664665 0.873421 0.172906
O O10 0.500524 0.159379 0.362615
O O11 0.328337 0.638626 0.023728
O O12 0.119095 0.149303 0.149846
O O13 0.491815 0.628750 0.172940
O O14 0.450030 0.172262 0.254253
O O15 0.500000 0.000000 0.000000
#
# Coordination Sequence:
#
# PCOD9020389 Si02
#       7
#     2   2   2   2   2   2   2
#     4  12  25  36  62  88 136 171 206 251 289 374
#     4  11  22  37  60  90 131 176 216 244 295 367
#     4  10  22  35  58  92 134 169 202 255 313 374
#     4  10  22  39  63  89 122 163 213 259 306 374
#     4  11  24  40  56  90 129 177 217 239 293 359
#     4  11  24  42  63  98 126 162 208 256 331 372
#     4  11  24  46  72  95 119 154 210 277 332 379
#
# _framework density 21.015730000000001
#
# number of rings (size 3 to 8) (size 9 to 14) (size 15 to 20)
#    0.000    1.143    2.857    3.000   10.000    1.143 
#    0.000    0.000    0.000    5.143    0.000    0.000 
#    0.000    0.000    0.000    0.000    0.000    0.000 
#
# Total GULP energy -78234.747972 kJ/mol
# GULP energy per Si atom -5588.196284 kJ/mol
# Density = 2.096790 g / cm^3
# Si number density = 21.015730 Si / 1000 Ang^3
#
#
#
# Elastic Constant Matrix: (Units=GPa)
#
#
# Indices 1 2 3 4 5 6 
#
# 1 91.8724 29.1720 19.6953 -5.9662 -15.2302 6.0671
# 2 29.1720 92.7233 18.2095 -34.0054 -3.1545 9.1148
# 3 19.6953 18.2095 47.6617 -31.6526 -18.4561 14.6997
# 4 -5.9662 -34.0054 -31.6526 48.2667 1.8968 -3.2853
# 5 -15.2302 -3.1545 -18.4561 1.8968 30.0786 -3.0985
# 6 6.0671 9.1148 14.6997 -3.2853 -3.0985 39.0930
#
#
#
# Elastic Compliance Matrix: (Units=1/GPa)
#
#
# Indices 1 2 3 4 5 6 
#
# 1 0.014334 -0.005899 -0.009108 -0.008289 0.001782 0.002020
# 2 -0.005899 0.018048 0.011561 0.019014 0.004213 -0.005708
# 3 -0.009108 0.011561 0.081209 0.057067 0.040378 -0.023822
# 4 -0.008289 0.019014 0.057067 0.068321 0.026780 -0.016741
# 5 0.001782 0.004213 0.040378 0.026780 0.056678 -0.009699
# 6 0.002020 -0.005708 -0.023822 -0.016741 -0.009699 0.033379
#
#
# Mechanical properties :
#
#
# Convention : Reuss Voigt Hill
#
# Bulk Modulus (GPa) = 9.37208 40.71234 25.04221
# Shear Modulus (GPa) = 15.90195 34.49971 25.20083
#
# Velocity S-wave (km/s) = 2.75375 4.05608 3.46662
# Velocity P-wave (km/s) = 3.81838 6.43040 5.28820
#
# Compressibility (1/GPa) = 0.10669987
#
# Stress axis : x y z
#
# Youngs Moduli (GPa) = 69.76473 55.40866 12.31388
#
# Poissons Ratio (x) = 0.32686 0.11215
# Poissons Ratio (y) = 0.41155 -0.14236
# Poissons Ratio (z) = 0.63539 -0.64059
#
# Static dielectric constant tensor:
#      x y z
#    x 1.800360 0.011070 -0.019900 
#    y 0.011070 1.814640 -0.021500 
#    z -0.019900 -0.021500 1.732190 
# 
# From -- ./inp_files/56918.got.cif
#   From: 2010.05.17/outbox.cif.g08.bks.cpg/sg2_29_cif.got.tgz:56918.got - 2010.06.03 11:33:40.
