data_PCOD9020555
_publ_section_title
;
Structure prediction by ZEFSAII (Michael W. Deem and Ramdas Pophale) SiO2 
 PCOD9020555
Probable space group: P -1
;
_chemical_formula_sum "Si O2"
_cell_formula_units_Z 16
_cell_length_a 5.165754
_cell_length_b 12.041930
_cell_length_c 14.342906
_cell_angle_alpha 114.817863
_cell_angle_beta 106.146549
_cell_angle_gamma 83.612363
_cell_volume 777.851706
_symmetry_space_group_name_H-M "P -1"
_symmetry_group_IT_number 2
_symmetry_cell_setting 'triclinic'
loop_
_space_group_symop_operation_xyz
x,y,z
-x,-y,-z
loop_
_atom_site_type_symbol
_atom_site_label
_atom_site_fract_x
_atom_site_fract_y
_atom_site_fract_z
Si Si1 0.048968 0.937982 0.351937
Si Si2 0.189086 0.215509 0.018596
Si Si3 0.179897 0.827312 0.663985
Si Si4 0.792114 0.832731 0.475294
Si Si5 0.593650 0.265601 0.746146
Si Si6 0.406504 0.865047 0.119725
Si Si7 0.754836 0.854355 0.785551
Si Si8 0.699717 0.515214 0.937813
O O1 0.150287 0.823499 0.264731
O O2 0.958401 0.883505 0.421817
O O3 0.281662 0.043414 0.430463
O O4 0.833132 0.028500 0.316635
O O5 0.219710 0.176423 0.114625
O O6 0.306593 0.351194 0.060854
O O7 0.374931 0.132684 0.940630
O O8 0.869922 0.207973 0.960692
O O9 0.487408 0.791594 0.693126
O O10 0.997758 0.766569 0.542863
O O11 0.017303 0.818694 0.740840
O O12 0.558387 0.758267 0.375091
O O13 0.460216 0.207239 0.805225
O O14 0.643403 0.406298 0.821056
O O15 0.297041 0.000489 0.176925
O O16 0.500000 0.500000 0.000000
O O17 0.000000 0.500000 0.000000
#
# Coordination Sequence:
#
# PCOD9020555 Si02
#       8
#     2   2   2   2   2   2   2   2
#     4   9  20  34  57  96 131 151 201 250 323 371
#     4  12  25  44  58  88 125 163 213 260 290 368
#     4  10  22  36  60  91 128 154 197 246 314 373
#     4   9  21  34  58  97 130 154 197 258 316 383
#     4  12  22  35  67  85 131 162 205 244 331 349
#     4  12  23  38  64  90 124 158 209 256 309 372
#     4  12  23  39  63  89 122 171 199 249 319 361
#     4  12  26  45  62  89 123 169 212 260 297 359
#
# _framework density 20.569471
#
# number of rings (size 3 to 8) (size 9 to 14) (size 15 to 20)
#    0.750    0.250    3.750    3.375    5.250    0.000 
#    0.000    0.000    0.000    1.500    0.000    0.000 
#    0.000    0.000    0.000    0.000    0.000    0.000 
#
# Total GULP energy -89268.773706 kJ/mol
# GULP energy per Si atom -5579.298357 kJ/mol
# Density = 2.052265 g / cm^3
# Si number density = 20.569471 Si / 1000 Ang^3
#
#
#
# Elastic Constant Matrix: (Units=GPa)
#
#
# Indices 1 2 3 4 5 6 
#
# 1 78.4723 3.1041 28.8808 2.8846 3.6703 13.8506
# 2 3.1041 49.3002 26.4233 -1.6991 5.4398 10.8570
# 3 28.8808 26.4233 59.6490 0.8362 1.9747 -1.5787
# 4 2.8846 -1.6991 0.8362 35.2265 6.8724 -8.6544
# 5 3.6703 5.4398 1.9747 6.8724 31.2561 -7.2636
# 6 13.8506 10.8570 -1.5787 -8.6544 -7.2636 21.5624
#
#
#
# Elastic Compliance Matrix: (Units=1/GPa)
#
#
# Indices 1 2 3 4 5 6 
#
# 1 0.027142 0.018907 -0.021965 -0.007198 -0.011735 -0.035405
# 2 0.018907 0.047831 -0.030900 -0.006577 -0.018123 -0.047236
# 3 -0.021965 -0.030900 0.041614 0.006526 0.013133 0.039758
# 4 -0.007198 -0.006577 0.006526 0.034021 -0.000840 0.021785
# 5 -0.011735 -0.018123 0.013133 -0.000840 0.043287 0.031870
# 6 -0.035405 -0.047236 0.039758 0.021785 0.031870 0.115293
#
#
# Mechanical properties :
#
#
# Convention : Reuss Voigt Hill
#
# Bulk Modulus (GPa) = 20.54636 33.80423 27.17530
# Shear Modulus (GPa) = 12.71207 26.20987 19.46097
#
# Velocity S-wave (km/s) = 2.48867 3.57348 3.07923
# Velocity P-wave (km/s) = 4.27416 5.78759 5.08747
#
# Compressibility (1/GPa) = 0.04867042
#
# Stress axis : x y z
#
# Youngs Moduli (GPa) = 36.84357 20.90715 24.03051
#
# Poissons Ratio (x) = -0.39529 0.52782
# Poissons Ratio (y) = -0.69661 0.74255
# Poissons Ratio (z) = 0.80925 0.64604
#
# Static dielectric constant tensor:
#      x y z
#    x 1.804730 0.011250 0.035820 
#    y 0.011250 1.709640 -0.001230 
#    z 0.035820 -0.001230 1.837210 
# 
# From -- ./inp_files/482960.got.cif
#   From: 2010.05.17/outbox.cif.g08.bks.cpg/sg2_242_cif.got.tgz:482960.got - 2010.06.03 11:33:40.
