data_PCOD9020267
_publ_section_title
;
Structure prediction by ZEFSAII (Michael W. Deem and Ramdas Pophale) SiO2 
 PCOD9020267
Probable space group: P -1
;
_chemical_formula_sum "Si O2"
_cell_formula_units_Z 16
_cell_length_a 5.098717
_cell_length_b 5.369302
_cell_length_c 24.092650
_cell_angle_alpha 70.217258
_cell_angle_beta 100.750311
_cell_angle_gamma 89.824265
_cell_volume 608.189397
_symmetry_space_group_name_H-M "P -1"
_symmetry_group_IT_number 2
_symmetry_cell_setting 'triclinic'
loop_
_space_group_symop_operation_xyz
x,y,z
-x,-y,-z
loop_
_atom_site_type_symbol
_atom_site_label
_atom_site_fract_x
_atom_site_fract_y
_atom_site_fract_z
Si Si1 0.091690 0.227969 0.716513
Si Si2 0.178035 0.737628 0.506576
Si Si3 0.632412 0.298302 0.065485
Si Si4 0.871385 0.991953 0.935429
Si Si5 0.675258 0.317434 0.362372
Si Si6 0.217198 0.964762 0.377746
Si Si7 0.455456 0.785039 0.806951
Si Si8 0.782654 0.303604 0.806926
O O1 0.318534 0.401489 0.687938
O O2 0.876344 0.229543 0.658643
O O3 0.983017 0.339792 0.762003
O O4 0.196175 0.928020 0.757052
O O5 0.343193 0.649299 0.574212
O O6 0.321293 0.820930 0.449467
O O7 0.000000 0.500000 0.500000
O O8 0.000000 0.000000 0.500000
O O9 0.442640 0.051488 0.068782
O O10 0.602571 0.347273 0.126118
O O11 0.944699 0.245154 0.068347
O O12 0.500000 0.500000 0.000000
O O13 0.913238 0.233446 0.877449
O O14 0.000000 0.000000 0.000000
O O15 0.439477 0.141249 0.349585
O O16 0.954571 0.152251 0.370532
O O17 0.596208 0.564499 0.790670
O O18 0.633743 0.035759 0.807122
#
# Coordination Sequence:
#
# PCOD9020267 Si02
#       8
#     2   2   2   2   2   2   2   2
#     4  12  28  49  78 114 166 212 284 328 424 492
#     4  10  21  50  78 119 157 207 266 337 405 478
#     4  11  23  46  75 115 153 204 264 332 406 482
#     4  11  23  46  75 115 153 204 264 332 406 482
#     4  11  27  48  80 116 161 212 271 336 407 489
#     4  11  27  48  80 116 161 212 271 336 407 489
#     4  11  28  50  77 112 160 211 269 337 408 487
#     4  11  28  50  77 112 160 211 269 337 408 487
#
# _framework density 26.307590000000001
#
# number of rings (size 3 to 8) (size 9 to 14) (size 15 to 20)
#    0.000    1.000    2.500    1.875    7.000    2.000 
#    0.000    2.500    0.000    0.000    0.000    0.875 
#    0.000    0.000    0.000    0.000    0.000    0.000 
#
# Total GULP energy -89758.955678 kJ/mol
# GULP energy per Si atom -5609.934730 kJ/mol
# Density = 2.624771 g / cm^3
# Si number density = 26.307590 Si / 1000 Ang^3
#
#
#
# Elastic Constant Matrix: (Units=GPa)
#
#
# Indices 1 2 3 4 5 6 
#
# 1 87.7497 37.8667 23.6717 -4.8503 -15.7480 10.3407
# 2 37.8667 138.5720 50.2564 4.8692 -14.5218 -6.1926
# 3 23.6717 50.2564 229.5581 4.5117 -23.2989 -3.9394
# 4 -4.8503 4.8692 4.5117 28.6915 5.1938 4.6804
# 5 -15.7480 -14.5218 -23.2989 5.1938 36.2376 -2.3374
# 6 10.3407 -6.1926 -3.9394 4.6804 -2.3374 55.9027
#
#
#
# Elastic Compliance Matrix: (Units=1/GPa)
#
#
# Indices 1 2 3 4 5 6 
#
# 1 0.014284 -0.003592 -0.000403 0.002897 0.003891 -0.003148
# 2 -0.003592 0.009037 -0.001357 -0.002532 0.001670 0.001852
# 3 -0.000403 -0.001357 0.005001 -0.001192 0.002699 0.000489
# 4 0.002897 -0.002532 -0.001192 0.037791 -0.006218 -0.004324
# 5 0.003891 0.001670 0.002699 -0.006218 0.032682 0.001543
# 6 -0.003148 0.001852 0.000489 -0.004324 0.001543 0.019137
#
#
# Mechanical properties :
#
#
# Convention : Reuss Voigt Hill
#
# Bulk Modulus (GPa) = 56.75891 75.49661 66.12776
# Shear Modulus (GPa) = 37.17262 47.10536 42.13899
#
# Velocity S-wave (km/s) = 3.76307 4.23609 4.00657
# Velocity P-wave (km/s) = 6.36418 7.25851 6.82601
#
# Compressibility (1/GPa) = 0.01761838
#
# Stress axis : x y z
#
# Youngs Moduli (GPa) = 70.00754 110.65696 199.97876
#
# Poissons Ratio (x) = 0.39749 0.08052
# Poissons Ratio (y) = 0.25147 0.27136
# Poissons Ratio (z) = 0.02819 0.15016
#
# Static dielectric constant tensor:
#      x y z
#    x 2.034720 0.023820 0.024320 
#    y 0.023820 2.018490 -0.048650 
#    z 0.024320 -0.048650 1.987380 
# 
# From -- ./inp_files/603160.got.cif
#   From: 2010.05.17/outbox.cif.g08.bks.cpg/sg2_302_cif.got.tgz:603160.got - 2010.06.03 11:33:40.
