data_PCOD9020959
_publ_section_title
;
Structure prediction by ZEFSAII (Michael W. Deem and Ramdas Pophale) SiO2 
 PCOD9020959
Probable space group: P -1
;
_chemical_formula_sum "Si O2"
_cell_formula_units_Z 16
_cell_length_a 9.327978
_cell_length_b 21.601940
_cell_length_c 9.249864
_cell_angle_alpha 140.318836
_cell_angle_beta 45.319524
_cell_angle_gamma 136.144561
_cell_volume 776.915803
_symmetry_space_group_name_H-M "P -1"
_symmetry_group_IT_number 2
_symmetry_cell_setting 'triclinic'
loop_
_space_group_symop_operation_xyz
x,y,z
-x,-y,-z
loop_
_atom_site_type_symbol
_atom_site_label
_atom_site_fract_x
_atom_site_fract_y
_atom_site_fract_z
Si Si1 0.285811 0.908595 0.124694
Si Si2 0.864183 0.729110 0.214006
Si Si3 0.581947 0.772915 0.042189
Si Si4 0.423466 0.924974 0.559871
Si Si5 0.530401 0.616912 0.023499
Si Si6 0.349999 0.178105 0.248543
Si Si7 0.820063 0.513448 0.755270
Si Si8 0.927610 0.058416 0.962435
O O1 0.087156 0.829423 0.217905
O O2 0.408514 0.014100 0.320889
O O3 0.458313 0.853626 0.877650
O O4 0.185313 0.927980 0.081996
O O5 0.910641 0.623183 0.978572
O O6 0.722601 0.741261 0.468585
O O7 0.707689 0.716163 0.162520
O O8 0.419103 0.813808 0.314637
O O9 0.537320 0.658575 0.932867
O O10 0.568551 0.779991 0.893190
O O11 0.820798 0.863447 0.073460
O O12 0.192560 0.913069 0.766981
O O13 0.500000 0.000000 0.500000
O O14 0.305286 0.577237 0.202725
O O15 0.630513 0.528162 0.816546
O O16 0.138574 0.066333 0.196254
O O17 0.000000 0.500000 0.500000
#
# Coordination Sequence:
#
# PCOD9020959 Si02
#       8
#     2   2   2   2   2   2   2   2
#     4  11  23  37  58  91 119 162 212 249 286 347
#     4  10  22  37  63  89 113 152 201 251 300 360
#     4  12  23  39  60  89 126 165 199 251 295 357
#     4  11  23  38  56  86 127 169 203 240 291 351
#     4   9  22  38  64  95 113 150 204 247 306 364
#     4  11  24  36  56  87 129 161 198 247 301 346
#     4   9  20  41  67  92 115 147 195 258 311 363
#     4  11  23  37  59  84 123 169 211 244 289 343
#
# _framework density 20.594251
#
# number of rings (size 3 to 8) (size 9 to 14) (size 15 to 20)
#    0.750    0.750    3.750    2.625    7.000    2.000 
#    0.000    0.625    0.000    1.500    0.000    0.000 
#    0.000    0.000    0.000    0.000    0.000    0.000 
#
# Total GULP energy -89263.849035 kJ/mol
# GULP energy per Si atom -5578.990565 kJ/mol
# Density = 2.054738 g / cm^3
# Si number density = 20.594251 Si / 1000 Ang^3
#
#
#
# Elastic Constant Matrix: (Units=GPa)
#
#
# Indices 1 2 3 4 5 6 
#
# 1 48.2940 0.8487 11.1528 -4.2438 4.9373 -17.5843
# 2 0.8487 65.1310 9.2305 -9.2330 -3.3489 -12.8279
# 3 11.1528 9.2305 133.9705 5.7198 -5.3996 1.0165
# 4 -4.2438 -9.2330 5.7198 16.8972 4.8105 -3.8249
# 5 4.9373 -3.3489 -5.3996 4.8105 10.8347 -5.2916
# 6 -17.5843 -12.8279 1.0165 -3.8249 -5.2916 25.3813
#
#
#
# Elastic Compliance Matrix: (Units=1/GPa)
#
#
# Indices 1 2 3 4 5 6 
#
# 1 0.037743 0.010151 -0.005841 0.028290 -0.013427 0.032976
# 2 0.010151 0.023232 -0.003394 0.020742 0.002690 0.022596
# 3 -0.005841 -0.003394 0.008953 -0.009855 0.007499 -0.006042
# 4 0.028290 0.020742 -0.009855 0.100157 -0.037414 0.037770
# 5 -0.013427 0.002690 0.007499 -0.037414 0.125604 0.012305
# 6 0.032976 0.022596 -0.006042 0.037770 0.012305 0.082165
#
#
# Mechanical properties :
#
#
# Convention : Reuss Voigt Hill
#
# Bulk Modulus (GPa) = 13.93553 32.20662 23.07108
# Shear Modulus (GPa) = 12.50186 25.70023 19.10104
#
# Velocity S-wave (km/s) = 2.46652 3.53644 3.04878
# Velocity P-wave (km/s) = 3.85915 5.68751 4.86009
#
# Compressibility (1/GPa) = 0.07175902
#
# Stress axis : x y z
#
# Youngs Moduli (GPa) = 26.49531 43.04496 111.69137
#
# Poissons Ratio (x) = -0.43694 0.65234
# Poissons Ratio (y) = -0.26895 0.37911
# Poissons Ratio (z) = 0.15475 0.14611
#
# Static dielectric constant tensor:
#      x y z
#    x 1.790170 -0.003620 -0.018940 
#    y -0.003620 1.751000 0.017580 
#    z -0.018940 0.017580 1.735710 
# 
# From -- ./inp_files/215449.got.cif
#   From: 2010.05.17/outbox.cif.g08.bks.cpg/sg2_108_cif.got.tgz:215449.got - 2010.06.03 11:33:40.
