data_PCOD9020835
_publ_section_title
;
Structure prediction by ZEFSAII (Michael W. Deem and Ramdas Pophale) SiO2 
 PCOD9020835
Probable space group: P -1
;
_chemical_formula_sum "Si O2"
_cell_formula_units_Z 12
_cell_length_a 9.734454
_cell_length_b 28.252129
_cell_length_c 9.806119
_cell_angle_alpha 30.418959
_cell_angle_beta 42.338454
_cell_angle_gamma 24.083285
_cell_volume 541.890436
_symmetry_space_group_name_H-M "P -1"
_symmetry_group_IT_number 2
_symmetry_cell_setting 'triclinic'
loop_
_space_group_symop_operation_xyz
x,y,z
-x,-y,-z
loop_
_atom_site_type_symbol
_atom_site_label
_atom_site_fract_x
_atom_site_fract_y
_atom_site_fract_z
Si Si1 0.188732 0.566612 0.269867
Si Si2 0.856512 0.409575 0.187001
Si Si3 0.686263 0.676775 0.131053
Si Si4 0.826000 0.966128 0.744438
Si Si5 0.058496 0.268949 0.670961
Si Si6 0.501259 0.071258 0.444095
O O1 0.471238 0.539822 0.091822
O O2 0.398887 0.393199 0.579063
O O3 0.918491 0.641346 0.165320
O O4 0.008769 0.661976 0.305137
O O5 0.860286 0.396339 0.379390
O O6 0.112439 0.232870 0.383663
O O7 0.059510 0.422007 0.942672
O O8 0.399162 0.859986 0.848530
O O9 0.465091 0.119669 0.704846
O O10 0.726897 0.959957 0.684423
O O11 0.000000 0.000000 0.500000
O O12 0.033756 0.807810 0.062692
O O13 0.500000 0.000000 0.500000
#
# Coordination Sequence:
#
# PCOD9020835 Si02
#       6
#     2   2   2   2   2   2
#     4  11  20  38  58  85 116 149 188 235 289 337
#     4   9  21  36  58  83 116 147 188 237 283 341
#     4   9  22  36  56  83 119 145 194 234 274 351
#     4  10  22  40  59  86 117 151 196 237 283 346
#     4  10  22  37  60  86 115 148 192 240 282 340
#     4   9  19  40  58  81 114 151 190 236 280 337
#
# _framework density 22.144697000000001
#
# number of rings (size 3 to 8) (size 9 to 14) (size 15 to 20)
#    1.000    1.333    0.000    2.000    2.333    2.000 
#    6.000    0.833    0.000    0.000    0.000    0.000 
#    0.000    0.000    0.000    0.000    0.000    0.000 
#
# Total GULP energy -66907.899570 kJ/mol
# GULP energy per Si atom -5575.658298 kJ/mol
# Density = 2.209429 g / cm^3
# Si number density = 22.144697 Si / 1000 Ang^3
#
#
#
# Elastic Constant Matrix: (Units=GPa)
#
#
# Indices 1 2 3 4 5 6 
#
# 1 51.8964 20.3116 2.5066 3.8526 10.4404 18.2529
# 2 20.3116 34.7036 0.5878 7.1951 -0.8194 9.8901
# 3 2.5066 0.5878 66.4600 8.8348 -6.3327 3.9978
# 4 3.8526 7.1951 8.8348 24.2518 -1.1396 -0.5471
# 5 10.4404 -0.8194 -6.3327 -1.1396 34.7345 9.8828
# 6 18.2529 9.8901 3.9978 -0.5471 9.8828 26.8458
#
#
#
# Elastic Compliance Matrix: (Units=1/GPa)
#
#
# Indices 1 2 3 4 5 6 
#
# 1 0.030847 -0.014108 -0.000647 -0.001062 -0.005909 -0.013526
# 2 -0.014108 0.042304 0.003013 -0.011242 0.008173 -0.009679
# 3 -0.000647 0.003013 0.016669 -0.006764 0.004489 -0.004943
# 4 -0.001062 -0.011242 -0.006764 0.047288 -0.001756 0.007481
# 5 -0.005909 0.008173 0.004489 -0.001756 0.035111 -0.012623
# 6 -0.013526 -0.009679 -0.004943 0.007481 -0.012623 0.055548
#
#
# Mechanical properties :
#
#
# Convention : Reuss Voigt Hill
#
# Bulk Modulus (GPa) = 15.07469 22.20799 18.64134
# Shear Modulus (GPa) = 18.29078 25.81003 22.05041
#
# Velocity S-wave (km/s) = 2.87708 3.41767 3.15896
# Velocity P-wave (km/s) = 4.22598 5.06205 4.66279
#
# Compressibility (1/GPa) = 0.06633634
#
# Stress axis : x y z
#
# Youngs Moduli (GPa) = 32.41810 23.63847 59.99289
#
# Poissons Ratio (x) = 0.33349 0.03881
# Poissons Ratio (y) = 0.45736 -0.18078
# Poissons Ratio (z) = 0.02097 -0.07123
#
# Static dielectric constant tensor:
#      x y z
#    x 1.812700 -0.009630 0.005830 
#    y -0.009630 1.782440 0.015630 
#    z 0.005830 0.015630 1.877530 
# 
# From -- ./inp_files/182828.got.cif
#   From: 2010.05.17/outbox.cif.g08.bks.cpg/sg2_92_cif.got.tgz:182828.got - 2010.06.03 11:33:40.
