data_PCOD9020530
_publ_section_title
;
Structure prediction by ZEFSAII (Michael W. Deem and Ramdas Pophale) SiO2 
 PCOD9020530
Probable space group: P -1
;
_chemical_formula_sum "Si O2"
_cell_formula_units_Z 16
_cell_length_a 9.004117
_cell_length_b 20.840654
_cell_length_c 11.873129
_cell_angle_alpha 153.235067
_cell_angle_beta 118.329937
_cell_angle_gamma 54.136252
_cell_volume 805.897023
_symmetry_space_group_name_H-M "P -1"
_symmetry_group_IT_number 2
_symmetry_cell_setting 'triclinic'
loop_
_space_group_symop_operation_xyz
x,y,z
-x,-y,-z
loop_
_atom_site_type_symbol
_atom_site_label
_atom_site_fract_x
_atom_site_fract_y
_atom_site_fract_z
Si Si1 0.065212 0.400258 0.096736
Si Si2 0.519214 0.804821 0.469664
Si Si3 0.582804 0.370107 0.227835
Si Si4 0.030604 0.627174 0.631477
Si Si5 0.563707 0.833702 0.020947
Si Si6 0.290743 0.634031 0.151697
Si Si7 0.629579 0.819373 0.775805
Si Si8 0.717679 0.559054 0.962732
O O1 0.051068 0.552082 0.397818
O O2 0.235947 0.257077 0.991108
O O3 0.124602 0.423500 0.028739
O O4 0.873919 0.380099 0.000756
O O5 0.324808 0.786927 0.375859
O O6 0.604460 0.749168 0.538050
O O7 0.647698 0.692523 0.243288
O O8 0.490045 0.982362 0.717014
O O9 0.500000 0.500000 0.500000
O O10 0.785325 0.352793 0.241935
O O11 0.576303 0.213697 0.032210
O O12 0.448953 0.414411 0.142032
O O13 0.000000 0.500000 0.500000
O O14 0.844308 0.782549 0.810852
O O15 0.573782 0.768341 0.794420
O O16 0.500000 0.500000 0.000000
O O17 0.240523 0.602809 0.211352
O O18 0.500000 0.000000 0.000000
#
# Coordination Sequence:
#
# PCOD9020530 Si02
#       8
#     2   2   2   2   2   2   2   2
#     4  11  22  38  62  95 121 161 210 268 310 365
#     4  10  23  40  62  88 130 174 196 257 320 375
#     4  11  22  39  64  97 122 163 207 272 314 368
#     4  12  22  36  67  95 121 160 214 268 308 369
#     4  10  22  43  63  90 127 163 214 258 315 375
#     4  10  22  36  59  90 122 163 205 248 311 370
#     4  10  22  41  61  89 129 168 208 256 311 371
#     4  10  22  40  62  92 129 159 210 259 316 378
#
# _framework density 19.853653999999999
#
# number of rings (size 3 to 8) (size 9 to 14) (size 15 to 20)
#    0.000    1.500    3.750    1.875    7.000    2.500 
#    0.000    6.250    0.000    0.000    0.000    0.000 
#    0.000    0.000    0.000    0.000    0.000    0.000 
#
# Total GULP energy -89250.970279 kJ/mol
# GULP energy per Si atom -5578.185642 kJ/mol
# Density = 1.980847 g / cm^3
# Si number density = 19.853654 Si / 1000 Ang^3
#
#
#
# Elastic Constant Matrix: (Units=GPa)
#
#
# Indices 1 2 3 4 5 6 
#
# 1 125.6413 36.8918 28.2024 0.3179 20.2734 -10.4034
# 2 36.8918 72.1298 14.9616 -5.3786 4.1400 3.2573
# 3 28.2024 14.9616 69.3946 -1.4557 3.4981 8.8485
# 4 0.3179 -5.3786 -1.4557 37.5661 5.3459 -1.0741
# 5 20.2734 4.1400 3.4981 5.3459 40.3420 -7.2856
# 6 -10.4034 3.2573 8.8485 -1.0741 -7.2856 45.9350
#
#
#
# Elastic Compliance Matrix: (Units=1/GPa)
#
#
# Indices 1 2 3 4 5 6 
#
# 1 0.011116 -0.004838 -0.003635 -0.000244 -0.004221 0.002886
# 2 -0.004838 0.016877 -0.001384 0.002325 0.000160 -0.001946
# 3 -0.003635 -0.001384 0.016714 0.000402 -0.000252 -0.003975
# 4 -0.000244 0.002325 0.000402 0.027510 -0.003844 -0.000264
# 5 -0.004221 0.000160 -0.000252 -0.003844 0.028045 0.003439
# 6 0.002886 -0.001946 -0.003975 -0.000264 0.003439 0.023867
#
#
# Mechanical properties :
#
#
# Convention : Reuss Voigt Hill
#
# Bulk Modulus (GPa) = 40.00874 47.47525 43.74199
# Shear Modulus (GPa) = 32.85708 37.24262 35.04985
#
# Velocity S-wave (km/s) = 4.07254 4.33582 4.20624
# Velocity P-wave (km/s) = 6.50459 7.00216 6.75795
#
# Compressibility (1/GPa) = 0.02499454
#
# Stress axis : x y z
#
# Youngs Moduli (GPa) = 89.95784 59.25063 59.83013
#
# Poissons Ratio (x) = 0.28665 0.21748
# Poissons Ratio (y) = 0.43520 0.08279
# Poissons Ratio (z) = 0.32699 0.08199
#
# Static dielectric constant tensor:
#      x y z
#    x 1.729560 0.016200 -0.008580 
#    y 0.016200 1.734850 -0.019740 
#    z -0.008580 -0.019740 1.741040 
# 
# From -- ./inp_files/271542.got.cif
#   From: 2010.05.17/outbox.cif.g08.bks.cpg/sg2_136_cif.got.tgz:271542.got - 2010.06.03 11:33:40.
