data_PCOD9020601
_publ_section_title
;
Structure prediction by ZEFSAII (Michael W. Deem and Ramdas Pophale) SiO2 
 PCOD9020601
Probable space group: P -1
;
_chemical_formula_sum "Si O2"
_cell_formula_units_Z 16
_cell_length_a 17.892054
_cell_length_b 11.828564
_cell_length_c 8.629271
_cell_angle_alpha 48.026917
_cell_angle_beta 113.682747
_cell_angle_gamma 72.645976
_cell_volume 688.608497
_symmetry_space_group_name_H-M "P -1"
_symmetry_group_IT_number 2
_symmetry_cell_setting 'triclinic'
loop_
_space_group_symop_operation_xyz
x,y,z
-x,-y,-z
loop_
_atom_site_type_symbol
_atom_site_label
_atom_site_fract_x
_atom_site_fract_y
_atom_site_fract_z
Si Si1 0.096448 0.713592 0.911794
Si Si2 0.612862 0.990960 0.690386
Si Si3 0.622999 0.486958 0.215197
Si Si4 0.308329 0.645308 0.137813
Si Si5 0.623314 0.234526 0.674068
Si Si6 0.509384 0.909585 0.923639
Si Si7 0.211884 0.277491 0.202100
Si Si8 0.151135 0.015645 0.358763
O O1 0.249972 0.565487 0.186715
O O2 0.104529 0.559400 0.942017
O O3 0.000000 0.000000 0.500000
O O4 0.016590 0.777384 0.940643
O O5 0.695701 0.983415 0.874939
O O6 0.529205 0.006613 0.718561
O O7 0.729417 0.744911 0.891062
O O8 0.488963 0.270224 0.227829
O O9 0.557472 0.446820 0.292022
O O10 0.768314 0.193896 0.524146
O O11 0.635378 0.596160 0.258169
O O12 0.485481 0.377901 0.520100
O O13 0.274745 0.819648 0.084665
O O14 0.239319 0.817834 0.764701
O O15 0.357141 0.054221 0.636957
O O16 0.500000 0.000000 0.000000
O O17 0.162963 0.180586 0.218241
#
# Coordination Sequence:
#
# PCOD9020601 Si02
#       8
#     2   2   2   2   2   2   2   2
#     4  10  24  41  66  87 126 176 224 256 306 373
#     4  11  22  38  62  93 134 161 209 266 323 381
#     4  11  22  39  62  98 126 173 208 257 324 382
#     4  10  22  36  62  94 126 167 209 257 325 372
#     4  11  21  36  65  93 132 157 204 272 326 378
#     4  11  27  37  62  99 139 161 198 274 334 381
#     4  11  22  40  64  93 123 165 226 259 313 377
#     4  11  22  41  65  89 127 174 222 254 299 390
#
# _framework density 23.235263
#
# number of rings (size 3 to 8) (size 9 to 14) (size 15 to 20)
#    0.000    1.250    2.500    4.500   12.250    0.000 
#    0.000    0.625    0.000    3.000    0.000    0.000 
#    0.000    0.000    0.000    0.000    0.000    0.000 
#
# Total GULP energy -89334.870898 kJ/mol
# GULP energy per Si atom -5583.429431 kJ/mol
# Density = 2.318238 g / cm^3
# Si number density = 23.235263 Si / 1000 Ang^3
#
#
#
# Elastic Constant Matrix: (Units=GPa)
#
#
# Indices 1 2 3 4 5 6 
#
# 1 141.6862 55.6220 19.6063 -8.4271 6.5168 -2.9643
# 2 55.6220 190.2535 23.7583 -31.1282 0.5343 0.7429
# 3 19.6063 23.7583 33.1720 -15.1543 -6.3562 -3.4590
# 4 -8.4271 -31.1282 -15.1543 37.0900 -2.0267 -0.8785
# 5 6.5168 0.5343 -6.3562 -2.0267 18.5410 -8.5599
# 6 -2.9643 0.7429 -3.4590 -0.8785 -8.5599 35.2640
#
#
#
# Elastic Compliance Matrix: (Units=1/GPa)
#
#
# Indices 1 2 3 4 5 6 
#
# 1 0.008894 -0.002255 -0.006234 -0.002787 -0.006138 -0.001376
# 2 -0.002255 0.006854 -0.001336 0.004719 0.000555 -0.000213
# 3 -0.006234 -0.001336 0.050106 0.019671 0.026830 0.011422
# 4 -0.002787 0.004719 0.019671 0.039276 0.014718 0.006147
# 5 -0.006138 0.000555 0.026830 0.014718 0.076609 0.021067
# 6 -0.001376 -0.000213 0.011422 0.006147 0.021067 0.034633
#
#
# Mechanical properties :
#
#
# Convention : Reuss Voigt Hill
#
# Bulk Modulus (GPa) = 21.64357 62.56498 42.10428
# Shear Modulus (GPa) = 19.88683 35.92069 27.90376
#
# Velocity S-wave (km/s) = 2.92873 3.93613 3.46919
# Velocity P-wave (km/s) = 4.55761 6.90237 5.84870
#
# Compressibility (1/GPa) = 0.04620310
#
# Stress axis : x y z
#
# Youngs Moduli (GPa) = 112.44131 145.90861 19.95762
#
# Poissons Ratio (x) = 0.32902 0.12442
# Poissons Ratio (y) = 0.25355 0.02666
# Poissons Ratio (z) = 0.70099 0.19492
#
# Static dielectric constant tensor:
#      x y z
#    x 1.920560 0.010100 0.012510 
#    y 0.010100 1.941030 -0.025320 
#    z 0.012510 -0.025320 1.962510 
# 
# From -- ./inp_files/332918.got.cif
#   From: 2010.05.17/outbox.cif.g08.bks.cpg/sg2_167_cif.got.tgz:332918.got - 2010.06.03 11:33:40.
