data_PCOD9020060
_publ_section_title
;
Structure prediction by ZEFSAII (Michael W. Deem and Ramdas Pophale) SiO2 
 PCOD9020060
Probable space group: P -1
;
_chemical_formula_sum "Si O2"
_cell_formula_units_Z 16
_cell_length_a 9.933261
_cell_length_b 18.209466
_cell_length_c 12.039157
_cell_angle_alpha 128.960313
_cell_angle_beta 98.267450
_cell_angle_gamma 39.887333
_cell_volume 796.993233
_symmetry_space_group_name_H-M "P -1"
_symmetry_group_IT_number 2
_symmetry_cell_setting 'triclinic'
loop_
_space_group_symop_operation_xyz
x,y,z
-x,-y,-z
loop_
_atom_site_type_symbol
_atom_site_label
_atom_site_fract_x
_atom_site_fract_y
_atom_site_fract_z
Si Si1 0.820016 0.589200 0.897316
Si Si2 0.224709 0.405653 0.353115
Si Si3 0.271817 0.897807 0.407725
Si Si4 0.720781 0.970102 0.676246
Si Si5 0.831272 0.462212 0.980591
Si Si6 0.303955 0.031515 0.966444
Si Si7 0.313237 0.037962 0.707304
Si Si8 0.188417 0.645704 0.608857
O O1 0.897263 0.529154 0.723045
O O2 0.003279 0.556418 0.950248
O O3 0.848508 0.477591 0.867349
O O4 0.500619 0.825976 0.091548
O O5 0.250008 0.497841 0.473911
O O6 0.000000 0.500000 0.500000
O O7 0.519187 0.169727 0.173957
O O8 0.510127 0.677314 0.185662
O O9 0.225195 0.005000 0.407077
O O10 0.372604 0.901120 0.526763
O O11 0.000000 0.000000 0.500000
O O12 0.993452 0.788818 0.614304
O O13 0.548943 0.975304 0.645474
O O14 0.005567 0.262363 0.839096
O O15 0.287025 0.048916 0.847762
O O16 0.006559 0.213903 0.172059
O O17 0.500000 0.000000 0.000000
O O18 0.500000 0.500000 0.500000
#
# Coordination Sequence:
#
# PCOD9020060 Si02
#       8
#     2   2   2   2   2   2   2   2
#     4   9  19  40  66  97 125 168 225 285 318 392
#     4  12  24  39  73  98 130 186 231 280 344 401
#     4  11  26  42  64 102 139 173 220 283 349 408
#     4  10  21  46  68  93 140 174 228 289 329 410
#     4   9  21  38  65  94 128 167 223 270 328 400
#     4  12  23  46  69 103 142 174 240 293 331 410
#     4  11  23  41  74  95 129 185 225 280 336 405
#     4  12  28  45  67 104 140 187 230 289 352 411
#
# _framework density 20.075453
#
# number of rings (size 3 to 8) (size 9 to 14) (size 15 to 20)
#    0.000    1.250    3.750    1.875    5.250    3.000 
#    4.500    0.000    0.000    0.000    0.000    0.000 
#    0.000    0.000    0.000    0.000    0.000    0.000 
#
# Total GULP energy -89391.231823 kJ/mol
# GULP energy per Si atom -5586.951989 kJ/mol
# Density = 2.002976 g / cm^3
# Si number density = 20.075453 Si / 1000 Ang^3
#
#
#
# Elastic Constant Matrix: (Units=GPa)
#
#
# Indices 1 2 3 4 5 6 
#
# 1 97.5557 57.3940 50.5769 -5.8474 -22.8556 -4.3263
# 2 57.3940 104.7644 61.7588 -1.9476 -15.6729 11.3358
# 3 50.5769 61.7588 110.2941 -11.9515 -22.2332 7.0952
# 4 -5.8474 -1.9476 -11.9515 47.1906 2.2290 -2.2754
# 5 -22.8556 -15.6729 -22.2332 2.2290 33.3738 5.8419
# 6 -4.3263 11.3358 7.0952 -2.2754 5.8419 20.4159
#
#
#
# Elastic Compliance Matrix: (Units=1/GPa)
#
#
# Indices 1 2 3 4 5 6 
#
# 1 0.018437 -0.008370 -0.003145 0.001306 0.005052 0.008347
# 2 -0.008370 0.019066 -0.006165 -0.002388 0.001167 -0.010817
# 3 -0.003145 -0.006165 0.015736 0.002862 0.005961 -0.004099
# 4 0.001306 -0.002388 0.002862 0.022149 -0.000356 0.003179
# 5 0.005052 0.001167 0.005961 -0.000356 0.040280 -0.013214
# 6 0.008347 -0.010817 -0.004099 0.003179 -0.013214 0.062317
#
#
# Mechanical properties :
#
#
# Convention : Reuss Voigt Hill
#
# Bulk Modulus (GPa) = 55.93046 72.45262 64.19154
# Shear Modulus (GPa) = 22.79936 29.72169 26.26053
#
# Velocity S-wave (km/s) = 3.37365 3.85190 3.62068
# Velocity P-wave (km/s) = 6.56475 7.48006 7.03730
#
# Compressibility (1/GPa) = 0.01787934
#
# Stress axis : x y z
#
# Youngs Moduli (GPa) = 54.23776 52.45035 63.54688
#
# Poissons Ratio (x) = 0.43900 0.19986
# Poissons Ratio (y) = 0.45396 0.39178
# Poissons Ratio (z) = 0.17058 0.32337
#
# Static dielectric constant tensor:
#      x y z
#    x 1.663800 0.017770 0.000280 
#    y 0.017770 1.735530 0.000920 
#    z 0.000280 0.000920 1.713360 
# 
# From -- ./inp_files/403255.got.cif
#   From: 2010.05.17/outbox.cif.g08.bks.cpg/sg2_202_cif.got.tgz:403255.got - 2010.06.03 11:33:40.
