data_PCOD9020512
_publ_section_title
;
Structure prediction by ZEFSAII (Michael W. Deem and Ramdas Pophale) SiO2 
 PCOD9020512
Probable space group: P -1
;
_chemical_formula_sum "Si O2"
_cell_formula_units_Z 16
_cell_length_a 13.340277
_cell_length_b 13.543425
_cell_length_c 11.075006
_cell_angle_alpha 55.918202
_cell_angle_beta 146.461104
_cell_angle_gamma 132.960848
_cell_volume 808.905861
_symmetry_space_group_name_H-M "P -1"
_symmetry_group_IT_number 2
_symmetry_cell_setting 'triclinic'
loop_
_space_group_symop_operation_xyz
x,y,z
-x,-y,-z
loop_
_atom_site_type_symbol
_atom_site_label
_atom_site_fract_x
_atom_site_fract_y
_atom_site_fract_z
Si Si1 0.300060 0.660961 0.774846
Si Si2 0.623143 0.597241 0.668266
Si Si3 0.931776 0.365331 0.946312
Si Si4 0.796482 0.876493 0.331196
Si Si5 0.131346 0.570496 0.430429
Si Si6 0.479010 0.935624 0.888425
Si Si7 0.516837 0.813973 0.327465
Si Si8 0.360572 0.397165 0.751031
O O1 0.242056 0.683713 0.565833
O O2 0.327737 0.780097 0.812883
O O3 0.107766 0.522173 0.717603
O O4 0.504572 0.642837 0.996729
O O5 0.500000 0.500000 0.500000
O O6 0.573605 0.722430 0.534024
O O7 0.527906 0.499653 0.753672
O O8 0.865142 0.651679 0.853525
O O9 0.858228 0.380977 0.728481
O O10 0.729710 0.254107 0.885852
O O11 0.000000 0.500000 0.000000
O O12 0.632603 0.816814 0.317375
O O13 0.800978 0.744964 0.374077
O O14 0.697918 0.937151 0.093477
O O15 0.000000 0.000000 0.500000
O O16 0.237904 0.474094 0.618267
O O17 0.422630 0.032336 0.685189
O O18 0.500000 0.000000 0.000000
#
# Coordination Sequence:
#
# PCOD9020512 Si02
#       8
#     2   2   2   2   2   2   2   2
#     4  10  23  43  60  92 127 159 210 256 302 378
#     4  12  21  37  57  91 127 159 201 261 308 365
#     4  12  23  36  63  91 127 161 204 255 310 366
#     4  10  22  36  58  91 128 160 202 254 307 370
#     4  11  23  38  66  91 122 168 203 255 317 355
#     4   9  22  39  61  84 124 162 203 252 305 363
#     4  11  23  38  56  91 121 164 200 250 314 357
#     4  11  20  38  62  91 123 160 206 255 307 365
#
# _framework density 19.779805
#
# number of rings (size 3 to 8) (size 9 to 14) (size 15 to 20)
#    0.000    1.250    5.000    0.375    8.750    0.000 
#    0.000    0.625    0.000    0.750    0.000    0.000 
#    0.000    0.000    0.000    0.000    0.000    0.000 
#
# Total GULP energy -89164.251266 kJ/mol
# GULP energy per Si atom -5572.765704 kJ/mol
# Density = 1.973479 g / cm^3
# Si number density = 19.779805 Si / 1000 Ang^3
#
#
#
# Elastic Constant Matrix: (Units=GPa)
#
#
# Indices 1 2 3 4 5 6 
#
# 1 57.4997 12.5872 28.8916 13.1967 3.0584 0.8705
# 2 12.5872 73.6521 39.9988 0.0361 1.8179 -10.7459
# 3 28.8916 39.9988 98.8591 6.2263 4.0822 -5.6901
# 4 13.1967 0.0361 6.2263 34.3665 -1.7843 4.6910
# 5 3.0584 1.8179 4.0822 -1.7843 42.6645 0.9324
# 6 0.8705 -10.7459 -5.6901 4.6910 0.9324 26.7665
#
#
#
# Elastic Compliance Matrix: (Units=1/GPa)
#
#
# Indices 1 2 3 4 5 6 
#
# 1 0.022222 -0.000798 -0.005701 -0.007444 -0.001305 -0.000905
# 2 -0.000798 0.018296 -0.006876 0.000735 -0.000160 0.005786
# 3 -0.005701 -0.006876 0.014670 -0.000592 -0.000741 0.000673
# 4 -0.007444 0.000735 -0.000592 0.032911 0.002054 -0.005428
# 5 -0.001305 -0.000160 -0.000741 0.002054 0.023726 -0.001366
# 6 -0.000905 0.005786 0.000673 -0.005428 -0.001366 0.040854
#
#
# Mechanical properties :
#
#
# Convention : Reuss Voigt Hill
#
# Bulk Modulus (GPa) = 35.16371 43.66289 39.41330
# Shear Modulus (GPa) = 26.46792 30.66171 28.56481
#
# Velocity S-wave (km/s) = 3.66201 3.94147 3.80431
# Velocity P-wave (km/s) = 5.97467 6.54492 6.26628
#
# Compressibility (1/GPa) = 0.02843841
#
# Stress axis : x y z
#
# Youngs Moduli (GPa) = 45.00018 54.65771 68.16540
#
# Poissons Ratio (x) = 0.04361 0.38861
# Poissons Ratio (y) = 0.03590 0.46870
# Poissons Ratio (z) = 0.25654 0.37582
#
# Static dielectric constant tensor:
#      x y z
#    x 1.759930 0.016430 -0.020060 
#    y 0.016430 1.744750 -0.030180 
#    z -0.020060 -0.030180 1.757690 
# 
# From -- ./inp_files/438690.got.cif
#   From: 2010.05.17/outbox.cif.g08.bks.cpg/sg2_220_cif.got.tgz:438690.got - 2010.06.03 11:33:40.
