data_PCOD9020644
_publ_section_title
;
Structure prediction by ZEFSAII (Michael W. Deem and Ramdas Pophale) SiO2 
 PCOD9020644
Probable space group: P -1
;
_chemical_formula_sum "Si O2"
_cell_formula_units_Z 14
_cell_length_a 8.261325
_cell_length_b 13.309041
_cell_length_c 12.577621
_cell_angle_alpha 132.275077
_cell_angle_beta 63.861711
_cell_angle_gamma 79.214416
_cell_volume 629.916760
_symmetry_space_group_name_H-M "P -1"
_symmetry_group_IT_number 2
_symmetry_cell_setting 'triclinic'
loop_
_space_group_symop_operation_xyz
x,y,z
-x,-y,-z
loop_
_atom_site_type_symbol
_atom_site_label
_atom_site_fract_x
_atom_site_fract_y
_atom_site_fract_z
Si Si1 0.640239 0.921472 0.541932
Si Si2 0.415036 0.369405 0.622501
Si Si3 0.600424 0.076031 0.884936
Si Si4 0.417269 0.442243 0.253675
Si Si5 0.252400 0.766658 0.774877
Si Si6 0.095131 0.308030 0.887480
Si Si7 0.075383 0.249013 0.269727
O O1 0.571594 0.797149 0.469265
O O2 0.870247 0.811609 0.309091
O O3 0.692009 0.941055 0.660175
O O4 0.382279 0.144685 0.739168
O O5 0.578254 0.398697 0.658238
O O6 0.533759 0.305551 0.425189
O O7 0.121528 0.587224 0.883636
O O8 0.803991 0.935262 0.821033
O O9 0.541818 0.265836 0.011629
O O10 0.323947 0.174291 0.083920
O O11 0.606616 0.319158 0.214418
O O12 0.120360 0.564710 0.460775
O O13 0.127017 0.695737 0.719305
O O14 0.000000 0.000000 0.000000
O O15 0.000000 0.500000 0.000000
#
# Coordination Sequence:
#
# PCOD9020644 Si02
#       7
#     2   2   2   2   2   2   2
#     4  10  22  39  66  91 122 159 209 263 306 365
#     4  10  22  36  64  88 119 165 201 256 303 361
#     4  11  23  38  61  90 132 166 196 262 305 367
#     4  11  24  38  59  93 129 168 207 249 302 377
#     4  11  21  38  60  90 131 169 212 247 296 376
#     4   9  21  42  64  94 115 155 220 258 309 366
#     4  10  22  38  55  90 133 168 208 237 312 372
#
# _framework density 22.225159999999999
#
# number of rings (size 3 to 8) (size 9 to 14) (size 15 to 20)
#    0.000    1.714    1.429    3.000    8.000    2.286 
#    0.000    0.714    0.000   11.143    0.000    0.000 
#    0.000    0.000    0.000    0.000    0.000    0.000 
#
# Total GULP energy -77948.086417 kJ/mol
# GULP energy per Si atom -5567.720458 kJ/mol
# Density = 2.217457 g / cm^3
# Si number density = 22.225160 Si / 1000 Ang^3
#
#
#
# Elastic Constant Matrix: (Units=GPa)
#
#
# Indices 1 2 3 4 5 6 
#
# 1 32.2429 20.0689 20.9833 0.4368 9.7657 -3.6678
# 2 20.0689 60.2846 30.1318 6.5070 3.2301 -4.2741
# 3 20.9833 30.1318 162.2581 5.0203 -1.8908 -6.6732
# 4 0.4368 6.5070 5.0203 32.4032 -1.5886 2.5717
# 5 9.7657 3.2301 -1.8908 -1.5886 37.1068 8.4405
# 6 -3.6678 -4.2741 -6.6732 2.5717 8.4405 20.6321
#
#
#
# Elastic Compliance Matrix: (Units=1/GPa)
#
#
# Indices 1 2 3 4 5 6 
#
# 1 0.046112 -0.012300 -0.003457 0.000937 -0.013457 0.009920
# 2 -0.012300 0.022415 -0.002357 -0.004102 0.000538 0.001986
# 3 -0.003457 -0.002357 0.007111 -0.000578 0.001283 0.000744
# 4 0.000937 -0.004102 -0.000578 0.032383 0.002849 -0.006072
# 5 -0.013457 0.000538 0.001283 0.002849 0.034331 -0.016266
# 6 0.009920 0.001986 0.000744 -0.006072 -0.016266 0.058295
#
#
# Mechanical properties :
#
#
# Convention : Reuss Voigt Hill
#
# Bulk Modulus (GPa) = 25.37369 44.12816 34.75093
# Shear Modulus (GPa) = 19.99905 30.26853 25.13379
#
# Velocity S-wave (km/s) = 3.00298 3.69440 3.36649
# Velocity P-wave (km/s) = 4.84410 6.17222 5.54805
#
# Compressibility (1/GPa) = 0.03941091
#
# Stress axis : x y z
#
# Youngs Moduli (GPa) = 21.68647 44.61224 140.62219
#
# Poissons Ratio (x) = 0.54871 0.48612
# Poissons Ratio (y) = 0.26673 0.33147
# Poissons Ratio (z) = 0.07497 0.10516
#
# Static dielectric constant tensor:
#      x y z
#    x 1.900900 0.076310 0.041850 
#    y 0.076310 1.862400 -0.011310 
#    z 0.041850 -0.011310 1.921580 
# 
# From -- ./inp_files/397736.got.cif
#   From: 2010.05.17/outbox.cif.g08.bks.cpg/sg2_199_cif.got.tgz:397736.got - 2010.06.03 11:33:40.
