data_PCOD9020111
_publ_section_title
;
Structure prediction by ZEFSAII (Michael W. Deem and Ramdas Pophale) SiO2 
 PCOD9020111
Probable space group: P -1
;
_chemical_formula_sum "Si O2"
_cell_formula_units_Z 16
_cell_length_a 12.163499
_cell_length_b 10.180297
_cell_length_c 7.418036
_cell_angle_alpha 58.936370
_cell_angle_beta 122.643977
_cell_angle_gamma 91.535777
_cell_volume 620.953019
_symmetry_space_group_name_H-M "P -1"
_symmetry_group_IT_number 2
_symmetry_cell_setting 'triclinic'
loop_
_space_group_symop_operation_xyz
x,y,z
-x,-y,-z
loop_
_atom_site_type_symbol
_atom_site_label
_atom_site_fract_x
_atom_site_fract_y
_atom_site_fract_z
Si Si1 0.375407 0.245958 0.708472
Si Si2 0.737830 0.939792 0.725298
Si Si3 0.449965 0.239395 0.167559
Si Si4 0.871806 0.246348 0.319451
Si Si5 0.477065 0.641728 0.523412
Si Si6 0.186971 0.071366 0.601159
Si Si7 0.163786 0.792390 0.266905
Si Si8 0.124038 0.555641 0.136125
O O1 0.467849 0.230127 0.623855
O O2 0.318472 0.097634 0.791096
O O3 0.237944 0.405232 0.442746
O O4 0.450664 0.273231 0.933973
O O5 0.593897 0.092004 0.447610
O O6 0.843187 0.017791 0.860963
O O7 0.684060 0.812857 0.871977
O O8 0.798961 0.875743 0.629389
O O9 0.450115 0.382982 0.200193
O O10 0.843490 0.263444 0.494502
O O11 0.039472 0.173272 0.487604
O O12 0.811414 0.111567 0.285241
O O13 0.816901 0.397661 0.029672
O O14 0.500000 0.500000 0.500000
O O15 0.315473 0.708809 0.375009
O O16 0.079284 0.714307 0.115738
O O17 0.000000 0.500000 0.000000
#
# Coordination Sequence:
#
# PCOD9020111 Si02
#       8
#     2   2   2   2   2   2   2   2
#     4  12  25  44  71 110 141 191 235 292 358 426
#     4   9  20  45  69 103 141 178 233 298 356 417
#     4  10  23  41  71 105 144 182 230 292 357 428
#     4  10  24  47  71  96 142 190 241 297 346 422
#     4  11  23  46  67 103 148 182 233 291 356 427
#     4  10  21  46  71 102 136 184 246 291 352 412
#     4  10  24  45  70 103 135 189 240 286 362 419
#     4  12  26  48  69 102 148 191 237 295 353 425
#
# _framework density 25.766845
#
# number of rings (size 3 to 8) (size 9 to 14) (size 15 to 20)
#    0.000    1.500    3.750    0.000    1.750    5.500 
#    4.500    1.875    0.000    0.000    0.000    0.000 
#    0.000    0.000    0.000    0.000    0.000    0.000 
#
# Total GULP energy -89622.764903 kJ/mol
# GULP energy per Si atom -5601.422806 kJ/mol
# Density = 2.570820 g / cm^3
# Si number density = 25.766845 Si / 1000 Ang^3
#
#
#
# Elastic Constant Matrix: (Units=GPa)
#
#
# Indices 1 2 3 4 5 6 
#
# 1 116.3075 50.2976 28.9899 18.0882 -20.9102 6.4946
# 2 50.2976 104.5901 34.6775 45.7539 8.8189 9.3278
# 3 28.9899 34.6775 99.3847 29.2802 -5.5577 1.6585
# 4 18.0882 45.7539 29.2802 47.5050 -1.1628 -0.8983
# 5 -20.9102 8.8189 -5.5577 -1.1628 35.9765 8.7635
# 6 6.4946 9.3278 1.6585 -0.8983 8.7635 52.3269
#
#
#
# Elastic Compliance Matrix: (Units=1/GPa)
#
#
# Indices 1 2 3 4 5 6 
#
# 1 0.014281 -0.009045 -0.001716 0.004562 0.010849 -0.001844
# 2 -0.009045 0.023615 -0.000533 -0.019278 -0.011387 -0.001494
# 3 -0.001716 -0.000533 0.012782 -0.006694 0.000983 -0.000377
# 4 0.004562 -0.019278 -0.006694 0.042230 0.007069 0.002623
# 5 0.010849 -0.011387 0.000983 0.007069 0.038662 -0.005701
# 6 -0.001844 -0.001494 -0.000377 0.002623 -0.005701 0.020618
#
#
# Mechanical properties :
#
#
# Convention : Reuss Voigt Hill
#
# Bulk Modulus (GPa) = 35.60201 60.91248 48.25724
# Shear Modulus (GPa) = 27.15325 40.91616 34.03470
#
# Velocity S-wave (km/s) = 3.24976 3.98922 3.63832
# Velocity P-wave (km/s) = 5.28472 6.70147 6.03481
#
# Compressibility (1/GPa) = 0.02808831
#
# Stress axis : x y z
#
# Youngs Moduli (GPa) = 70.02203 42.34667 78.23393
#
# Poissons Ratio (x) = 0.38302 0.13428
# Poissons Ratio (y) = 0.63334 0.04174
# Poissons Ratio (z) = 0.12019 0.02259
#
# Static dielectric constant tensor:
#      x y z
#    x 2.025720 0.025250 0.058080 
#    y 0.025250 2.115110 -0.018950 
#    z 0.058080 -0.018950 2.011520 
# 
# From -- ./inp_files/69348.got.cif
#   From: 2010.05.17/outbox.cif.g08.bks.cpg/sg2_35_cif.got.tgz:69348.got - 2010.06.03 11:33:40.
