data_PCOD9020992
_publ_section_title
;
Structure prediction by ZEFSAII (Michael W. Deem and Ramdas Pophale) SiO2 
 PCOD9020992
Probable space group: P -1
;
_chemical_formula_sum "Si O2"
_cell_formula_units_Z 16
_cell_length_a 8.526425
_cell_length_b 9.394317
_cell_length_c 12.046234
_cell_angle_alpha 52.001892
_cell_angle_beta 91.351391
_cell_angle_gamma 114.086571
_cell_volume 658.491232
_symmetry_space_group_name_H-M "P -1"
_symmetry_group_IT_number 2
_symmetry_cell_setting 'triclinic'
loop_
_space_group_symop_operation_xyz
x,y,z
-x,-y,-z
loop_
_atom_site_type_symbol
_atom_site_label
_atom_site_fract_x
_atom_site_fract_y
_atom_site_fract_z
Si Si1 0.278705 0.247716 0.303182
Si Si2 0.275294 0.827273 0.488212
Si Si3 0.804127 0.297492 0.060128
Si Si4 0.228658 0.581057 0.242520
Si Si5 0.056099 0.144161 0.118166
Si Si6 0.004621 0.709201 0.331266
Si Si7 0.316072 0.567035 0.808419
Si Si8 0.398885 0.629196 0.435380
O O1 0.190562 0.344207 0.338341
O O2 0.175829 0.212799 0.200723
O O3 0.492228 0.416165 0.220103
O O4 0.285328 0.038244 0.430893
O O5 0.126684 0.762960 0.418524
O O6 0.259048 0.681867 0.661106
O O7 0.437821 0.820370 0.425070
O O8 0.666540 0.305509 0.140093
O O9 0.860752 0.121825 0.149589
O O10 0.749256 0.326398 0.923120
O O11 0.000000 0.500000 0.000000
O O12 0.080186 0.614921 0.286877
O O13 0.392904 0.690428 0.278993
O O14 0.029118 0.925238 0.185700
O O15 0.165162 0.328933 0.943310
O O16 0.801215 0.549428 0.440371
O O17 0.500000 0.500000 0.500000
#
# Coordination Sequence:
#
# PCOD9020992 Si02
#       8
#     2   2   2   2   2   2   2   2
#     4  11  22  41  68 100 135 174 223 274 327 384
#     4  10  23  42  68 100 130 178 223 274 324 394
#     4  10  22  37  63  97 133 168 222 264 329 390
#     4  11  22  43  67  97 134 174 219 273 326 395
#     4  10  23  41  65  97 132 178 219 265 329 403
#     4  10  25  44  69  93 131 175 226 272 327 397
#     4  11  22  40  69  98 139 170 219 277 332 379
#     4  11  25  45  69  95 133 171 221 279 338 385
#
# _framework density 24.297968999999998
#
# number of rings (size 3 to 8) (size 9 to 14) (size 15 to 20)
#    0.000    1.500    2.500    3.000    7.000    2.500 
#    0.000    5.000    2.750    0.000    0.000    0.000 
#    0.000    0.000    0.000    0.000    0.000    0.000 
#
# Total GULP energy -89389.111648 kJ/mol
# GULP energy per Si atom -5586.819478 kJ/mol
# Density = 2.424267 g / cm^3
# Si number density = 24.297969 Si / 1000 Ang^3
#
#
#
# Elastic Constant Matrix: (Units=GPa)
#
#
# Indices 1 2 3 4 5 6 
#
# 1 102.4691 44.8896 24.4265 -2.8484 15.1023 -36.7491
# 2 44.8896 143.9555 58.6890 -4.0731 5.9974 -50.6781
# 3 24.4265 58.6890 136.0113 9.5694 32.0678 -15.4601
# 4 -2.8484 -4.0731 9.5694 50.9769 -4.2920 12.3378
# 5 15.1023 5.9974 32.0678 -4.2920 37.3421 -3.7946
# 6 -36.7491 -50.6781 -15.4601 12.3378 -3.7946 49.6262
#
#
#
# Elastic Compliance Matrix: (Units=1/GPa)
#
#
# Indices 1 2 3 4 5 6 
#
# 1 0.014354 -0.000987 0.000346 -0.002168 -0.005190 0.009871
# 2 -0.000987 0.013241 -0.005055 -0.000551 0.003733 0.011639
# 3 0.000346 -0.005055 0.011936 -0.003191 -0.010064 -0.001163
# 4 -0.002168 -0.000551 -0.003191 0.022529 0.005447 -0.008347
# 5 -0.005190 0.003733 -0.010064 0.005447 0.037378 -0.001663
# 6 0.009871 0.011639 -0.001163 -0.008347 -0.001663 0.040931
#
#
# Mechanical properties :
#
#
# Convention : Reuss Voigt Hill
#
# Bulk Modulus (GPa) = 35.53631 70.93845 53.23738
# Shear Modulus (GPa) = 31.02863 44.55111 37.78987
#
# Velocity S-wave (km/s) = 3.57740 4.28662 3.94797
# Velocity P-wave (km/s) = 5.63211 7.33204 6.53756
#
# Compressibility (1/GPa) = 0.02814023
#
# Stress axis : x y z
#
# Youngs Moduli (GPa) = 69.66822 75.52078 83.77817
#
# Poissons Ratio (x) = 0.07456 -0.02902
# Poissons Ratio (y) = 0.06878 0.42348
# Poissons Ratio (z) = -0.02414 0.38174
#
# Static dielectric constant tensor:
#      x y z
#    x 1.975670 0.012810 -0.001590 
#    y 0.012810 2.025580 -0.037430 
#    z -0.001590 -0.037430 1.957100 
# 
# From -- ./inp_files/377984.got.cif
#   From: 2010.05.17/outbox.cif.g08.bks.cpg/sg2_189_cif.got.tgz:377984.got - 2010.06.03 11:33:40.
