data_PCOD9020264
_publ_section_title
;
Structure prediction by ZEFSAII (Michael W. Deem and Ramdas Pophale) SiO2 
 PCOD9020264
Probable space group: P -1
;
_chemical_formula_sum "Si O2"
_cell_formula_units_Z 13
_cell_length_a 13.981287
_cell_length_b 12.634444
_cell_length_c 7.429199
_cell_angle_alpha 43.052795
_cell_angle_beta 123.595227
_cell_angle_gamma 148.319826
_cell_volume 461.831326
_symmetry_space_group_name_H-M "P -1"
_symmetry_group_IT_number 2
_symmetry_cell_setting 'triclinic'
loop_
_space_group_symop_operation_xyz
x,y,z
-x,-y,-z
loop_
_atom_site_type_symbol
_atom_site_label
_atom_site_fract_x
_atom_site_fract_y
_atom_site_fract_z
Si Si1 0.685932 0.282484 0.172535
Si Si2 0.756262 0.988827 0.131975
Si Si3 0.050254 0.522060 0.231203
Si Si4 0.000000 0.000000 0.500000
Si Si5 0.885816 0.038335 0.809877
Si Si6 0.503408 0.750264 0.669148
Si Si7 0.653396 0.471366 0.598903
O O1 0.579576 0.006155 0.403163
O O2 0.886237 0.447414 0.253102
O O3 0.605683 0.336575 0.148186
O O4 0.691263 0.350522 0.890990
O O5 0.819114 0.017222 0.962330
O O6 0.909739 0.078164 0.312617
O O7 0.764624 0.185370 0.901134
O O8 0.000000 0.000000 0.000000
O O9 0.012416 0.307684 0.521101
O O10 0.000000 0.500000 0.000000
O O11 0.816983 0.750942 0.499885
O O12 0.445481 0.282782 0.687583
O O13 0.684127 0.828595 0.760736
O O14 0.375486 0.565327 0.599712
#
# Coordination Sequence:
#
# PCOD9020264 Si02
#       7
#     2   2   2   1   2   2   2
#     4  10  21  48  78 124 171 216 293 363 429 526
#     4  12  26  51  84 116 178 228 295 363 437 530
#     4  11  25  50  83 127 171 233 296 351 446 534
#     4  12  30  52  78 124 170 232 288 376 440 518
#     4  11  26  49  82 133 182 227 287 368 439 527
#     4  10  23  46  83 125 167 229 289 356 442 532
#     4  12  25  52  85 121 170 233 294 365 448 524
#
# _framework density 28.148804999999999
#
# number of rings (size 3 to 8) (size 9 to 14) (size 15 to 20)
#    0.000    0.923    3.077    3.231    4.308    0.000 
#    5.538    1.538    0.000    0.000    0.000    0.000 
#    0.000    0.000    0.000    0.000    0.000    0.000 
#
# Total GULP energy -72613.716296 kJ/mol
# GULP energy per Si atom -5585.670484 kJ/mol
# Density = 2.808474 g / cm^3
# Si number density = 28.148805 Si / 1000 Ang^3
#
#
#
# Elastic Constant Matrix: (Units=GPa)
#
#
# Indices 1 2 3 4 5 6 
#
# 1 152.0737 81.4943 67.7177 8.6287 -3.7259 -7.3963
# 2 81.4943 235.8610 58.6374 34.0050 8.1165 -7.9660
# 3 67.7177 58.6374 142.9723 10.1867 7.0814 2.1786
# 4 8.6287 34.0050 10.1867 39.1980 2.6954 18.2028
# 5 -3.7259 8.1165 7.0814 2.6954 52.8663 11.4058
# 6 -7.3963 -7.9660 2.1786 18.2028 11.4058 57.0807
#
#
#
# Elastic Compliance Matrix: (Units=1/GPa)
#
#
# Indices 1 2 3 4 5 6 
#
# 1 0.009566 -0.002537 -0.003617 0.000697 0.001400 0.000522
# 2 -0.002537 0.006337 -0.000956 -0.005866 -0.001312 0.002725
# 3 -0.003617 -0.000956 0.009197 -0.000412 -0.001193 -0.000583
# 4 0.000697 -0.005866 -0.000412 0.036306 0.001887 -0.012668
# 5 0.001400 -0.001312 -0.001193 0.001887 0.020274 -0.004609
# 6 0.000522 0.002725 -0.000583 -0.012668 -0.004609 0.022950
#
#
# Mechanical properties :
#
#
# Convention : Reuss Voigt Hill
#
# Bulk Modulus (GPa) = 91.91543 105.17843 98.54693
# Shear Modulus (GPa) = 40.82382 51.36618 46.09500
#
# Velocity S-wave (km/s) = 3.81239 4.27641 4.05105
# Velocity P-wave (km/s) = 7.21827 7.86320 7.54762
#
# Compressibility (1/GPa) = 0.01087957
#
# Stress axis : x y z
#
# Youngs Moduli (GPa) = 104.53399 157.80648 108.73006
#
# Poissons Ratio (x) = 0.40035 0.39332
# Poissons Ratio (y) = 0.26520 0.10394
# Poissons Ratio (z) = 0.37814 0.15085
#
# Static dielectric constant tensor:
#      x y z
#    x 2.416450 0.266300 0.140150 
#    y 0.266300 2.513740 0.164890 
#    z 0.140150 0.164890 2.415700 
# 
# From -- ./inp_files/224463.got.cif
#   From: 2010.05.17/outbox.cif.g08.bks.cpg/sg2_113_cif.got.tgz:224463.got - 2010.06.03 11:33:40.
