data_PCOD9020277
_publ_section_title
;
Structure prediction by ZEFSAII (Michael W. Deem and Ramdas Pophale) SiO2 
 PCOD9020277
Probable space group: P -1
;
_chemical_formula_sum "Si O2"
_cell_formula_units_Z 16
_cell_length_a 14.798307
_cell_length_b 12.804864
_cell_length_c 5.609913
_cell_angle_alpha 109.796868
_cell_angle_beta 66.672705
_cell_angle_gamma 116.727758
_cell_volume 854.957207
_symmetry_space_group_name_H-M "P -1"
_symmetry_group_IT_number 2
_symmetry_cell_setting 'triclinic'
loop_
_space_group_symop_operation_xyz
x,y,z
-x,-y,-z
loop_
_atom_site_type_symbol
_atom_site_label
_atom_site_fract_x
_atom_site_fract_y
_atom_site_fract_z
Si Si1 0.163814 0.646384 0.397441
Si Si2 0.686994 0.180250 0.278782
Si Si3 0.019396 0.161388 0.888056
Si Si4 0.168444 0.029146 0.761207
Si Si5 0.609092 0.911529 0.275737
Si Si6 0.961566 0.569144 0.889335
Si Si7 0.152851 0.860678 0.266476
Si Si8 0.499088 0.866727 0.861921
O O1 0.267881 0.715385 0.495770
O O2 0.146954 0.527322 0.174730
O O3 0.142852 0.743733 0.330079
O O4 0.062764 0.603992 0.640325
O O5 0.621760 0.207245 0.150093
O O6 0.620063 0.051683 0.364296
O O7 0.785130 0.154679 0.041828
O O8 0.117893 0.122449 0.797448
O O9 0.956770 0.126022 0.676936
O O10 0.049112 0.303481 0.965530
O O11 0.928917 0.081669 0.108103
O O12 0.270816 0.085441 0.862832
O O13 0.212337 0.973323 0.453518
O O14 0.560638 0.861674 0.547224
O O15 0.544604 0.846582 0.055376
O O16 0.000000 0.500000 0.000000
O O17 0.500000 0.000000 0.000000
#
# Coordination Sequence:
#
# PCOD9020277 Si02
#       8
#     2   2   2   2   2   2   2   2
#     4  11  21  31  56  75 108 149 178 227 286 325
#     4  11  20  32  52  80 111 148 183 224 289 338
#     4  11  22  36  51  83 108 156 188 225 266 343
#     4  11  22  34  55  77 116 151 192 214 282 336
#     4  11  20  36  51  79 115 151 183 237 280 335
#     4  11  20  37  52  77 110 144 187 230 278 324
#     4  12  18  35  51  79 113 149 184 225 275 337
#     4  10  22  32  53  80 112 148 188 229 287 344
#
# _framework density 18.714386999999999
#
# number of rings (size 3 to 8) (size 9 to 14) (size 15 to 20)
#    0.000    1.000    6.250    3.375    1.750    0.000 
#    0.000    0.000    0.000    0.000    0.000    1.750 
#    0.000    0.000    0.000    0.000    0.000    0.000 
#
# Total GULP energy -89088.000511 kJ/mol
# GULP energy per Si atom -5568.000032 kJ/mol
# Density = 1.867179 g / cm^3
# Si number density = 18.714387 Si / 1000 Ang^3
#
#
#
# Elastic Constant Matrix: (Units=GPa)
#
#
# Indices 1 2 3 4 5 6 
#
# 1 126.3442 41.3050 22.9514 8.1984 24.3978 7.9813
# 2 41.3050 80.8368 18.9365 7.8646 14.1262 -8.2481
# 3 22.9514 18.9365 61.3371 -8.3218 16.5587 -3.2119
# 4 8.1984 7.8646 -8.3218 19.6549 7.2883 7.7853
# 5 24.3978 14.1262 16.5587 7.2883 30.7378 7.8638
# 6 7.9813 -8.2481 -3.2119 7.7853 7.8638 27.6546
#
#
#
# Elastic Compliance Matrix: (Units=1/GPa)
#
#
# Indices 1 2 3 4 5 6 
#
# 1 0.010863 -0.004669 -0.001552 -0.000261 -0.004738 -0.003287
# 2 -0.004669 0.018111 -0.003952 -0.009879 -0.002660 0.009828
# 3 -0.001552 -0.003952 0.024503 0.017498 -0.014648 0.001354
# 4 -0.000261 -0.009879 0.017498 0.075872 -0.018323 -0.016988
# 5 -0.004738 -0.002660 -0.014648 -0.018323 0.052543 -0.010910
# 6 -0.003287 0.009828 0.001354 -0.016988 -0.010910 0.048082
#
#
# Mechanical properties :
#
#
# Convention : Reuss Voigt Hill
#
# Bulk Modulus (GPa) = 30.18259 48.32267 39.25263
# Shear Modulus (GPa) = 19.13054 27.96447 23.54750
#
# Velocity S-wave (km/s) = 3.20071 3.86978 3.55104
# Velocity P-wave (km/s) = 5.46099 6.77083 6.15088
#
# Compressibility (1/GPa) = 0.03313169
#
# Stress axis : x y z
#
# Youngs Moduli (GPa) = 92.05864 55.21570 40.81088
#
# Poissons Ratio (x) = 0.25781 0.06333
# Poissons Ratio (y) = 0.42983 0.16127
# Poissons Ratio (z) = 0.14285 0.21819
#
# Static dielectric constant tensor:
#      x y z
#    x 1.727100 0.059160 0.032730 
#    y 0.059160 1.779550 -0.071980 
#    z 0.032730 -0.071980 1.774510 
# 
# From -- ./inp_files/76287.got.cif
#   From: 2010.05.17/outbox.cif.g08.bks.cpg/sg2_39_cif.got.tgz:76287.got - 2010.06.03 11:33:40.
