data_PCOD9020832
_publ_section_title
;
Structure prediction by ZEFSAII (Michael W. Deem and Ramdas Pophale) SiO2 
 PCOD9020832
Probable space group: P -1
;
_chemical_formula_sum "Si O2"
_cell_formula_units_Z 14
_cell_length_a 8.197104
_cell_length_b 14.275405
_cell_length_c 4.952819
_cell_angle_alpha 84.184485
_cell_angle_beta 99.342021
_cell_angle_gamma 80.745976
_cell_volume 559.581602
_symmetry_space_group_name_H-M "P -1"
_symmetry_group_IT_number 2
_symmetry_cell_setting 'triclinic'
loop_
_space_group_symop_operation_xyz
x,y,z
-x,-y,-z
loop_
_atom_site_type_symbol
_atom_site_label
_atom_site_fract_x
_atom_site_fract_y
_atom_site_fract_z
Si Si1 0.139887 0.082111 0.119472
Si Si2 0.354103 0.716501 0.361340
Si Si3 0.998517 0.190784 0.517709
Si Si4 0.466931 0.136549 0.461470
Si Si5 0.959109 0.618383 0.763901
Si Si6 0.182074 0.554158 0.340381
Si Si7 0.666710 0.103582 0.019268
O O1 0.007326 0.108889 0.318895
O O2 0.304013 0.111978 0.290517
O O3 0.190410 0.973833 0.059922
O O4 0.085258 0.147051 0.825481
O O5 0.511026 0.752438 0.533182
O O6 0.341913 0.606641 0.342815
O O7 0.188767 0.757719 0.478681
O O8 0.321694 0.785656 0.070200
O O9 0.083588 0.274727 0.387798
O O10 0.504220 0.096849 0.784753
O O11 0.620034 0.090976 0.317731
O O12 0.814701 0.554543 0.718573
O O13 0.108244 0.565812 0.619856
O O14 0.039245 0.613011 0.084703
#
# Coordination Sequence:
#
# PCOD9020832 Si02
#       7
#     2   2   2   2   2   2   2
#     4  12  23  38  57  79 114 152 185 217 282 326
#     4   9  23  35  60  83 114 136 188 233 275 312
#     4  11  23  35  56  85 116 141 177 234 278 330
#     4  10  22  39  58  77 108 150 194 228 255 327
#     4   9  18  33  53  81 111 140 178 218 275 324
#     4   9  17  32  57  80 106 142 179 225 265 323
#     4  10  22  37  60  78 108 148 194 226 259 328
#
# _framework density 25.018694
#
# number of rings (size 3 to 8) (size 9 to 14) (size 15 to 20)
#    0.857    1.143    0.000    4.286    6.000    1.143 
#    0.000    0.000    0.000    1.714    0.000    0.000 
#    0.000    0.000    0.000    0.000    0.000    0.000 
#
# Total GULP energy -78219.206146 kJ/mol
# GULP energy per Si atom -5587.086153 kJ/mol
# Density = 2.496175 g / cm^3
# Si number density = 25.018694 Si / 1000 Ang^3
#
#
#
# Elastic Constant Matrix: (Units=GPa)
#
#
# Indices 1 2 3 4 5 6 
#
# 1 35.7244 5.6940 6.6987 0.8805 1.1461 5.1806
# 2 5.6940 108.1842 31.6282 7.6692 18.3487 34.4048
# 3 6.6987 31.6282 137.3203 2.0870 -4.6550 12.9947
# 4 0.8805 7.6692 2.0870 38.0709 16.0266 6.8723
# 5 1.1461 18.3487 -4.6550 16.0266 34.4848 15.1001
# 6 5.1806 34.4048 12.9947 6.8723 15.1001 38.3621
#
#
#
# Elastic Compliance Matrix: (Units=1/GPa)
#
#
# Indices 1 2 3 4 5 6 
#
# 1 0.028714 -0.000171 -0.000992 -0.000210 0.000686 -0.003620
# 2 -0.000171 0.013729 -0.002307 0.000658 -0.003414 -0.010283
# 3 -0.000992 -0.002307 0.008178 -0.001197 0.003715 -0.001816
# 4 -0.000210 0.000658 -0.001197 0.032844 -0.015857 0.000202
# 5 0.000686 -0.003414 0.003715 -0.015857 0.044307 -0.012889
# 6 -0.003620 -0.010283 -0.001816 0.000202 -0.012889 0.041430
#
#
# Mechanical properties :
#
#
# Convention : Reuss Voigt Hill
#
# Bulk Modulus (GPa) = 22.89340 41.03006 31.96173
# Shear Modulus (GPa) = 26.21895 37.99743 32.10819
#
# Velocity S-wave (km/s) = 3.24076 3.90136 3.58630
# Velocity P-wave (km/s) = 4.81391 6.06049 5.47281
#
# Compressibility (1/GPa) = 0.04368071
#
# Stress axis : x y z
#
# Youngs Moduli (GPa) = 34.82668 72.83680 122.28158
#
# Poissons Ratio (x) = 0.01248 0.12133
# Poissons Ratio (y) = 0.00597 0.28204
# Poissons Ratio (z) = 0.03456 0.16800
#
# Static dielectric constant tensor:
#      x y z
#    x 2.068110 0.056670 0.075150 
#    y 0.056670 2.023680 0.041450 
#    z 0.075150 0.041450 1.943770 
# 
# From -- ./inp_files/74894.got.cif
#   From: 2010.05.17/outbox.cif.g08.bks.cpg/sg2_38_cif.got.tgz:74894.got - 2010.06.03 11:33:40.
