data_PCOD9020821
_publ_section_title
;
Structure prediction by ZEFSAII (Michael W. Deem and Ramdas Pophale) SiO2 
 PCOD9020821
Probable space group: P -1
;
_chemical_formula_sum "Si O2"
_cell_formula_units_Z 12
_cell_length_a 15.606652
_cell_length_b 10.265457
_cell_length_c 13.214433
_cell_angle_alpha 109.458824
_cell_angle_beta 162.530797
_cell_angle_gamma 70.406571
_cell_volume 598.074233
_symmetry_space_group_name_H-M "P -1"
_symmetry_group_IT_number 2
_symmetry_cell_setting 'triclinic'
loop_
_space_group_symop_operation_xyz
x,y,z
-x,-y,-z
loop_
_atom_site_type_symbol
_atom_site_label
_atom_site_fract_x
_atom_site_fract_y
_atom_site_fract_z
Si Si1 0.183175 0.482981 0.601531
Si Si2 0.963707 0.235177 0.167195
Si Si3 0.778868 0.413469 0.832096
Si Si4 0.001651 0.343335 0.755388
Si Si5 0.638607 0.210597 0.459680
Si Si6 0.528515 0.946351 0.401828
O O1 0.000000 0.500000 0.500000
O O2 0.127449 0.334540 0.451014
O O3 0.096741 0.596771 0.447814
O O4 0.500000 0.500000 0.000000
O O5 0.196521 0.158925 0.335352
O O6 0.745754 0.334448 0.880357
O O7 0.765501 0.127158 0.968396
O O8 0.500000 0.500000 0.500000
O O9 0.826250 0.292103 0.773092
O O10 0.014237 0.522150 0.151908
O O11 0.816664 0.223683 0.560931
O O12 0.332306 0.290123 0.114442
O O13 0.575361 0.068960 0.407028
O O14 0.500000 0.000000 0.500000
#
# Coordination Sequence:
#
# PCOD9020821 Si02
#       6
#     2   2   2   2   2   2
#     4  11  23  44  71  91 117 157 213 280 324 353
#     4  11  24  40  63  94 127 163 217 252 307 375
#     4   9  20  35  57  87 127 161 197 247 309 371
#     4  10  22  37  59  91 118 158 204 259 314 360
#     4  11  21  36  58  86 131 165 196 240 304 376
#     4  12  24  39  61  91 136 179 204 236 297 387
#
# _framework density 20.064399000000002
#
# number of rings (size 3 to 8) (size 9 to 14) (size 15 to 20)
#    0.000    1.333    1.667    4.000    2.333    6.667 
#    0.000    0.000    0.000   20.000    0.000    0.000 
#    0.000    0.000    0.000    0.000    0.000    0.000 
#
# Total GULP energy -66975.378241 kJ/mol
# GULP energy per Si atom -5581.281520 kJ/mol
# Density = 2.001873 g / cm^3
# Si number density = 20.064399 Si / 1000 Ang^3
#
#
#
# Elastic Constant Matrix: (Units=GPa)
#
#
# Indices 1 2 3 4 5 6 
#
# 1 130.4706 59.8476 73.6753 7.2249 5.6627 24.0303
# 2 59.8476 85.1603 44.0658 1.5833 -14.8405 18.1713
# 3 73.6753 44.0658 121.8899 -10.3133 -11.9261 11.9439
# 4 7.2249 1.5833 -10.3133 23.8018 1.7494 10.5578
# 5 5.6627 -14.8405 -11.9261 1.7494 34.7891 -1.4162
# 6 24.0303 18.1713 11.9439 10.5578 -1.4162 38.1210
#
#
#
# Elastic Compliance Matrix: (Units=1/GPa)
#
#
# Indices 1 2 3 4 5 6 
#
# 1 0.018249 -0.009148 -0.008983 -0.006873 -0.009720 -0.002786
# 2 -0.009148 0.021056 -0.000468 0.002396 0.010011 -0.004415
# 3 -0.008983 -0.000468 0.015328 0.009554 0.005982 -0.001341
# 4 -0.006873 0.002396 0.009554 0.054502 0.002072 -0.014821
# 5 -0.009720 0.010011 0.005982 0.002072 0.036555 0.000265
# 6 -0.002786 -0.004415 -0.001341 -0.014821 0.000265 0.034628
#
#
# Mechanical properties :
#
#
# Convention : Reuss Voigt Hill
#
# Bulk Modulus (GPa) = 57.35494 76.96647 67.16070
# Shear Modulus (GPa) = 22.38879 30.00451 26.19665
#
# Velocity S-wave (km/s) = 3.34405 3.87125 3.61727
# Velocity P-wave (km/s) = 6.59983 7.64363 7.14083
#
# Compressibility (1/GPa) = 0.01743529
#
# Stress axis : x y z
#
# Youngs Moduli (GPa) = 54.79770 47.49323 65.24083
#
# Poissons Ratio (x) = 0.43448 0.58604
# Poissons Ratio (y) = 0.50130 0.03051
# Poissons Ratio (z) = 0.49223 0.02221
#
# Static dielectric constant tensor:
#      x y z
#    x 1.755660 -0.004550 0.002680 
#    y -0.004550 1.783990 0.006750 
#    z 0.002680 0.006750 1.686010 
# 
# From -- ./inp_files/81475.got.cif
#   From: 2010.05.17/outbox.cif.g08.bks.cpg/sg2_41_cif.got.tgz:81475.got - 2010.06.03 11:33:40.
