data_PCOD9020415
_publ_section_title
;
Structure prediction by ZEFSAII (Michael W. Deem and Ramdas Pophale) SiO2 
 PCOD9020415
Probable space group: P -1
;
_chemical_formula_sum "Si O2"
_cell_formula_units_Z 16
_cell_length_a 12.768145
_cell_length_b 13.936380
_cell_length_c 4.922996
_cell_angle_alpha 108.064181
_cell_angle_beta 88.997642
_cell_angle_gamma 117.701895
_cell_volume 728.972601
_symmetry_space_group_name_H-M "P -1"
_symmetry_group_IT_number 2
_symmetry_cell_setting 'triclinic'
loop_
_space_group_symop_operation_xyz
x,y,z
-x,-y,-z
loop_
_atom_site_type_symbol
_atom_site_label
_atom_site_fract_x
_atom_site_fract_y
_atom_site_fract_z
Si Si1 0.134697 0.596597 0.879593
Si Si2 0.316223 0.098217 0.065377
Si Si3 0.058565 0.367245 0.349840
Si Si4 0.148500 0.865591 0.578450
Si Si5 0.535334 0.898965 0.442922
Si Si6 0.180298 0.231718 0.308930
Si Si7 0.281543 0.730403 0.483373
Si Si8 0.966079 0.878730 0.270050
O O1 0.097996 0.472393 0.647576
O O2 0.236759 0.687655 0.751251
O O3 0.015419 0.610724 0.866891
O O4 0.194840 0.626770 0.197200
O O5 0.419321 0.127582 0.863762
O O6 0.203259 0.985781 0.841961
O O7 0.359162 0.065945 0.311933
O O8 0.286242 0.201714 0.219832
O O9 0.171139 0.342846 0.294767
O O10 0.955613 0.247402 0.371610
O O11 0.252256 0.833152 0.508683
O O12 0.083692 0.867762 0.306971
O O13 0.420674 0.784631 0.462678
O O14 0.500000 0.000000 0.500000
O O15 0.141577 0.211516 0.608704
O O16 0.075334 0.134658 0.044940
O O17 0.000000 0.000000 0.500000
#
# Coordination Sequence:
#
# PCOD9020415 Si02
#       8
#     2   2   2   2   2   2   2   2
#     4  10  22  41  63  91 120 157 203 252 299 353
#     4  12  25  39  61  91 128 161 201 248 304 361
#     4   9  22  38  63  93 124 158 202 240 296 375
#     4  10  22  35  61  92 127 162 192 240 304 375
#     4  12  26  42  63  89 119 161 211 256 299 359
#     4  11  23  38  58  86 129 163 198 241 299 363
#     4  11  23  40  63  84 118 156 202 262 307 338
#     4  11  21  34  53  85 125 166 193 222 287 376
#
# _framework density 21.948698
#
# number of rings (size 3 to 8) (size 9 to 14) (size 15 to 20)
#    0.000    1.250    2.500    3.000    5.250    6.500 
#    0.000    0.000    0.000    4.500    0.000    0.000 
#    0.000    0.000    0.000    0.000    0.000    0.000 
#
# Total GULP energy -89364.899138 kJ/mol
# GULP energy per Si atom -5585.306196 kJ/mol
# Density = 2.189874 g / cm^3
# Si number density = 21.948698 Si / 1000 Ang^3
#
#
#
# Elastic Constant Matrix: (Units=GPa)
#
#
# Indices 1 2 3 4 5 6 
#
# 1 119.8486 29.2923 17.8040 2.0665 -21.0727 -13.9583
# 2 29.2923 53.0137 10.1730 2.5049 -11.8430 10.4995
# 3 17.8040 10.1730 68.8004 -6.2526 -3.1999 -8.7443
# 4 2.0665 2.5049 -6.2526 38.2623 -3.8149 -8.4561
# 5 -21.0727 -11.8430 -3.1999 -3.8149 36.2661 2.2498
# 6 -13.9583 10.4995 -8.7443 -8.4561 2.2498 35.2047
#
#
#
# Elastic Compliance Matrix: (Units=1/GPa)
#
#
# Indices 1 2 3 4 5 6 
#
# 1 0.011559 -0.006621 -0.000859 0.001514 0.004238 0.006437
# 2 -0.006621 0.027277 -0.004176 -0.004527 0.005035 -0.013207
# 3 -0.000859 -0.004176 0.016524 0.004329 -0.000326 0.006070
# 4 0.001514 -0.004527 0.004329 0.029485 0.002267 0.009963
# 5 0.004238 0.005035 -0.000326 0.002267 0.031977 -0.001401
# 6 0.006437 -0.013207 0.006070 0.009963 -0.001401 0.038887
#
#
# Mechanical properties :
#
#
# Convention : Reuss Voigt Hill
#
# Bulk Modulus (GPa) = 31.20356 39.57793 35.39075
# Shear Modulus (GPa) = 26.35682 34.23952 30.29817
#
# Velocity S-wave (km/s) = 3.46907 3.95394 3.71942
# Velocity P-wave (km/s) = 5.50394 6.23827 5.88258
#
# Compressibility (1/GPa) = 0.03204762
#
# Stress axis : x y z
#
# Youngs Moduli (GPa) = 86.51579 36.66062 60.51707
#
# Poissons Ratio (x) = 0.24274 0.05200
# Poissons Ratio (y) = 0.57285 0.25270
# Poissons Ratio (z) = 0.07434 0.15308
#
# Static dielectric constant tensor:
#      x y z
#    x 1.889150 -0.012340 -0.026220 
#    y -0.012340 1.846810 -0.013040 
#    z -0.026220 -0.013040 1.801580 
# 
# From -- ./inp_files/78627.got.cif
#   From: 2010.05.17/outbox.cif.g08.bks.cpg/sg2_40_cif.got.tgz:78627.got - 2010.06.03 11:33:40.
