data_PCOD9020671
_publ_section_title
;
Structure prediction by ZEFSAII (Michael W. Deem and Ramdas Pophale) SiO2 
 PCOD9020671
Probable space group: P -1
;
_chemical_formula_sum "Si O2"
_cell_formula_units_Z 14
_cell_length_a 11.230239
_cell_length_b 14.150693
_cell_length_c 15.960446
_cell_angle_alpha 160.205783
_cell_angle_beta 133.223589
_cell_angle_gamma 54.389129
_cell_volume 605.738218
_symmetry_space_group_name_H-M "P -1"
_symmetry_group_IT_number 2
_symmetry_cell_setting 'triclinic'
loop_
_space_group_symop_operation_xyz
x,y,z
-x,-y,-z
loop_
_atom_site_type_symbol
_atom_site_label
_atom_site_fract_x
_atom_site_fract_y
_atom_site_fract_z
Si Si1 0.023072 0.102100 0.845220
Si Si2 0.439315 0.202514 0.825572
Si Si3 0.287204 0.709964 0.212862
Si Si4 0.775471 0.172687 0.049115
Si Si5 0.148806 0.138636 0.750756
Si Si6 0.913413 0.434022 0.501641
Si Si7 0.688758 0.604646 0.647815
O O1 0.083386 0.051761 0.738740
O O2 0.857749 0.221584 0.857542
O O3 0.986615 0.804987 0.630268
O O4 0.181337 0.304584 0.137726
O O5 0.387342 0.993902 0.546901
O O6 0.317202 0.069443 0.735424
O O7 0.396156 0.514497 0.056502
O O8 0.628519 0.223527 0.962503
O O9 0.192465 0.485140 0.050919
O O10 0.828683 0.398098 0.339848
O O11 0.955981 0.259030 0.160882
O O12 0.714689 0.867752 0.812622
O O13 0.000000 0.000000 0.500000
O O14 0.754666 0.366728 0.430831
O O15 0.500000 0.500000 0.500000
#
# Coordination Sequence:
#
# PCOD9020671 Si02
#       7
#     2   2   2   2   2   2   2
#     4  11  23  40  63 100 137 177 227 284 350 419
#     4  10  24  38  70  98 132 183 229 284 340 417
#     4  10  23  39  63 104 135 183 221 286 350 411
#     4  10  24  48  66  96 132 188 235 280 352 415
#     4  10  22  36  65  96 142 178 225 274 357 403
#     4  10  25  46  69  91 137 186 231 286 348 419
#     4  11  27  38  71 103 134 173 228 300 345 413
#
# _framework density 23.112293999999999
#
# number of rings (size 3 to 8) (size 9 to 14) (size 15 to 20)
#    0.857    0.857    1.429    0.857   12.000    1.143 
#    0.000    1.429    0.000    0.000    0.000    0.000 
#    0.000    0.000    0.000    0.000    0.000    0.000 
#
# Total GULP energy -78168.391954 kJ/mol
# GULP energy per Si atom -5583.456568 kJ/mol
# Density = 2.305969 g / cm^3
# Si number density = 23.112294 Si / 1000 Ang^3
#
#
#
# Elastic Constant Matrix: (Units=GPa)
#
#
# Indices 1 2 3 4 5 6 
#
# 1 75.1092 40.9275 44.3117 -4.9430 3.1404 -16.8506
# 2 40.9275 150.6229 73.1238 -15.9641 -2.4299 -24.3096
# 3 44.3117 73.1238 108.8409 -9.6144 -3.4497 -14.9518
# 4 -4.9430 -15.9641 -9.6144 38.3866 0.3951 5.9968
# 5 3.1404 -2.4299 -3.4497 0.3951 38.7012 -3.7777
# 6 -16.8506 -24.3096 -14.9518 5.9968 -3.7777 41.9162
#
#
#
# Elastic Compliance Matrix: (Units=1/GPa)
#
#
# Indices 1 2 3 4 5 6 
#
# 1 0.018773 -0.001485 -0.006131 -0.000406 -0.001729 0.004401
# 2 -0.001485 0.010680 -0.005912 0.002262 0.000555 0.003215
# 3 -0.006131 -0.005912 0.015732 0.000716 0.001497 -0.000249
# 4 -0.000406 0.002262 0.000716 0.027521 -0.000292 -0.002560
# 5 -0.001729 0.000555 0.001497 -0.000292 0.026403 0.002582
# 6 0.004401 0.003215 -0.000249 -0.002560 0.002582 0.028001
#
#
# Mechanical properties :
#
#
# Convention : Reuss Voigt Hill
#
# Bulk Modulus (GPa) = 55.15976 72.36657 63.76316
# Shear Modulus (GPa) = 31.20902 35.54813 33.37858
#
# Velocity S-wave (km/s) = 3.67866 3.92607 3.80437
# Velocity P-wave (km/s) = 6.47774 7.20631 6.85172
#
# Compressibility (1/GPa) = 0.01812916
#
# Stress axis : x y z
#
# Youngs Moduli (GPa) = 53.26665 93.63161 63.56394
#
# Poissons Ratio (x) = 0.13905 0.38974
# Poissons Ratio (y) = 0.07911 0.37577
# Poissons Ratio (z) = 0.32660 0.55353
#
# Static dielectric constant tensor:
#      x y z
#    x 2.128930 0.052970 0.053240 
#    y 0.052970 1.830800 0.072490 
#    z 0.053240 0.072490 1.911960 
# 
# From -- ./inp_files/569425.got.cif
#   From: 2010.05.17/outbox.cif.g08.bks.cpg/sg2_285_cif.got.tgz:569425.got - 2010.06.03 11:33:40.
