data_PCOD9020520
_publ_section_title
;
Structure prediction by ZEFSAII (Michael W. Deem and Ramdas Pophale) SiO2 
 PCOD9020520
Probable space group: P -1
;
_chemical_formula_sum "Si O2"
_cell_formula_units_Z 14
_cell_length_a 14.372731
_cell_length_b 9.366888
_cell_length_c 5.534546
_cell_angle_alpha 103.915041
_cell_angle_beta 94.535272
_cell_angle_gamma 51.360162
_cell_volume 562.422007
_symmetry_space_group_name_H-M "P -1"
_symmetry_group_IT_number 2
_symmetry_cell_setting 'triclinic'
loop_
_space_group_symop_operation_xyz
x,y,z
-x,-y,-z
loop_
_atom_site_type_symbol
_atom_site_label
_atom_site_fract_x
_atom_site_fract_y
_atom_site_fract_z
Si Si1 0.172519 0.442814 0.077980
Si Si2 0.231121 0.110141 0.206119
Si Si3 0.045146 0.222755 0.572818
Si Si4 0.527422 0.178235 0.322636
Si Si5 0.485626 0.153372 0.797923
Si Si6 0.200303 0.566617 0.628274
Si Si7 0.239523 0.863080 0.747994
O O1 0.197838 0.246355 0.030384
O O2 0.232083 0.448754 0.339756
O O3 0.034666 0.620064 0.174965
O O4 0.214889 0.468121 0.845134
O O5 0.138202 0.232915 0.450021
O O6 0.368962 0.999632 0.251938
O O7 0.219389 0.955639 0.044929
O O8 0.126353 0.016978 0.622282
O O9 0.055529 0.727881 0.619938
O O10 0.557783 0.972010 0.243163
O O11 0.452878 0.265334 0.588630
O O12 0.642802 0.169254 0.342536
O O13 0.464741 0.260320 0.084264
O O14 0.253030 0.677070 0.688850
#
# Coordination Sequence:
#
# PCOD9020520 Si02
#       7
#     2   2   2   2   2   2   2
#     4  10  25  40  54  79 122 154 183 229 281 330
#     4  11  22  36  62  85 111 148 195 230 278 333
#     4  10  22  36  59  82 115 148 192 234 272 328
#     4   9  18  33  54  84 112 135 176 237 285 320
#     4   9  18  33  54  84 112 135 176 237 285 320
#     4  10  25  40  54  79 122 154 183 229 281 330
#     4  11  22  36  62  85 111 148 195 230 278 333
#
# _framework density 24.892340000000001
#
# number of rings (size 3 to 8) (size 9 to 14) (size 15 to 20)
#    0.857    1.143    1.429    1.714    4.000    2.286 
#    0.000    0.000    0.000    1.714    0.000    0.000 
#    0.000    0.000    0.000    0.000    0.000    0.000 
#
# Total GULP energy -78295.971639 kJ/mol
# GULP energy per Si atom -5592.569403 kJ/mol
# Density = 2.483568 g / cm^3
# Si number density = 24.892340 Si / 1000 Ang^3
#
#
#
# Elastic Constant Matrix: (Units=GPa)
#
#
# Indices 1 2 3 4 5 6 
#
# 1 116.4883 27.4003 43.0540 3.5413 -12.1965 4.2008
# 2 27.4003 76.1969 17.3884 -6.6961 9.2779 7.2640
# 3 43.0540 17.3884 168.3042 -15.0008 -9.3948 -3.9429
# 4 3.5413 -6.6961 -15.0008 29.2343 -9.4456 4.9945
# 5 -12.1965 9.2779 -9.3948 -9.4456 56.6240 6.5136
# 6 4.2008 7.2640 -3.9429 4.9945 6.5136 33.4632
#
#
#
# Elastic Compliance Matrix: (Units=1/GPa)
#
#
# Indices 1 2 3 4 5 6 
#
# 1 0.010708 -0.003690 -0.002486 -0.002567 0.002171 -0.000876
# 2 -0.003690 0.015467 -0.000561 0.003399 -0.002513 -0.002979
# 3 -0.002486 -0.000561 0.007096 0.004200 0.001392 0.000372
# 4 -0.002567 0.003399 0.004200 0.041087 0.007301 -0.007474
# 5 0.002171 -0.002513 0.001392 0.007301 0.020523 -0.004648
# 6 -0.000876 -0.002979 0.000372 -0.007474 -0.004648 0.032704
#
#
# Mechanical properties :
#
#
# Convention : Reuss Voigt Hill
#
# Bulk Modulus (GPa) = 50.51115 59.63055 55.07085
# Shear Modulus (GPa) = 33.86167 42.07408 37.96787
#
# Velocity S-wave (km/s) = 3.69226 4.11572 3.90972
# Velocity P-wave (km/s) = 6.20588 6.82590 6.52326
#
# Compressibility (1/GPa) = 0.01979761
#
# Stress axis : x y z
#
# Youngs Moduli (GPa) = 93.38552 64.65208 140.91775
#
# Poissons Ratio (x) = 0.23855 0.35035
# Poissons Ratio (y) = 0.34457 0.07909
# Poissons Ratio (z) = 0.23217 0.03629
#
# Static dielectric constant tensor:
#      x y z
#    x 2.005400 -0.060330 0.021880 
#    y -0.060330 1.893390 -0.011000 
#    z 0.021880 -0.011000 2.040810 
# 
# From -- ./inp_files/45460.got.cif
#   From: 2010.05.17/outbox.cif.g08.bks.cpg/sg2_23_cif.got.tgz:45460.got - 2010.06.03 11:33:40.
