data_PCOD9020436
_publ_section_title
;
Structure prediction by ZEFSAII (Michael W. Deem and Ramdas Pophale) SiO2 
 PCOD9020436
Probable space group: P -1
;
_chemical_formula_sum "Si O2"
_cell_formula_units_Z 16
_cell_length_a 15.121085
_cell_length_b 16.156982
_cell_length_c 5.412772
_cell_angle_alpha 83.900188
_cell_angle_beta 71.716248
_cell_angle_gamma 36.287195
_cell_volume 717.388672
_symmetry_space_group_name_H-M "P -1"
_symmetry_group_IT_number 2
_symmetry_cell_setting 'triclinic'
loop_
_space_group_symop_operation_xyz
x,y,z
-x,-y,-z
loop_
_atom_site_type_symbol
_atom_site_label
_atom_site_fract_x
_atom_site_fract_y
_atom_site_fract_z
Si Si1 0.620367 0.373719 0.135645
Si Si2 0.362016 0.805662 0.041194
Si Si3 0.399254 0.071913 0.818424
Si Si4 0.702319 0.593797 0.609197
Si Si5 0.986579 0.304738 0.706563
Si Si6 0.612580 0.545815 0.292747
Si Si7 0.134828 0.125852 0.121344
Si Si8 0.138700 0.364863 0.744014
O O1 0.701704 0.397937 0.155525
O O2 0.502991 0.415666 0.419290
O O3 0.500000 0.500000 0.000000
O O4 0.710277 0.228561 0.989016
O O5 0.477018 0.692712 0.202630
O O6 0.216693 0.976381 0.143718
O O7 0.508607 0.739677 0.771197
O O8 0.283656 0.235541 0.842412
O O9 0.500000 0.000000 0.500000
O O10 0.285848 0.075317 0.944718
O O11 0.500000 0.000000 0.000000
O O12 0.721484 0.530945 0.353280
O O13 0.791904 0.616048 0.504949
O O14 0.798810 0.468535 0.768418
O O15 0.049289 0.219503 0.419802
O O16 0.080677 0.323579 0.669705
O O17 0.029812 0.216487 0.934406
O O18 0.000000 0.500000 0.000000
#
# Coordination Sequence:
#
# PCOD9020436 Si02
#       8
#     2   2   2   2   2   2   2   2
#     4   8  16  36  58  97 127 157 188 264 328 373
#     4  10  22  35  67  96 123 160 216 264 311 386
#     4  11  23  39  59  85 122 160 208 270 319 361
#     4  11  23  38  64  93 121 165 226 269 307 374
#     4  11  26  45  59  87 132 179 210 263 325 371
#     4   9  19  34  63  96 127 151 206 268 318 366
#     4  11  25  42  62  86 130 171 211 254 329 386
#     4  11  25  43  64  87 125 175 223 264 315 372
#
# _framework density 22.303111000000001
#
# number of rings (size 3 to 8) (size 9 to 14) (size 15 to 20)
#    0.000    1.750    0.000    4.125    8.750    1.000 
#    0.000    0.000    0.000    1.500    0.000    0.000 
#    0.000    0.000    0.000    0.000    0.000    0.000 
#
# Total GULP energy -89259.351600 kJ/mol
# GULP energy per Si atom -5578.709475 kJ/mol
# Density = 2.225235 g / cm^3
# Si number density = 22.303111 Si / 1000 Ang^3
#
#
#
# Elastic Constant Matrix: (Units=GPa)
#
#
# Indices 1 2 3 4 5 6 
#
# 1 67.4140 40.6930 18.6426 -0.5395 9.0634 4.3401
# 2 40.6930 168.7246 61.0640 -0.1054 16.6102 7.8908
# 3 18.6426 61.0640 105.4114 -4.6149 20.4991 1.4797
# 4 -0.5395 -0.1054 -4.6149 33.9821 0.8500 3.2751
# 5 9.0634 16.6102 20.4991 0.8500 31.2678 -8.8312
# 6 4.3401 7.8908 1.4797 3.2751 -8.8312 35.5009
#
#
#
# Elastic Compliance Matrix: (Units=1/GPa)
#
#
# Indices 1 2 3 4 5 6 
#
# 1 0.017803 -0.003748 -0.000200 0.000559 -0.003705 -0.002308
# 2 -0.003748 0.008470 -0.004005 -0.000401 -0.001206 -0.001520
# 3 -0.000200 -0.004005 0.013331 0.002125 -0.007062 -0.001594
# 4 0.000559 -0.000401 0.002125 0.030154 -0.003191 -0.003644
# 5 -0.003705 -0.001206 -0.007062 -0.003191 0.041713 0.011686
# 6 -0.002308 -0.001520 -0.001594 -0.003644 0.011686 0.032098
#
#
# Mechanical properties :
#
#
# Convention : Reuss Voigt Hill
#
# Bulk Modulus (GPa) = 42.19964 64.70546 53.45255
# Shear Modulus (GPa) = 29.87293 34.89353 32.38323
#
# Velocity S-wave (km/s) = 3.66376 3.95968 3.81459
# Velocity P-wave (km/s) = 6.07121 7.06968 6.58938
#
# Compressibility (1/GPa) = 0.02369688
#
# Stress axis : x y z
#
# Youngs Moduli (GPa) = 56.17102 118.06378 75.01296
#
# Poissons Ratio (x) = 0.44254 0.01498
# Poissons Ratio (y) = 0.21055 0.30046
# Poissons Ratio (z) = 0.01122 0.47290
#
# Static dielectric constant tensor:
#      x y z
#    x 1.701640 0.035860 0.221210 
#    y 0.035860 1.830810 0.022470 
#    z 0.221210 0.022470 1.587670 
# 
# From -- ./inp_files/98090.got.cif
#   From: 2010.05.17/outbox.cif.g08.bks.cpg/sg2_50_cif.got.tgz:98090.got - 2010.06.03 11:33:40.
