data_PCOD9020045
_publ_section_title
;
Structure prediction by ZEFSAII (Michael W. Deem and Ramdas Pophale) SiO2 
 PCOD9020045
Probable space group: P -1
;
_chemical_formula_sum "Si O2"
_cell_formula_units_Z 12
_cell_length_a 13.854209
_cell_length_b 9.719497
_cell_length_c 7.773282
_cell_angle_alpha 103.142401
_cell_angle_beta 146.826187
_cell_angle_gamma 88.224897
_cell_volume 532.222859
_symmetry_space_group_name_H-M "P -1"
_symmetry_group_IT_number 2
_symmetry_cell_setting 'triclinic'
loop_
_space_group_symop_operation_xyz
x,y,z
-x,-y,-z
loop_
_atom_site_type_symbol
_atom_site_label
_atom_site_fract_x
_atom_site_fract_y
_atom_site_fract_z
Si Si1 0.154101 0.920430 0.237414
Si Si2 0.195646 0.993115 0.719423
Si Si3 0.373564 0.544092 0.179807
Si Si4 0.522894 0.156114 0.768655
Si Si5 0.138071 0.604101 0.103986
Si Si6 0.466717 0.296063 0.088027
O O1 0.183488 0.925670 0.489203
O O2 0.085691 0.751815 0.026470
O O3 0.342633 0.013320 0.451113
O O4 0.000000 0.000000 0.000000
O O5 0.298215 0.899835 0.959585
O O6 0.000000 0.000000 0.500000
O O7 0.328901 0.160194 0.946373
O O8 0.500000 0.500000 0.500000
O O9 0.451666 0.716661 0.298204
O O10 0.175456 0.521865 0.965714
O O11 0.384691 0.434824 0.010825
O O12 0.490649 0.236189 0.919212
O O13 0.334910 0.660479 0.511617
O O14 0.000000 0.500000 0.000000
#
# Coordination Sequence:
#
# PCOD9020045 Si02
#       6
#     2   2   2   2   2   2
#     4  11  25  42  69 101 134 175 225 277 338 394
#     4  11  24  43  72  98 131 178 228 280 330 396
#     4  10  25  40  65  99 130 178 218 270 337 397
#     4  11  22  47  72  94 135 181 223 285 330 390
#     4  11  24  43  65  96 143 173 215 274 339 399
#     4  10  21  46  67  96 133 175 224 273 333 401
#
# _framework density 22.546944
#
# number of rings (size 3 to 8) (size 9 to 14) (size 15 to 20)
#    0.000    1.333    3.333    1.500    9.333    2.000 
#    0.000    1.667    0.000    0.000    0.000    0.000 
#    0.000    0.000    0.000    0.000    0.000    0.000 
#
# Total GULP energy -67141.707058 kJ/mol
# GULP energy per Si atom -5595.142255 kJ/mol
# Density = 2.249563 g / cm^3
# Si number density = 22.546944 Si / 1000 Ang^3
#
#
#
# Elastic Constant Matrix: (Units=GPa)
#
#
# Indices 1 2 3 4 5 6 
#
# 1 120.0918 62.6480 33.7247 -0.3875 29.6248 -4.8773
# 2 62.6480 183.9816 37.5702 -19.0611 29.8249 -4.4255
# 3 33.7247 37.5702 65.0604 -7.7597 24.0084 2.4025
# 4 -0.3875 -19.0611 -7.7597 32.3355 -0.1454 0.9775
# 5 29.6248 29.8249 24.0084 -0.1454 42.5812 1.4809
# 6 -4.8773 -4.4255 2.4025 0.9775 1.4809 49.1446
#
#
#
# Elastic Compliance Matrix: (Units=1/GPa)
#
#
# Indices 1 2 3 4 5 6 
#
# 1 0.011874 -0.002883 -0.003153 -0.002372 -0.004516 0.001256
# 2 -0.002883 0.007547 -0.001501 0.004029 -0.002436 0.000460
# 3 -0.003153 -0.001501 0.021735 0.004293 -0.008949 -0.001326
# 4 -0.002372 0.004029 0.004293 0.034307 -0.003452 -0.000661
# 5 -0.004516 -0.002436 -0.008949 -0.003452 0.033407 -0.001168
# 6 0.001256 0.000460 -0.001326 -0.000661 -0.001168 0.020627
#
#
# Mechanical properties :
#
#
# Convention : Reuss Voigt Hill
#
# Bulk Modulus (GPa) = 38.34155 70.77997 54.56076
# Shear Modulus (GPa) = 32.62332 40.49165 36.55749
#
# Velocity S-wave (km/s) = 3.80795 4.24238 4.03102
# Velocity P-wave (km/s) = 6.03126 7.44698 6.77619
#
# Compressibility (1/GPa) = 0.02608136
#
# Stress axis : x y z
#
# Youngs Moduli (GPa) = 84.22093 132.50418 46.00901
#
# Poissons Ratio (x) = 0.38197 0.14507
# Poissons Ratio (y) = 0.24279 0.06907
# Poissons Ratio (z) = 0.26555 0.19892
#
# Static dielectric constant tensor:
#      x y z
#    x 1.878030 -0.058020 -0.028290 
#    y -0.058020 1.765040 0.044440 
#    z -0.028290 0.044440 1.801460 
# 
# From -- ./inp_files/145787.got.cif
#   From: 2010.05.17/outbox.cif.g08.bks.cpg/sg2_73_cif.got.tgz:145787.got - 2010.06.03 11:33:40.
