data_PCOD9020558
_publ_section_title
;
Structure prediction by ZEFSAII (Michael W. Deem and Ramdas Pophale) SiO2 
 PCOD9020558
Probable space group: P -1
;
_chemical_formula_sum "Si O2"
_cell_formula_units_Z 16
_cell_length_a 5.132373
_cell_length_b 13.054617
_cell_length_c 12.576889
_cell_angle_alpha 68.207486
_cell_angle_beta 77.049570
_cell_angle_gamma 75.903869
_cell_volume 750.475304
_symmetry_space_group_name_H-M "P -1"
_symmetry_group_IT_number 2
_symmetry_cell_setting 'triclinic'
loop_
_space_group_symop_operation_xyz
x,y,z
-x,-y,-z
loop_
_atom_site_type_symbol
_atom_site_label
_atom_site_fract_x
_atom_site_fract_y
_atom_site_fract_z
Si Si1 0.460286 0.829093 0.124361
Si Si2 0.036587 0.303739 0.774277
Si Si3 0.772478 0.919355 0.474153
Si Si4 0.106830 0.461637 0.385442
Si Si5 0.881985 0.267901 0.385489
Si Si6 0.490293 0.057905 0.146679
Si Si7 0.582442 0.734546 0.441645
Si Si8 0.096016 0.889070 0.732423
O O1 0.755192 0.745221 0.131783
O O2 0.193809 0.772926 0.192053
O O3 0.483780 0.927617 0.169184
O O4 0.421216 0.887586 0.990669
O O5 0.274444 0.308416 0.662573
O O6 0.865821 0.429838 0.727330
O O7 0.706988 0.842916 0.413070
O O8 0.845364 0.824935 0.593603
O O9 0.500000 0.000000 0.500000
O O10 0.959890 0.005244 0.385072
O O11 0.351756 0.363191 0.436452
O O12 0.000000 0.500000 0.500000
O O13 0.926856 0.392306 0.356547
O O14 0.735179 0.235441 0.520177
O O15 0.779953 0.223864 0.301474
O O16 0.693736 0.078235 0.213450
O O17 0.185946 0.115958 0.182578
#
# Coordination Sequence:
#
# PCOD9020558 Si02
#       8
#     2   2   2   2   2   2   2   2
#     4  11  24  45  66  96 121 163 217 275 319 372
#     4  11  24  39  70  92 125 166 215 266 324 362
#     4  11  21  36  54  93 135 169 203 241 299 390
#     4   9  23  41  59  92 128 172 213 260 308 375
#     4  11  24  37  62  92 137 171 208 251 311 388
#     4  11  25  43  67  93 128 161 214 268 323 376
#     4  10  22  36  60  92 132 167 205 251 308 391
#     4  12  24  39  65  94 130 176 204 251 322 385
#
# _framework density 21.319821000000001
#
# number of rings (size 3 to 8) (size 9 to 14) (size 15 to 20)
#    0.000    1.250    1.250    4.125   12.250    3.000 
#    0.000    0.000    0.000    4.500    0.000    0.000 
#    0.000    0.000    0.000    0.000    0.000    0.000 
#
# Total GULP energy -89079.805701 kJ/mol
# GULP energy per Si atom -5567.487856 kJ/mol
# Density = 2.127130 g / cm^3
# Si number density = 21.319821 Si / 1000 Ang^3
#
#
#
# Elastic Constant Matrix: (Units=GPa)
#
#
# Indices 1 2 3 4 5 6 
#
# 1 99.6620 29.4460 30.9577 -2.7553 -3.3035 16.8737
# 2 29.4460 116.9941 39.0553 -9.5954 2.2741 24.4096
# 3 30.9577 39.0553 74.5911 -2.1509 2.1779 15.6495
# 4 -2.7553 -9.5954 -2.1509 28.4385 -2.5151 -0.2430
# 5 -3.3035 2.2741 2.1779 -2.5151 34.6425 1.8464
# 6 16.8737 24.4096 15.6495 -0.2430 1.8464 29.1248
#
#
#
# Elastic Compliance Matrix: (Units=1/GPa)
#
#
# Indices 1 2 3 4 5 6 
#
# 1 0.012291 -0.000890 -0.003726 0.000726 0.001756 -0.004478
# 2 -0.000890 0.012004 -0.004302 0.003581 0.000042 -0.007206
# 3 -0.003726 -0.004302 0.018029 -0.000574 -0.001042 -0.003862
# 4 0.000726 0.003581 -0.000574 0.036611 0.002687 -0.002978
# 5 0.001756 0.000042 -0.001042 0.002687 0.029416 -0.002335
# 6 -0.004478 -0.007206 -0.003862 -0.002978 -0.002335 0.045167
#
#
# Mechanical properties :
#
#
# Convention : Reuss Voigt Hill
#
# Bulk Modulus (GPa) = 40.83533 54.46281 47.64907
# Shear Modulus (GPa) = 27.85259 31.22703 29.53981
#
# Velocity S-wave (km/s) = 3.61836 3.83128 3.72634
# Velocity P-wave (km/s) = 6.05409 6.72107 6.39628
#
# Compressibility (1/GPa) = 0.02448860
#
# Stress axis : x y z
#
# Youngs Moduli (GPa) = 81.36248 83.30669 55.46488
#
# Poissons Ratio (x) = 0.07414 0.20666
# Poissons Ratio (y) = 0.07241 0.23860
# Poissons Ratio (z) = 0.30315 0.35837
#
# Static dielectric constant tensor:
#      x y z
#    x 1.937540 -0.088310 0.099610 
#    y -0.088310 1.890340 -0.031320 
#    z 0.099610 -0.031320 1.863660 
# 
# From -- ./inp_files/364023.got.cif
#   From: 2010.05.17/outbox.cif.g08.bks.cpg/sg2_183_cif.got.tgz:364023.got - 2010.06.03 11:33:40.
