data_PCOD9020783
_publ_section_title
;
Structure prediction by ZEFSAII (Michael W. Deem and Ramdas Pophale) SiO2 
 PCOD9020783
Probable space group: P -1
;
_chemical_formula_sum "Si O2"
_cell_formula_units_Z 16
_cell_length_a 14.973712
_cell_length_b 15.800650
_cell_length_c 14.184209
_cell_angle_alpha 148.721188
_cell_angle_beta 30.562582
_cell_angle_gamma 154.223966
_cell_volume 692.736847
_symmetry_space_group_name_H-M "P -1"
_symmetry_group_IT_number 2
_symmetry_cell_setting 'triclinic'
loop_
_space_group_symop_operation_xyz
x,y,z
-x,-y,-z
loop_
_atom_site_type_symbol
_atom_site_label
_atom_site_fract_x
_atom_site_fract_y
_atom_site_fract_z
Si Si1 0.476333 0.955985 0.324447
Si Si2 0.392305 0.260128 0.394589
Si Si3 0.154734 0.666604 0.734787
Si Si4 0.878819 0.676338 0.828621
Si Si5 0.987023 0.739461 0.575625
Si Si6 0.427180 0.213951 0.766375
Si Si7 0.105707 0.513491 0.819043
Si Si8 0.013024 0.080948 0.433886
O O1 0.618028 0.098138 0.243660
O O2 0.464593 0.099974 0.545480
O O3 0.597049 0.881677 0.199824
O O4 0.215620 0.776515 0.374455
O O5 0.500000 0.500000 0.500000
O O6 0.624823 0.304495 0.246158
O O7 0.231857 0.122892 0.320997
O O8 0.213208 0.132782 0.522328
O O9 0.201621 0.502730 0.511357
O O10 0.032177 0.587991 0.871030
O O11 0.025586 0.667679 0.763747
O O12 0.990698 0.764933 0.708730
O O13 0.659415 0.444261 0.783047
O O14 0.776858 0.783272 0.063588
O O15 0.976491 0.889856 0.660772
O O16 0.036201 0.284507 0.642289
O O17 0.000000 0.500000 0.000000
#
# Coordination Sequence:
#
# PCOD9020783 Si02
#       8
#     2   2   2   2   2   2   2   2
#     4  11  21  37  62  86 116 167 207 234 304 358
#     4   9  18  40  64  84 118 154 204 256 298 360
#     4  11  22  39  61  85 119 164 202 250 303 362
#     4  11  21  40  58  87 130 157 202 251 297 349
#     4  11  21  37  60  91 123 159 199 252 299 364
#     4  10  22  37  58  86 123 166 200 249 291 355
#     4  10  22  40  60  91 121 157 201 258 310 362
#     4   9  20  38  64  92 118 161 202 249 311 361
#
# _framework density 23.096793999999999
#
# number of rings (size 3 to 8) (size 9 to 14) (size 15 to 20)
#    0.000    1.750    2.500    2.625    0.000    2.500 
#    4.500    7.500    0.000    0.000    0.000    0.000 
#    0.000    0.000    0.000    0.000    0.000    0.000 
#
# Total GULP energy -89284.545218 kJ/mol
# GULP energy per Si atom -5580.284076 kJ/mol
# Density = 2.304423 g / cm^3
# Si number density = 23.096794 Si / 1000 Ang^3
#
#
#
# Elastic Constant Matrix: (Units=GPa)
#
#
# Indices 1 2 3 4 5 6 
#
# 1 141.0382 43.5331 29.2639 -19.9635 8.3764 -33.7130
# 2 43.5331 148.7675 22.4964 -25.9242 5.7468 -19.1079
# 3 29.2639 22.4964 36.7796 -9.6700 1.1503 -3.3913
# 4 -19.9635 -25.9242 -9.6700 25.9546 -2.5282 2.7463
# 5 8.3764 5.7468 1.1503 -2.5282 28.9021 -6.5477
# 6 -33.7130 -19.1079 -3.3913 2.7463 -6.5477 44.2115
#
#
#
# Elastic Compliance Matrix: (Units=1/GPa)
#
#
# Indices 1 2 3 4 5 6 
#
# 1 0.011065 -0.000440 -0.006581 0.004768 -0.000780 0.007331
# 2 -0.000440 0.008913 -0.002957 0.007139 -0.000267 0.002807
# 3 -0.006581 -0.002957 0.035337 0.005625 0.000713 -0.003829
# 4 0.004768 0.007139 0.005625 0.051201 0.002435 0.004333
# 5 -0.000780 -0.000267 0.000713 0.002435 0.036091 0.004539
# 6 0.007331 0.002807 -0.003829 0.004333 0.004539 0.029531
#
#
# Mechanical properties :
#
#
# Convention : Reuss Voigt Hill
#
# Bulk Modulus (GPa) = 28.28164 57.46358 42.87261
# Shear Modulus (GPa) = 24.52406 35.23310 29.87858
#
# Velocity S-wave (km/s) = 3.26205 3.90994 3.60060
# Velocity P-wave (km/s) = 5.14387 6.73179 5.99068
#
# Compressibility (1/GPa) = 0.03535863
#
# Stress axis : x y z
#
# Youngs Moduli (GPa) = 90.37408 112.19932 28.29864
#
# Poissons Ratio (x) = 0.04940 0.18623
# Poissons Ratio (y) = 0.03979 0.08368
# Poissons Ratio (z) = 0.59474 0.33179
#
# Static dielectric constant tensor:
#      x y z
#    x 1.924700 0.008750 -0.010030 
#    y 0.008750 1.952830 0.014800 
#    z -0.010030 0.014800 1.845540 
# 
# From -- ./inp_files/534404.got.cif
#   From: 2010.05.17/outbox.cif.g08.bks.cpg/sg2_268_cif.got.tgz:534404.got - 2010.06.03 11:33:40.
