data_PCOD9020136
_publ_section_title
;
Structure prediction by ZEFSAII (Michael W. Deem and Ramdas Pophale) SiO2 
 PCOD9020136
Probable space group: P -1
;
_chemical_formula_sum "Si O2"
_cell_formula_units_Z 15
_cell_length_a 13.930222
_cell_length_b 5.600071
_cell_length_c 9.294967
_cell_angle_alpha 110.137746
_cell_angle_beta 117.775813
_cell_angle_gamma 87.338930
_cell_volume 596.634797
_symmetry_space_group_name_H-M "P -1"
_symmetry_group_IT_number 2
_symmetry_cell_setting 'triclinic'
loop_
_space_group_symop_operation_xyz
x,y,z
-x,-y,-z
loop_
_atom_site_type_symbol
_atom_site_label
_atom_site_fract_x
_atom_site_fract_y
_atom_site_fract_z
Si Si1 0.484808 0.368440 0.616369
Si Si2 0.229448 0.864033 0.559785
Si Si3 0.990003 0.769381 0.738007
Si Si4 0.211402 0.634177 0.959528
Si Si5 0.904047 0.680395 0.953073
Si Si6 0.000000 0.000000 0.500000
Si Si7 0.306734 0.924053 0.317457
Si Si8 0.334927 0.462682 0.749070
O O1 0.500000 0.500000 0.500000
O O2 0.590210 0.225512 0.675402
O O3 0.457970 0.493975 0.775201
O O4 0.369451 0.191223 0.469455
O O5 0.235055 0.819963 0.382821
O O6 0.280271 0.640019 0.631650
O O7 0.108684 0.858976 0.536026
O O8 0.292692 0.156999 0.685060
O O9 0.091452 0.608138 0.797149
O O10 0.897754 0.702688 0.781001
O O11 0.951059 0.804759 0.558685
O O12 0.044810 0.056247 0.880859
O O13 0.302978 0.589504 0.901954
O O14 0.196582 0.437422 0.042551
O O15 0.238448 0.903748 0.118909
O O16 0.000000 0.500000 0.000000
#
# Coordination Sequence:
#
# PCOD9020136 Si02
#       8
#     2   2   2   2   2   1   2   2
#     4  10  21  46  72  98 136 179 229 294 360 433
#     4  11  25  44  66 102 140 192 232 287 351 424
#     4  10  22  41  59  92 137 184 234 284 337 409
#     4  11  23  42  65 100 137 180 233 295 347 417
#     4   9  21  39  60  85 135 182 229 285 343 401
#     4  12  24  40  66  98 140 188 236 280 340 420
#     4  10  24  42  71 102 133 180 239 288 357 426
#     4  11  24  47  70  99 147 180 234 298 355 418
#
# _framework density 25.141010000000001
#
# number of rings (size 3 to 8) (size 9 to 14) (size 15 to 20)
#    0.000    1.600    2.667    0.800    5.600    3.200 
#    2.400    0.667    0.000    0.000    0.000    0.000 
#    0.000    0.000    0.000    0.000    0.000    0.000 
#
# Total GULP energy -83542.470362 kJ/mol
# GULP energy per Si atom -5569.498024 kJ/mol
# Density = 2.508379 g / cm^3
# Si number density = 25.141010 Si / 1000 Ang^3
#
#
#
# Elastic Constant Matrix: (Units=GPa)
#
#
# Indices 1 2 3 4 5 6 
#
# 1 121.6171 28.2837 -0.2197 -5.5672 -39.7827 9.5735
# 2 28.2837 95.8020 20.0168 -17.1140 -8.9588 2.5805
# 3 -0.2197 20.0168 70.3392 -5.3326 -19.8944 9.6728
# 4 -5.5672 -17.1140 -5.3326 29.6497 6.7409 -5.4372
# 5 -39.7827 -8.9588 -19.8944 6.7409 54.3750 -9.5358
# 6 9.5735 2.5805 9.6728 -5.4372 -9.5358 43.8483
#
#
#
# Elastic Compliance Matrix: (Units=1/GPa)
#
#
# Indices 1 2 3 4 5 6 
#
# 1 0.012371 -0.003823 0.003977 -0.001665 0.009834 -0.001421
# 2 -0.003823 0.013436 -0.004261 0.007140 -0.002807 0.001259
# 3 0.003977 -0.004261 0.018164 -0.000900 0.008457 -0.002897
# 4 -0.001665 0.007140 -0.000900 0.039137 -0.004519 0.004012
# 5 0.009834 -0.002807 0.008457 -0.004519 0.029115 0.001924
# 6 -0.001421 0.001259 -0.002897 0.004012 0.001924 0.024597
#
#
# Mechanical properties :
#
#
# Convention : Reuss Voigt Hill
#
# Bulk Modulus (GPa) = 27.96627 42.65777 35.31202
# Shear Modulus (GPa) = 31.85656 41.55308 36.70482
#
# Velocity S-wave (km/s) = 3.56352 4.06988 3.82509
# Velocity P-wave (km/s) = 5.29901 6.25215 5.79521
#
# Compressibility (1/GPa) = 0.03575736
#
# Stress axis : x y z
#
# Youngs Moduli (GPa) = 80.83345 74.42525 55.05424
#
# Poissons Ratio (x) = 0.28451 -0.21895
# Poissons Ratio (y) = 0.30901 0.23460
# Poissons Ratio (z) = -0.32148 0.31714
#
# Static dielectric constant tensor:
#      x y z
#    x 1.999860 0.014890 -0.063010 
#    y 0.014890 2.078440 0.027020 
#    z -0.063010 0.027020 2.151000 
# 
# From -- ./inp_files/35252.got.cif
#   From: 2010.05.17/outbox.cif.g08.bks.cpg/sg2_18_cif.got.tgz:35252.got - 2010.06.03 11:33:40.
