data_PCOD9020895
_publ_section_title
;
Structure prediction by ZEFSAII (Michael W. Deem and Ramdas Pophale) SiO2 
 PCOD9020895
Probable space group: P -1
;
_chemical_formula_sum "Si O2"
_cell_formula_units_Z 16
_cell_length_a 12.357274
_cell_length_b 28.848792
_cell_length_c 26.045464
_cell_angle_alpha 9.293976
_cell_angle_beta 29.143924
_cell_angle_gamma 29.735460
_cell_volume 727.863768
_symmetry_space_group_name_H-M "P -1"
_symmetry_group_IT_number 2
_symmetry_cell_setting 'triclinic'
loop_
_space_group_symop_operation_xyz
x,y,z
-x,-y,-z
loop_
_atom_site_type_symbol
_atom_site_label
_atom_site_fract_x
_atom_site_fract_y
_atom_site_fract_z
Si Si1 0.792657 0.351927 0.275241
Si Si2 0.522031 0.147627 0.274746
Si Si3 0.270913 0.783847 0.436997
Si Si4 0.027514 0.388592 0.898631
Si Si5 0.888901 0.844113 0.378816
Si Si6 0.484758 0.268009 0.408493
Si Si7 0.158129 0.904263 0.622607
Si Si8 0.588425 0.153908 0.845375
O O1 0.739174 0.397588 0.307745
O O2 0.563530 0.384527 0.302519
O O3 0.905394 0.024905 0.586742
O O4 0.000000 0.500000 0.000000
O O5 0.735355 0.026404 0.284792
O O6 0.300940 0.091647 0.395604
O O7 0.500000 0.000000 0.500000
O O8 0.527537 0.487076 0.897845
O O9 0.217236 0.577958 0.636699
O O10 0.090153 0.059281 0.216460
O O11 0.484048 0.966249 0.139062
O O12 0.927779 0.539226 0.725055
O O13 0.860259 0.382856 0.022455
O O14 0.747178 0.862133 0.364797
O O15 0.144634 0.905833 0.197258
O O16 0.706671 0.085266 0.497311
O O17 0.500000 0.500000 0.500000
O O18 0.500000 0.000000 0.000000
#
# Coordination Sequence:
#
# PCOD9020895 Si02
#       8
#     2   2   2   2   2   2   2   2
#     4  11  22  41  68  93 134 181 230 276 325 409
#     4  11  23  37  61  94 138 175 218 270 347 403
#     4  11  24  42  67 103 127 173 228 282 336 392
#     4  11  22  39  66  99 132 167 219 279 337 399
#     4  11  25  38  65  94 136 173 221 280 348 403
#     4  11  23  40  56  95 131 181 219 273 337 402
#     4  10  22  37  61  93 126 178 223 269 327 402
#     4  12  24  45  72 101 133 173 228 290 344 401
#
# _framework density 21.982136000000001
#
# number of rings (size 3 to 8) (size 9 to 14) (size 15 to 20)
#    0.000    1.000    3.750    2.625    8.750    3.000 
#    0.000    0.625    0.000    0.750    0.000    0.000 
#    0.000    0.000    0.000    0.000    0.000    0.000 
#
# Total GULP energy -89098.165477 kJ/mol
# GULP energy per Si atom -5568.635342 kJ/mol
# Density = 2.193210 g / cm^3
# Si number density = 21.982136 Si / 1000 Ang^3
#
#
#
# Elastic Constant Matrix: (Units=GPa)
#
#
# Indices 1 2 3 4 5 6 
#
# 1 118.9263 18.2875 10.1794 11.1529 -6.6048 -8.3588
# 2 18.2875 102.2813 13.7277 23.8910 -8.8037 -16.2401
# 3 10.1794 13.7277 59.2869 14.6133 -8.6964 2.7395
# 4 11.1529 23.8910 14.6133 34.5207 3.1611 -6.0789
# 5 -6.6048 -8.8037 -8.6964 3.1611 30.8773 6.7084
# 6 -8.3588 -16.2401 2.7395 -6.0789 6.7084 28.8022
#
#
#
# Elastic Compliance Matrix: (Units=1/GPa)
#
#
# Indices 1 2 3 4 5 6 
#
# 1 0.008947 -0.000676 -0.000772 -0.001946 0.001364 0.001560
# 2 -0.000676 0.012836 -0.000694 -0.007820 0.003091 0.004737
# 3 -0.000772 -0.000694 0.021150 -0.010133 0.008075 -0.006646
# 4 -0.001946 -0.007820 -0.010133 0.041649 -0.011378 0.007430
# 5 0.001364 0.003091 0.008075 -0.011378 0.039206 -0.010162
# 6 0.001560 0.004737 -0.006646 0.007430 -0.010162 0.042411
#
#
# Mechanical properties :
#
#
# Convention : Reuss Voigt Hill
#
# Bulk Modulus (GPa) = 25.87498 40.54263 33.20880
# Shear Modulus (GPa) = 27.26808 34.72669 30.99738
#
# Velocity S-wave (km/s) = 3.52585 3.97894 3.75923
# Velocity P-wave (km/s) = 5.32653 6.29228 5.82944
#
# Compressibility (1/GPa) = 0.03864738
#
# Stress axis : x y z
#
# Youngs Moduli (GPa) = 111.77542 77.90709 47.28216
#
# Poissons Ratio (x) = 0.05270 0.03650
# Poissons Ratio (y) = 0.07561 0.03281
# Poissons Ratio (z) = 0.08629 0.05406
#
# Static dielectric constant tensor:
#      x y z
#    x 1.891200 0.000160 -0.024750 
#    y 0.000160 2.005200 -0.001980 
#    z -0.024750 -0.001980 1.963150 
# 
# From -- ./inp_files/94406.got.cif
#   From: 2010.05.17/outbox.cif.g08.bks.cpg/sg2_48_cif.got.tgz:94406.got - 2010.06.03 11:33:40.
