data_PCOD9020240
_publ_section_title
;
Structure prediction by ZEFSAII (Michael W. Deem and Ramdas Pophale) SiO2 
 PCOD9020240
Probable space group: P -1
;
_chemical_formula_sum "Si O2"
_cell_formula_units_Z 16
_cell_length_a 9.980327
_cell_length_b 10.692206
_cell_length_c 16.876622
_cell_angle_alpha 42.430687
_cell_angle_beta 142.049123
_cell_angle_gamma 138.161408
_cell_volume 687.177532
_symmetry_space_group_name_H-M "P -1"
_symmetry_group_IT_number 2
_symmetry_cell_setting 'triclinic'
loop_
_space_group_symop_operation_xyz
x,y,z
-x,-y,-z
loop_
_atom_site_type_symbol
_atom_site_label
_atom_site_fract_x
_atom_site_fract_y
_atom_site_fract_z
Si Si1 0.201725 0.560938 0.958855
Si Si2 0.472828 0.271296 0.235422
Si Si3 0.427549 0.680249 0.416013
Si Si4 0.662593 0.357050 0.838890
Si Si5 0.679276 0.787090 0.641074
Si Si6 0.007311 0.556626 0.568686
Si Si7 0.852217 0.929276 0.321347
Si Si8 0.416939 0.933360 0.766748
O O1 0.355174 0.742401 0.886804
O O2 0.916068 0.451722 0.865864
O O3 0.297852 0.382532 0.086305
O O4 0.257140 0.656814 0.027644
O O5 0.417646 0.159160 0.347706
O O6 0.488410 0.136834 0.233581
O O7 0.740657 0.430708 0.291321
O O8 0.500000 0.500000 0.500000
O O9 0.609529 0.815393 0.505574
O O10 0.188792 0.589559 0.396664
O O11 0.411670 0.826610 0.270824
O O12 0.583923 0.545884 0.712910
O O13 0.414620 0.169050 0.792899
O O14 0.961551 0.896127 0.725875
O O15 0.965253 0.763792 0.458362
O O16 0.000000 0.500000 0.500000
O O17 0.820819 0.026789 0.344053
#
# Coordination Sequence:
#
# PCOD9020240 Si02
#       8
#     2   2   2   2   2   2   2   2
#     4  10  23  49  73 102 144 194 238 299 359 426
#     4  11  26  46  71 102 147 196 234 301 358 431
#     4  12  25  44  71 109 148 184 237 306 365 426
#     4  10  21  47  78 103 139 182 252 304 344 427
#     4  11  23  46  72 107 141 188 246 289 373 426
#     4  12  24  45  73 103 147 186 238 301 360 434
#     4  12  25  43  76 110 138 188 244 299 364 433
#     4  12  26  44  68 108 146 189 239 293 366 428
#
# _framework density 23.283650000000002
#
# number of rings (size 3 to 8) (size 9 to 14) (size 15 to 20)
#    0.000    0.750    5.000    1.875    3.500    3.500 
#    0.000    1.250    0.000    0.000    0.000    0.000 
#    0.000    0.000    0.000    0.000    0.000    0.000 
#
# Total GULP energy -89116.945424 kJ/mol
# GULP energy per Si atom -5569.809089 kJ/mol
# Density = 2.323066 g / cm^3
# Si number density = 23.283650 Si / 1000 Ang^3
#
#
#
# Elastic Constant Matrix: (Units=GPa)
#
#
# Indices 1 2 3 4 5 6 
#
# 1 164.1442 46.5312 26.3029 -9.1761 4.0398 25.0161
# 2 46.5312 118.6131 35.1396 3.5570 -10.2301 27.8842
# 3 26.3029 35.1396 60.7074 -10.6952 -4.2367 1.0458
# 4 -9.1761 3.5570 -10.6952 41.1338 4.3832 7.0488
# 5 4.0398 -10.2301 -4.2367 4.3832 28.0015 -3.8052
# 6 25.0161 27.8842 1.0458 7.0488 -3.8052 37.0733
#
#
#
# Elastic Compliance Matrix: (Units=1/GPa)
#
#
# Indices 1 2 3 4 5 6 
#
# 1 0.007850 -0.001668 -0.002131 0.002490 -0.003103 -0.004774
# 2 -0.001668 0.013421 -0.007091 -0.002368 0.003358 -0.007974
# 3 -0.002131 -0.007091 0.022350 0.004927 0.001049 0.005312
# 4 0.002490 -0.002368 0.004927 0.027973 -0.005665 -0.005938
# 5 -0.003103 0.003358 0.001049 -0.005665 0.039061 0.004625
# 6 -0.004774 -0.007974 0.005312 -0.005938 0.004625 0.037646
#
#
# Mechanical properties :
#
#
# Convention : Reuss Voigt Hill
#
# Bulk Modulus (GPa) = 45.78756 62.15689 53.97222
# Shear Modulus (GPa) = 28.19078 36.94112 32.56595
#
# Velocity S-wave (km/s) = 3.48336 3.98750 3.74393
# Velocity P-wave (km/s) = 5.99051 6.92486 6.47456
#
# Compressibility (1/GPa) = 0.02184000
#
# Stress axis : x y z
#
# Youngs Moduli (GPa) = 127.39371 74.50892 44.74210
#
# Poissons Ratio (x) = 0.12428 0.09535
# Poissons Ratio (y) = 0.21249 0.31728
# Poissons Ratio (z) = 0.27150 0.52837
#
# Static dielectric constant tensor:
#      x y z
#    x 5.516130 -0.743870 -1.803340 
#    y -0.743870 2.132640 0.357220 
#    z -1.803340 0.357220 2.763470 
# 
# From -- ./inp_files/559721.got.cif
#   From: 2010.05.17/outbox.cif.g08.bks.cpg/sg2_280_cif.got.tgz:559721.got - 2010.06.03 11:33:40.
