data_PCOD9020590
_publ_section_title
;
Structure prediction by ZEFSAII (Michael W. Deem and Ramdas Pophale) SiO2 
 PCOD9020590
Probable space group: P -1
;
_chemical_formula_sum "Si O2"
_cell_formula_units_Z 16
_cell_length_a 11.426447
_cell_length_b 10.990725
_cell_length_c 12.576748
_cell_angle_alpha 133.906332
_cell_angle_beta 118.069613
_cell_angle_gamma 96.939922
_cell_volume 713.758263
_symmetry_space_group_name_H-M "P -1"
_symmetry_group_IT_number 2
_symmetry_cell_setting 'triclinic'
loop_
_space_group_symop_operation_xyz
x,y,z
-x,-y,-z
loop_
_atom_site_type_symbol
_atom_site_label
_atom_site_fract_x
_atom_site_fract_y
_atom_site_fract_z
Si Si1 0.490656 0.862601 0.785722
Si Si2 0.249427 0.230872 0.534463
Si Si3 0.874801 0.907584 0.283805
Si Si4 0.580633 0.336255 0.818064
Si Si5 0.463394 0.454994 0.333390
Si Si6 0.333609 0.675658 0.381509
Si Si7 0.711061 0.358113 0.114904
Si Si8 0.858891 0.288088 0.516399
O O1 0.564672 0.770694 0.827609
O O2 0.491329 0.831590 0.637114
O O3 0.272534 0.712899 0.613984
O O4 0.604633 0.134808 0.009909
O O5 0.366534 0.202774 0.637477
O O6 0.356674 0.326527 0.525681
O O7 0.293768 0.455517 0.734545
O O8 0.028489 0.011810 0.320082
O O9 0.810400 0.045863 0.337951
O O10 0.709372 0.622357 0.043010
O O11 0.000000 0.000000 0.500000
O O12 0.623150 0.264835 0.687605
O O13 0.625558 0.285859 0.916210
O O14 0.500000 0.500000 0.500000
O O15 0.300181 0.442512 0.232092
O O16 0.183464 0.672282 0.360538
O O17 0.925885 0.499402 0.286520
#
# Coordination Sequence:
#
# PCOD9020590 Si02
#       8
#     2   2   2   2   2   2   2   2
#     4   9  20  38  59  80 117 158 192 250 291 332
#     4  10  22  36  62  89 115 159 203 236 301 355
#     4  11  21  38  59  89 123 160 189 239 296 357
#     4  11  21  37  59  88 126 154 196 244 290 357
#     4   9  18  42  63  80 115 159 202 251 290 345
#     4   8  20  39  59  83 115 157 198 244 294 346
#     4  11  21  34  57  90 119 155 195 239 299 357
#     4   9  20  38  54  86 120 148 199 238 289 355
#
# _framework density 22.416553
#
# number of rings (size 3 to 8) (size 9 to 14) (size 15 to 20)
#    0.750    1.500    2.500    1.125    1.750    1.500 
#    6.750    5.625    0.000    0.000    0.000    0.000 
#    0.000    0.000    0.000    0.000    0.000    0.000 
#
# Total GULP energy -89180.177477 kJ/mol
# GULP energy per Si atom -5573.761092 kJ/mol
# Density = 2.236553 g / cm^3
# Si number density = 22.416553 Si / 1000 Ang^3
#
#
#
# Elastic Constant Matrix: (Units=GPa)
#
#
# Indices 1 2 3 4 5 6 
#
# 1 94.0047 5.7719 49.7442 -15.0573 23.8737 31.1693
# 2 5.7719 63.1664 35.2233 0.6822 4.8625 2.5653
# 3 49.7442 35.2233 36.9084 2.8633 4.1871 -17.1401
# 4 -15.0573 0.6822 2.8633 23.2466 13.9559 -3.8356
# 5 23.8737 4.8625 4.1871 13.9559 16.3524 -5.3827
# 6 31.1693 2.5653 -17.1401 -3.8356 -5.3827 13.8573
#
#
#
# Elastic Compliance Matrix: (Units=1/GPa)
#
#
# Indices 1 2 3 4 5 6 
#
# 1 0.001049 -0.006673 0.010700 0.001053 0.001027 0.012800
# 2 -0.006673 0.019241 -0.008058 -0.015836 0.021376 0.005399
# 3 0.010700 -0.008058 0.019439 0.032763 -0.048954 -0.008478
# 4 0.001053 -0.015836 0.032763 0.086079 -0.065716 0.039387
# 5 0.001027 0.021376 -0.048954 -0.065716 0.107706 -0.043172
# 6 0.012800 0.005399 -0.008478 0.039387 -0.043172 0.026021
#
#
# Mechanical properties :
#
#
# Convention : Reuss Voigt Hill
#
# Bulk Modulus (GPa) = 31.57943 41.72870 36.65406
# Shear Modulus (GPa) = 17.97571 17.58061 17.77816
#
# Velocity S-wave (km/s) = 2.83485 2.80352 2.81923
# Velocity P-wave (km/s) = 4.98330 5.39770 5.19463
#
# Compressibility (1/GPa) = 0.03166619
#
# Stress axis : x y z
#
# Youngs Moduli (GPa) = 953.01646 51.97294 51.44327
#
# Poissons Ratio (x) = 0.34679 -0.55042
# Poissons Ratio (y) = 6.35901 0.41455
# Poissons Ratio (z) = -10.19687 0.41882
#
# Static dielectric constant tensor:
#      x y z
#    x 1.905750 -0.002600 -0.051740 
#    y -0.002600 1.849530 -0.000050 
#    z -0.051740 -0.000050 1.825690 
# 
# From -- ./inp_files/519145.got.cif
#   From: 2010.05.17/outbox.cif.g08.bks.cpg/sg2_260_cif.got.tgz:519145.got - 2010.06.03 11:33:40.
