data_PCOD9020050
_publ_section_title
;
Structure prediction by ZEFSAII (Michael W. Deem and Ramdas Pophale) SiO2 
 PCOD9020050
Probable space group: P -1
;
_chemical_formula_sum "Si O2"
_cell_formula_units_Z 16
_cell_length_a 6.824257
_cell_length_b 8.922001
_cell_length_c 16.807462
_cell_angle_alpha 102.323784
_cell_angle_beta 42.372288
_cell_angle_gamma 104.398911
_cell_volume 667.317808
_symmetry_space_group_name_H-M "P -1"
_symmetry_group_IT_number 2
_symmetry_cell_setting 'triclinic'
loop_
_space_group_symop_operation_xyz
x,y,z
-x,-y,-z
loop_
_atom_site_type_symbol
_atom_site_label
_atom_site_fract_x
_atom_site_fract_y
_atom_site_fract_z
Si Si1 0.351236 0.612505 0.611844
Si Si2 0.776903 0.006103 0.188396
Si Si3 0.507141 0.269764 0.254669
Si Si4 0.911961 0.110457 0.338588
Si Si5 0.847723 0.353714 0.774343
Si Si6 0.274108 0.839321 0.050024
Si Si7 0.653116 0.463609 0.095555
Si Si8 0.925930 0.094694 0.610878
O O1 0.500000 0.500000 0.500000
O O2 0.548428 0.699716 0.632668
O O3 0.249384 0.740133 0.598657
O O4 0.078969 0.510989 0.728159
O O5 0.778171 0.169060 0.160423
O O6 0.879593 0.050839 0.252128
O O7 0.432752 0.942791 0.281732
O O8 0.993592 0.883340 0.089659
O O9 0.556315 0.429211 0.211269
O O10 0.237387 0.172412 0.279317
O O11 0.846387 0.969791 0.402810
O O12 0.827371 0.232549 0.840621
O O13 0.529893 0.410035 0.869922
O O14 0.943637 0.271647 0.655687
O O15 0.409739 0.699053 0.951674
O O16 0.500000 0.000000 0.000000
O O17 0.000000 0.500000 0.000000
O O18 0.000000 0.000000 0.500000
#
# Coordination Sequence:
#
# PCOD9020050 Si02
#       8
#     2   2   2   2   2   2   2   2
#     4  11  26  44  75 105 144 195 234 294 380 429
#     4  10  23  44  71 101 141 183 244 292 349 439
#     4  10  23  43  72 100 140 182 244 292 351 439
#     4  10  21  46  67  98 147 182 235 295 353 429
#     4  12  27  47  68 111 152 180 252 308 352 448
#     4  12  27  45  76 104 145 201 241 300 376 429
#     4  12  26  45  72 103 148 195 242 313 368 421
#     4  11  26  44  74 105 144 192 239 298 370 432
#
# _framework density 23.976579999999998
#
# number of rings (size 3 to 8) (size 9 to 14) (size 15 to 20)
#    0.000    1.000    2.500    2.625   10.500    3.500 
#    0.000    0.000    0.000    0.000    0.000    0.000 
#    0.000    0.000    0.000    0.000    0.000    0.000 
#
# Total GULP energy -89262.855807 kJ/mol
# GULP energy per Si atom -5578.928488 kJ/mol
# Density = 2.392201 g / cm^3
# Si number density = 23.976580 Si / 1000 Ang^3
#
#
#
# Elastic Constant Matrix: (Units=GPa)
#
#
# Indices 1 2 3 4 5 6 
#
# 1 125.5738 42.8990 23.9447 7.1788 -2.3744 -10.2694
# 2 42.8990 118.1165 32.5006 18.6411 -14.5165 -8.8220
# 3 23.9447 32.5006 71.9732 22.7160 -0.4406 -8.0942
# 4 7.1788 18.6411 22.7160 49.0308 8.4892 -12.6244
# 5 -2.3744 -14.5165 -0.4406 8.4892 32.6200 7.2904
# 6 -10.2694 -8.8220 -8.0942 -12.6244 7.2904 50.7707
#
#
#
# Elastic Compliance Matrix: (Units=1/GPa)
#
#
# Indices 1 2 3 4 5 6 
#
# 1 0.009447 -0.003169 -0.001986 0.001411 -0.001475 0.001606
# 2 -0.003169 0.011775 -0.003104 -0.003891 0.006192 -0.000946
# 3 -0.001986 -0.003104 0.018187 -0.007007 0.000512 0.000143
# 4 0.001411 -0.003891 -0.007007 0.028622 -0.010771 0.007156
# 5 -0.001475 0.006192 0.000512 -0.010771 0.037732 -0.007237
# 6 0.001606 -0.000946 0.000143 0.007156 -0.007237 0.022698
#
#
# Mechanical properties :
#
#
# Convention : Reuss Voigt Hill
#
# Bulk Modulus (GPa) = 43.68067 57.15022 50.41545
# Shear Modulus (GPa) = 32.76344 40.90559 36.83451
#
# Velocity S-wave (km/s) = 3.70060 4.13493 3.92378
# Velocity P-wave (km/s) = 6.04292 6.83261 6.44986
#
# Compressibility (1/GPa) = 0.02289342
#
# Stress axis : x y z
#
# Youngs Moduli (GPa) = 105.84859 84.92267 54.98451
#
# Poissons Ratio (x) = 0.26911 0.10918
# Poissons Ratio (y) = 0.33542 0.17065
# Poissons Ratio (z) = 0.21018 0.26357
#
# Static dielectric constant tensor:
#      x y z
#    x 1.893560 -0.002730 0.045620 
#    y -0.002730 2.085290 -0.117810 
#    z 0.045620 -0.117810 2.105370 
# 
# From -- ./inp_files/548145.got.cif
#   From: 2010.05.17/outbox.cif.g08.bks.cpg/sg2_275_cif.got.tgz:548145.got - 2010.06.03 11:33:40.
