data_PCOD9020584
_publ_section_title
;
Structure prediction by ZEFSAII (Michael W. Deem and Ramdas Pophale) SiO2 
 PCOD9020584
Probable space group: P -1
;
_chemical_formula_sum "Si O2"
_cell_formula_units_Z 14
_cell_length_a 10.147766
_cell_length_b 10.398128
_cell_length_c 7.911569
_cell_angle_alpha 135.305382
_cell_angle_beta 83.741810
_cell_angle_gamma 116.929267
_cell_volume 492.373887
_symmetry_space_group_name_H-M "P -1"
_symmetry_group_IT_number 2
_symmetry_cell_setting 'triclinic'
loop_
_space_group_symop_operation_xyz
x,y,z
-x,-y,-z
loop_
_atom_site_type_symbol
_atom_site_label
_atom_site_fract_x
_atom_site_fract_y
_atom_site_fract_z
Si Si1 0.673828 0.949559 0.737567
Si Si2 0.264210 0.299077 0.955021
Si Si3 0.393524 0.763409 0.369966
Si Si4 0.967262 0.195999 0.106625
Si Si5 0.496502 0.668465 0.781689
Si Si6 0.828040 0.421742 0.152654
Si Si7 0.117201 0.834529 0.523003
O O1 0.526674 0.772997 0.484093
O O2 0.588659 0.898610 0.886021
O O3 0.839160 0.988575 0.815352
O O4 0.736831 0.183212 0.857660
O O5 0.321478 0.528246 0.072600
O O6 0.404705 0.302997 0.038712
O O7 0.139207 0.280720 0.093053
O O8 0.186012 0.072323 0.654317
O O9 0.247682 0.772976 0.471124
O O10 0.500000 0.000000 0.500000
O O11 0.919861 0.368810 0.230102
O O12 0.940288 0.152422 0.268048
O O13 0.500000 0.500000 0.500000
O O14 0.314898 0.573709 0.746548
O O15 0.967263 0.645165 0.265556
#
# Coordination Sequence:
#
# PCOD9020584 Si02
#       7
#     2   2   2   2   2   2   2
#     4  10  22  39  63  93 133 171 217 262 337 389
#     4  12  24  40  69 106 133 171 216 272 345 393
#     4  12  27  47  66  92 134 186 230 269 316 391
#     4  10  22  38  67 106 136 168 205 273 355 397
#     4  12  21  33  61 103 138 164 210 274 338 398
#     4  10  22  36  61  97 136 172 205 262 346 399
#     4  12  23  40  67  99 139 167 218 272 335 398
#
# _framework density 28.433674
#
# number of rings (size 3 to 8) (size 9 to 14) (size 15 to 20)
#    0.857    0.000    4.286    3.857    2.000    0.571 
#    0.000    2.857    0.000    2.571    0.000    0.000 
#    0.000    0.000    0.000    0.000    0.000    0.000 
#
# Total GULP energy -78252.172834 kJ/mol
# GULP energy per Si atom -5589.440917 kJ/mol
# Density = 2.836896 g / cm^3
# Si number density = 28.433674 Si / 1000 Ang^3
#
#
#
# Elastic Constant Matrix: (Units=GPa)
#
#
# Indices 1 2 3 4 5 6 
#
# 1 184.4793 40.5119 48.3127 18.7814 12.2471 38.9934
# 2 40.5119 109.5972 39.0389 35.6445 -1.4845 13.6228
# 3 48.3127 39.0389 178.1020 41.3379 22.1688 -4.5438
# 4 18.7814 35.6445 41.3379 58.1287 -2.8409 -1.9827
# 5 12.2471 -1.4845 22.1688 -2.8409 49.1995 12.3105
# 6 38.9934 13.6228 -4.5438 -1.9827 12.3105 46.0202
#
#
#
# Elastic Compliance Matrix: (Units=1/GPa)
#
#
# Indices 1 2 3 4 5 6 
#
# 1 0.007543 -0.001116 -0.001888 -0.000604 0.000508 -0.006409
# 2 -0.001116 0.012575 -0.001259 -0.006493 0.001764 -0.003653
# 3 -0.001888 -0.001259 0.008080 -0.004451 -0.004406 0.003757
# 4 -0.000604 -0.006493 -0.004451 0.024762 0.002812 0.002309
# 5 0.000508 0.001764 -0.004406 0.002812 0.024346 -0.007779
# 6 -0.006409 -0.003653 0.003757 0.002309 -0.007779 0.030793
#
#
# Mechanical properties :
#
#
# Convention : Reuss Voigt Hill
#
# Bulk Modulus (GPa) = 50.83352 80.87840 65.85596
# Shear Modulus (GPa) = 40.59016 53.62400 47.10708
#
# Velocity S-wave (km/s) = 3.78238 4.34744 4.07472
# Velocity P-wave (km/s) = 6.08210 7.32848 6.73419
#
# Compressibility (1/GPa) = 0.01967206
#
# Stress axis : x y z
#
# Youngs Moduli (GPa) = 132.58145 79.52222 123.75588
#
# Poissons Ratio (x) = 0.08871 0.23366
# Poissons Ratio (y) = 0.14790 0.15586
# Poissons Ratio (z) = 0.25033 0.10015
#
# Static dielectric constant tensor:
#      x y z
#    x 2.160570 -0.039050 -0.001090 
#    y -0.039050 2.273960 0.047990 
#    z -0.001090 0.047990 2.302150 
# 
# From -- ./inp_files/391644.got.cif
#   From: 2010.05.17/outbox.cif.g08.bks.cpg/sg2_196_cif.got.tgz:391644.got - 2010.06.03 11:33:40.
