data_PCOD9020350
_publ_section_title
;
Structure prediction by ZEFSAII (Michael W. Deem and Ramdas Pophale) SiO2 
 PCOD9020350
Probable space group: P -1
;
_chemical_formula_sum "Si O2"
_cell_formula_units_Z 16
_cell_length_a 8.829324
_cell_length_b 14.153202
_cell_length_c 26.892580
_cell_angle_alpha 20.641051
_cell_angle_beta 132.942568
_cell_angle_gamma 140.577493
_cell_volume 739.167090
_symmetry_space_group_name_H-M "P -1"
_symmetry_group_IT_number 2
_symmetry_cell_setting 'triclinic'
loop_
_space_group_symop_operation_xyz
x,y,z
-x,-y,-z
loop_
_atom_site_type_symbol
_atom_site_label
_atom_site_fract_x
_atom_site_fract_y
_atom_site_fract_z
Si Si1 0.496545 0.799007 0.374010
Si Si2 0.112955 0.255571 0.355378
Si Si3 0.534178 0.230824 0.939866
Si Si4 0.498362 0.208474 0.505487
Si Si5 0.139831 0.816706 0.126286
Si Si6 0.024366 0.841700 0.738152
Si Si7 0.961127 0.393760 0.471544
Si Si8 0.761640 0.416111 0.312588
O O1 0.500000 0.500000 0.500000
O O2 0.573879 0.847440 0.425345
O O3 0.217952 0.701218 0.363522
O O4 0.701888 0.079430 0.248054
O O5 0.395001 0.401048 0.360207
O O6 0.049835 0.523748 0.213096
O O7 0.054265 0.123223 0.352657
O O8 0.000000 0.000000 0.500000
O O9 0.816336 0.497388 0.877729
O O10 0.384913 0.403311 0.808714
O O11 0.500000 0.000000 0.000000
O O12 0.412261 0.049871 0.053466
O O13 0.787047 0.392350 0.475444
O O14 0.379998 0.878195 0.611802
O O15 0.037392 0.637681 0.243665
O O16 0.000000 0.000000 0.000000
O O17 0.012295 0.113597 0.630840
O O18 0.791623 0.318308 0.421994
#
# Coordination Sequence:
#
# PCOD9020350 Si02
#       8
#     2   2   2   2   2   2   2   2
#     4  10  24  38  56  88 128 168 193 245 312 378
#     4  12  19  32  61  93 117 152 198 256 307 352
#     4  11  22  35  58  92 124 158 205 255 303 364
#     4  12  21  35  63  92 125 155 199 256 313 355
#     4  10  22  35  52  86 124 159 194 242 308 364
#     4  11  19  37  57  88 125 157 197 246 307 361
#     4  11  22  38  60  94 125 154 203 251 310 365
#     4  11  21  38  62  93 123 158 199 262 307 358
#
# _framework density 21.645986000000001
#
# number of rings (size 3 to 8) (size 9 to 14) (size 15 to 20)
#    0.000    1.000    6.250    1.500    1.750    0.000 
#    0.000    0.000    0.000    1.500    0.000    0.000 
#    0.000    0.000    0.000    0.000    0.000    0.000 
#
# Total GULP energy -89188.985268 kJ/mol
# GULP energy per Si atom -5574.311579 kJ/mol
# Density = 2.159672 g / cm^3
# Si number density = 21.645986 Si / 1000 Ang^3
#
#
#
# Elastic Constant Matrix: (Units=GPa)
#
#
# Indices 1 2 3 4 5 6 
#
# 1 141.0016 17.2264 44.8347 -19.7817 -21.3778 23.0647
# 2 17.2264 54.9975 8.4229 -17.1573 -1.9900 9.3499
# 3 44.8347 8.4229 78.9140 -21.6931 -3.2369 6.8810
# 4 -19.7817 -17.1573 -21.6931 23.5769 12.5400 -11.8316
# 5 -21.3778 -1.9900 -3.2369 12.5400 61.1202 -14.7155
# 6 23.0647 9.3499 6.8810 -11.8316 -14.7155 43.0659
#
#
#
# Elastic Compliance Matrix: (Units=1/GPa)
#
#
# Indices 1 2 3 4 5 6 
#
# 1 0.009781 -0.001913 -0.005238 -0.001039 0.002469 -0.003428
# 2 -0.001913 0.025200 0.004614 0.023172 -0.004439 -0.000334
# 3 -0.005238 0.004614 0.020721 0.021849 -0.004342 0.003012
# 4 -0.001039 0.023172 0.021849 0.092451 -0.014408 0.012511
# 5 0.002469 -0.004439 -0.004342 -0.014408 0.020631 0.003427
# 6 -0.003428 -0.000334 0.003012 0.012511 0.003427 0.029255
#
#
# Mechanical properties :
#
#
# Convention : Reuss Voigt Hill
#
# Bulk Modulus (GPa) = 19.75192 46.20901 32.98046
# Shear Modulus (GPa) = 22.72832 39.18121 30.95476
#
# Velocity S-wave (km/s) = 3.24389 4.25913 3.78570
# Velocity P-wave (km/s) = 4.81406 6.75136 5.86328
#
# Compressibility (1/GPa) = 0.05062799
#
# Stress axis : x y z
#
# Youngs Moduli (GPa) = 102.24172 39.68179 48.25992
#
# Poissons Ratio (x) = 0.07593 0.25279
# Poissons Ratio (y) = 0.19563 -0.22269
# Poissons Ratio (z) = 0.53556 -0.18311
#
# Static dielectric constant tensor:
#      x y z
#    x 1.900400 0.070550 -0.042270 
#    y 0.070550 1.836500 -0.052630 
#    z -0.042270 -0.052630 1.796150 
# 
# From -- ./inp_files/199504.got.cif
#   From: 2010.05.17/outbox.cif.g08.bks.cpg/sg2_100_cif.got.tgz:199504.got - 2010.06.03 11:33:40.
