data_PCOD9020848
_publ_section_title
;
Structure prediction by ZEFSAII (Michael W. Deem and Ramdas Pophale) SiO2 
 PCOD9020848
Probable space group: P -1
;
_chemical_formula_sum "Si O2"
_cell_formula_units_Z 16
_cell_length_a 21.575510
_cell_length_b 9.405487
_cell_length_c 15.484957
_cell_angle_alpha 54.865606
_cell_angle_beta 18.201353
_cell_angle_gamma 53.562778
_cell_volume 788.854885
_symmetry_space_group_name_H-M "P -1"
_symmetry_group_IT_number 2
_symmetry_cell_setting 'triclinic'
loop_
_space_group_symop_operation_xyz
x,y,z
-x,-y,-z
loop_
_atom_site_type_symbol
_atom_site_label
_atom_site_fract_x
_atom_site_fract_y
_atom_site_fract_z
Si Si1 0.120120 0.863895 0.755330
Si Si2 0.639444 0.647694 0.750350
Si Si3 0.405776 0.980767 0.839044
Si Si4 0.460155 0.316003 0.763155
Si Si5 0.239197 0.984100 0.736735
Si Si6 0.890170 0.358309 0.885688
Si Si7 0.633484 0.807284 0.892730
Si Si8 0.980567 0.120077 0.692095
O O1 0.301753 0.696666 0.569495
O O2 0.184667 0.980796 0.708152
O O3 0.096368 0.976986 0.658944
O O4 0.895012 0.855304 0.089140
O O5 0.518768 0.797046 0.795032
O O6 0.642254 0.727797 0.814187
O O7 0.878957 0.607007 0.418989
O O8 0.500000 0.500000 0.000000
O O9 0.409534 0.139888 0.845872
O O10 0.525825 0.015529 0.580715
O O11 0.185184 0.962056 0.108918
O O12 0.284273 0.477935 0.916313
O O13 0.449232 0.300954 0.885824
O O14 0.178841 0.806079 0.915909
O O15 0.887774 0.291178 0.812745
O O16 0.862323 0.826548 0.601920
O O17 0.500000 0.000000 0.000000
#
# Coordination Sequence:
#
# PCOD9020848 Si02
#       8
#     2   2   2   2   2   2   2   2
#     4   9  17  35  60  84 109 156 197 238 289 353
#     4  11  25  41  60  90 123 158 202 244 298 360
#     4  11  23  39  62  94 116 159 204 248 294 352
#     4  11  22  37  62  90 119 157 203 241 302 355
#     4   9  18  39  67  81 118 161 205 245 288 359
#     4  10  23  40  60  90 119 161 198 246 303 353
#     4  11  20  40  63  83 121 168 195 243 296 358
#     4  10  22  37  60  90 120 152 206 240 299 360
#
# _framework density 20.282565000000002
#
# number of rings (size 3 to 8) (size 9 to 14) (size 15 to 20)
#    0.000    1.750    2.500    4.500    3.500    6.500 
#    0.000    0.000    0.000    2.250    0.000    0.000 
#    0.000    0.000    0.000    0.000    0.000    0.000 
#
# Total GULP energy -89092.597004 kJ/mol
# GULP energy per Si atom -5568.287313 kJ/mol
# Density = 2.023640 g / cm^3
# Si number density = 20.282565 Si / 1000 Ang^3
#
#
#
# Elastic Constant Matrix: (Units=GPa)
#
#
# Indices 1 2 3 4 5 6 
#
# 1 39.7498 8.4035 24.5965 6.9497 2.4104 -6.4093
# 2 8.4035 96.8300 53.1398 22.2731 -7.2924 -17.0749
# 3 24.5965 53.1398 128.6541 13.9949 6.1301 -5.8564
# 4 6.9497 22.2731 13.9949 37.5632 0.2523 -2.4327
# 5 2.4104 -7.2924 6.1301 0.2523 25.5368 -0.7600
# 6 -6.4093 -17.0749 -5.8564 -2.4327 -0.7600 14.7380
#
#
#
# Elastic Compliance Matrix: (Units=1/GPa)
#
#
# Indices 1 2 3 4 5 6 
#
# 1 0.031877 0.005199 -0.006952 -0.005341 0.000682 0.016277
# 2 0.005199 0.020861 -0.008013 -0.008964 0.008139 0.022185
# 3 -0.006952 -0.008013 0.012183 0.001042 -0.004791 -0.007541
# 4 -0.005341 -0.008964 0.001042 0.032093 -0.002836 -0.007142
# 5 0.000682 0.008139 -0.004791 -0.002836 0.042882 0.009565
# 6 0.016277 0.022185 -0.007541 -0.007142 0.009565 0.096951
#
#
# Mechanical properties :
#
#
# Convention : Reuss Voigt Hill
#
# Bulk Modulus (GPa) = 22.03218 48.61262 35.32240
# Shear Modulus (GPa) = 18.41553 27.50722 22.96138
#
# Velocity S-wave (km/s) = 3.01649 3.68666 3.36828
# Velocity P-wave (km/s) = 4.79776 6.49166 5.70789
#
# Compressibility (1/GPa) = 0.04538815
#
# Stress axis : x y z
#
# Youngs Moduli (GPa) = 31.37041 47.93705 82.07880
#
# Poissons Ratio (x) = -0.24923 0.57065
# Poissons Ratio (y) = -0.16310 0.65771
# Poissons Ratio (z) = 0.21810 0.38413
#
# Static dielectric constant tensor:
#      x y z
#    x 1.779120 -0.037120 -0.030150 
#    y -0.037120 1.743970 0.020770 
#    z -0.030150 0.020770 1.834670 
# 
# From -- ./inp_files/319344.got.cif
#   From: 2010.05.17/outbox.cif.g08.bks.cpg/sg2_160_cif.got.tgz:319344.got - 2010.06.03 11:33:40.
