data_PCOD9020795
_publ_section_title
;
Structure prediction by ZEFSAII (Michael W. Deem and Ramdas Pophale) SiO2 
 PCOD9020795
Probable space group: P -1
;
_chemical_formula_sum "Si O2"
_cell_formula_units_Z 16
_cell_length_a 13.514323
_cell_length_b 8.230636
_cell_length_c 7.528402
_cell_angle_alpha 126.963506
_cell_angle_beta 97.177461
_cell_angle_gamma 86.940946
_cell_volume 663.601150
_symmetry_space_group_name_H-M "P -1"
_symmetry_group_IT_number 2
_symmetry_cell_setting 'triclinic'
loop_
_space_group_symop_operation_xyz
x,y,z
-x,-y,-z
loop_
_atom_site_type_symbol
_atom_site_label
_atom_site_fract_x
_atom_site_fract_y
_atom_site_fract_z
Si Si1 0.116146 0.453285 0.969081
Si Si2 0.606797 0.955791 0.773805
Si Si3 0.568901 0.768043 0.029931
Si Si4 0.517614 0.365799 0.591199
Si Si5 0.707633 0.093116 0.398213
Si Si6 0.143985 0.578868 0.450394
Si Si7 0.077106 0.243434 0.485643
Si Si8 0.189113 0.879347 0.179581
O O1 0.160199 0.468669 0.188791
O O2 0.161102 0.644890 0.994290
O O3 0.115210 0.262154 0.710517
O O4 0.000000 0.500000 0.000000
O O5 0.577738 0.857907 0.891184
O O6 0.580829 0.779680 0.507351
O O7 0.720248 0.030881 0.855896
O O8 0.531206 0.139087 0.848198
O O9 0.553626 0.527542 0.851740
O O10 0.670378 0.864769 0.196445
O O11 0.500000 0.500000 0.500000
O O12 0.605148 0.212508 0.472662
O O13 0.774999 0.239407 0.383067
O O14 0.764987 0.104032 0.602356
O O15 0.138006 0.404505 0.481946
O O16 0.036896 0.687021 0.494963
O O17 0.094518 0.023391 0.260510
#
# Coordination Sequence:
#
# PCOD9020795 Si02
#       8
#     2   2   2   2   2   2   2   2
#     4   9  21  42  62  89 128 163 204 256 306 366
#     4   9  20  37  57  87 120 153 205 254 292 372
#     4   9  19  37  61  85 115 164 198 244 317 360
#     4   9  19  36  58  84 117 158 198 247 310 362
#     4  10  22  37  58  90 121 154 206 256 302 368
#     4   9  21  41  64  90 127 161 211 258 298 382
#     4  10  22  42  63  91 125 169 203 255 320 353
#     4  11  24  39  60  95 124 159 208 259 301 371
#
# _framework density 24.110866999999999
#
# number of rings (size 3 to 8) (size 9 to 14) (size 15 to 20)
#    0.000    2.500    0.000    0.750    5.250    9.500 
#    0.000    8.125    0.000    0.000    0.000    0.000 
#    0.000    0.000    0.000    0.000    0.000    0.000 
#
# Total GULP energy -89358.910209 kJ/mol
# GULP energy per Si atom -5584.931888 kJ/mol
# Density = 2.405599 g / cm^3
# Si number density = 24.110867 Si / 1000 Ang^3
#
#
#
# Elastic Constant Matrix: (Units=GPa)
#
#
# Indices 1 2 3 4 5 6 
#
# 1 52.3960 4.9438 10.6885 7.5910 -1.9877 16.0985
# 2 4.9438 41.3710 3.4507 -12.3098 -7.1751 12.5673
# 3 10.6885 3.4507 65.9634 13.2961 15.5017 19.0995
# 4 7.5910 -12.3098 13.2961 19.3850 3.1857 4.3812
# 5 -1.9877 -7.1751 15.5017 3.1857 28.6564 2.6306
# 6 16.0985 12.5673 19.0995 4.3812 2.6306 37.9393
#
#
#
# Elastic Compliance Matrix: (Units=1/GPa)
#
#
# Indices 1 2 3 4 5 6 
#
# 1 0.023296 -0.002631 -0.000053 -0.009383 0.002772 -0.008095
# 2 -0.002631 0.041076 -0.007230 0.033222 0.011558 -0.013488
# 3 -0.000053 -0.007230 0.023871 -0.017419 -0.012171 -0.006744
# 4 -0.009383 0.033222 -0.017419 0.089041 0.008026 -0.009093
# 5 0.002772 0.011558 -0.012171 0.008026 0.043936 -0.002851
# 6 -0.008095 -0.013488 -0.006744 -0.009093 -0.002851 0.038904
#
#
# Mechanical properties :
#
#
# Convention : Reuss Voigt Hill
#
# Bulk Modulus (GPa) = 14.61682 21.98849 18.30266
# Shear Modulus (GPa) = 16.51484 26.57264 21.54374
#
# Velocity S-wave (km/s) = 2.62000 3.32339 2.99244
# Velocity P-wave (km/s) = 3.90231 4.88530 4.42121
#
# Compressibility (1/GPa) = 0.06841433
#
# Stress axis : x y z
#
# Youngs Moduli (GPa) = 42.92499 24.34509 41.89203
#
# Poissons Ratio (x) = 0.06406 0.00224
# Poissons Ratio (y) = 0.11295 0.30287
# Poissons Ratio (z) = 0.00229 0.17601
#
# Static dielectric constant tensor:
#      x y z
#    x 2.037580 0.091090 -0.038150 
#    y 0.091090 1.960080 -0.041670 
#    z -0.038150 -0.041670 2.026720 
# 
# From -- ./inp_files/245967.got.cif
#   From: 2010.05.17/outbox.cif.g08.bks.cpg/sg2_123_cif.got.tgz:245967.got - 2010.06.03 11:33:40.
