data_PCOD9020409
_publ_section_title
;
Structure prediction by ZEFSAII (Michael W. Deem and Ramdas Pophale) SiO2 
 PCOD9020409
Probable space group: P -1
;
_chemical_formula_sum "Si O2"
_cell_formula_units_Z 16
_cell_length_a 12.094875
_cell_length_b 15.655946
_cell_length_c 16.302493
_cell_angle_alpha 43.476732
_cell_angle_beta 145.296797
_cell_angle_gamma 154.064276
_cell_volume 767.507303
_symmetry_space_group_name_H-M "P -1"
_symmetry_group_IT_number 2
_symmetry_cell_setting 'triclinic'
loop_
_space_group_symop_operation_xyz
x,y,z
-x,-y,-z
loop_
_atom_site_type_symbol
_atom_site_label
_atom_site_fract_x
_atom_site_fract_y
_atom_site_fract_z
Si Si1 0.870531 0.490149 0.512394
Si Si2 0.281894 0.259906 0.567490
Si Si3 0.774988 0.345839 0.720091
Si Si4 0.328234 0.908677 0.703871
Si Si5 0.213337 0.900292 0.448749
Si Si6 0.779139 0.372649 0.065987
Si Si7 0.155218 0.122435 0.327469
Si Si8 0.270490 0.457473 0.208700
O O1 0.980201 0.488216 0.667778
O O2 0.516245 0.282830 0.450274
O O3 0.000000 0.500000 0.500000
O O4 0.939816 0.670007 0.424122
O O5 0.523803 0.326750 0.603933
O O6 0.477011 0.417434 0.651030
O O7 0.020627 0.219238 0.398747
O O8 0.082612 0.047981 0.631804
O O9 0.982909 0.437667 0.862996
O O10 0.581665 0.127729 0.738117
O O11 0.313445 0.916300 0.591687
O O12 0.390076 0.805273 0.852089
O O13 0.500000 0.000000 0.500000
O O14 0.121276 0.000319 0.320141
O O15 0.973066 0.378461 0.120501
O O16 0.611015 0.389586 0.895811
O O17 0.152922 0.270596 0.226940
#
# Coordination Sequence:
#
# PCOD9020409 Si02
#       8
#     2   2   2   2   2   2   2   2
#     4  12  22  37  60  91 124 154 196 253 314 362
#     4  10  22  35  60  92 124 157 204 251 309 368
#     4  11  21  35  60  90 123 160 198 253 312 358
#     4  11  20  34  59  91 120 153 198 256 307 358
#     4  11  21  37  57  90 119 153 199 253 308 358
#     4  10  23  38  58  85 130 167 210 241 294 376
#     4  11  21  37  60  87 126 159 199 249 305 365
#     4  10  23  40  56  86 126 176 201 244 301 362
#
# _framework density 20.846709000000001
#
# number of rings (size 3 to 8) (size 9 to 14) (size 15 to 20)
#    0.000    1.250    5.000    2.625    1.750    2.000 
#    0.000    3.750    0.000    3.000    0.000   13.125 
#    0.000    0.000    0.000    0.000    0.000    0.000 
#
# Total GULP energy -89188.585922 kJ/mol
# GULP energy per Si atom -5574.286620 kJ/mol
# Density = 2.079926 g / cm^3
# Si number density = 20.846709 Si / 1000 Ang^3
#
#
#
# Elastic Constant Matrix: (Units=GPa)
#
#
# Indices 1 2 3 4 5 6 
#
# 1 118.7600 30.2903 26.9884 -6.3241 -13.2458 -16.0075
# 2 30.2903 138.7583 40.5707 -27.3320 8.7568 -25.1541
# 3 26.9884 40.5707 83.4356 -26.4057 -3.8011 -13.1997
# 4 -6.3241 -27.3320 -26.4057 28.3962 -3.9925 4.3020
# 5 -13.2458 8.7568 -3.8011 -3.9925 17.3763 -9.3845
# 6 -16.0075 -25.1541 -13.1997 4.3020 -9.3845 37.7884
#
#
#
# Elastic Compliance Matrix: (Units=1/GPa)
#
#
# Indices 1 2 3 4 5 6 
#
# 1 0.011464 -0.001684 -0.000980 0.000872 0.013111 0.006550
# 2 -0.001684 0.010389 -0.001858 0.006844 -0.003205 0.003978
# 3 -0.000980 -0.001858 0.020386 0.017685 0.012217 0.006490
# 4 0.000872 0.006844 0.017685 0.059833 0.019806 0.009210
# 5 0.013111 -0.003205 0.012217 0.019806 0.091603 0.028183
# 6 0.006550 0.003978 0.006490 0.009210 0.028183 0.040103
#
#
# Mechanical properties :
#
#
# Convention : Reuss Voigt Hill
#
# Bulk Modulus (GPa) = 30.12441 59.62808 44.87624
# Shear Modulus (GPa) = 19.69378 32.91914 26.30646
#
# Velocity S-wave (km/s) = 3.07692 3.97811 3.55618
# Velocity P-wave (km/s) = 5.20625 7.05448 6.19963
#
# Compressibility (1/GPa) = 0.03319567
#
# Stress axis : x y z
#
# Youngs Moduli (GPa) = 87.22774 96.25464 49.05369
#
# Poissons Ratio (x) = 0.16214 0.04806
# Poissons Ratio (y) = 0.14693 0.09112
# Poissons Ratio (z) = 0.08546 0.17880
#
# Static dielectric constant tensor:
#      x y z
#    x 1.805780 -0.014570 -0.011430 
#    y -0.014570 1.808710 -0.000230 
#    z -0.011430 -0.000230 1.792400 
# 
# From -- ./inp_files/454938.got.cif
#   From: 2010.05.17/outbox.cif.g08.bks.cpg/sg2_228_cif.got.tgz:454938.got - 2010.06.03 11:33:40.
