data_PCOD9020322
_publ_section_title
;
Structure prediction by ZEFSAII (Michael W. Deem and Ramdas Pophale) SiO2 
 PCOD9020322
Probable space group: P -1
;
_chemical_formula_sum "Si O2"
_cell_formula_units_Z 13
_cell_length_a 11.780134
_cell_length_b 12.703700
_cell_length_c 18.127998
_cell_angle_alpha 26.703765
_cell_angle_beta 36.375388
_cell_angle_gamma 54.710618
_cell_volume 612.585155
_symmetry_space_group_name_H-M "P -1"
_symmetry_group_IT_number 2
_symmetry_cell_setting 'triclinic'
loop_
_space_group_symop_operation_xyz
x,y,z
-x,-y,-z
loop_
_atom_site_type_symbol
_atom_site_label
_atom_site_fract_x
_atom_site_fract_y
_atom_site_fract_z
Si Si1 0.160570 0.492497 0.260167
Si Si2 0.688975 0.598901 0.237413
Si Si3 0.498331 0.751674 0.114016
Si Si4 0.042025 0.682171 0.685188
Si Si5 0.633978 0.717692 0.902768
Si Si6 0.000000 0.500000 0.500000
Si Si7 0.765395 0.921411 0.135557
O O1 0.027163 0.398466 0.465398
O O2 0.013634 0.371530 0.339521
O O3 0.387899 0.485722 0.146749
O O4 0.259758 0.820952 0.001499
O O5 0.645976 0.666373 0.136780
O O6 0.860649 0.497462 0.223180
O O7 0.766180 0.863007 0.084606
O O8 0.444540 0.353013 0.548412
O O9 0.233716 0.520107 0.391343
O O10 0.587321 0.811707 0.946687
O O11 0.500000 0.000000 0.000000
O O12 0.808276 0.617402 0.883453
O O13 0.230120 0.007231 0.390582
O O14 0.000000 0.000000 0.000000
#
# Coordination Sequence:
#
# PCOD9020322 Si02
#       7
#     2   2   2   2   2   1   2
#     4  11  20  38  60  88 118 159 197 243 300 346
#     4  11  23  36  60  90 117 155 198 244 298 351
#     4  11  23  40  60  87 121 152 194 248 304 352
#     4  11  22  39  62  86 117 158 203 244 286 359
#     4  10  23  40  59  86 119 159 200 241 296 350
#     4  10  22  34  58  86 120 150 188 242 296 350
#     4  11  21  34  57  88 119 149 193 245 293 351
#
# _framework density 21.221540000000001
#
# number of rings (size 3 to 8) (size 9 to 14) (size 15 to 20)
#    0.000    1.231    3.077    4.154    4.308    0.615 
#    0.000    0.000    0.000    0.923    0.000    0.000 
#    0.000    0.000    0.000    0.000    0.000    0.000 
#
# Total GULP energy -72384.745597 kJ/mol
# GULP energy per Si atom -5568.057354 kJ/mol
# Density = 2.117324 g / cm^3
# Si number density = 21.221540 Si / 1000 Ang^3
#
#
#
# Elastic Constant Matrix: (Units=GPa)
#
#
# Indices 1 2 3 4 5 6 
#
# 1 133.0578 31.2956 21.2291 13.7405 -23.9771 -13.1091
# 2 31.2956 75.7407 14.5913 20.4989 -15.0585 -4.0751
# 3 21.2291 14.5913 54.5065 14.4208 -23.0101 -9.5178
# 4 13.7405 20.4989 14.4208 35.7806 -3.4683 -15.6972
# 5 -23.9771 -15.0585 -23.0101 -3.4683 28.2984 12.1332
# 6 -13.1091 -4.0751 -9.5178 -15.6972 12.1332 31.5845
#
#
#
# Elastic Compliance Matrix: (Units=1/GPa)
#
#
# Indices 1 2 3 4 5 6 
#
# 1 0.009385 -0.002111 0.000241 -0.001727 0.006700 0.000263
# 2 -0.002111 0.019732 0.003805 -0.015113 0.014326 -0.010198
# 3 0.000241 0.003805 0.033273 -0.016978 0.031449 -0.009901
# 4 -0.001727 -0.015113 -0.016978 0.054778 -0.029849 0.030908
# 5 0.006700 0.014326 0.031449 -0.029849 0.084837 -0.033319
# 6 0.000263 -0.010198 -0.009901 0.030908 -0.033319 0.055631
#
#
# Mechanical properties :
#
#
# Convention : Reuss Voigt Hill
#
# Bulk Modulus (GPa) = 15.09171 44.17079 29.63125
# Shear Modulus (GPa) = 18.12567 32.21197 25.16882
#
# Velocity S-wave (km/s) = 2.92570 3.90024 3.44758
# Velocity P-wave (km/s) = 4.30580 6.41419 5.46268
#
# Compressibility (1/GPa) = 0.06626155
#
# Stress axis : x y z
#
# Youngs Moduli (GPa) = 106.55077 50.68000 30.05441
#
# Poissons Ratio (x) = 0.10697 -0.00725
# Poissons Ratio (y) = 0.22489 -0.11436
# Poissons Ratio (z) = -0.02570 -0.19285
#
# Static dielectric constant tensor:
#      x y z
#    x 1.798990 -0.010090 -0.027690 
#    y -0.010090 1.782490 0.009030 
#    z -0.027690 0.009030 1.812940 
# 
# From -- ./inp_files/63145.got.cif
#   From: 2010.05.17/outbox.cif.g08.bks.cpg/sg2_32_cif.got.tgz:63145.got - 2010.06.03 11:33:40.
