data_PCOD9020690
_publ_section_title
;
Structure prediction by ZEFSAII (Michael W. Deem and Ramdas Pophale) SiO2 
 PCOD9020690
Probable space group: P -1
;
_chemical_formula_sum "Si O2"
_cell_formula_units_Z 16
_cell_length_a 17.505901
_cell_length_b 20.692322
_cell_length_c 9.555807
_cell_angle_alpha 59.318689
_cell_angle_beta 47.713183
_cell_angle_gamma 19.574396
_cell_volume 743.449622
_symmetry_space_group_name_H-M "P -1"
_symmetry_group_IT_number 2
_symmetry_cell_setting 'triclinic'
loop_
_space_group_symop_operation_xyz
x,y,z
-x,-y,-z
loop_
_atom_site_type_symbol
_atom_site_label
_atom_site_fract_x
_atom_site_fract_y
_atom_site_fract_z
Si Si1 0.811574 0.352533 0.200173
Si Si2 0.131166 0.895601 0.106461
Si Si3 0.683759 0.431031 0.954165
Si Si4 0.946193 0.696573 0.678576
Si Si5 0.720624 0.844547 0.115647
Si Si6 0.165670 0.825474 0.583001
Si Si7 0.926341 0.867969 0.426530
Si Si8 0.775142 0.646968 0.246427
O O1 0.528951 0.583823 0.375762
O O2 0.905428 0.212782 0.319988
O O3 0.686914 0.413121 0.134366
O O4 0.090516 0.217553 0.981428
O O5 0.038068 0.876323 0.299513
O O6 0.500071 0.635486 0.938642
O O7 0.970691 0.064342 0.218661
O O8 0.000000 0.000000 0.000000
O O9 0.018983 0.190865 0.739729
O O10 0.500000 0.500000 0.000000
O O11 0.079355 0.689550 0.504908
O O12 0.159789 0.478589 0.628090
O O13 0.644608 0.896746 0.731319
O O14 0.833433 0.768479 0.898466
O O15 0.810219 0.701630 0.225048
O O16 0.000000 0.000000 0.500000
O O17 0.575829 0.108969 0.638187
O O18 0.000000 0.500000 0.000000
#
# Coordination Sequence:
#
# PCOD9020690 Si02
#       8
#     2   2   2   2   2   2   2   2
#     4  11  24  41  63  91 130 173 210 273 325 377
#     4  11  24  41  65  95 130 173 218 264 320 402
#     4  10  22  43  61  86 129 168 215 265 321 384
#     4   9  19  37  58  94 123 159 204 264 314 382
#     4   9  20  36  61  87 127 158 204 259 323 374
#     4  11  24  40  60  96 132 166 219 266 325 383
#     4  10  22  36  66  91 124 167 210 259 321 378
#     4   9  19  37  58  94 122 156 211 259 316 382
#
# _framework density 21.521297000000001
#
# number of rings (size 3 to 8) (size 9 to 14) (size 15 to 20)
#    0.000    2.000    1.250    2.250    7.000    2.000 
#    0.000    2.500    0.000    1.500    0.000    0.000 
#    0.000    0.000    0.000    0.000    0.000    0.000 
#
# Total GULP energy -89147.498503 kJ/mol
# GULP energy per Si atom -5571.718656 kJ/mol
# Density = 2.147231 g / cm^3
# Si number density = 21.521297 Si / 1000 Ang^3
#
#
#
# Elastic Constant Matrix: (Units=GPa)
#
#
# Indices 1 2 3 4 5 6 
#
# 1 67.4987 37.1144 8.1422 -7.0030 -9.1861 5.9388
# 2 37.1144 129.7546 13.1219 -16.5160 -1.8886 31.8234
# 3 8.1422 13.1219 37.2016 4.4055 3.9394 3.9830
# 4 -7.0030 -16.5160 4.4055 40.1769 15.9462 -6.0964
# 5 -9.1861 -1.8886 3.9394 15.9462 41.9462 -3.6496
# 6 5.9388 31.8234 3.9830 -6.0964 -3.6496 26.9396
#
#
#
# Elastic Compliance Matrix: (Units=1/GPa)
#
#
# Indices 1 2 3 4 5 6 
#
# 1 0.018697 -0.005966 -0.002876 -0.000049 0.004458 0.003943
# 2 -0.005966 0.013466 -0.002086 0.003890 -0.003187 -0.013835
# 3 -0.002876 -0.002086 0.029216 -0.004088 -0.002125 -0.002434
# 4 -0.000049 0.003890 -0.004088 0.031686 -0.011353 0.001652
# 5 0.004458 -0.003187 -0.002125 -0.011353 0.029583 0.004534
# 6 0.003943 -0.013835 -0.002434 0.001652 0.004534 0.053942
#
#
# Mechanical properties :
#
#
# Convention : Reuss Voigt Hill
#
# Bulk Modulus (GPa) = 25.30196 39.02356 32.16276
# Shear Modulus (GPa) = 23.62723 33.55098 28.58910
#
# Velocity S-wave (km/s) = 3.31698 3.95266 3.64869
# Velocity P-wave (km/s) = 5.14316 6.24526 5.72081
#
# Compressibility (1/GPa) = 0.03952263
#
# Stress axis : x y z
#
# Youngs Moduli (GPa) = 53.48478 74.26006 34.22814
#
# Poissons Ratio (x) = 0.44301 0.09845
# Poissons Ratio (y) = 0.31907 0.07140
# Poissons Ratio (z) = 0.15384 0.15492
#
# Static dielectric constant tensor:
#      x y z
#    x 1.838750 -0.016550 -0.045220 
#    y -0.016550 1.842210 0.009810 
#    z -0.045220 0.009810 1.901800 
# 
# From -- ./inp_files/337660.got.cif
#   From: 2010.05.17/outbox.cif.g08.bks.cpg/sg2_169_cif.got.tgz:337660.got - 2010.06.03 11:33:40.
