data_PCOD9020481
_publ_section_title
;
Structure prediction by ZEFSAII (Michael W. Deem and Ramdas Pophale) SiO2 
 PCOD9020481
Probable space group: P -1
;
_chemical_formula_sum "Si O2"
_cell_formula_units_Z 16
_cell_length_a 8.440074
_cell_length_b 14.403387
_cell_length_c 15.511714
_cell_angle_alpha 35.232628
_cell_angle_beta 92.608170
_cell_angle_gamma 116.811063
_cell_volume 756.218146
_symmetry_space_group_name_H-M "P -1"
_symmetry_group_IT_number 2
_symmetry_cell_setting 'triclinic'
loop_
_space_group_symop_operation_xyz
x,y,z
-x,-y,-z
loop_
_atom_site_type_symbol
_atom_site_label
_atom_site_fract_x
_atom_site_fract_y
_atom_site_fract_z
Si Si1 0.993303 0.171379 0.409093
Si Si2 0.143559 0.675882 0.197599
Si Si3 0.752063 0.125078 0.598363
Si Si4 0.952036 0.883892 0.994270
Si Si5 0.596224 0.086658 0.800581
Si Si6 0.609092 0.978736 0.442414
Si Si7 0.546711 0.566451 0.708562
Si Si8 0.613436 0.716318 0.399610
O O1 0.832617 0.060194 0.575160
O O2 0.251490 0.390536 0.277371
O O3 0.875421 0.184944 0.318296
O O4 0.000000 0.000000 0.500000
O O5 0.226522 0.752714 0.239752
O O6 0.961602 0.403488 0.387642
O O7 0.015262 0.743988 0.115852
O O8 0.375549 0.838662 0.024165
O O9 0.711991 0.069081 0.740758
O O10 0.510369 0.028170 0.637245
O O11 0.692768 0.697428 0.099451
O O12 0.000000 0.000000 0.000000
O O13 0.128125 0.078170 0.781575
O O14 0.512984 0.203759 0.677618
O O15 0.540916 0.740005 0.620943
O O16 0.500000 0.000000 0.500000
O O17 0.604026 0.650459 0.547056
O O18 0.500000 0.500000 0.500000
#
# Coordination Sequence:
#
# PCOD9020481 Si02
#       8
#     2   2   2   2   2   2   2   2
#     4   9  22  37  63  92 116 157 211 262 312 360
#     4  10  22  36  56  91 126 160 202 247 292 372
#     4  11  19  37  67  84 118 162 203 252 312 358
#     4  11  22  36  58  88 128 166 196 239 303 369
#     4  10  22  37  57  90 127 158 208 241 298 371
#     4   9  18  37  63  88 110 156 212 259 306 355
#     4  11  20  39  60  86 126 162 199 246 312 361
#     4  11  22  35  59  91 127 164 203 245 298 373
#
# _framework density 21.157917000000001
#
# number of rings (size 3 to 8) (size 9 to 14) (size 15 to 20)
#    0.000    1.750    3.750    0.375    1.750    2.000 
#    0.000    0.000    0.000   30.000    0.000    0.000 
#    0.000    0.000    0.000    0.000    0.000    0.000 
#
# Total GULP energy -89280.902731 kJ/mol
# GULP energy per Si atom -5580.056421 kJ/mol
# Density = 2.110976 g / cm^3
# Si number density = 21.157917 Si / 1000 Ang^3
#
#
#
# Elastic Constant Matrix: (Units=GPa)
#
#
# Indices 1 2 3 4 5 6 
#
# 1 90.2866 57.8661 36.0882 -9.6707 -24.3673 6.1334
# 2 57.8661 139.1344 54.7080 -9.8916 -12.6556 -3.1522
# 3 36.0882 54.7080 93.5625 -3.2209 -14.7240 1.4826
# 4 -9.6707 -9.8916 -3.2209 21.9128 4.6981 -21.0224
# 5 -24.3673 -12.6556 -14.7240 4.6981 19.3608 -3.0851
# 6 6.1334 -3.1522 1.4826 -21.0224 -3.0851 49.7584
#
#
#
# Elastic Compliance Matrix: (Units=1/GPa)
#
#
# Indices 1 2 3 4 5 6 
#
# 1 0.021868 -0.006722 -0.001000 0.000143 0.022069 -0.001663
# 2 -0.006722 0.012137 -0.005194 0.007204 -0.005515 0.004454
# 3 -0.001000 -0.005194 0.015195 -0.003963 0.007566 -0.001864
# 4 0.000143 0.007204 -0.003963 0.085668 -0.013188 0.035933
# 5 0.022069 -0.005515 0.007566 -0.013188 0.084195 -0.003647
# 6 -0.001663 0.004454 -0.001864 0.035933 -0.003647 0.035595
#
#
# Mechanical properties :
#
#
# Convention : Reuss Voigt Hill
#
# Bulk Modulus (GPa) = 42.79556 68.92313 55.85935
# Shear Modulus (GPa) = 17.34425 29.82780 23.58603
#
# Velocity S-wave (km/s) = 2.86624 3.75876 3.34243
# Velocity P-wave (km/s) = 5.58788 7.17524 6.43072
#
# Compressibility (1/GPa) = 0.02336691
#
# Stress axis : x y z
#
# Youngs Moduli (GPa) = 45.72856 82.39412 65.81138
#
# Poissons Ratio (x) = 0.55384 0.06582
# Poissons Ratio (y) = 0.30738 0.34186
# Poissons Ratio (z) = 0.04573 0.42799
#
# Static dielectric constant tensor:
#      x y z
#    x 1.851380 0.072100 -0.007350 
#    y 0.072100 1.902850 -0.017090 
#    z -0.007350 -0.017090 1.731940 
# 
# From -- ./inp_files/207520.got.cif
#   From: 2010.05.17/outbox.cif.g08.bks.cpg/sg2_104_cif.got.tgz:207520.got - 2010.06.03 11:33:40.
