data_PCOD9020464
_publ_section_title
;
Structure prediction by ZEFSAII (Michael W. Deem and Ramdas Pophale) SiO2 
 PCOD9020464
Probable space group: P -1
;
_chemical_formula_sum "Si O2"
_cell_formula_units_Z 16
_cell_length_a 8.686752
_cell_length_b 5.666942
_cell_length_c 17.876289
_cell_angle_alpha 120.406170
_cell_angle_beta 55.944305
_cell_angle_gamma 97.969370
_cell_volume 615.754191
_symmetry_space_group_name_H-M "P -1"
_symmetry_group_IT_number 2
_symmetry_cell_setting 'triclinic'
loop_
_space_group_symop_operation_xyz
x,y,z
-x,-y,-z
loop_
_atom_site_type_symbol
_atom_site_label
_atom_site_fract_x
_atom_site_fract_y
_atom_site_fract_z
Si Si1 0.285002 0.151760 0.570895
Si Si2 0.759746 0.801043 0.244079
Si Si3 0.933726 0.697822 0.914416
Si Si4 0.312511 0.841061 0.366834
Si Si5 0.580530 0.129487 0.074167
Si Si6 0.941759 0.270958 0.267644
Si Si7 0.148648 0.312624 0.371545
Si Si8 0.573966 0.632012 0.074272
O O1 0.196574 0.113353 0.669053
O O2 0.242856 0.485561 0.628317
O O3 0.500000 0.000000 0.500000
O O4 0.219188 0.022128 0.493737
O O5 0.535914 0.851047 0.306392
O O6 0.857641 0.479589 0.154224
O O7 0.864852 0.016631 0.208241
O O8 0.809712 0.014039 0.999504
O O9 0.925041 0.634544 0.817569
O O10 0.799276 0.569959 0.987184
O O11 0.280155 0.531860 0.345368
O O12 0.226486 0.023786 0.348302
O O13 0.509920 0.964553 0.135900
O O14 0.527826 0.457704 0.128544
O O15 0.500000 0.000000 0.000000
O O16 0.057327 0.240434 0.307225
O O17 0.000000 0.500000 0.500000
O O18 0.500000 0.500000 0.000000
#
# Coordination Sequence:
#
# PCOD9020464 Si02
#       8
#     2   2   2   2   2   2   2   2
#     4   9  20  34  54  77 101 136 187 231 278 318
#     4  10  22  36  55  80 112 145 181 229 285 329
#     4   9  19  30  52  77 114 141 181 217 276 329
#     4  11  25  40  58  78 107 144 191 234 277 330
#     4   8  14  26  45  72 105 140 168 210 263 321
#     4  11  22  35  56  79 111 147 185 228 282 326
#     4  12  25  41  59  77 108 145 194 236 277 321
#     4   8  14  26  44  71 105 140 167 210 263 321
#
# _framework density 25.984393000000001
#
# number of rings (size 3 to 8) (size 9 to 14) (size 15 to 20)
#    0.750    1.500    1.250    1.875    8.750    1.000 
#    0.000    0.000    0.000    0.000    0.000    0.000 
#    0.000    6.000    0.000    0.000    0.000    0.000 
#
# Total GULP energy -89156.653978 kJ/mol
# GULP energy per Si atom -5572.290874 kJ/mol
# Density = 2.592525 g / cm^3
# Si number density = 25.984393 Si / 1000 Ang^3
#
#
#
# Elastic Constant Matrix: (Units=GPa)
#
#
# Indices 1 2 3 4 5 6 
#
# 1 63.6963 42.8553 22.5514 8.4764 7.5869 -1.1305
# 2 42.8553 196.7567 35.0289 21.5702 -5.6761 -7.4514
# 3 22.5514 35.0289 80.6313 13.5123 -0.5934 4.3407
# 4 8.4764 21.5702 13.5123 47.5196 -5.5270 -5.9794
# 5 7.5869 -5.6761 -0.5934 -5.5270 37.7998 5.3688
# 6 -1.1305 -7.4514 4.3407 -5.9794 5.3688 31.1372
#
#
#
# Elastic Compliance Matrix: (Units=1/GPa)
#
#
# Indices 1 2 3 4 5 6 
#
# 1 0.020384 -0.003698 -0.003972 -0.001285 -0.005043 0.001032
# 2 -0.003698 0.006409 -0.001545 -0.001521 0.001302 0.001098
# 3 -0.003972 -0.001545 0.014898 -0.003152 0.000812 -0.003336
# 4 -0.001285 -0.001521 -0.003152 0.023707 0.002866 0.004087
# 5 -0.005043 0.001302 0.000812 0.002866 0.028718 -0.004386
# 6 0.001032 0.001098 -0.003336 0.004087 -0.004386 0.034422
#
#
# Mechanical properties :
#
#
# Convention : Reuss Voigt Hill
#
# Bulk Modulus (GPa) = 42.99001 60.21728 51.60364
# Shear Modulus (GPa) = 32.31627 39.33455 35.82541
#
# Velocity S-wave (km/s) = 3.53041 3.89495 3.71715
# Velocity P-wave (km/s) = 5.76185 6.59183 6.19076
#
# Compressibility (1/GPa) = 0.02326122
#
# Stress axis : x y z
#
# Youngs Moduli (GPa) = 49.05826 156.03631 67.12414
#
# Poissons Ratio (x) = 0.57707 0.26660
# Poissons Ratio (y) = 0.18143 0.10368
# Poissons Ratio (z) = 0.19485 0.24101
#
# Static dielectric constant tensor:
#      x y z
#    x 2.043180 0.030560 -0.000170 
#    y 0.030560 2.216890 0.013630 
#    z -0.000170 0.013630 1.991980 
# 
# From -- ./inp_files/616272.got.cif
#   From: 2010.05.17/outbox.cif.g08.bks.cpg/sg2_309_cif.got.tgz:616272.got - 2010.06.03 11:33:40.
