data_PCOD9020573
_publ_section_title
;
Structure prediction by ZEFSAII (Michael W. Deem and Ramdas Pophale) SiO2 
 PCOD9020573
Probable space group: P -1
;
_chemical_formula_sum "Si O2"
_cell_formula_units_Z 16
_cell_length_a 14.205014
_cell_length_b 13.811162
_cell_length_c 9.496515
_cell_angle_alpha 125.675972
_cell_angle_beta 94.813665
_cell_angle_gamma 41.809339
_cell_volume 768.669697
_symmetry_space_group_name_H-M "P -1"
_symmetry_group_IT_number 2
_symmetry_cell_setting 'triclinic'
loop_
_space_group_symop_operation_xyz
x,y,z
-x,-y,-z
loop_
_atom_site_type_symbol
_atom_site_label
_atom_site_fract_x
_atom_site_fract_y
_atom_site_fract_z
Si Si1 0.239020 0.483957 0.813262
Si Si2 0.767789 0.184913 0.217532
Si Si3 0.358548 0.932595 0.484989
Si Si4 0.155791 0.727955 0.271858
Si Si5 0.910012 0.661801 0.992053
Si Si6 0.984663 0.341281 0.616118
Si Si7 0.560641 0.408772 0.672286
Si Si8 0.911805 0.283869 0.279917
O O1 0.445877 0.218755 0.656618
O O2 0.074261 0.568131 0.879447
O O3 0.250900 0.503595 0.666396
O O4 0.183954 0.653873 0.052423
O O5 0.658259 0.274519 0.420744
O O6 0.643600 0.336649 0.190650
O O7 0.865034 0.206358 0.274459
O O8 0.916497 0.924904 0.978792
O O9 0.410130 0.737513 0.350036
O O10 0.198487 0.120495 0.506969
O O11 0.265911 0.080120 0.744358
O O12 0.340123 0.587159 0.238745
O O13 0.098556 0.670938 0.301654
O O14 0.000000 0.000000 0.500000
O O15 0.880525 0.580950 0.819162
O O16 0.000000 0.500000 0.000000
O O17 0.961934 0.319321 0.437639
#
# Coordination Sequence:
#
# PCOD9020573 Si02
#       8
#     2   2   2   2   2   2   2   2
#     4  12  25  42  69  96 126 170 220 263 316 380
#     4  10  22  36  61  89 139 168 198 261 325 387
#     4  11  23  41  69  95 124 170 221 265 312 375
#     4  12  22  38  65  94 130 168 208 260 317 381
#     4  10  22  46  66  91 128 169 213 272 320 364
#     4  11  24  42  65  93 129 168 214 263 321 376
#     4  11  21  38  60  96 129 169 211 255 322 386
#     4  11  23  40  60  95 128 169 206 261 325 379
#
# _framework density 20.815183000000001
#
# number of rings (size 3 to 8) (size 9 to 14) (size 15 to 20)
#    0.000    1.000    6.250    1.500    3.500    3.000 
#    0.000    0.625    0.000    0.000    0.000    0.000 
#    0.000    0.000    0.000    0.000    0.000    0.000 
#
# Total GULP energy -89338.235674 kJ/mol
# GULP energy per Si atom -5583.639730 kJ/mol
# Density = 2.076781 g / cm^3
# Si number density = 20.815183 Si / 1000 Ang^3
#
#
#
# Elastic Constant Matrix: (Units=GPa)
#
#
# Indices 1 2 3 4 5 6 
#
# 1 86.7916 14.7040 47.3901 7.2867 16.5564 -7.8373
# 2 14.7040 76.0284 28.0507 -7.8069 15.9042 -16.1888
# 3 47.3901 28.0507 73.9752 -3.1637 14.8551 -20.8741
# 4 7.2867 -7.8069 -3.1637 31.5178 -8.6059 0.4924
# 5 16.5564 15.9042 14.8551 -8.6059 33.5696 -11.0184
# 6 -7.8373 -16.1888 -20.8741 0.4924 -11.0184 30.1456
#
#
#
# Elastic Compliance Matrix: (Units=1/GPa)
#
#
# Indices 1 2 3 4 5 6 
#
# 1 0.020956 0.000677 -0.014291 -0.008415 -0.008846 -0.007180
# 2 0.000677 0.016780 -0.004606 0.002322 -0.004198 0.004426
# 3 -0.014291 -0.004606 0.028091 0.005551 0.002893 0.014230
# 4 -0.008415 0.002322 0.005551 0.038149 0.012638 0.006899
# 5 -0.008846 -0.004198 0.002893 0.012638 0.042266 0.012691
# 6 -0.007180 0.004426 0.014230 0.006899 0.012691 0.048062
#
#
# Mechanical properties :
#
#
# Convention : Reuss Voigt Hill
#
# Bulk Modulus (GPa) = 34.02646 46.34275 40.18460
# Shear Modulus (GPa) = 20.78661 28.82329 24.80495
#
# Velocity S-wave (km/s) = 3.16353 3.72523 3.45581
# Velocity P-wave (km/s) = 5.45219 6.38869 5.93893
#
# Compressibility (1/GPa) = 0.02938889
#
# Stress axis : x y z
#
# Youngs Moduli (GPa) = 47.71897 59.59383 35.59798
#
# Poissons Ratio (x) = -0.04037 0.50874
# Poissons Ratio (y) = -0.03233 0.16395
# Poissons Ratio (z) = 0.68196 0.27447
#
# Static dielectric constant tensor:
#      x y z
#    x 1.361350 -0.064180 -0.299650 
#    y -0.064180 1.752040 -0.031770 
#    z -0.299650 -0.031770 1.597550 
# 
# From -- ./inp_files/315931.got.cif
#   From: 2010.05.17/outbox.cif.g08.bks.cpg/sg2_158_cif.got.tgz:315931.got - 2010.06.03 11:33:40.
