data_PCOD9020185
_publ_section_title
;
Structure prediction by ZEFSAII (Michael W. Deem and Ramdas Pophale) SiO2 
 PCOD9020185
Probable space group: P -1
;
_chemical_formula_sum "Si O2"
_cell_formula_units_Z 14
_cell_length_a 7.561778
_cell_length_b 15.685361
_cell_length_c 14.491570
_cell_angle_alpha 31.792020
_cell_angle_beta 56.243160
_cell_angle_gamma 78.109109
_cell_volume 597.814899
_symmetry_space_group_name_H-M "P -1"
_symmetry_group_IT_number 2
_symmetry_cell_setting 'triclinic'
loop_
_space_group_symop_operation_xyz
x,y,z
-x,-y,-z
loop_
_atom_site_type_symbol
_atom_site_label
_atom_site_fract_x
_atom_site_fract_y
_atom_site_fract_z
Si Si1 0.750959 0.054847 0.434728
Si Si2 0.639274 0.678511 0.721020
Si Si3 0.961120 0.916285 0.247702
Si Si4 0.260639 0.499959 0.823680
Si Si5 0.472404 0.381133 0.709806
Si Si6 0.695257 0.161547 0.873238
Si Si7 0.552915 0.096582 0.639807
O O1 0.669619 0.041048 0.576251
O O2 0.500000 0.000000 0.500000
O O3 0.771658 0.880792 0.557319
O O4 0.999337 0.277841 0.127202
O O5 0.872490 0.758238 0.503719
O O6 0.396042 0.601857 0.789827
O O7 0.500000 0.500000 0.000000
O O8 0.714259 0.922009 0.291462
O O9 0.049734 0.838381 0.211060
O O10 0.203390 0.147587 0.991747
O O11 0.435069 0.471771 0.728705
O O12 0.230843 0.658848 0.634818
O O13 0.500000 0.500000 0.500000
O O14 0.710059 0.359512 0.669518
O O15 0.500000 0.000000 0.000000
O O16 0.540794 0.055924 0.109353
#
# Coordination Sequence:
#
# PCOD9020185 Si02
#       7
#     2   2   2   2   2   2   2
#     4  12  23  46  67 104 140 183 233 282 351 418
#     4  11  26  44  67 104 141 184 232 288 342 415
#     4  10  21  47  64  96 148 175 230 293 338 412
#     4  11  23  42  71  98 140 185 229 286 356 406
#     4  11  23  44  68 102 137 183 231 292 348 412
#     4  10  23  41  68 100 134 180 234 284 348 413
#     4  11  23  42  71 101 136 188 227 287 351 409
#
# _framework density 23.418620000000001
#
# number of rings (size 3 to 8) (size 9 to 14) (size 15 to 20)
#    0.000    1.143    4.286    2.571    2.000    4.000 
#    5.143    3.571    0.000    0.000    0.000    0.000 
#    0.000    0.000    0.000    0.000    0.000    0.000 
#
# Total GULP energy -78186.692535 kJ/mol
# GULP energy per Si atom -5584.763752 kJ/mol
# Density = 2.336532 g / cm^3
# Si number density = 23.418620 Si / 1000 Ang^3
#
#
#
# Elastic Constant Matrix: (Units=GPa)
#
#
# Indices 1 2 3 4 5 6 
#
# 1 62.9343 14.1053 36.1753 4.1191 9.3758 1.1882
# 2 14.1053 165.8682 43.0352 13.5459 13.4478 5.7437
# 3 36.1753 43.0352 167.0513 15.1492 11.2710 11.8608
# 4 4.1191 13.5459 15.1492 44.2323 8.0416 0.2049
# 5 9.3758 13.4478 11.2710 8.0416 47.2981 2.6498
# 6 1.1882 5.7437 11.8608 0.2049 2.6498 9.8484
#
#
#
# Elastic Compliance Matrix: (Units=1/GPa)
#
#
# Indices 1 2 3 4 5 6 
#
# 1 0.018635 -0.000462 -0.004005 0.000281 -0.002858 0.003608
# 2 -0.000462 0.006672 -0.001280 -0.001341 -0.001163 -0.001953
# 3 -0.004005 -0.001280 0.007944 -0.001928 0.000058 -0.008314
# 4 0.000281 -0.001341 -0.001928 0.024280 -0.003540 0.003518
# 5 -0.002858 -0.001163 0.000058 -0.003540 0.022916 -0.005139
# 6 0.003608 -0.001953 -0.008314 0.003518 -0.005139 0.113565
#
#
# Mechanical properties :
#
#
# Convention : Reuss Voigt Hill
#
# Bulk Modulus (GPa) = 45.96217 64.72062 55.34140
# Shear Modulus (GPa) = 23.50092 40.44497 31.97294
#
# Velocity S-wave (km/s) = 3.17127 4.16028 3.69898
# Velocity P-wave (km/s) = 5.75136 7.12556 6.47502
#
# Compressibility (1/GPa) = 0.02175702
#
# Stress axis : x y z
#
# Youngs Moduli (GPa) = 53.66367 149.88694 125.87385
#
# Poissons Ratio (x) = 0.06919 0.50415
# Poissons Ratio (y) = 0.02477 0.16112
# Poissons Ratio (z) = 0.21493 0.19186
#
# Static dielectric constant tensor:
#      x y z
#    x 2.007090 -0.068220 -0.036050 
#    y -0.068220 1.954320 -0.007580 
#    z -0.036050 -0.007580 1.930290 
# 
# From -- ./inp_files/504900.got.cif
#   From: 2010.05.17/outbox.cif.g08.bks.cpg/sg2_253_cif.got.tgz:504900.got - 2010.06.03 11:33:40.
