data_PCOD9020205
_publ_section_title
;
Structure prediction by ZEFSAII (Michael W. Deem and Ramdas Pophale) SiO2 
 PCOD9020205
Probable space group: P -1
;
_chemical_formula_sum "Si O2"
_cell_formula_units_Z 14
_cell_length_a 15.846479
_cell_length_b 7.128343
_cell_length_c 28.512279
_cell_angle_alpha 137.306707
_cell_angle_beta 161.895366
_cell_angle_gamma 41.017758
_cell_volume 654.332162
_symmetry_space_group_name_H-M "P -1"
_symmetry_group_IT_number 2
_symmetry_cell_setting 'triclinic'
loop_
_space_group_symop_operation_xyz
x,y,z
-x,-y,-z
loop_
_atom_site_type_symbol
_atom_site_label
_atom_site_fract_x
_atom_site_fract_y
_atom_site_fract_z
Si Si1 0.863962 0.820938 0.109192
Si Si2 0.125900 0.455629 0.651205
Si Si3 0.770785 0.922224 0.176250
Si Si4 0.266272 0.733258 0.104341
Si Si5 0.369094 0.211194 0.608774
Si Si6 0.659553 0.890789 0.611790
Si Si7 0.904390 0.263762 0.595162
O O1 0.933684 0.730848 0.184225
O O2 0.827682 0.550663 0.011369
O O3 0.067925 0.986516 0.224322
O O4 0.559466 0.043874 0.994198
O O5 0.442890 0.278290 0.772583
O O6 0.886584 0.524021 0.496222
O O7 0.007137 0.334589 0.611768
O O8 0.163767 0.771228 0.740290
O O9 0.851599 0.839584 0.256880
O O10 0.384100 0.716882 0.216971
O O11 0.000000 0.000000 0.000000
O O12 0.488655 0.032591 0.592591
O O13 0.251360 0.986235 0.535376
O O14 0.723056 0.551288 0.577397
O O15 0.500000 0.000000 0.500000
#
# Coordination Sequence:
#
# PCOD9020205 Si02
#       7
#     2   2   2   2   2   2   2
#     4  10  22  43  64  94 140 170 215 274 332 390
#     4  10  21  47  70  97 131 172 226 274 327 387
#     4   9  20  41  69  99 128 169 217 283 331 377
#     4  11  27  43  66  98 137 182 218 262 329 406
#     4  11  25  43  66  98 138 178 215 270 329 397
#     4  12  23  40  69 100 130 167 222 282 330 377
#     4  11  22  40  73 100 124 170 227 276 327 385
#
# _framework density 21.395859999999999
#
# number of rings (size 3 to 8) (size 9 to 14) (size 15 to 20)
#    0.000    1.429    2.857    1.714    4.000    2.857 
#    0.000    2.857    0.000    0.000    0.000    0.000 
#    0.000    0.000    0.000    0.000    0.000    0.000 
#
# Total GULP energy -78153.891334 kJ/mol
# GULP energy per Si atom -5582.420810 kJ/mol
# Density = 2.134716 g / cm^3
# Si number density = 21.395860 Si / 1000 Ang^3
#
#
#
# Elastic Constant Matrix: (Units=GPa)
#
#
# Indices 1 2 3 4 5 6 
#
# 1 117.4763 53.5841 34.2361 3.9243 -6.7087 3.6224
# 2 53.5841 82.6644 45.6029 -8.9536 0.1002 0.9770
# 3 34.2361 45.6029 106.6810 -10.6070 -14.2041 -0.3131
# 4 3.9243 -8.9536 -10.6070 14.1418 -4.8826 0.2016
# 5 -6.7087 0.1002 -14.2041 -4.8826 44.9193 1.4167
# 6 3.6224 0.9770 -0.3131 0.2016 1.4167 39.8464
#
#
#
# Elastic Compliance Matrix: (Units=1/GPa)
#
#
# Indices 1 2 3 4 5 6 
#
# 1 0.013457 -0.009052 -0.001416 -0.010344 0.000489 -0.000978
# 2 -0.009052 0.022417 -0.005776 0.011690 -0.001965 0.000239
# 3 -0.001416 -0.005776 0.013870 0.008915 0.005152 0.000151
# 4 -0.010344 0.011690 0.008915 0.091541 0.011203 -0.000138
# 5 0.000489 -0.001965 0.005152 0.011203 0.025215 -0.000909
# 6 -0.000978 0.000239 0.000151 -0.000138 -0.000909 0.025214
#
#
# Mechanical properties :
#
#
# Convention : Reuss Voigt Hill
#
# Bulk Modulus (GPa) = 57.94796 63.74088 60.84442
# Shear Modulus (GPa) = 21.74354 31.34140 26.54247
#
# Velocity S-wave (km/s) = 3.19133 3.83147 3.52595
# Velocity P-wave (km/s) = 6.38137 7.03061 6.71384
#
# Compressibility (1/GPa) = 0.01725686
#
# Stress axis : x y z
#
# Youngs Moduli (GPa) = 74.30958 44.60940 72.09764
#
# Poissons Ratio (x) = 0.40379 0.10207
# Poissons Ratio (y) = 0.67262 0.41646
# Poissons Ratio (z) = 0.10520 0.25768
#
# Static dielectric constant tensor:
#      x y z
#    x 2.453920 0.832400 -0.216890 
#    y 0.832400 2.938750 -0.326780 
#    z -0.216890 -0.326780 1.901390 
# 
# From -- ./inp_files/427658.got.cif
#   From: 2010.05.17/outbox.cif.g08.bks.cpg/sg2_214_cif.got.tgz:427658.got - 2010.06.03 11:33:40.
