data_PCOD9020630
_publ_section_title
;
Structure prediction by ZEFSAII (Michael W. Deem and Ramdas Pophale) SiO2 
 PCOD9020630
Probable space group: P -1
;
_chemical_formula_sum "Si O2"
_cell_formula_units_Z 16
_cell_length_a 10.804392
_cell_length_b 10.952968
_cell_length_c 17.693828
_cell_angle_alpha 38.750861
_cell_angle_beta 147.470919
_cell_angle_gamma 121.449014
_cell_volume 644.869308
_symmetry_space_group_name_H-M "P -1"
_symmetry_group_IT_number 2
_symmetry_cell_setting 'triclinic'
loop_
_space_group_symop_operation_xyz
x,y,z
-x,-y,-z
loop_
_atom_site_type_symbol
_atom_site_label
_atom_site_fract_x
_atom_site_fract_y
_atom_site_fract_z
Si Si1 0.616574 0.129032 0.052878
Si Si2 0.949771 0.634234 0.736257
Si Si3 0.945176 0.068894 0.115686
Si Si4 0.742831 0.300069 0.749243
Si Si5 0.047472 0.223290 0.493555
Si Si6 0.513044 0.624312 0.870254
Si Si7 0.588547 0.034518 0.680404
Si Si8 0.932247 0.611900 0.330604
O O1 0.367544 0.311640 0.869527
O O2 0.811718 0.165310 0.079138
O O3 0.762517 0.980282 0.268318
O O4 0.500000 0.000000 0.000000
O O5 0.930482 0.418238 0.799978
O O6 0.685248 0.778424 0.570543
O O7 0.947532 0.778512 0.592867
O O8 0.232534 0.540817 0.960090
O O9 0.221117 0.061564 0.245068
O O10 0.984899 0.822076 0.253504
O O11 0.758729 0.194659 0.890781
O O12 0.500000 0.500000 0.500000
O O13 0.743427 0.125609 0.772520
O O14 0.768491 0.278225 0.354704
O O15 0.091066 0.432482 0.439962
O O16 0.549706 0.843329 0.794610
O O17 0.500000 0.500000 0.000000
O O18 0.000000 0.500000 0.500000
#
# Coordination Sequence:
#
# PCOD9020630 Si02
#       8
#     2   2   2   2   2   2   2   2
#     4  10  23  40  64  95 122 168 210 265 321 374
#     4  10  23  40  65  97 130 166 211 266 325 386
#     4  11  22  39  65  95 133 161 210 268 327 387
#     4  10  22  36  63  99 128 161 205 265 332 378
#     4  11  23  42  63  92 130 165 218 264 313 388
#     4  10  24  41  61  90 133 173 220 259 310 392
#     4  11  23  39  62  96 129 169 207 260 332 375
#     4  11  23  40  65  95 128 166 215 263 329 372
#
# _framework density 24.811228
#
# number of rings (size 3 to 8) (size 9 to 14) (size 15 to 20)
#    0.000    1.500    3.750    1.125   10.500    5.000 
#    0.000    0.625    0.000    1.500    0.000    0.000 
#    0.000    0.000    0.000    0.000    0.000    0.000 
#
# Total GULP energy -89365.035606 kJ/mol
# GULP energy per Si atom -5585.314725 kJ/mol
# Density = 2.475476 g / cm^3
# Si number density = 24.811228 Si / 1000 Ang^3
#
#
#
# Elastic Constant Matrix: (Units=GPa)
#
#
# Indices 1 2 3 4 5 6 
#
# 1 88.0158 24.1738 28.3207 -13.3928 10.6191 12.4888
# 2 24.1738 85.1112 26.5860 -15.9432 -0.9699 16.9996
# 3 28.3207 26.5860 183.0014 -6.5975 10.2631 13.9326
# 4 -13.3928 -15.9432 -6.5975 39.4262 13.2373 1.2856
# 5 10.6191 -0.9699 10.2631 13.2373 45.3439 -2.7677
# 6 12.4888 16.9996 13.9326 1.2856 -2.7677 32.8875
#
#
#
# Elastic Compliance Matrix: (Units=1/GPa)
#
#
# Indices 1 2 3 4 5 6 
#
# 1 0.014392 -0.001747 -0.001109 0.005886 -0.005166 -0.004757
# 2 -0.001747 0.015091 -0.001108 0.005948 -0.001181 -0.006999
# 3 -0.001109 -0.001108 0.006035 0.000726 -0.001446 -0.001713
# 4 0.005886 0.005948 0.000726 0.034133 -0.011865 -0.007950
# 5 -0.005166 -0.001181 -0.001446 -0.011865 0.027393 0.005954
# 6 -0.004757 -0.006999 -0.001713 -0.007950 0.005954 0.037368
#
#
# Mechanical properties :
#
#
# Convention : Reuss Voigt Hill
#
# Bulk Modulus (GPa) = 36.24846 57.14327 46.69586
# Shear Modulus (GPa) = 32.99502 42.00138 37.49820
#
# Velocity S-wave (km/s) = 3.65066 4.11887 3.89181
# Velocity P-wave (km/s) = 5.69308 6.76028 6.24950
#
# Compressibility (1/GPa) = 0.02758738
#
# Stress axis : x y z
#
# Youngs Moduli (GPa) = 69.48137 66.26673 165.70491
#
# Poissons Ratio (x) = 0.11579 0.18383
# Poissons Ratio (y) = 0.12141 0.18366
# Poissons Ratio (z) = 0.07708 0.07345
#
# Static dielectric constant tensor:
#      x y z
#    x 2.072650 -0.026230 0.071270 
#    y -0.026230 2.178040 0.034210 
#    z 0.071270 0.034210 1.938630 
# 
# From -- ./inp_files/595626.got.cif
#   From: 2010.05.17/outbox.cif.g08.bks.cpg/sg2_298_cif.got.tgz:595626.got - 2010.06.03 11:33:40.
