data_PCOD9020440
_publ_section_title
;
Structure prediction by ZEFSAII (Michael W. Deem and Ramdas Pophale) SiO2 
 PCOD9020440
Probable space group: P -1
;
_chemical_formula_sum "Si O2"
_cell_formula_units_Z 16
_cell_length_a 7.962882
_cell_length_b 17.353872
_cell_length_c 9.142006
_cell_angle_alpha 31.153544
_cell_angle_beta 110.790511
_cell_angle_gamma 110.961155
_cell_volume 607.177046
_symmetry_space_group_name_H-M "P -1"
_symmetry_group_IT_number 2
_symmetry_cell_setting 'triclinic'
loop_
_space_group_symop_operation_xyz
x,y,z
-x,-y,-z
loop_
_atom_site_type_symbol
_atom_site_label
_atom_site_fract_x
_atom_site_fract_y
_atom_site_fract_z
Si Si1 0.077593 0.662978 0.416034
Si Si2 0.693175 0.027680 0.937565
Si Si3 0.717963 0.270768 0.157363
Si Si4 0.429384 0.167127 0.037664
Si Si5 0.706374 0.610234 0.556784
Si Si6 0.195210 0.514342 0.946724
Si Si7 0.924577 0.887320 0.462330
Si Si8 0.880911 0.787161 0.916940
O O1 0.161987 0.526551 0.745371
O O2 0.895706 0.674900 0.436111
O O3 0.212365 0.809621 0.256961
O O4 0.012322 0.671132 0.214686
O O5 0.660032 0.979520 0.836649
O O6 0.821441 0.916068 0.235206
O O7 0.500000 0.000000 0.000000
O O8 0.607110 0.151802 0.210634
O O9 0.698475 0.431570 0.809927
O O10 0.909933 0.211293 0.332793
O O11 0.687206 0.331825 0.212040
O O12 0.444227 0.296303 0.708052
O O13 0.298937 0.226072 0.022098
O O14 0.708639 0.609100 0.735993
O O15 0.000000 0.500000 0.000000
O O16 0.822683 0.808180 0.698527
O O17 0.005642 0.054298 0.264029
#
# Coordination Sequence:
#
# PCOD9020440 Si02
#       8
#     2   2   2   2   2   2   2   2
#     4   9  18  38  62  88 121 162 213 249 315 369
#     4  11  27  41  64  92 134 166 210 271 322 373
#     4  10  22  35  68  93 128 168 204 261 316 375
#     4  11  23  39  66  96 130 166 214 260 322 375
#     4   8  19  37  63  95 124 163 211 263 305 382
#     4   8  17  33  61  91 124 154 213 254 304 364
#     4  10  23  42  61  88 133 170 210 258 323 370
#     4   9  22  38  62  89 131 167 213 259 314 385
#
# _framework density 26.351457
#
# number of rings (size 3 to 8) (size 9 to 14) (size 15 to 20)
#    0.750    1.750    0.000    0.375   12.250    4.000 
#    0.000    2.500    2.750    1.500    0.000    0.000 
#    0.000    0.000    0.000    0.000    0.000    0.000 
#
# Total GULP energy -89208.518307 kJ/mol
# GULP energy per Si atom -5575.532394 kJ/mol
# Density = 2.629148 g / cm^3
# Si number density = 26.351457 Si / 1000 Ang^3
#
#
#
# Elastic Constant Matrix: (Units=GPa)
#
#
# Indices 1 2 3 4 5 6 
#
# 1 26.3729 11.9964 8.2687 14.1353 7.6640 13.9069
# 2 11.9964 149.8857 34.6017 32.8385 -3.1739 26.1965
# 3 8.2687 34.6017 119.5783 6.5211 3.0464 3.9001
# 4 14.1353 32.8385 6.5211 46.7359 -0.5020 4.4377
# 5 7.6640 -3.1739 3.0464 -0.5020 20.4769 8.0809
# 6 13.9069 26.1965 3.9001 4.4377 8.0809 22.7183
#
#
#
# Elastic Compliance Matrix: (Units=1/GPa)
#
#
# Indices 1 2 3 4 5 6 
#
# 1 0.075797 0.008360 -0.004603 -0.023712 -0.008137 -0.047722
# 2 0.008360 0.012141 -0.003157 -0.008723 0.006592 -0.019216
# 3 -0.004603 -0.003157 0.009381 0.001776 -0.002204 0.005284
# 4 -0.023712 -0.008723 0.001776 0.032807 0.001180 0.017441
# 5 -0.008137 0.006592 -0.002204 0.001180 0.063091 -0.024914
# 6 -0.047722 -0.019216 0.005284 0.017441 -0.024914 0.099936
#
#
# Mechanical properties :
#
#
# Convention : Reuss Voigt Hill
#
# Bulk Modulus (GPa) = 10.15037 45.06339 27.60688
# Shear Modulus (GPa) = 15.39442 34.05089 24.72266
#
# Velocity S-wave (km/s) = 2.41964 3.59859 3.06631
# Velocity P-wave (km/s) = 3.41562 5.86554 4.79953
#
# Compressibility (1/GPa) = 0.09851858
#
# Stress axis : x y z
#
# Youngs Moduli (GPa) = 13.19311 82.36872 106.59378
#
# Poissons Ratio (x) = -0.68859 0.49070
# Poissons Ratio (y) = -0.11029 0.33648
# Poissons Ratio (z) = 0.06073 0.26001
#
# Static dielectric constant tensor:
#      x y z
#    x 2.094320 -0.007740 0.002230 
#    y -0.007740 2.327440 -0.025050 
#    z 0.002230 -0.025050 2.130650 
# 
# From -- ./inp_files/276145.got.cif
#   From: 2010.05.17/outbox.cif.g08.bks.cpg/sg2_139_cif.got.tgz:276145.got - 2010.06.03 11:33:40.
