data_PCOD9020477
_publ_section_title
;
Structure prediction by ZEFSAII (Michael W. Deem and Ramdas Pophale) SiO2 
 PCOD9020477
Probable space group: P -1
;
_chemical_formula_sum "Si O2"
_cell_formula_units_Z 16
_cell_length_a 8.323064
_cell_length_b 17.535993
_cell_length_c 7.311127
_cell_angle_alpha 133.088772
_cell_angle_beta 66.566826
_cell_angle_gamma 98.561468
_cell_volume 702.904904
_symmetry_space_group_name_H-M "P -1"
_symmetry_group_IT_number 2
_symmetry_cell_setting 'triclinic'
loop_
_space_group_symop_operation_xyz
x,y,z
-x,-y,-z
loop_
_atom_site_type_symbol
_atom_site_label
_atom_site_fract_x
_atom_site_fract_y
_atom_site_fract_z
Si Si1 0.637966 0.223807 0.726215
Si Si2 0.110774 0.393596 0.019154
Si Si3 0.820902 0.085796 0.738461
Si Si4 0.458729 0.385131 0.380802
Si Si5 0.046980 0.374902 0.606206
Si Si6 0.520496 0.375744 0.747625
Si Si7 0.606283 0.928004 0.490119
Si Si8 0.033664 0.225768 0.061233
O O1 0.778684 0.147307 0.663943
O O2 0.668969 0.311004 0.707064
O O3 0.529754 0.150030 0.534457
O O4 0.521535 0.297057 0.053962
O O5 0.023793 0.370856 0.827587
O O6 0.322997 0.353542 0.849765
O O7 0.030072 0.330131 0.108194
O O8 0.075217 0.521247 0.255701
O O9 0.670058 0.015632 0.735383
O O10 0.000000 0.000000 0.500000
O O11 0.869211 0.168835 0.997847
O O12 0.500000 0.500000 0.500000
O O13 0.248008 0.395705 0.520074
O O14 0.547995 0.354475 0.486352
O O15 0.040987 0.266019 0.328567
O O16 0.500000 0.500000 0.000000
O O17 0.500000 0.000000 0.500000
O O18 0.784957 0.854352 0.209205
#
# Coordination Sequence:
#
# PCOD9020477 Si02
#       8
#     2   2   2   2   2   2   2   2
#     4  11  20  39  64  86 125 167 195 257 311 355
#     4  10  22  36  56  89 126 166 196 242 298 371
#     4   9  22  37  64  94 112 159 218 262 306 367
#     4  11  22  35  59  93 125 158 210 244 291 381
#     4  10  22  37  57  88 129 164 199 240 300 372
#     4  11  22  36  58  90 128 162 202 241 300 370
#     4   9  18  37  62  86 114 154 207 256 311 352
#     4  11  19  37  63  84 119 159 202 246 313 353
#
# _framework density 22.762682000000002
#
# number of rings (size 3 to 8) (size 9 to 14) (size 15 to 20)
#    0.000    1.750    3.750    0.375    1.750    2.000 
#    0.000    0.000    0.000   30.000    0.000    0.000 
#    0.000    0.000    0.000    0.000    0.000    0.000 
#
# Total GULP energy -89361.833038 kJ/mol
# GULP energy per Si atom -5585.114565 kJ/mol
# Density = 2.271087 g / cm^3
# Si number density = 22.762682 Si / 1000 Ang^3
#
#
#
# Elastic Constant Matrix: (Units=GPa)
#
#
# Indices 1 2 3 4 5 6 
#
# 1 88.1858 18.2945 31.0410 13.9159 11.5587 -9.7229
# 2 18.2945 67.0321 28.7208 13.9792 -1.4690 -20.8244
# 3 31.0410 28.7208 59.1612 7.5268 17.8099 -5.4467
# 4 13.9159 13.9792 7.5268 36.1531 -2.1958 -2.8694
# 5 11.5587 -1.4690 17.8099 -2.1958 53.4090 18.9428
# 6 -9.7229 -20.8244 -5.4467 -2.8694 18.9428 34.0485
#
#
#
# Elastic Compliance Matrix: (Units=1/GPa)
#
#
# Indices 1 2 3 4 5 6 
#
# 1 0.015123 0.001248 -0.006478 -0.004718 -0.003197 0.005426
# 2 0.001248 0.024641 -0.009970 -0.006907 -0.001559 0.014118
# 3 -0.006478 -0.009970 0.027839 0.000134 -0.008614 0.001310
# 4 -0.004718 -0.006907 0.000134 0.031957 0.003879 -0.005016
# 5 -0.003197 -0.001559 -0.008614 0.003879 0.029201 -0.019163
# 6 0.005426 0.014118 0.001310 -0.005016 -0.019163 0.050002
#
#
# Mechanical properties :
#
#
# Convention : Reuss Voigt Hill
#
# Bulk Modulus (GPa) = 26.87929 41.16573 34.02251
# Shear Modulus (GPa) = 22.56677 33.81032 28.18855
#
# Velocity S-wave (km/s) = 3.15206 3.85819 3.52286
# Velocity P-wave (km/s) = 5.00813 6.16210 5.61484
#
# Compressibility (1/GPa) = 0.03720337
#
# Stress axis : x y z
#
# Youngs Moduli (GPa) = 66.12419 40.58229 35.92087
#
# Poissons Ratio (x) = -0.05065 0.23271
# Poissons Ratio (y) = -0.08253 0.35812
# Poissons Ratio (z) = 0.42838 0.40459
#
# Static dielectric constant tensor:
#      x y z
#    x 1.908500 0.041280 0.031140 
#    y 0.041280 1.857130 0.030180 
#    z 0.031140 0.030180 1.827940 
# 
# From -- ./inp_files/218819.got.cif
#   From: 2010.05.17/outbox.cif.g08.bks.cpg/sg2_110_cif.got.tgz:218819.got - 2010.06.03 11:33:40.
