data_PCOD9020902
_publ_section_title
;
Structure prediction by ZEFSAII (Michael W. Deem and Ramdas Pophale) SiO2 
 PCOD9020902
Probable space group: P -1
;
_chemical_formula_sum "Si O2"
_cell_formula_units_Z 16
_cell_length_a 11.063626
_cell_length_b 8.030149
_cell_length_c 11.746856
_cell_angle_alpha 67.396756
_cell_angle_beta 107.195001
_cell_angle_gamma 128.576603
_cell_volume 750.940510
_symmetry_space_group_name_H-M "P -1"
_symmetry_group_IT_number 2
_symmetry_cell_setting 'triclinic'
loop_
_space_group_symop_operation_xyz
x,y,z
-x,-y,-z
loop_
_atom_site_type_symbol
_atom_site_label
_atom_site_fract_x
_atom_site_fract_y
_atom_site_fract_z
Si Si1 0.591727 0.602774 0.681871
Si Si2 0.120870 0.900725 0.713338
Si Si3 0.816001 0.474442 0.837517
Si Si4 0.719570 0.675331 0.466395
Si Si5 0.655701 0.164450 0.073136
Si Si6 0.304797 0.763066 0.356554
Si Si7 0.573146 0.232981 0.264694
Si Si8 0.845487 0.299062 0.452587
O O1 0.675983 0.502640 0.786816
O O2 0.701236 0.749483 0.566883
O O3 0.435867 0.414033 0.623497
O O4 0.535885 0.702055 0.732123
O O5 0.268790 0.944551 0.812148
O O6 0.115407 0.797010 0.616490
O O7 0.970208 0.714447 0.789867
O O8 0.144177 0.127414 0.623298
O O9 0.787201 0.309838 0.768780
O O10 0.791497 0.352370 0.980616
O O11 0.718087 0.461602 0.549413
O O12 0.610842 0.267771 0.133133
O O13 0.500000 0.000000 0.000000
O O14 0.247185 0.838092 0.424620
O O15 0.480298 0.968532 0.329177
O O16 0.732314 0.352621 0.347384
O O17 0.000000 0.500000 0.500000
#
# Coordination Sequence:
#
# PCOD9020902 Si02
#       8
#     2   2   2   2   2   2   2   2
#     4  10  22  37  64  92 129 160 207 259 312 382
#     4  11  24  41  64  91 130 167 202 263 322 367
#     4  11  23  42  61  92 123 169 210 254 314 368
#     4  10  22  37  61  95 129 165 201 255 315 385
#     4  11  23  42  70  88 117 167 224 259 303 369
#     4  11  21  39  63  92 130 159 206 256 313 382
#     4  11  23  40  64  96 124 168 207 262 311 360
#     4  11  22  37  60  95 128 159 201 258 318 379
#
# _framework density 21.306612999999999
#
# number of rings (size 3 to 8) (size 9 to 14) (size 15 to 20)
#    0.000    1.250    3.750    2.250    8.750    2.500 
#    2.250    0.000    0.000    1.500    0.000    0.000 
#    0.000    0.000    0.000    0.000    0.000    0.000 
#
# Total GULP energy -89284.037406 kJ/mol
# GULP energy per Si atom -5580.252338 kJ/mol
# Density = 2.125812 g / cm^3
# Si number density = 21.306613 Si / 1000 Ang^3
#
#
#
# Elastic Constant Matrix: (Units=GPa)
#
#
# Indices 1 2 3 4 5 6 
#
# 1 49.5476 17.4935 26.3137 0.3618 -18.7585 -4.9880
# 2 17.4935 61.1346 50.5165 1.0078 -6.4585 1.3998
# 3 26.3137 50.5165 121.6404 -4.7054 -31.0493 -0.2427
# 4 0.3618 1.0078 -4.7054 43.0476 6.5780 -4.0021
# 5 -18.7585 -6.4585 -31.0493 6.5780 39.2752 4.5839
# 6 -4.9880 1.3998 -0.2427 -4.0021 4.5839 37.3781
#
#
#
# Elastic Compliance Matrix: (Units=1/GPa)
#
#
# Indices 1 2 3 4 5 6 
#
# 1 0.027275 -0.006299 -0.000350 -0.001704 0.011738 0.002252
# 2 -0.006299 0.027271 -0.011968 -0.000814 -0.007723 -0.001080
# 3 -0.000350 -0.011968 0.015962 0.000352 0.010512 -0.000746
# 4 -0.001704 -0.000814 0.000352 0.024365 -0.005105 0.003040
# 5 0.011738 -0.007723 0.010512 -0.005105 0.039366 -0.003450
# 6 0.002252 -0.001080 -0.000746 0.003040 -0.003450 0.027838
#
#
# Mechanical properties :
#
#
# Convention : Reuss Voigt Hill
#
# Bulk Modulus (GPa) = 30.05247 46.77445 38.41346
# Shear Modulus (GPa) = 23.76393 33.14012 28.45202
#
# Velocity S-wave (km/s) = 3.34328 3.94812 3.65822
# Velocity P-wave (km/s) = 5.38876 6.54097 5.99262
#
# Compressibility (1/GPa) = 0.03327513
#
# Stress axis : x y z
#
# Youngs Moduli (GPa) = 36.66328 36.66836 62.64805
#
# Poissons Ratio (x) = 0.23099 0.02190
# Poissons Ratio (y) = 0.23096 0.74977
# Poissons Ratio (z) = 0.01282 0.43885
#
# Static dielectric constant tensor:
#      x y z
#    x 1.842850 0.007830 -0.026040 
#    y 0.007830 1.829490 -0.014540 
#    z -0.026040 -0.014540 1.778710 
# 
# From -- ./inp_files/214780.got.cif
#   From: 2010.05.17/outbox.cif.g08.bks.cpg/sg2_108_cif.got.tgz:214780.got - 2010.06.03 11:33:40.
