data_PCOD9020718
_publ_section_title
;
Structure prediction by ZEFSAII (Michael W. Deem and Ramdas Pophale) SiO2 
 PCOD9020718
Probable space group: P -1
;
_chemical_formula_sum "Si O2"
_cell_formula_units_Z 16
_cell_length_a 8.621097
_cell_length_b 9.375348
_cell_length_c 18.549206
_cell_angle_alpha 116.010339
_cell_angle_beta 102.158641
_cell_angle_gamma 126.781421
_cell_volume 813.201219
_symmetry_space_group_name_H-M "P -1"
_symmetry_group_IT_number 2
_symmetry_cell_setting 'triclinic'
loop_
_space_group_symop_operation_xyz
x,y,z
-x,-y,-z
loop_
_atom_site_type_symbol
_atom_site_label
_atom_site_fract_x
_atom_site_fract_y
_atom_site_fract_z
Si Si1 0.751766 0.461412 0.844585
Si Si2 0.979441 0.147989 0.576501
Si Si3 0.164285 0.971995 0.070072
Si Si4 0.044733 0.539409 0.428479
Si Si5 0.274264 0.930840 0.931463
Si Si6 0.461055 0.994112 0.814488
Si Si7 0.536867 0.521858 0.728034
Si Si8 0.490108 0.633088 0.470363
O O1 0.553008 0.391595 0.757217
O O2 0.001506 0.627733 0.854106
O O3 0.616992 0.214551 0.818832
O O4 0.881003 0.678115 0.965723
O O5 0.894550 0.234032 0.541546
O O6 0.269102 0.402309 0.688282
O O7 0.761897 0.939103 0.566894
O O8 0.000000 0.000000 0.500000
O O9 0.339991 0.975420 0.125148
O O10 0.221515 0.176142 0.163653
O O11 0.258724 0.063847 0.016131
O O12 0.266155 0.585320 0.445930
O O13 0.000000 0.500000 0.500000
O O14 0.782804 0.281839 0.306384
O O15 0.343194 0.006070 0.871592
O O16 0.500000 0.000000 0.000000
O O17 0.542570 0.468655 0.634825
O O18 0.500000 0.500000 0.500000
#
# Coordination Sequence:
#
# PCOD9020718 Si02
#       8
#     2   2   2   2   2   2   2   2
#     4  10  22  36  68  93 130 179 217 271 338 391
#     4  10  23  44  67  92 134 169 219 279 343 399
#     4   9  20  40  62  92 130 177 215 270 335 390
#     4  12  25  43  69  98 130 173 230 278 340 411
#     4   8  19  37  59  89 133 166 218 272 321 389
#     4  11  21  40  66  96 129 173 226 271 337 399
#     4  11  21  43  66  95 135 177 216 277 342 396
#     4  11  26  44  68  97 137 173 226 281 344 411
#
# _framework density 19.675325999999998
#
# number of rings (size 3 to 8) (size 9 to 14) (size 15 to 20)
#    0.750    1.000    1.250    3.375    5.250    0.000 
#    2.250    1.875    0.000    0.000    0.000    0.000 
#    0.000    0.000    0.000    0.000    0.000    0.000 
#
# Total GULP energy -89140.668757 kJ/mol
# GULP energy per Si atom -5571.291797 kJ/mol
# Density = 1.963054 g / cm^3
# Si number density = 19.675326 Si / 1000 Ang^3
#
#
#
# Elastic Constant Matrix: (Units=GPa)
#
#
# Indices 1 2 3 4 5 6 
#
# 1 94.3609 62.6370 32.2171 -5.5287 20.2495 -10.6436
# 2 62.6370 138.5136 27.8206 -13.5829 13.3280 -15.4775
# 3 32.2171 27.8206 83.1633 -13.8403 6.6322 -5.5282
# 4 -5.5287 -13.5829 -13.8403 30.2539 -1.3742 3.9739
# 5 20.2495 13.3280 6.6322 -1.3742 31.8738 -2.6206
# 6 -10.6436 -15.4775 -5.5282 3.9739 -2.6206 33.1502
#
#
#
# Elastic Compliance Matrix: (Units=1/GPa)
#
#
# Indices 1 2 3 4 5 6 
#
# 1 0.018289 -0.006646 -0.004503 -0.002278 -0.007864 0.001670
# 2 -0.006646 0.010884 -0.000379 0.003173 0.000093 0.002512
# 3 -0.004503 -0.000379 0.014855 0.005789 0.000192 0.000176
# 4 -0.002278 0.003173 0.005789 0.037079 0.000292 -0.002706
# 5 -0.007864 0.000093 0.000192 0.000292 0.036335 0.000388
# 6 0.001670 0.002512 0.000176 -0.002706 0.000388 0.032259
#
#
# Mechanical properties :
#
#
# Convention : Reuss Voigt Hill
#
# Bulk Modulus (GPa) = 47.68049 62.37636 55.02842
# Shear Modulus (GPa) = 27.81676 31.94647 29.88161
#
# Velocity S-wave (km/s) = 3.76412 4.03386 3.90132
# Velocity P-wave (km/s) = 6.57097 7.31216 6.95145
#
# Compressibility (1/GPa) = 0.02097294
#
# Stress axis : x y z
#
# Youngs Moduli (GPa) = 54.67693 91.87906 67.31596
#
# Poissons Ratio (x) = 0.61066 0.30311
# Poissons Ratio (y) = 0.36340 0.02549
# Poissons Ratio (z) = 0.24620 0.03479
#
# Static dielectric constant tensor:
#      x y z
#    x 1.769400 -0.002630 -0.017000 
#    y -0.002630 1.679120 0.027540 
#    z -0.017000 0.027540 1.743600 
# 
# From -- ./inp_files/557383.got.cif
#   From: 2010.05.17/outbox.cif.g08.bks.cpg/sg2_279_cif.got.tgz:557383.got - 2010.06.03 11:33:40.
