data_PCOD9020759
_publ_section_title
;
Structure prediction by ZEFSAII (Michael W. Deem and Ramdas Pophale) SiO2 
 PCOD9020759
Probable space group: P -1
;
_chemical_formula_sum "Si O2"
_cell_formula_units_Z 14
_cell_length_a 13.776131
_cell_length_b 19.077837
_cell_length_c 7.220595
_cell_angle_alpha 119.916780
_cell_angle_beta 71.776569
_cell_angle_gamma 156.324026
_cell_volume 601.293010
_symmetry_space_group_name_H-M "P -1"
_symmetry_group_IT_number 2
_symmetry_cell_setting 'triclinic'
loop_
_space_group_symop_operation_xyz
x,y,z
-x,-y,-z
loop_
_atom_site_type_symbol
_atom_site_label
_atom_site_fract_x
_atom_site_fract_y
_atom_site_fract_z
Si Si1 0.133018 0.757053 0.227294
Si Si2 0.277976 0.247662 0.671503
Si Si3 0.799342 0.658592 0.416950
Si Si4 0.616538 0.306763 0.039204
Si Si5 0.351943 0.937634 0.753904
Si Si6 0.205546 0.448902 0.403355
Si Si7 0.285122 0.212321 0.020222
O O1 0.399729 0.939800 0.191727
O O2 0.974501 0.725869 0.273412
O O3 0.897382 0.518259 0.040039
O O4 0.242400 0.835441 0.478058
O O5 0.224934 0.278276 0.596304
O O6 0.542792 0.390748 0.656837
O O7 0.298382 0.277943 0.917823
O O8 0.000000 0.000000 0.500000
O O9 0.887602 0.701560 0.628514
O O10 0.497360 0.407723 0.283783
O O11 0.690954 0.407360 0.321417
O O12 0.492061 0.128270 0.911568
O O13 0.404152 0.208386 0.925761
O O14 0.073699 0.729375 0.757562
O O15 0.000000 0.000000 0.000000
#
# Coordination Sequence:
#
# PCOD9020759 Si02
#       7
#     2   2   2   2   2   2   2
#     4   8  17  32  53  91 111 145 201 228 280 344
#     4  12  23  35  57  83 118 153 188 237 291 343
#     4   9  20  38  55  81 121 147 184 242 277 344
#     4   9  18  33  55  84 117 146 187 240 280 340
#     4   9  16  31  61  82 113 153 186 238 285 332
#     4   9  21  36  54  90 117 146 195 229 288 347
#     4  10  22  37  56  85 112 150 194 232 289 348
#
# _framework density 23.283158
#
# number of rings (size 3 to 8) (size 9 to 14) (size 15 to 20)
#    0.000    3.143    0.000    3.000    6.000    0.000 
#    2.571    0.000    0.000    4.286    7.429    0.000 
#    0.000    0.000    0.000    0.000    0.000    0.000 
#
# Total GULP energy -77958.402888 kJ/mol
# GULP energy per Si atom -5568.457349 kJ/mol
# Density = 2.323016 g / cm^3
# Si number density = 23.283158 Si / 1000 Ang^3
#
#
#
# Elastic Constant Matrix: (Units=GPa)
#
#
# Indices 1 2 3 4 5 6 
#
# 1 60.4478 44.9107 13.3829 12.3644 8.2318 24.5141
# 2 44.9107 173.1234 19.7274 36.0668 5.3610 48.5893
# 3 13.3829 19.7274 52.5258 17.5004 13.0493 9.2555
# 4 12.3644 36.0668 17.5004 41.6847 -1.3477 11.7273
# 5 8.2318 5.3610 13.0493 -1.3477 24.2785 14.7959
# 6 24.5141 48.5893 9.2555 11.7273 14.7959 36.1026
#
#
#
# Elastic Compliance Matrix: (Units=1/GPa)
#
#
# Indices 1 2 3 4 5 6 
#
# 1 0.024081 -0.002091 -0.003627 0.000135 0.002617 -0.013724
# 2 -0.002091 0.011528 -0.001876 -0.003804 0.008670 -0.015932
# 3 -0.003627 -0.001876 0.028162 -0.012674 -0.020453 0.010267
# 4 0.000135 -0.003804 -0.012674 0.035793 0.015508 -0.009705
# 5 0.002617 0.008670 -0.020453 0.015508 0.077720 -0.045091
# 6 -0.013724 -0.015932 0.010267 -0.009705 -0.045091 0.077459
#
#
# Mechanical properties :
#
#
# Convention : Reuss Voigt Hill
#
# Bulk Modulus (GPa) = 20.58351 49.12655 34.85503
# Shear Modulus (GPa) = 17.47478 34.28490 25.87984
#
# Velocity S-wave (km/s) = 2.74256 3.84150 3.33757
# Velocity P-wave (km/s) = 4.34609 6.38918 5.46398
#
# Compressibility (1/GPa) = 0.04858257
#
# Stress axis : x y z
#
# Youngs Moduli (GPa) = 41.52579 86.74624 35.50927
#
# Poissons Ratio (x) = 0.18140 0.12880
# Poissons Ratio (y) = 0.08684 0.06661
# Poissons Ratio (z) = 0.15062 0.16273
#
# Static dielectric constant tensor:
#      x y z
#    x 1.420550 0.081940 -1.245480 
#    y 0.081940 1.964640 0.044300 
#    z -1.245480 0.044300 -0.696220 
# 
# From -- ./inp_files/318717.got.cif
#   From: 2010.05.17/outbox.cif.g08.bks.cpg/sg2_160_cif.got.tgz:318717.got - 2010.06.03 11:33:40.
