data_PCOD9020237
_publ_section_title
;
Structure prediction by ZEFSAII (Michael W. Deem and Ramdas Pophale) SiO2 
 PCOD9020237
Probable space group: P -1
;
_chemical_formula_sum "Si O2"
_cell_formula_units_Z 14
_cell_length_a 11.183538
_cell_length_b 11.996382
_cell_length_c 5.347519
_cell_angle_alpha 116.109985
_cell_angle_beta 114.087465
_cell_angle_gamma 79.692105
_cell_volume 588.123672
_symmetry_space_group_name_H-M "P -1"
_symmetry_group_IT_number 2
_symmetry_cell_setting 'triclinic'
loop_
_space_group_symop_operation_xyz
x,y,z
-x,-y,-z
loop_
_atom_site_type_symbol
_atom_site_label
_atom_site_fract_x
_atom_site_fract_y
_atom_site_fract_z
Si Si1 0.021701 0.920755 0.190719
Si Si2 0.351280 0.592589 0.248973
Si Si3 0.872912 0.667876 0.891675
Si Si4 0.591610 0.669629 0.882750
Si Si5 0.905020 0.404040 0.611795
Si Si6 0.757780 0.208779 0.981237
Si Si7 0.525387 0.076889 0.847629
O O1 0.928509 0.800010 0.987826
O O2 0.170123 0.870105 0.247113
O O3 0.000000 0.000000 0.500000
O O4 0.000000 0.000000 0.000000
O O5 0.464436 0.635711 0.576599
O O6 0.380438 0.452540 0.048145
O O7 0.212424 0.594927 0.279404
O O8 0.341481 0.691956 0.121216
O O9 0.959627 0.629593 0.171446
O O10 0.720427 0.679420 0.831078
O O11 0.896771 0.542801 0.626332
O O12 0.565852 0.801415 0.113694
O O13 0.866464 0.292816 0.288473
O O14 0.675777 0.122848 0.010297
O O15 0.500000 0.000000 0.500000
O O16 0.500000 0.000000 0.000000
#
# Coordination Sequence:
#
# PCOD9020237 Si02
#       7
#     2   2   2   2   2   2   2
#     4  12  29  49  75 109 155 211 257 309 375 470
#     4  10  21  47  76 111 147 195 250 324 397 447
#     4  10  23  46  77 111 152 192 256 321 382 457
#     4  10  23  46  77 111 152 192 256 321 382 457
#     4  10  21  47  76 111 147 195 250 324 397 447
#     4  12  26  48  80 104 156 200 260 320 392 448
#     4  12  29  49  75 109 155 211 257 309 375 470
#
# _framework density 23.804517000000001
#
# number of rings (size 3 to 8) (size 9 to 14) (size 15 to 20)
#    0.000    1.143    2.857    1.714    4.000    1.143 
#   10.286    0.000    0.000    0.000    0.000    0.000 
#    0.000    0.000    0.000    0.000    0.000    0.000 
#
# Total GULP energy -78402.864906 kJ/mol
# GULP energy per Si atom -5600.204636 kJ/mol
# Density = 2.375034 g / cm^3
# Si number density = 23.804517 Si / 1000 Ang^3
#
#
#
# Elastic Constant Matrix: (Units=GPa)
#
#
# Indices 1 2 3 4 5 6 
#
# 1 113.2814 48.4919 43.6504 15.1643 -8.4128 5.7550
# 2 48.4919 162.6836 60.3002 22.7903 -17.3385 19.9782
# 3 43.6504 60.3002 119.7457 22.0600 -19.1115 -2.6047
# 4 15.1643 22.7903 22.0600 42.1141 -11.9209 0.2902
# 5 -8.4128 -17.3385 -19.1115 -11.9209 41.9641 6.0099
# 6 5.7550 19.9782 -2.6047 0.2902 6.0099 48.8535
#
#
#
# Elastic Compliance Matrix: (Units=1/GPa)
#
#
# Indices 1 2 3 4 5 6 
#
# 1 0.010955 -0.001982 -0.002771 -0.001479 -0.000220 -0.000592
# 2 -0.001982 0.008830 -0.003173 -0.001863 0.001815 -0.003759
# 3 -0.002771 -0.003173 0.011920 -0.002843 0.002472 0.001972
# 4 -0.001479 -0.001863 -0.002843 0.028394 0.005718 -0.000088
# 5 -0.000220 0.001815 0.002472 0.005718 0.027865 -0.004046
# 6 -0.000592 -0.003759 0.001972 -0.000088 -0.004046 0.022680
#
#
# Mechanical properties :
#
#
# Convention : Reuss Voigt Hill
#
# Bulk Modulus (GPa) = 63.07685 77.84396 70.46041
# Shear Modulus (GPa) = 37.94200 42.80424 40.37312
#
# Velocity S-wave (km/s) = 3.99670 4.24507 4.12275
# Velocity P-wave (km/s) = 6.91762 7.53656 7.23372
#
# Compressibility (1/GPa) = 0.01585368
#
# Stress axis : x y z
#
# Youngs Moduli (GPa) = 91.27871 113.25408 83.89246
#
# Poissons Ratio (x) = 0.22447 0.23247
# Poissons Ratio (y) = 0.18092 0.26617
# Poissons Ratio (z) = 0.25293 0.35933
#
# Static dielectric constant tensor:
#      x y z
#    x 1.922980 0.012330 -0.007420 
#    y 0.012330 1.918760 0.024080 
#    z -0.007420 0.024080 1.880230 
# 
# From -- ./inp_files/67991.got.cif
#   From: 2010.05.17/outbox.cif.g08.bks.cpg/sg2_34_cif.got.tgz:67991.got - 2010.06.03 11:33:40.
