data_PCOD9020910
_publ_section_title
;
Structure prediction by ZEFSAII (Michael W. Deem and Ramdas Pophale) SiO2 
 PCOD9020910
Probable space group: P -1
;
_chemical_formula_sum "Si O2"
_cell_formula_units_Z 12
_cell_length_a 19.480943
_cell_length_b 4.998625
_cell_length_c 12.715282
_cell_angle_alpha 93.366924
_cell_angle_beta 156.951471
_cell_angle_gamma 85.086133
_cell_volume 482.340998
_symmetry_space_group_name_H-M "P -1"
_symmetry_group_IT_number 2
_symmetry_cell_setting 'triclinic'
loop_
_space_group_symop_operation_xyz
x,y,z
-x,-y,-z
loop_
_atom_site_type_symbol
_atom_site_label
_atom_site_fract_x
_atom_site_fract_y
_atom_site_fract_z
Si Si1 0.703043 0.687424 0.565843
Si Si2 0.881369 0.037302 0.436132
Si Si3 0.840887 0.164154 0.867803
Si Si4 0.015208 0.540088 0.737545
Si Si5 0.615430 0.304199 0.736162
Si Si6 0.496027 0.761304 0.070773
O O1 0.519122 0.780087 0.369027
O O2 0.649480 0.726495 0.371011
O O3 0.852846 0.878586 0.818979
O O4 0.751174 0.382108 0.664254
O O5 0.955802 0.244868 0.629763
O O6 0.692087 0.167849 0.138826
O O7 0.000000 0.000000 0.500000
O O8 0.890554 0.749151 0.498983
O O9 0.714645 0.096893 0.789281
O O10 0.970959 0.341576 0.122284
O O11 0.216899 0.550618 0.980315
O O12 0.500000 0.500000 0.500000
O O13 0.500000 0.500000 0.000000
O O14 0.500000 0.000000 0.000000
#
# Coordination Sequence:
#
# PCOD9020910 Si02
#       6
#     2   2   2   2   2   2
#     4  11  19  38  62  92 131 172 230 269 331 399
#     4  12  25  44  70  99 138 182 227 284 341 397
#     4   9  20  33  62  98 135 160 212 289 349 383
#     4  10  22  37  62 100 142 162 217 281 359 390
#     4   8  18  31  59 101 134 163 208 277 344 395
#     4  12  28  48  70  96 137 191 237 275 328 412
#
# _framework density 24.878664000000001
#
# number of rings (size 3 to 8) (size 9 to 14) (size 15 to 20)
#    1.000    0.667    0.000    5.000    0.000    5.333 
#    0.000    0.000    0.000   20.000    0.000    0.000 
#    0.000    0.000    0.000    0.000    0.000    0.000 
#
# Total GULP energy -67047.648603 kJ/mol
# GULP energy per Si atom -5587.304050 kJ/mol
# Density = 2.482204 g / cm^3
# Si number density = 24.878664 Si / 1000 Ang^3
#
#
#
# Elastic Constant Matrix: (Units=GPa)
#
#
# Indices 1 2 3 4 5 6 
#
# 1 114.3656 35.6079 21.0826 -1.8758 -24.1962 2.0735
# 2 35.6079 121.0063 7.0299 2.9156 -3.6353 4.4235
# 3 21.0826 7.0299 120.0520 -12.0501 4.8836 -1.6409
# 4 -1.8758 2.9156 -12.0501 37.7065 4.9187 -2.7857
# 5 -24.1962 -3.6353 4.8836 4.9187 36.6858 -1.2423
# 6 2.0735 4.4235 -1.6409 -2.7857 -1.2423 35.2296
#
#
#
# Elastic Compliance Matrix: (Units=1/GPa)
#
#
# Indices 1 2 3 4 5 6 
#
# 1 0.011783 -0.003065 -0.002310 -0.000961 0.007897 -0.000214
# 2 -0.003065 0.009198 -0.000056 -0.000827 -0.001028 -0.001079
# 3 -0.002310 -0.000056 0.009209 0.003300 -0.003173 0.000721
# 4 -0.000961 -0.000827 0.003300 0.028405 -0.004883 0.002388
# 5 0.007897 -0.001028 -0.003173 -0.004883 0.033453 0.000310
# 6 -0.000214 -0.001079 0.000721 0.002388 0.000310 0.028767
#
#
# Mechanical properties :
#
#
# Convention : Reuss Voigt Hill
#
# Bulk Modulus (GPa) = 51.74289 53.65165 52.69727
# Shear Modulus (GPa) = 36.20079 41.37127 38.78603
#
# Velocity S-wave (km/s) = 3.81871 4.08232 3.95271
# Velocity P-wave (km/s) = 6.34717 6.62062 6.48534
#
# Compressibility (1/GPa) = 0.01932633
#
# Stress axis : x y z
#
# Youngs Moduli (GPa) = 84.86872 108.72324 108.59082
#
# Poissons Ratio (x) = 0.33322 0.25089
# Poissons Ratio (y) = 0.26011 0.00612
# Poissons Ratio (z) = 0.19608 0.00612
#
# Static dielectric constant tensor:
#      x y z
#    x 2.020450 -0.039430 0.144420 
#    y -0.039430 1.883620 0.008500 
#    z 0.144420 0.008500 2.080150 
# 
# From -- ./inp_files/539561.got.cif
#   From: 2010.05.17/outbox.cif.g08.bks.cpg/sg2_270_cif.got.tgz:539561.got - 2010.06.03 11:33:40.
