data_PCOD9020702
_publ_section_title
;
Structure prediction by ZEFSAII (Michael W. Deem and Ramdas Pophale) SiO2 
 PCOD9020702
Probable space group: P -1
;
_chemical_formula_sum "Si O2"
_cell_formula_units_Z 14
_cell_length_a 10.835262
_cell_length_b 9.339025
_cell_length_c 8.480123
_cell_angle_alpha 113.821246
_cell_angle_beta 109.465162
_cell_angle_gamma 104.884687
_cell_volume 659.519970
_symmetry_space_group_name_H-M "P -1"
_symmetry_group_IT_number 2
_symmetry_cell_setting 'triclinic'
loop_
_space_group_symop_operation_xyz
x,y,z
-x,-y,-z
loop_
_atom_site_type_symbol
_atom_site_label
_atom_site_fract_x
_atom_site_fract_y
_atom_site_fract_z
Si Si1 0.024095 0.085078 0.284455
Si Si2 0.169559 0.556377 0.088446
Si Si3 0.250105 0.105760 0.124893
Si Si4 0.436196 0.302135 0.818072
Si Si5 0.413774 0.919982 0.265245
Si Si6 0.122300 0.244928 0.709871
Si Si7 0.604322 0.508443 0.690306
O O1 0.162765 0.134765 0.250002
O O2 0.050580 0.222898 0.497153
O O3 0.985714 0.902865 0.281127
O O4 0.880675 0.041161 0.098452
O O5 0.258523 0.758705 0.173736
O O6 0.250508 0.523008 0.260175
O O7 0.180966 0.433794 0.899603
O O8 0.000000 0.500000 0.000000
O O9 0.326937 0.286744 0.139842
O O10 0.373002 0.052205 0.210667
O O11 0.501739 0.170260 0.836469
O O12 0.262680 0.211611 0.720687
O O13 0.495843 0.355555 0.690070
O O14 0.500000 0.500000 0.000000
O O15 0.500000 0.000000 0.500000
O O16 0.500000 0.500000 0.500000
#
# Coordination Sequence:
#
# PCOD9020702 Si02
#       7
#     2   2   2   2   2   2   2
#     4  10  22  36  67  92 128 165 209 271 329 384
#     4  11  23  41  67  95 128 176 225 274 319 407
#     4  11  21  41  62 100 126 162 216 276 318 386
#     4  11  21  42  65  89 124 176 213 261 322 398
#     4  11  23  39  64  94 131 172 218 266 327 392
#     4  11  20  42  64  90 124 175 218 255 335 395
#     4  11  22  40  66  93 127 173 220 266 331 386
#
# _framework density 21.227561000000001
#
# number of rings (size 3 to 8) (size 9 to 14) (size 15 to 20)
#    0.000    1.143    4.286    4.286    2.000    1.143 
#    0.000    5.000    0.000    0.000    0.000    0.000 
#    0.000    0.000    0.000    0.000    0.000    0.000 
#
# Total GULP energy -78086.756282 kJ/mol
# GULP energy per Si atom -5577.625449 kJ/mol
# Density = 2.117925 g / cm^3
# Si number density = 21.227561 Si / 1000 Ang^3
#
#
#
# Elastic Constant Matrix: (Units=GPa)
#
#
# Indices 1 2 3 4 5 6 
#
# 1 98.8051 16.2672 19.8821 -5.0972 21.8640 -9.1872
# 2 16.2672 80.1580 -0.1795 0.2185 2.2522 -6.8418
# 3 19.8821 -0.1795 102.4273 -7.0345 8.3592 -2.8822
# 4 -5.0972 0.2185 -7.0345 37.9834 -1.1745 11.0451
# 5 21.8640 2.2522 8.3592 -1.1745 28.4027 -0.3967
# 6 -9.1872 -6.8418 -2.8822 11.0451 -0.3967 32.4531
#
#
#
# Elastic Compliance Matrix: (Units=1/GPa)
#
#
# Indices 1 2 3 4 5 6 
#
# 1 0.013192 -0.002170 -0.001690 0.000336 -0.009431 0.002898
# 2 -0.002170 0.013122 0.000405 -0.001015 0.000504 0.002540
# 3 -0.001690 0.000405 0.010343 0.001650 -0.001708 -0.000057
# 4 0.000336 -0.001015 0.001650 0.029618 0.000421 -0.010048
# 5 -0.009431 0.000504 -0.001708 0.000421 0.042915 -0.002334
# 6 0.002898 0.002540 -0.000057 -0.010048 -0.002334 0.035555
#
#
# Mechanical properties :
#
#
# Convention : Reuss Voigt Hill
#
# Bulk Modulus (GPa) = 33.61709 39.25890 36.43799
# Shear Modulus (GPa) = 30.94607 36.12922 33.53765
#
# Velocity S-wave (km/s) = 3.82229 4.13000 3.97912
# Velocity P-wave (km/s) = 5.94565 6.42472 6.18982
#
# Compressibility (1/GPa) = 0.02974678
#
# Stress axis : x y z
#
# Youngs Moduli (GPa) = 75.80389 76.20833 96.68472
#
# Poissons Ratio (x) = 0.16534 0.16342
# Poissons Ratio (y) = 0.16446 -0.03914
# Poissons Ratio (z) = 0.12812 -0.03085
#
# Static dielectric constant tensor:
#      x y z
#    x 1.821980 -0.013710 -0.018770 
#    y -0.013710 1.764910 0.001000 
#    z -0.018770 0.001000 1.846920 
# 
# From -- ./inp_files/181929.got.cif
#   From: 2010.05.17/outbox.cif.g08.bks.cpg/sg2_91_cif.got.tgz:181929.got - 2010.06.03 11:33:40.
