data_PCOD9020529
_publ_section_title
;
Structure prediction by ZEFSAII (Michael W. Deem and Ramdas Pophale) SiO2 
 PCOD9020529
Probable space group: P -1
;
_chemical_formula_sum "Si O2"
_cell_formula_units_Z 14
_cell_length_a 9.016753
_cell_length_b 7.429614
_cell_length_c 10.045583
_cell_angle_alpha 58.493369
_cell_angle_beta 91.393911
_cell_angle_gamma 117.860745
_cell_volume 485.183104
_symmetry_space_group_name_H-M "P -1"
_symmetry_group_IT_number 2
_symmetry_cell_setting 'triclinic'
loop_
_space_group_symop_operation_xyz
x,y,z
-x,-y,-z
loop_
_atom_site_type_symbol
_atom_site_label
_atom_site_fract_x
_atom_site_fract_y
_atom_site_fract_z
Si Si1 0.122543 0.600246 0.813773
Si Si2 0.674760 0.166566 0.526636
Si Si3 0.094820 0.855936 0.161816
Si Si4 0.597692 0.733385 0.173726
Si Si5 0.201135 0.279669 0.592831
Si Si6 0.472064 0.685522 0.837670
Si Si7 0.196840 0.484555 0.257316
O O1 0.181841 0.752199 0.616557
O O2 0.303726 0.704187 0.857343
O O3 0.052283 0.309683 0.892724
O O4 0.943989 0.600318 0.835582
O O5 0.643500 0.957357 0.715353
O O6 0.710591 0.424069 0.488728
O O7 0.500000 0.000000 0.500000
O O8 0.138114 0.646165 0.275169
O O9 0.983427 0.868138 0.275168
O O10 0.673730 0.794714 0.301850
O O11 0.572621 0.468304 0.240500
O O12 0.404223 0.676838 0.163847
O O13 0.741955 0.931059 0.999104
O O14 0.184926 0.273531 0.435573
O O15 0.500000 0.500000 0.000000
#
# Coordination Sequence:
#
# PCOD9020529 Si02
#       7
#     2   2   2   2   2   2   2
#     4   8  19  39  55  79 115 152 190 233 286 341
#     4   9  17  38  57  76 113 150 202 227 270 330
#     4   9  20  36  59  82 120 151 187 235 294 331
#     4  12  21  37  56  94 123 140 192 249 288 333
#     4  11  20  36  65  86 110 160 196 233 277 355
#     4  11  23  36  61  84 108 157 201 236 272 348
#     4  10  22  36  59  89 120 151 180 242 313 331
#
# _framework density 28.855084999999999
#
# number of rings (size 3 to 8) (size 9 to 14) (size 15 to 20)
#    0.857    1.143    4.286    1.714    2.000    0.000 
#    0.000    1.429    0.000    0.000    0.000    0.000 
#    0.000    0.000    0.000    0.000    0.000    0.000 
#
# Total GULP energy -78114.428459 kJ/mol
# GULP energy per Si atom -5579.602033 kJ/mol
# Density = 2.878941 g / cm^3
# Si number density = 28.855085 Si / 1000 Ang^3
#
#
#
# Elastic Constant Matrix: (Units=GPa)
#
#
# Indices 1 2 3 4 5 6 
#
# 1 163.5779 58.4118 62.4023 -14.9988 12.3676 57.0697
# 2 58.4118 107.5071 17.4593 -41.8997 -2.6332 24.7613
# 3 62.4023 17.4593 120.7826 -36.7170 11.2034 31.0301
# 4 -14.9988 -41.8997 -36.7170 61.8659 19.6863 -6.0620
# 5 12.3676 -2.6332 11.2034 19.6863 54.0037 -5.3530
# 6 57.0697 24.7613 31.0301 -6.0620 -5.3530 62.5724
#
#
#
# Elastic Compliance Matrix: (Units=1/GPa)
#
#
# Indices 1 2 3 4 5 6 
#
# 1 0.012177 -0.005918 -0.004836 -0.004211 -0.001221 -0.006879
# 2 -0.005918 0.018899 0.007228 0.017090 -0.005900 -0.004515
# 3 -0.004836 0.007228 0.016859 0.015813 -0.008397 -0.005997
# 4 -0.004211 0.017090 0.015813 0.040751 -0.017159 -0.008284
# 5 -0.001221 -0.005900 -0.008397 -0.017159 0.027328 0.008288
# 6 -0.006879 -0.004515 -0.005997 -0.008284 0.008288 0.026923
#
#
# Mechanical properties :
#
#
# Convention : Reuss Voigt Hill
#
# Bulk Modulus (GPa) = 24.45882 74.26824 49.36353
# Shear Modulus (GPa) = 30.55933 52.59468 41.57701
#
# Velocity S-wave (km/s) = 3.25785 4.27396 3.80002
# Velocity P-wave (km/s) = 4.75881 7.08166 6.03308
#
# Compressibility (1/GPa) = 0.04088505
#
# Stress axis : x y z
#
# Youngs Moduli (GPa) = 82.12006 52.91269 59.31412
#
# Poissons Ratio (x) = 0.31312 0.28682
# Poissons Ratio (y) = 0.48596 -0.42871
# Poissons Ratio (z) = 0.39709 -0.38244
#
# Static dielectric constant tensor:
#      x y z
#    x 2.285110 0.093490 0.068050 
#    y 0.093490 2.349080 0.126310 
#    z 0.068050 0.126310 2.468330 
# 
# From -- ./inp_files/387124.got.cif
#   From: 2010.05.17/outbox.cif.g08.bks.cpg/sg2_194_cif.got.tgz:387124.got - 2010.06.03 11:33:40.
