data_PCOD9020162
_publ_section_title
;
Structure prediction by ZEFSAII (Michael W. Deem and Ramdas Pophale) SiO2 
 PCOD9020162
Probable space group: P -1
;
_chemical_formula_sum "Si O2"
_cell_formula_units_Z 15
_cell_length_a 9.530681
_cell_length_b 5.228562
_cell_length_c 14.366532
_cell_angle_alpha 95.650282
_cell_angle_beta 110.211544
_cell_angle_gamma 54.786333
_cell_volume 544.126256
_symmetry_space_group_name_H-M "P -1"
_symmetry_group_IT_number 2
_symmetry_cell_setting 'triclinic'
loop_
_space_group_symop_operation_xyz
x,y,z
-x,-y,-z
loop_
_atom_site_type_symbol
_atom_site_label
_atom_site_fract_x
_atom_site_fract_y
_atom_site_fract_z
Si Si1 0.500000 0.500000 0.000000
Si Si2 0.322893 0.228858 0.074277
Si Si3 0.590602 0.515921 0.666468
Si Si4 0.444750 0.333419 0.778092
Si Si5 0.666575 0.018353 0.508483
Si Si6 0.059794 0.675307 0.642441
Si Si7 0.028017 0.702781 0.276907
Si Si8 0.946022 0.850353 0.059953
O O1 0.615043 0.625702 0.979254
O O2 0.408860 0.509546 0.873675
O O3 0.120628 0.480879 0.078123
O O4 0.465934 0.021573 0.179599
O O5 0.270202 0.011191 0.000716
O O6 0.590133 0.365228 0.757468
O O7 0.646236 0.257086 0.590443
O O8 0.395816 0.817800 0.600374
O O9 0.754404 0.554242 0.694489
O O10 0.279204 0.457667 0.671736
O O11 0.500000 0.000000 0.500000
O O12 0.882329 0.734311 0.549766
O O13 0.054516 0.490982 0.725316
O O14 0.016477 0.023603 0.651792
O O15 0.960055 0.895617 0.172483
O O16 0.000000 0.000000 0.000000
#
# Coordination Sequence:
#
# PCOD9020162 Si02
#       8
#     1   2   2   2   2   2   2   2
#     4  12  26  46  66  98 154 196 240 296 370 442
#     4  11  26  43  68  97 141 193 250 306 365 433
#     4  10  23  44  75 104 145 184 251 301 376 435
#     4  12  28  45  67 111 145 201 238 309 367 445
#     4  10  21  46  76 105 138 191 240 313 370 448
#     4  11  27  44  74 106 154 185 248 302 378 445
#     4  11  24  45  70 104 138 199 241 308 360 444
#     4  11  25  43  68  99 134 191 262 310 357 427
#
# _framework density 27.567128
#
# number of rings (size 3 to 8) (size 9 to 14) (size 15 to 20)
#    0.000    1.067    1.333    3.600   13.067    1.600 
#    0.000    0.667    0.000    0.000    0.000    0.000 
#    0.000    0.000    0.000    0.000    0.000    0.000 
#
# Total GULP energy -83668.114729 kJ/mol
# GULP energy per Si atom -5577.874315 kJ/mol
# Density = 2.750438 g / cm^3
# Si number density = 27.567128 Si / 1000 Ang^3
#
#
#
# Elastic Constant Matrix: (Units=GPa)
#
#
# Indices 1 2 3 4 5 6 
#
# 1 150.4981 25.0617 23.4951 -14.1376 6.9249 8.6118
# 2 25.0617 73.3857 22.7351 -14.5244 -5.7650 -3.1354
# 3 23.4951 22.7351 86.6117 -25.3667 10.1022 -6.2348
# 4 -14.1376 -14.5244 -25.3667 32.0279 -5.0309 -0.3996
# 5 6.9249 -5.7650 10.1022 -5.0309 60.4330 -18.1528
# 6 8.6118 -3.1354 -6.2348 -0.3996 -18.1528 52.4961
#
#
#
# Elastic Compliance Matrix: (Units=1/GPa)
#
#
# Indices 1 2 3 4 5 6 
#
# 1 0.007462 -0.002162 -0.001080 0.001219 -0.001363 -0.001944
# 2 -0.002162 0.016503 -0.002473 0.005122 0.003334 0.002239
# 3 -0.001080 -0.002473 0.015930 0.010814 -0.001420 0.001513
# 4 0.001219 0.005122 0.010814 0.043147 0.002957 0.002741
# 5 -0.001363 0.003334 -0.001420 0.002957 0.019627 0.007063
# 6 -0.001944 0.002239 0.001513 0.002741 0.007063 0.022145
#
#
# Mechanical properties :
#
#
# Convention : Reuss Voigt Hill
#
# Bulk Modulus (GPa) = 35.13336 50.34215 42.73775
# Shear Modulus (GPa) = 34.30966 44.93834 39.62400
#
# Velocity S-wave (km/s) = 3.53170 4.04188 3.79537
# Velocity P-wave (km/s) = 5.42244 6.33117 5.89434
#
# Compressibility (1/GPa) = 0.02846298
#
# Stress axis : x y z
#
# Youngs Moduli (GPa) = 134.01560 60.59667 62.77577
#
# Poissons Ratio (x) = 0.13103 0.06783
# Poissons Ratio (y) = 0.28979 0.15523
# Poissons Ratio (z) = 0.14480 0.14984
#
# Static dielectric constant tensor:
#      x y z
#    x 2.020090 0.087740 0.096270 
#    y 0.087740 1.927410 0.079610 
#    z 0.096270 0.079610 2.194670 
# 
# From -- ./inp_files/551942.got.cif
#   From: 2010.05.17/outbox.cif.g08.bks.cpg/sg2_276_cif.got.tgz:551942.got - 2010.06.03 11:33:40.
