data_PCOD9020140
_publ_section_title
;
Structure prediction by ZEFSAII (Michael W. Deem and Ramdas Pophale) SiO2 
 PCOD9020140
Probable space group: P -1
;
_chemical_formula_sum "Si O2"
_cell_formula_units_Z 16
_cell_length_a 16.453279
_cell_length_b 22.041402
_cell_length_c 11.051806
_cell_angle_alpha 31.780036
_cell_angle_beta 40.344305
_cell_angle_gamma 20.426289
_cell_volume 723.626321
_symmetry_space_group_name_H-M "P -1"
_symmetry_group_IT_number 2
_symmetry_cell_setting 'triclinic'
loop_
_space_group_symop_operation_xyz
x,y,z
-x,-y,-z
loop_
_atom_site_type_symbol
_atom_site_label
_atom_site_fract_x
_atom_site_fract_y
_atom_site_fract_z
Si Si1 0.500902 0.465450 0.418393
Si Si2 0.611875 0.595926 0.655891
Si Si3 0.745379 0.035216 0.868210
Si Si4 0.079580 0.552824 0.891000
Si Si5 0.327259 0.034744 0.178024
Si Si6 0.751428 0.321249 0.155006
Si Si7 0.435181 0.923254 0.757032
Si Si8 0.942594 0.268711 0.619706
O O1 0.500000 0.500000 0.500000
O O2 0.557445 0.284620 0.655248
O O3 0.708276 0.361233 0.279477
O O4 0.245984 0.687247 0.267496
O O5 0.425780 0.642973 0.743648
O O6 0.822236 0.428893 0.599909
O O7 0.481818 0.817670 0.437496
O O8 0.694765 0.486176 0.877134
O O9 0.760228 0.959403 0.853475
O O10 0.678588 0.997944 0.112269
O O11 0.997511 0.902833 0.810926
O O12 0.881142 0.749404 0.874672
O O13 0.078976 0.645697 0.626136
O O14 0.321127 0.336845 0.056648
O O15 0.000000 0.500000 0.000000
O O16 0.500000 0.000000 0.000000
O O17 0.500000 0.000000 0.500000
O O18 0.219825 0.036834 0.729212
#
# Coordination Sequence:
#
# PCOD9020140 Si02
#       8
#     2   2   2   2   2   2   2   2
#     4  11  25  45  74 108 146 197 249 314 386 444
#     4  10  21  46  73 106 140 194 246 315 370 439
#     4  12  24  46  72 104 150 192 252 310 379 444
#     4  12  25  47  72 101 150 198 245 302 366 443
#     4  12  27  45  73 106 148 202 249 301 378 453
#     4  10  22  42  75 106 144 186 254 314 371 434
#     4  12  25  44  78 107 147 203 247 306 373 449
#     4  11  22  45  73 100 149 188 247 305 375 444
#
# _framework density 22.110859000000001
#
# number of rings (size 3 to 8) (size 9 to 14) (size 15 to 20)
#    0.000    0.750    6.250    1.875    1.750    0.000 
#    4.500    1.875    0.000    0.000    0.000    0.000 
#    0.000    0.000    0.000    0.000    0.000    0.000 
#
# Total GULP energy -89301.387928 kJ/mol
# GULP energy per Si atom -5581.336745 kJ/mol
# Density = 2.206053 g / cm^3
# Si number density = 22.110859 Si / 1000 Ang^3
#
#
#
# Elastic Constant Matrix: (Units=GPa)
#
#
# Indices 1 2 3 4 5 6 
#
# 1 68.0803 53.2392 32.6066 -12.9973 7.0385 15.4618
# 2 53.2392 180.1242 69.8900 -1.8193 15.5150 10.5425
# 3 32.6066 69.8900 132.1790 2.3771 25.9201 11.4234
# 4 -12.9973 -1.8193 2.3771 44.4079 -1.5560 11.5502
# 5 7.0385 15.5150 25.9201 -1.5560 27.0242 0.0192
# 6 15.4618 10.5425 11.4234 11.5502 0.0192 44.7144
#
#
#
# Elastic Compliance Matrix: (Units=1/GPa)
#
#
# Indices 1 2 3 4 5 6 
#
# 1 0.023882 -0.005530 -0.002322 0.009147 -0.000285 -0.008724
# 2 -0.005530 0.008318 -0.002995 -0.001418 -0.000545 0.001083
# 3 -0.002322 -0.002995 0.011579 -0.001454 -0.008865 -0.001070
# 4 0.009147 -0.001418 -0.001454 0.027770 0.001433 -0.009631
# 5 -0.000285 -0.000545 -0.008865 0.001433 0.045974 0.002102
# 6 -0.008724 0.001083 -0.001070 -0.009631 0.002102 0.027885
#
#
# Mechanical properties :
#
#
# Convention : Reuss Voigt Hill
#
# Bulk Modulus (GPa) = 45.28099 76.87278 61.07689
# Shear Modulus (GPa) = 28.65909 38.20582 33.43246
#
# Velocity S-wave (km/s) = 3.60412 4.16134 3.89271
# Velocity P-wave (km/s) = 6.15168 7.61127 6.92006
#
# Compressibility (1/GPa) = 0.02208432
#
# Stress axis : x y z
#
# Youngs Moduli (GPa) = 41.87193 120.22638 86.36508
#
# Poissons Ratio (x) = 0.66491 0.20052
# Poissons Ratio (y) = 0.23157 0.25866
# Poissons Ratio (z) = 0.09722 0.36007
#
# Static dielectric constant tensor:
#      x y z
#    x 1.589550 0.078850 0.128170 
#    y 0.078850 1.869540 -0.126000 
#    z 0.128170 -0.126000 1.854690 
# 
# From -- ./inp_files/467431.got.cif
#   From: 2010.05.17/outbox.cif.g08.bks.cpg/sg2_234_cif.got.tgz:467431.got - 2010.06.03 11:33:40.
