data_PCOD9020161
_publ_section_title
;
Structure prediction by ZEFSAII (Michael W. Deem and Ramdas Pophale) SiO2 
 PCOD9020161
Probable space group: P -1
;
_chemical_formula_sum "Si O2"
_cell_formula_units_Z 14
_cell_length_a 7.985108
_cell_length_b 7.221037
_cell_length_c 11.712710
_cell_angle_alpha 80.049025
_cell_angle_beta 131.371097
_cell_angle_gamma 100.794189
_cell_volume 496.753288
_symmetry_space_group_name_H-M "P -1"
_symmetry_group_IT_number 2
_symmetry_cell_setting 'triclinic'
loop_
_space_group_symop_operation_xyz
x,y,z
-x,-y,-z
loop_
_atom_site_type_symbol
_atom_site_label
_atom_site_fract_x
_atom_site_fract_y
_atom_site_fract_z
Si Si1 0.144127 0.438776 0.442704
Si Si2 0.859665 0.871104 0.358286
Si Si3 0.583582 0.950721 0.793215
Si Si4 0.885247 0.066298 0.119083
Si Si5 0.258573 0.391476 0.165912
Si Si6 0.267332 0.580579 0.913410
Si Si7 0.406898 0.713977 0.385696
O O1 0.122901 0.343148 0.568398
O O2 0.278592 0.637939 0.448858
O O3 0.326649 0.302704 0.484488
O O4 0.917469 0.429253 0.268372
O O5 0.613821 0.938473 0.256867
O O6 0.928780 0.925416 0.255510
O O7 0.000000 0.000000 0.500000
O O8 0.645889 0.080887 0.697347
O O9 0.536567 0.732391 0.762426
O O10 0.782389 0.961638 0.973317
O O11 0.697499 0.198459 0.065526
O O12 0.082868 0.227349 0.156300
O O13 0.326544 0.565709 0.262766
O O14 0.181518 0.472935 0.002118
O O15 0.500000 0.500000 0.000000
#
# Coordination Sequence:
#
# PCOD9020161 Si02
#       7
#     2   2   2   2   2   2   2
#     4  10  22  43  72 100 144 186 226 295 357 408
#     4  11  22  42  70  99 142 188 227 290 354 415
#     4  11  25  43  72 106 138 183 240 287 348 420
#     4  12  23  45  70 102 146 184 234 292 349 416
#     4  12  24  45  76 103 137 187 239 289 346 417
#     4  12  24  42  73 102 140 186 234 288 352 420
#     4  10  21  46  76 103 139 181 234 296 349 411
#
# _framework density 28.183002999999999
#
# number of rings (size 3 to 8) (size 9 to 14) (size 15 to 20)
#    0.000    0.857    4.286    3.000    0.000    0.000 
#    0.000   15.000    0.000    0.000    0.000    0.000 
#    0.000    0.000    0.000    0.000    0.000    0.000 
#
# Total GULP energy -78504.058714 kJ/mol
# GULP energy per Si atom -5607.432765 kJ/mol
# Density = 2.811886 g / cm^3
# Si number density = 28.183003 Si / 1000 Ang^3
#
#
#
# Elastic Constant Matrix: (Units=GPa)
#
#
# Indices 1 2 3 4 5 6 
#
# 1 126.2890 30.8457 84.7653 -16.5242 -10.5712 31.9950
# 2 30.8457 119.4676 78.0964 -39.8276 -9.4370 2.5115
# 3 84.7653 78.0964 233.3613 -20.8419 -25.1204 12.8394
# 4 -16.5242 -39.8276 -20.8419 79.9417 11.7151 -11.0564
# 5 -10.5712 -9.4370 -25.1204 11.7151 47.9349 -18.4131
# 6 31.9950 2.5115 12.8394 -11.0564 -18.4131 60.8107
#
#
#
# Elastic Compliance Matrix: (Units=1/GPa)
#
#
# Indices 1 2 3 4 5 6 
#
# 1 0.012244 -0.000176 -0.004205 0.000815 -0.002049 -0.006019
# 2 -0.000176 0.012683 -0.003799 0.005524 -0.000401 0.001254
# 3 -0.004205 -0.003799 0.007221 -0.001101 0.002971 0.001544
# 4 0.000815 0.005524 -0.001101 0.015743 -0.002513 0.001677
# 5 -0.002049 -0.000401 0.002971 -0.002513 0.025468 0.007722
# 6 -0.006019 0.001254 0.001544 0.001677 0.007722 0.021877
#
#
# Mechanical properties :
#
#
# Convention : Reuss Voigt Hill
#
# Bulk Modulus (GPa) = 63.34593 96.28138 79.81366
# Shear Modulus (GPa) = 42.78662 56.76482 49.77572
#
# Velocity S-wave (km/s) = 3.90060 4.49280 4.20713
# Velocity P-wave (km/s) = 6.54306 7.81989 7.20980
#
# Compressibility (1/GPa) = 0.01578633
#
# Stress axis : x y z
#
# Youngs Moduli (GPa) = 81.67338 78.84466 138.49172
#
# Poissons Ratio (x) = 0.01389 0.58238
# Poissons Ratio (y) = 0.01439 0.52618
# Poissons Ratio (z) = 0.34345 0.29956
#
# Static dielectric constant tensor:
#      x y z
#    x 2.429280 0.013970 0.072920 
#    y 0.013970 2.118060 -0.010880 
#    z 0.072920 -0.010880 2.180740 
# 
# From -- ./inp_files/490689.got.cif
#   From: 2010.05.17/outbox.cif.g08.bks.cpg/sg2_246_cif.got.tgz:490689.got - 2010.06.03 11:33:40.
