data_PCOD9020029
_publ_section_title
;
Structure prediction by ZEFSAII (Michael W. Deem and Ramdas Pophale) SiO2 
 PCOD9020029
Probable space group: P -1
;
_chemical_formula_sum "Si O2"
_cell_formula_units_Z 16
_cell_length_a 8.281052
_cell_length_b 6.896949
_cell_length_c 12.482149
_cell_angle_alpha 79.749213
_cell_angle_beta 65.495443
_cell_angle_gamma 80.299344
_cell_volume 634.759080
_symmetry_space_group_name_H-M "P -1"
_symmetry_group_IT_number 2
_symmetry_cell_setting 'triclinic'
loop_
_space_group_symop_operation_xyz
x,y,z
-x,-y,-z
loop_
_atom_site_type_symbol
_atom_site_label
_atom_site_fract_x
_atom_site_fract_y
_atom_site_fract_z
Si Si1 0.351205 0.754003 0.432227
Si Si2 0.738038 0.883826 0.707568
Si Si3 0.911690 0.191404 0.068873
Si Si4 0.174988 0.363078 0.503054
Si Si5 0.710196 0.766258 0.042590
Si Si6 0.866661 0.217010 0.305456
Si Si7 0.574302 0.219919 0.038957
Si Si8 0.751540 0.687077 0.290653
O O1 0.315166 0.526090 0.457382
O O2 0.244853 0.840056 0.556660
O O3 0.559212 0.758794 0.385065
O O4 0.289819 0.882238 0.332299
O O5 0.757466 0.782938 0.595598
O O6 0.574509 0.811472 0.826578
O O7 0.925768 0.826378 0.719000
O O8 0.830520 0.124780 0.209586
O O9 0.749883 0.301082 0.034293
O O10 0.085285 0.300243 0.041447
O O11 0.000000 0.000000 0.000000
O O12 0.131029 0.271761 0.640213
O O13 0.000000 0.500000 0.500000
O O14 0.726535 0.751356 0.167647
O O15 0.663405 0.999363 0.002993
O O16 0.540928 0.682738 0.038717
O O17 0.806681 0.451279 0.285470
#
# Coordination Sequence:
#
# PCOD9020029 Si02
#       8
#     2   2   2   2   2   2   2   2
#     4  11  25  44  69 104 144 191 234 296 367 429
#     4  12  23  44  73 101 142 194 237 296 366 436
#     4  10  23  41  66  98 137 185 242 297 351 431
#     4  11  24  44  66 107 145 180 238 293 357 437
#     4  10  21  46  66  95 141 186 241 300 362 417
#     4  11  23  43  67  99 146 186 230 306 365 419
#     4  10  22  41  68 101 135 187 246 296 356 430
#     4  11  24  44  69  99 145 189 230 304 362 427
#
# _framework density 25.206415
#
# number of rings (size 3 to 8) (size 9 to 14) (size 15 to 20)
#    0.000    1.250    5.000    1.875    3.500    3.000 
#    2.250    0.625    0.000    0.000    0.000    0.000 
#    0.000    0.000    0.000    0.000    0.000    0.000 
#
# Total GULP energy -89349.961202 kJ/mol
# GULP energy per Si atom -5584.372575 kJ/mol
# Density = 2.514904 g / cm^3
# Si number density = 25.206415 Si / 1000 Ang^3
#
#
#
# Elastic Constant Matrix: (Units=GPa)
#
#
# Indices 1 2 3 4 5 6 
#
# 1 180.5934 28.9903 63.0328 -16.7044 14.0203 -44.8703
# 2 28.9903 74.0730 17.7434 -3.9157 10.5228 -21.4147
# 3 63.0328 17.7434 102.2777 16.0991 21.5122 1.8677
# 4 -16.7044 -3.9157 16.0991 25.0058 -9.4741 0.5503
# 5 14.0203 10.5228 21.5122 -9.4741 50.6029 5.8854
# 6 -44.8703 -21.4147 1.8677 0.5503 5.8854 37.1296
#
#
#
# Elastic Compliance Matrix: (Units=1/GPa)
#
#
# Indices 1 2 3 4 5 6 
#
# 1 0.020793 0.005771 -0.019390 0.027855 0.003181 0.028515
# 2 0.005771 0.019681 -0.008653 0.011297 -0.002099 0.018926
# 3 -0.019390 -0.008653 0.031905 -0.038137 -0.010295 -0.027831
# 4 0.027855 0.011297 -0.038137 0.091225 0.018834 0.037759
# 5 0.003181 -0.002099 -0.010295 0.018834 0.027391 -0.001470
# 6 0.028515 0.018926 -0.027831 0.037759 -0.001470 0.073382
#
#
# Mechanical properties :
#
#
# Convention : Reuss Voigt Hill
#
# Bulk Modulus (GPa) = 35.92591 64.05300 49.98946
# Shear Modulus (GPa) = 15.71341 39.02614 27.36978
#
# Velocity S-wave (km/s) = 2.49949 3.93907 3.29876
# Velocity P-wave (km/s) = 4.75537 6.79374 5.86380
#
# Compressibility (1/GPa) = 0.02783507
#
# Stress axis : x y z
#
# Youngs Moduli (GPa) = 48.09320 50.80948 31.34316
#
# Poissons Ratio (x) = -0.29323 0.60774
# Poissons Ratio (y) = -0.27756 0.27122
# Poissons Ratio (z) = 0.93252 0.43967
#
# Static dielectric constant tensor:
#      x y z
#    x 2.326360 0.242260 -0.014100 
#    y 0.242260 2.133400 -0.088130 
#    z -0.014100 -0.088130 2.073040 
# 
# From -- ./inp_files/381923.got.cif
#   From: 2010.05.17/outbox.cif.g08.bks.cpg/sg2_191_cif.got.tgz:381923.got - 2010.06.03 11:33:40.
