data_PCOD9020191
_publ_section_title
;
Structure prediction by ZEFSAII (Michael W. Deem and Ramdas Pophale) SiO2 
 PCOD9020191
Probable space group: P -1
;
_chemical_formula_sum "Si O2"
_cell_formula_units_Z 16
_cell_length_a 16.434727
_cell_length_b 6.607900
_cell_length_c 8.563735
_cell_angle_alpha 55.008117
_cell_angle_beta 119.428226
_cell_angle_gamma 100.877123
_cell_volume 657.924012
_symmetry_space_group_name_H-M "P -1"
_symmetry_group_IT_number 2
_symmetry_cell_setting 'triclinic'
loop_
_space_group_symop_operation_xyz
x,y,z
-x,-y,-z
loop_
_atom_site_type_symbol
_atom_site_label
_atom_site_fract_x
_atom_site_fract_y
_atom_site_fract_z
Si Si1 0.046262 0.049002 0.186654
Si Si2 0.358929 0.396454 0.935241
Si Si3 0.414058 0.877603 0.267473
Si Si4 0.151330 0.508756 0.537765
Si Si5 0.210128 0.364999 0.309752
Si Si6 0.911920 0.003426 0.307421
Si Si7 0.281278 0.734014 0.959279
Si Si8 0.403432 0.354394 0.644258
O O1 0.093441 0.772548 0.405025
O O2 0.131169 0.211594 0.228329
O O3 0.950072 0.161433 0.135714
O O4 0.000000 0.000000 0.000000
O O5 0.250221 0.450809 0.748275
O O6 0.355461 0.629915 0.944852
O O7 0.413174 0.355211 0.840413
O O8 0.399726 0.160429 0.187240
O O9 0.396493 0.649537 0.462791
O O10 0.509592 0.789288 0.304330
O O11 0.330894 0.900000 0.051614
O O12 0.167320 0.501027 0.367864
O O13 0.099384 0.273002 0.634805
O O14 0.310472 0.247672 0.536206
O O15 0.247330 0.518260 0.132434
O O16 0.815940 0.110733 0.251733
O O17 0.000000 0.000000 0.500000
#
# Coordination Sequence:
#
# PCOD9020191 Si02
#       8
#     2   2   2   2   2   2   2   2
#     4  12  27  41  68  95 128 175 227 275 329 392
#     4  11  23  40  69 101 131 178 218 271 332 399
#     4  10  21  47  67 102 134 175 216 278 334 394
#     4  11  24  44  64  94 129 177 222 269 337 393
#     4  10  24  45  62  96 132 172 216 277 328 397
#     4  12  24  43  64  92 132 176 215 279 327 394
#     4  11  25  41  66  97 134 171 222 275 330 392
#     4   9  22  44  75  93 140 174 218 272 337 399
#
# _framework density 24.318916999999999
#
# number of rings (size 3 to 8) (size 9 to 14) (size 15 to 20)
#    0.000    1.250    2.500    2.250    3.500    4.500 
#    0.000    8.125    0.000    0.000    0.000    0.000 
#    0.000    0.000    0.000    0.000    0.000    0.000 
#
# Total GULP energy -89240.502180 kJ/mol
# GULP energy per Si atom -5577.531386 kJ/mol
# Density = 2.426357 g / cm^3
# Si number density = 24.318917 Si / 1000 Ang^3
#
#
#
# Elastic Constant Matrix: (Units=GPa)
#
#
# Indices 1 2 3 4 5 6 
#
# 1 102.7048 19.2820 13.4828 -2.3048 6.7684 9.3039
# 2 19.2820 42.6079 -2.5446 -15.5211 0.1219 -10.8879
# 3 13.4828 -2.5446 71.0060 -18.1348 6.3874 -7.0649
# 4 -2.3048 -15.5211 -18.1348 40.0051 -9.6984 3.2151
# 5 6.7684 0.1219 6.3874 -9.6984 32.3991 -1.3622
# 6 9.3039 -10.8879 -7.0649 3.2151 -1.3622 23.0418
#
#
#
# Elastic Compliance Matrix: (Units=1/GPa)
#
#
# Indices 1 2 3 4 5 6 
#
# 1 0.014050 -0.012266 -0.005640 -0.006531 -0.004259 -0.012539
# 2 -0.012266 0.044306 0.011345 0.021328 0.007672 0.026845
# 3 -0.005640 0.011345 0.019807 0.012440 0.001462 0.012062
# 4 -0.006531 0.021328 0.012440 0.040369 0.011402 0.011571
# 5 -0.004259 0.007672 0.001462 0.011402 0.035115 0.006278
# 6 -0.012539 0.026845 0.012062 0.011571 0.006278 0.063602
#
#
# Mechanical properties :
#
#
# Convention : Reuss Voigt Hill
#
# Bulk Modulus (GPa) = 15.37518 30.75101 23.06309
# Shear Modulus (GPa) = 19.83730 31.49576 25.66653
#
# Velocity S-wave (km/s) = 2.85917 3.60267 3.25224
# Velocity P-wave (km/s) = 4.15161 5.47522 4.85870
#
# Compressibility (1/GPa) = 0.06503990
#
# Stress axis : x y z
#
# Youngs Moduli (GPa) = 71.17481 22.57051 50.48818
#
# Poissons Ratio (x) = 0.27685 0.28475
# Poissons Ratio (y) = 0.87304 -0.57278
# Poissons Ratio (z) = 0.40142 -0.25606
#
# Static dielectric constant tensor:
#      x y z
#    x 1.963340 0.004640 -0.082070 
#    y 0.004640 1.920140 -0.011870 
#    z -0.082070 -0.011870 2.024340 
# 
# From -- ./inp_files/323349.got.cif
#   From: 2010.05.17/outbox.cif.g08.bks.cpg/sg2_162_cif.got.tgz:323349.got - 2010.06.03 11:33:40.
