data_PCOD9020999
_publ_section_title
;
Structure prediction by ZEFSAII (Michael W. Deem and Ramdas Pophale) SiO2 
 PCOD9020999
Probable space group: P -1
;
_chemical_formula_sum "Si O2"
_cell_formula_units_Z 16
_cell_length_a 10.327274
_cell_length_b 5.728603
_cell_length_c 18.487477
_cell_angle_alpha 79.836688
_cell_angle_beta 48.989614
_cell_angle_gamma 64.420371
_cell_volume 735.195556
_symmetry_space_group_name_H-M "P -1"
_symmetry_group_IT_number 2
_symmetry_cell_setting 'triclinic'
loop_
_space_group_symop_operation_xyz
x,y,z
-x,-y,-z
loop_
_atom_site_type_symbol
_atom_site_label
_atom_site_fract_x
_atom_site_fract_y
_atom_site_fract_z
Si Si1 0.585766 0.441405 0.749308
Si Si2 0.345639 0.281479 0.562697
Si Si3 0.793453 0.756278 0.990351
Si Si4 0.560358 0.901923 0.835604
Si Si5 0.442525 0.527851 0.634216
Si Si6 0.037284 0.210600 0.928648
Si Si7 0.055420 0.962689 0.795459
Si Si8 0.910816 0.404957 0.717244
O O1 0.498977 0.713851 0.814940
O O2 0.512640 0.495467 0.691869
O O3 0.806799 0.376840 0.684372
O O4 0.561499 0.178624 0.795215
O O5 0.389249 0.311894 0.628704
O O6 0.399053 0.461575 0.478238
O O7 0.126647 0.349597 0.630757
O O8 0.500000 0.000000 0.500000
O O9 0.836262 0.721836 0.063974
O O10 0.589465 0.997343 0.049466
O O11 0.840354 0.459633 0.969125
O O12 0.946942 0.815707 0.885254
O O13 0.776851 0.693366 0.781740
O O14 0.239181 0.778673 0.693669
O O15 0.125741 0.092912 0.826833
O O16 0.000000 0.000000 0.000000
O O17 0.912300 0.188104 0.784875
#
# Coordination Sequence:
#
# PCOD9020999 Si02
#       8
#     2   2   2   2   2   2   2   2
#     4  10  26  46  74 104 147 190 238 289 358 431
#     4  11  25  46  73 106 139 178 238 306 364 427
#     4  10  22  37  64 101 140 190 236 294 340 420
#     4  10  25  44  71 100 152 191 239 283 358 420
#     4  11  26  43  76 106 137 183 244 297 362 430
#     4   9  21  36  60  98 139 178 239 290 344 405
#     4  11  23  39  68 101 137 186 237 292 354 417
#     4  10  26  46  72 100 149 186 235 299 361 432
#
# _framework density 21.762917999999999
#
# number of rings (size 3 to 8) (size 9 to 14) (size 15 to 20)
#    0.750    1.000    1.250    0.750   14.000    1.000 
#    0.000    2.500    0.000    0.000    0.000    0.000 
#    0.000    0.000    0.000    0.000    0.000    0.000 
#
# Total GULP energy -89081.972126 kJ/mol
# GULP energy per Si atom -5567.623258 kJ/mol
# Density = 2.171338 g / cm^3
# Si number density = 21.762918 Si / 1000 Ang^3
#
#
#
# Elastic Constant Matrix: (Units=GPa)
#
#
# Indices 1 2 3 4 5 6 
#
# 1 82.6681 36.4402 35.9944 9.9345 -13.0069 1.9750
# 2 36.4402 123.2298 44.3410 12.0314 -7.6441 3.7377
# 3 35.9944 44.3410 96.2788 11.9325 -22.2293 2.5528
# 4 9.9345 12.0314 11.9325 38.6410 0.0908 1.9422
# 5 -13.0069 -7.6441 -22.2293 0.0908 34.3006 7.7814
# 6 1.9750 3.7377 2.5528 1.9422 7.7814 30.1460
#
#
#
# Elastic Compliance Matrix: (Units=1/GPa)
#
#
# Indices 1 2 3 4 5 6 
#
# 1 0.015696 -0.002962 -0.003466 -0.001996 0.003298 -0.001090
# 2 -0.002962 0.010420 -0.003790 -0.001290 -0.001165 -0.000393
# 3 -0.003466 -0.003790 0.015854 -0.002708 0.008742 -0.002727
# 4 -0.001996 -0.001290 -0.002708 0.027665 -0.002747 -0.000553
# 5 0.003298 -0.001165 0.008742 -0.002747 0.038198 -0.010495
# 6 -0.001090 -0.000393 -0.002727 -0.000553 -0.010495 0.036268
#
#
# Mechanical properties :
#
#
# Convention : Reuss Voigt Hill
#
# Bulk Modulus (GPa) = 46.43846 59.52535 52.98191
# Shear Modulus (GPa) = 29.11781 32.97758 31.04769
#
# Velocity S-wave (km/s) = 3.66178 3.89692 3.78118
# Velocity P-wave (km/s) = 6.26600 6.90356 6.59249
#
# Compressibility (1/GPa) = 0.02153387
#
# Stress axis : x y z
#
# Youngs Moduli (GPa) = 63.70973 95.96729 63.07450
#
# Poissons Ratio (x) = 0.28423 0.21864
# Poissons Ratio (y) = 0.18869 0.23907
# Poissons Ratio (z) = 0.22084 0.36375
#
# Static dielectric constant tensor:
#      x y z
#    x 1.890400 0.014700 -0.042240 
#    y 0.014700 1.912000 0.012040 
#    z -0.042240 0.012040 1.791880 
# 
# From -- ./inp_files/592721.got.cif
#   From: 2010.05.17/outbox.cif.g08.bks.cpg/sg2_297_cif.got.tgz:592721.got - 2010.06.03 11:33:40.
