data_PCOD9020868
_publ_section_title
;
Structure prediction by ZEFSAII (Michael W. Deem and Ramdas Pophale) SiO2 
 PCOD9020868
Probable space group: P -1
;
_chemical_formula_sum "Si O2"
_cell_formula_units_Z 13
_cell_length_a 22.131359
_cell_length_b 9.472548
_cell_length_c 20.468104
_cell_angle_alpha 146.647528
_cell_angle_beta 18.486777
_cell_angle_gamma 155.657733
_cell_volume 547.054250
_symmetry_space_group_name_H-M "P -1"
_symmetry_group_IT_number 2
_symmetry_cell_setting 'triclinic'
loop_
_space_group_symop_operation_xyz
x,y,z
-x,-y,-z
loop_
_atom_site_type_symbol
_atom_site_label
_atom_site_fract_x
_atom_site_fract_y
_atom_site_fract_z
Si Si1 0.291673 0.144854 0.114720
Si Si2 0.207779 0.253075 0.467779
Si Si3 0.595211 0.415994 0.025914
Si Si4 0.987236 0.355044 0.210974
Si Si5 0.500000 0.500000 0.500000
Si Si6 0.050759 0.818809 0.102692
Si Si7 0.649129 0.556598 0.238126
O O1 0.465581 0.159926 0.996843
O O2 0.128758 0.862973 0.115611
O O3 0.500000 0.500000 0.000000
O O4 0.075442 0.112589 0.362759
O O5 0.357155 0.265945 0.259380
O O6 0.408271 0.399916 0.378034
O O7 0.141248 0.489404 0.611216
O O8 0.812410 0.467730 0.865191
O O9 0.733003 0.805988 0.010705
O O10 0.138789 0.387266 0.003765
O O11 0.765555 0.938581 0.291665
O O12 0.581548 0.373213 0.305845
O O13 0.779420 0.715499 0.332383
O O14 0.000000 0.500000 0.000000
#
# Coordination Sequence:
#
# PCOD9020868 Si02
#       7
#     2   2   2   2   1   2   2
#     4  10  23  44  63  91 130 167 205 263 320 370
#     4  11  22  39  67  90 120 174 213 254 313 377
#     4  10  23  43  65  92 133 166 207 260 315 374
#     4  10  22  39  61  95 129 162 212 258 314 376
#     4  12  22  38  64  90 132 168 202 264 322 358
#     4  11  25  41  67  97 126 167 215 259 311 376
#     4  10  22  37  60  95 133 161 204 269 316 364
#
# _framework density 23.763641
#
# number of rings (size 3 to 8) (size 9 to 14) (size 15 to 20)
#    0.000    1.538    3.077    0.923    4.308    0.615 
#    0.000    1.538    0.000   11.077    0.000    0.000 
#    0.000    0.000    0.000    0.000    0.000    0.000 
#
# Total GULP energy -72407.665210 kJ/mol
# GULP energy per Si atom -5569.820401 kJ/mol
# Density = 2.370955 g / cm^3
# Si number density = 23.763641 Si / 1000 Ang^3
#
#
#
# Elastic Constant Matrix: (Units=GPa)
#
#
# Indices 1 2 3 4 5 6 
#
# 1 185.6055 22.8633 17.7281 -2.3333 -25.4658 36.2897
# 2 22.8633 81.8968 24.4157 -7.8820 -10.8692 2.6196
# 3 17.7281 24.4157 88.2171 -17.5526 -15.8766 4.6782
# 4 -2.3333 -7.8820 -17.5526 28.3139 6.4823 -7.8679
# 5 -25.4658 -10.8692 -15.8766 6.4823 30.0691 -5.9733
# 6 36.2897 2.6196 4.6782 -7.8679 -5.9733 39.2599
#
#
#
# Elastic Compliance Matrix: (Units=1/GPa)
#
#
# Indices 1 2 3 4 5 6 
#
# 1 0.007558 -0.001383 -0.000497 -0.003068 0.004970 -0.006693
# 2 -0.001383 0.013879 -0.002871 0.001854 0.002208 0.001402
# 3 -0.000497 -0.002871 0.014505 0.007359 0.004839 0.001134
# 4 -0.003068 0.001854 0.007359 0.044160 -0.005610 0.009832
# 5 0.004970 0.002208 0.004839 -0.005610 0.042019 -0.000049
# 6 -0.006693 0.001402 0.001134 0.009832 -0.000049 0.033392
#
#
# Mechanical properties :
#
#
# Convention : Reuss Voigt Hill
#
# Bulk Modulus (GPa) = 37.82337 53.97041 45.89689
# Shear Modulus (GPa) = 28.76385 38.90939 33.83662
#
# Velocity S-wave (km/s) = 3.48288 4.05081 3.77753
# Velocity P-wave (km/s) = 5.66789 6.68127 6.19533
#
# Compressibility (1/GPa) = 0.02643868
#
# Stress axis : x y z
#
# Youngs Moduli (GPa) = 132.31738 72.04944 68.94059
#
# Poissons Ratio (x) = 0.09966 0.03426
# Poissons Ratio (y) = 0.18303 0.19796
# Poissons Ratio (z) = 0.06576 0.20689
#
# Static dielectric constant tensor:
#      x y z
#    x 2.008440 -0.082010 0.068660 
#    y -0.082010 1.981970 -0.037150 
#    z 0.068660 -0.037150 1.931980 
# 
# From -- ./inp_files/535147.got.cif
#   From: 2010.05.17/outbox.cif.g08.bks.cpg/sg2_268_cif.got.tgz:535147.got - 2010.06.03 11:33:40.
