data_PCOD9020540
_publ_section_title
;
Structure prediction by ZEFSAII (Michael W. Deem and Ramdas Pophale) SiO2 
 PCOD9020540
Probable space group: P -1
;
_chemical_formula_sum "Si O2"
_cell_formula_units_Z 16
_cell_length_a 29.737013
_cell_length_b 15.470038
_cell_length_c 9.190648
_cell_angle_alpha 50.887887
_cell_angle_beta 40.736137
_cell_angle_gamma 18.332742
_cell_volume 783.171262
_symmetry_space_group_name_H-M "P -1"
_symmetry_group_IT_number 2
_symmetry_cell_setting 'triclinic'
loop_
_space_group_symop_operation_xyz
x,y,z
-x,-y,-z
loop_
_atom_site_type_symbol
_atom_site_label
_atom_site_fract_x
_atom_site_fract_y
_atom_site_fract_z
Si Si1 0.523753 0.582644 0.661014
Si Si2 0.346775 0.048947 0.463976
Si Si3 0.452225 0.699498 0.014289
Si Si4 0.959464 0.646195 0.663691
Si Si5 0.529913 0.962471 0.293932
Si Si6 0.042489 0.599656 0.180997
Si Si7 0.450889 0.293481 0.974647
Si Si8 0.303985 0.722108 0.725814
O O1 0.364905 0.898041 0.644298
O O2 0.472316 0.531576 0.869262
O O3 0.687166 0.332168 0.406252
O O4 0.567886 0.562701 0.734767
O O5 0.471548 0.939169 0.376911
O O6 0.428543 0.919592 0.236870
O O7 0.134845 0.409089 0.587752
O O8 0.236727 0.012270 0.159795
O O9 0.437750 0.805898 0.069473
O O10 0.954563 0.519885 0.789238
O O11 0.992670 0.644907 0.422228
O O12 0.500000 0.000000 0.500000
O O13 0.406833 0.245652 0.217176
O O14 0.749993 0.659880 0.053647
O O15 0.876731 0.929095 0.180284
O O16 0.308369 0.603313 0.937937
O O17 0.500000 0.500000 0.500000
#
# Coordination Sequence:
#
# PCOD9020540 Si02
#       8
#     2   2   2   2   2   2   2   2
#     4  10  22  36  59  95 136 167 204 265 338 378
#     4  11  24  40  65  96 129 174 219 267 317 393
#     4  11  20  38  61 100 133 168 201 277 333 381
#     4  11  20  37  68 100 126 159 228 273 322 379
#     4  12  26  47  64  93 138 180 216 265 332 389
#     4  11  22  40  68  98 127 175 217 271 324 390
#     4  11  21  40  68  90 129 173 221 262 320 391
#     4  11  20  39  65  99 128 167 218 270 324 384
#
# _framework density 20.429758
#
# number of rings (size 3 to 8) (size 9 to 14) (size 15 to 20)
#    0.000    1.000    5.000    3.375    0.000    0.500 
#    2.250    4.375    0.000    0.000    0.000    0.000 
#    0.000    0.000    0.000    0.000    0.000    0.000 
#
# Total GULP energy -89276.254059 kJ/mol
# GULP energy per Si atom -5579.765879 kJ/mol
# Density = 2.038326 g / cm^3
# Si number density = 20.429758 Si / 1000 Ang^3
#
#
#
# Elastic Constant Matrix: (Units=GPa)
#
#
# Indices 1 2 3 4 5 6 
#
# 1 109.9583 30.3647 40.3440 4.1219 11.9927 -4.1588
# 2 30.3647 129.9657 45.0179 -19.5237 -5.8379 15.4180
# 3 40.3440 45.0179 62.0876 -12.3532 8.0014 2.5090
# 4 4.1219 -19.5237 -12.3532 38.6608 -10.9665 -0.0647
# 5 11.9927 -5.8379 8.0014 -10.9665 29.8270 -2.6967
# 6 -4.1588 15.4180 2.5090 -0.0647 -2.6967 21.9775
#
#
#
# Elastic Compliance Matrix: (Units=1/GPa)
#
#
# Indices 1 2 3 4 5 6 
#
# 1 0.013741 -0.002211 -0.008100 -0.006838 -0.005908 0.004331
# 2 -0.002211 0.012924 -0.007246 0.006426 0.007022 -0.007778
# 3 -0.008100 -0.007246 0.028140 0.005105 -0.003844 -0.000118
# 4 -0.006838 0.006426 0.005105 0.035837 0.015418 -0.004388
# 5 -0.005908 0.007022 -0.003844 0.015418 0.043961 -0.000166
# 6 0.004331 -0.007778 -0.000118 -0.004388 -0.000166 0.051757
#
#
# Mechanical properties :
#
#
# Convention : Reuss Voigt Hill
#
# Bulk Modulus (GPa) = 50.78690 59.27385 55.03038
# Shear Modulus (GPa) = 21.92599 30.51205 26.21902
#
# Velocity S-wave (km/s) = 3.27959 3.86879 3.58631
# Velocity P-wave (km/s) = 6.26531 7.00237 6.64407
#
# Compressibility (1/GPa) = 0.01969012
#
# Stress axis : x y z
#
# Youngs Moduli (GPa) = 72.77288 77.37296 35.53716
#
# Poissons Ratio (x) = 0.17109 0.28785
# Poissons Ratio (y) = 0.16092 0.25752
# Poissons Ratio (z) = 0.58946 0.56067
#
# Static dielectric constant tensor:
#      x y z
#    x 1.794600 0.000320 0.015010 
#    y 0.000320 1.737020 -0.028920 
#    z 0.015010 -0.028920 1.731300 
# 
# From -- ./inp_files/357370.got.cif
#   From: 2010.05.17/outbox.cif.g08.bks.cpg/sg2_179_cif.got.tgz:357370.got - 2010.06.03 11:33:40.
