data_PCOD9020825
_publ_section_title
;
Structure prediction by ZEFSAII (Michael W. Deem and Ramdas Pophale) SiO2 
 PCOD9020825
Probable space group: P -1
;
_chemical_formula_sum "Si O2"
_cell_formula_units_Z 16
_cell_length_a 5.122522
_cell_length_b 22.008378
_cell_length_c 15.036022
_cell_angle_alpha 25.671692
_cell_angle_beta 89.811219
_cell_angle_gamma 87.921559
_cell_volume 732.180371
_symmetry_space_group_name_H-M "P -1"
_symmetry_group_IT_number 2
_symmetry_cell_setting 'triclinic'
loop_
_space_group_symop_operation_xyz
x,y,z
-x,-y,-z
loop_
_atom_site_type_symbol
_atom_site_label
_atom_site_fract_x
_atom_site_fract_y
_atom_site_fract_z
Si Si1 0.415365 0.272785 0.766544
Si Si2 0.768945 0.436168 0.668691
Si Si3 0.779561 0.207460 0.700375
Si Si4 0.525055 0.792404 0.827729
Si Si5 0.712422 0.014506 0.284091
Si Si6 0.236989 0.932207 0.487673
Si Si7 0.069339 0.051429 0.070367
Si Si8 0.245530 0.470024 0.742188
O O1 0.215909 0.411214 0.578788
O O2 0.505979 0.220512 0.737498
O O3 0.671964 0.326358 0.742908
O O4 0.280316 0.151125 0.978438
O O5 0.017725 0.406162 0.769663
O O6 0.510591 0.466669 0.689275
O O7 0.638845 0.162339 0.141610
O O8 0.835620 0.364469 0.462243
O O9 0.797000 0.096993 0.766437
O O10 0.970230 0.136871 0.869416
O O11 0.334439 0.816821 0.712009
O O12 0.724504 0.916960 0.663201
O O13 0.674546 0.639748 0.035199
O O14 0.835217 0.029897 0.166834
O O15 0.453833 0.932326 0.408549
O O16 0.950522 0.935599 0.443817
#
# Coordination Sequence:
#
# PCOD9020825 Si02
#       8
#     2   2   2   2   2   2   2   2
#     4  10  22  38  57  82 124 168 207 254 305 345
#     4  10  24  36  58  88 128 153 205 252 308 369
#     4  10  24  41  57  85 126 172 214 252 288 357
#     4   9  22  36  65  89 125 154 191 256 327 372
#     4  10  22  37  59  94 117 157 206 250 304 369
#     4   9  21  39  60  91 123 151 196 252 325 370
#     4  11  23  40  62  83 124 173 217 248 290 355
#     4  11  23  39  60  93 124 164 199 250 319 369
#
# _framework density 21.852537999999999
#
# number of rings (size 3 to 8) (size 9 to 14) (size 15 to 20)
#    0.750    1.250    1.250    0.750    8.750    1.500 
#    0.000    0.000    0.000    1.500    0.000    0.000 
#    0.000    0.000    0.000    0.000    0.000    0.750 
#
# Total GULP energy -89370.186996 kJ/mol
# GULP energy per Si atom -5585.636687 kJ/mol
# Density = 2.180280 g / cm^3
# Si number density = 21.852538 Si / 1000 Ang^3
#
#
#
# Elastic Constant Matrix: (Units=GPa)
#
#
# Indices 1 2 3 4 5 6 
#
# 1 91.7593 22.9963 27.6444 -0.6321 5.6808 -7.1852
# 2 22.9963 85.4154 50.4364 -13.0877 -3.9842 -15.8200
# 3 27.6444 50.4364 129.4232 -8.2802 26.8292 4.1453
# 4 -0.6321 -13.0877 -8.2802 28.8898 -1.8763 4.5195
# 5 5.6808 -3.9842 26.8292 -1.8763 38.3511 7.5585
# 6 -7.1852 -15.8200 4.1453 4.5195 7.5585 24.5870
#
#
#
# Elastic Compliance Matrix: (Units=1/GPa)
#
#
# Indices 1 2 3 4 5 6 
#
# 1 0.012273 -0.001985 -0.001747 -0.001766 -0.001560 0.003408
# 2 -0.001985 0.020911 -0.009171 0.005486 0.006927 0.011283
# 3 -0.001747 -0.009171 0.013766 0.000087 -0.009150 -0.005935
# 4 -0.001766 0.005486 0.000087 0.038125 0.003647 -0.005130
# 5 -0.001560 0.006927 -0.009150 0.003647 0.034750 -0.005810
# 6 0.003408 0.011283 -0.005935 -0.005130 -0.005810 0.052657
#
#
# Mechanical properties :
#
#
# Convention : Reuss Voigt Hill
#
# Bulk Modulus (GPa) = 47.29424 56.52801 51.91113
# Shear Modulus (GPa) = 24.35018 32.06697 28.20857
#
# Velocity S-wave (km/s) = 3.34173 3.83485 3.59675
# Velocity P-wave (km/s) = 6.04805 6.74776 6.40746
#
# Compressibility (1/GPa) = 0.02114422
#
# Stress axis : x y z
#
# Youngs Moduli (GPa) = 81.47917 47.82200 72.64125
#
# Poissons Ratio (x) = 0.09493 0.12687
# Poissons Ratio (y) = 0.16174 0.66622
# Poissons Ratio (z) = 0.14231 0.43859
#
# Static dielectric constant tensor:
#      x y z
#    x 1.879860 -0.001190 0.005450 
#    y -0.001190 1.819570 0.036350 
#    z 0.005450 0.036350 1.879860 
# 
# From -- ./inp_files/458816.got.cif
#   From: 2010.05.17/outbox.cif.g08.bks.cpg/sg2_230_cif.got.tgz:458816.got - 2010.06.03 11:33:40.
