data_PCOD9020135
_publ_section_title
;
Structure prediction by ZEFSAII (Michael W. Deem and Ramdas Pophale) SiO2 
 PCOD9020135
Probable space group: P -1
;
_chemical_formula_sum "Si O2"
_cell_formula_units_Z 14
_cell_length_a 10.494444
_cell_length_b 7.388857
_cell_length_c 10.680466
_cell_angle_alpha 99.876061
_cell_angle_beta 37.375446
_cell_angle_gamma 84.221731
_cell_volume 454.741857
_symmetry_space_group_name_H-M "P -1"
_symmetry_group_IT_number 2
_symmetry_cell_setting 'triclinic'
loop_
_space_group_symop_operation_xyz
x,y,z
-x,-y,-z
loop_
_atom_site_type_symbol
_atom_site_label
_atom_site_fract_x
_atom_site_fract_y
_atom_site_fract_z
Si Si1 0.476743 0.692875 0.213969
Si Si2 0.784574 0.520770 0.339890
Si Si3 0.024366 0.041136 0.307457
Si Si4 0.356295 0.251225 0.167708
Si Si5 0.361984 0.804543 0.811275
Si Si6 0.808717 0.810580 0.143502
Si Si7 0.128417 0.617816 0.247994
O O1 0.645785 0.762488 0.167199
O O2 0.650408 0.459539 0.027296
O O3 0.231144 0.792943 0.480657
O O4 0.047807 0.467015 0.679905
O O5 0.528289 0.585411 0.601504
O O6 0.783541 0.704407 0.276500
O O7 0.930649 0.319312 0.124245
O O8 0.191829 0.145762 0.234756
O O9 0.467031 0.776922 0.089318
O O10 0.022204 0.853869 0.367418
O O11 0.223005 0.492374 0.285373
O O12 0.299687 0.952074 0.756889
O O13 0.121835 0.919531 0.087012
O O14 0.533531 0.818903 0.791396
#
# Coordination Sequence:
#
# PCOD9020135 Si02
#       7
#     2   2   2   2   2   2   2
#     4   9  22  47  64 107 143 181 241 289 346 429
#     4  10  22  44  73 100 140 186 238 295 353 415
#     4  12  23  42  76 100 145 199 226 285 372 416
#     4  10  25  49  64 108 153 179 239 292 353 431
#     4  12  24  42  68 106 138 188 236 287 360 422
#     4  10  21  46  72  97 143 189 228 303 356 402
#     4   9  23  46  65 108 139 186 238 288 350 421
#
# _framework density 30.786695000000002
#
# number of rings (size 3 to 8) (size 9 to 14) (size 15 to 20)
#    0.857    0.857    1.429    1.714    0.000    4.000 
#    5.143    2.857    0.000    8.571    0.000    0.000 
#    0.000    0.000    0.000    0.000    0.000    0.000 
#
# Total GULP energy -78385.727892 kJ/mol
# GULP energy per Si atom -5598.980564 kJ/mol
# Density = 3.071662 g / cm^3
# Si number density = 30.786695 Si / 1000 Ang^3
#
#
#
# Elastic Constant Matrix: (Units=GPa)
#
#
# Indices 1 2 3 4 5 6 
#
# 1 78.2300 21.8306 29.5235 1.9099 0.8763 -18.9527
# 2 21.8306 162.1203 43.5712 44.1142 3.4663 -14.1080
# 3 29.5235 43.5712 307.5038 22.6778 -3.0569 1.0062
# 4 1.9099 44.1142 22.6778 64.5456 -5.6248 1.8898
# 5 0.8763 3.4663 -3.0569 -5.6248 48.9344 5.1251
# 6 -18.9527 -14.1080 1.0062 1.8898 5.1251 64.7299
#
#
#
# Elastic Compliance Matrix: (Units=1/GPa)
#
#
# Indices 1 2 3 4 5 6 
#
# 1 0.014638 -0.001509 -0.001275 0.000881 -0.000552 0.003995
# 2 -0.001509 0.008214 -0.000631 -0.005517 -0.001399 0.001630
# 3 -0.001275 -0.000631 0.003522 -0.000729 0.000263 -0.000565
# 4 0.000881 -0.005517 -0.000729 0.019787 0.002785 -0.001731
# 5 -0.000552 -0.001399 0.000263 0.002785 0.021114 -0.002224
# 6 0.003995 0.001630 -0.000565 -0.001731 -0.002224 0.017209
#
#
# Mechanical properties :
#
#
# Convention : Reuss Voigt Hill
#
# Bulk Modulus (GPa) = 51.16783 81.96719 66.56751
# Shear Modulus (GPa) = 51.10967 65.83723 58.47345
#
# Velocity S-wave (km/s) = 4.07888 4.62940 4.36283
# Velocity P-wave (km/s) = 6.23211 7.43352 6.85917
#
# Compressibility (1/GPa) = 0.01954353
#
# Stress axis : x y z
#
# Youngs Moduli (GPa) = 68.31755 121.74100 283.92236
#
# Poissons Ratio (x) = 0.18366 0.36203
# Poissons Ratio (y) = 0.10306 0.17927
# Poissons Ratio (z) = 0.08711 0.07687
#
# Static dielectric constant tensor:
#      x y z
#    x 2.389550 0.013420 -0.014220 
#    y 0.013420 2.472820 -0.069750 
#    z -0.014220 -0.069750 2.449100 
# 
# From -- ./inp_files/426133.got.cif
#   From: 2010.05.17/outbox.cif.g08.bks.cpg/sg2_214_cif.got.tgz:426133.got - 2010.06.03 11:33:40.
