data_PCOD9020875
_publ_section_title
;
Structure prediction by ZEFSAII (Michael W. Deem and Ramdas Pophale) SiO2 
 PCOD9020875
Probable space group: P -1
;
_chemical_formula_sum "Si O2"
_cell_formula_units_Z 14
_cell_length_a 8.194325
_cell_length_b 11.924279
_cell_length_c 13.103108
_cell_angle_alpha 147.172409
_cell_angle_beta 70.183412
_cell_angle_gamma 89.524996
_cell_volume 534.320422
_symmetry_space_group_name_H-M "P -1"
_symmetry_group_IT_number 2
_symmetry_cell_setting 'triclinic'
loop_
_space_group_symop_operation_xyz
x,y,z
-x,-y,-z
loop_
_atom_site_type_symbol
_atom_site_label
_atom_site_fract_x
_atom_site_fract_y
_atom_site_fract_z
Si Si1 0.131909 0.886086 0.648642
Si Si2 0.218811 0.142313 0.194137
Si Si3 0.597121 0.925363 0.576153
Si Si4 0.777211 0.798451 0.999533
Si Si5 0.924201 0.262067 0.647533
Si Si6 0.243835 0.415484 0.892607
Si Si7 0.418911 0.417250 0.360707
O O1 0.138279 0.883388 0.523793
O O2 0.332229 0.637193 0.465589
O O3 0.948001 0.859786 0.703247
O O4 0.105160 0.123526 0.889965
O O5 0.248057 0.360540 0.387273
O O6 0.175027 0.178056 0.108779
O O7 0.417640 0.850375 0.931758
O O8 0.659737 0.672583 0.308223
O O9 0.823057 0.883558 0.505958
O O10 0.472191 0.995440 0.763000
O O11 0.414691 0.164731 0.730396
O O12 0.844690 0.521538 0.802273
O O13 0.795936 0.358276 0.854783
O O14 0.000000 0.500000 0.000000
O O15 0.500000 0.500000 0.500000
#
# Coordination Sequence:
#
# PCOD9020875 Si02
#       7
#     2   2   2   2   2   2   2
#     4  12  25  38  57  86 123 162 201 249 296 345
#     4  11  25  39  58  84 120 159 205 250 296 348
#     4   9  19  36  64  87 118 154 194 246 299 353
#     4  11  23  38  57  89 118 157 208 241 295 357
#     4  10  22  37  61  86 121 154 197 248 300 354
#     4   8  16  37  64  92 114 152 194 241 305 354
#     4  11  24  40  61  82 114 163 210 247 297 347
#
# _framework density 26.201505999999998
#
# number of rings (size 3 to 8) (size 9 to 14) (size 15 to 20)
#    0.000    1.714    2.857    0.857    4.000    1.143 
#    0.000    0.714    0.000   29.143    0.000    0.000 
#    0.000    0.000    0.000    0.000    0.000    0.000 
#
# Total GULP energy -78312.774600 kJ/mol
# GULP energy per Si atom -5593.769614 kJ/mol
# Density = 2.614187 g / cm^3
# Si number density = 26.201506 Si / 1000 Ang^3
#
#
#
# Elastic Constant Matrix: (Units=GPa)
#
#
# Indices 1 2 3 4 5 6 
#
# 1 100.4471 10.2966 51.8549 -21.7809 20.5639 -14.9525
# 2 10.2966 69.7839 43.8414 -1.2486 3.1766 -12.9870
# 3 51.8549 43.8414 127.5069 -33.4638 -10.0859 -6.3567
# 4 -21.7809 -1.2486 -33.4638 46.1955 -13.2686 5.4944
# 5 20.5639 3.1766 -10.0859 -13.2686 61.9546 -3.4737
# 6 -14.9525 -12.9870 -6.3567 5.4944 -3.4737 39.6184
#
#
#
# Elastic Compliance Matrix: (Units=1/GPa)
#
#
# Indices 1 2 3 4 5 6 
#
# 1 0.015889 0.004353 -0.008534 -0.001203 -0.006829 0.005622
# 2 0.004353 0.022774 -0.011947 -0.008636 -0.005966 0.007866
# 3 -0.008534 -0.011947 0.019240 0.012783 0.009033 -0.005031
# 4 -0.001203 -0.008636 0.012783 0.033525 0.009822 -0.005022
# 5 -0.006829 -0.005966 0.009033 0.009822 0.022147 -0.002504
# 6 0.005622 0.007866 -0.005031 -0.005022 -0.002504 0.029611
#
#
# Mechanical properties :
#
#
# Convention : Reuss Voigt Hill
#
# Bulk Modulus (GPa) = 38.99138 56.63598 47.81368
# Shear Modulus (GPa) = 27.17524 42.33669 34.75597
#
# Velocity S-wave (km/s) = 3.22400 4.02408 3.64605
# Velocity P-wave (km/s) = 5.36400 6.57673 6.00108
#
# Compressibility (1/GPa) = 0.02564670
#
# Stress axis : x y z
#
# Youngs Moduli (GPa) = 62.93666 43.90939 51.97571
#
# Poissons Ratio (x) = -0.19112 0.44356
# Poissons Ratio (y) = -0.27394 0.62095
# Poissons Ratio (z) = 0.53710 0.52458
#
# Static dielectric constant tensor:
#      x y z
#    x 2.169320 -0.023340 -0.042080 
#    y -0.023340 2.032300 -0.026130 
#    z -0.042080 -0.026130 2.050760 
# 
# From -- ./inp_files/505781.got.cif
#   From: 2010.05.17/outbox.cif.g08.bks.cpg/sg2_253_cif.got.tgz:505781.got - 2010.06.03 11:33:40.
