data_PCOD9020586
_publ_section_title
;
Structure prediction by ZEFSAII (Michael W. Deem and Ramdas Pophale) SiO2 
 PCOD9020586
Probable space group: P -1
;
_chemical_formula_sum "Si O2"
_cell_formula_units_Z 12
_cell_length_a 16.625514
_cell_length_b 9.285071
_cell_length_c 5.698870
_cell_angle_alpha 73.942756
_cell_angle_beta 90.278198
_cell_angle_gamma 144.999996
_cell_volume 443.945642
_symmetry_space_group_name_H-M "P -1"
_symmetry_group_IT_number 2
_symmetry_cell_setting 'triclinic'
loop_
_space_group_symop_operation_xyz
x,y,z
-x,-y,-z
loop_
_atom_site_type_symbol
_atom_site_label
_atom_site_fract_x
_atom_site_fract_y
_atom_site_fract_z
Si Si1 0.328580 0.774578 0.401580
Si Si2 0.240217 0.874939 0.699605
Si Si3 0.620688 0.446027 0.994201
Si Si4 0.949026 0.849457 0.818460
Si Si5 0.419783 0.562675 0.501500
Si Si6 0.041510 0.426156 0.272609
O O1 0.293013 0.797347 0.637927
O O2 0.162381 0.531019 0.389155
O O3 0.463365 0.096847 0.151883
O O4 0.616066 0.309859 0.553417
O O5 0.118383 0.754107 0.570331
O O6 0.402984 0.204092 0.602143
O O7 0.146975 0.711241 0.010479
O O8 0.632801 0.560752 0.181411
O O9 0.766579 0.570642 0.942663
O O10 0.638241 0.565896 0.700794
O O11 0.008267 0.775302 0.831384
O O12 0.000000 0.000000 0.500000
O O13 0.000000 0.000000 0.000000
#
# Coordination Sequence:
#
# PCOD9020586 Si02
#       6
#     2   2   2   2   2   2
#     4  11  20  35  65  99 126 165 205 277 331 378
#     4  10  22  36  62 106 134 163 195 279 351 379
#     4  11  21  38  63  92 121 161 219 266 312 371
#     4  12  27  45  65  92 129 181 224 260 304 385
#     4  11  20  35  63  95 132 159 205 260 328 385
#     4  11  22  40  64  98 136 164 213 267 336 386
#
# _framework density 27.030336999999999
#
# number of rings (size 3 to 8) (size 9 to 14) (size 15 to 20)
#    0.000    1.000    3.333    6.000    2.333    0.000 
#    0.000    0.000    0.000   14.000    0.000    0.000 
#    0.000    0.000    0.000    0.000    0.000    0.000 
#
# Total GULP energy -67032.711907 kJ/mol
# GULP energy per Si atom -5586.059326 kJ/mol
# Density = 2.696882 g / cm^3
# Si number density = 27.030337 Si / 1000 Ang^3
#
#
#
# Elastic Constant Matrix: (Units=GPa)
#
#
# Indices 1 2 3 4 5 6 
#
# 1 123.2484 44.4960 40.9654 -2.1016 2.8864 28.0720
# 2 44.4960 118.0434 44.0382 12.8297 6.5976 38.8564
# 3 40.9654 44.0382 150.9486 24.4734 -22.5015 -1.2888
# 4 -2.1016 12.8297 24.4734 50.8171 8.3516 -6.3379
# 5 2.8864 6.5976 -22.5015 8.3516 33.8307 -0.9891
# 6 28.0720 38.8564 -1.2888 -6.3379 -0.9891 52.0891
#
#
#
# Elastic Compliance Matrix: (Units=1/GPa)
#
#
# Indices 1 2 3 4 5 6 
#
# 1 0.011028 -0.001246 -0.003673 0.002577 -0.003919 -0.004866
# 2 -0.001246 0.014720 -0.004564 -0.001989 -0.005624 -0.010770
# 3 -0.003673 -0.004564 0.011440 -0.005561 0.010337 0.005187
# 4 0.002577 -0.001989 -0.005561 0.024892 -0.009594 0.002804
# 5 -0.003919 -0.005624 0.010337 -0.009594 0.040414 0.006163
# 6 -0.004866 -0.010770 0.005187 0.002804 0.006163 0.030441
#
#
# Mechanical properties :
#
#
# Convention : Reuss Voigt Hill
#
# Bulk Modulus (GPa) = 54.88018 72.35995 63.62007
# Shear Modulus (GPa) = 31.65073 44.86345 38.25709
#
# Velocity S-wave (km/s) = 3.42560 4.07842 3.76618
# Velocity P-wave (km/s) = 5.99947 7.00043 6.51919
#
# Compressibility (1/GPa) = 0.01822152
#
# Stress axis : x y z
#
# Youngs Moduli (GPa) = 90.67513 67.93629 87.41398
#
# Poissons Ratio (x) = 0.08467 0.32106
# Poissons Ratio (y) = 0.11301 0.39896
# Poissons Ratio (z) = 0.33304 0.31006
#
# Static dielectric constant tensor:
#      x y z
#    x 2.150340 -0.113650 0.059070 
#    y -0.113650 2.279940 0.045540 
#    z 0.059070 0.045540 2.200020 
# 
# From -- ./inp_files/32642.got.cif
#   From: 2010.05.17/outbox.cif.g08.bks.cpg/sg2_17_cif.got.tgz:32642.got - 2010.06.03 11:33:40.
