data_PCOD9020042
_publ_section_title
;
Structure prediction by ZEFSAII (Michael W. Deem and Ramdas Pophale) SiO2 
 PCOD9020042
Probable space group: P -1
;
_chemical_formula_sum "Si O2"
_cell_formula_units_Z 14
_cell_length_a 11.794784
_cell_length_b 10.492550
_cell_length_c 11.589754
_cell_angle_alpha 145.149554
_cell_angle_beta 52.415276
_cell_angle_gamma 127.289589
_cell_volume 631.704991
_symmetry_space_group_name_H-M "P -1"
_symmetry_group_IT_number 2
_symmetry_cell_setting 'triclinic'
loop_
_space_group_symop_operation_xyz
x,y,z
-x,-y,-z
loop_
_atom_site_type_symbol
_atom_site_label
_atom_site_fract_x
_atom_site_fract_y
_atom_site_fract_z
Si Si1 0.935174 0.478045 0.396990
Si Si2 0.176952 0.102659 0.284220
Si Si3 0.686899 0.920946 0.400864
Si Si4 0.620008 0.151567 0.377489
Si Si5 0.466786 0.144097 0.018070
Si Si6 0.771309 0.207324 0.783973
Si Si7 0.951938 0.685358 0.011184
O O1 0.929071 0.724289 0.530425
O O2 0.767232 0.339487 0.404097
O O3 0.000000 0.500000 0.500000
O O4 0.025833 0.341523 0.159242
O O5 0.211133 0.022218 0.330818
O O6 0.325203 0.221895 0.211871
O O7 0.098179 0.860277 0.094746
O O8 0.531593 0.777675 0.442470
O O9 0.652860 0.006281 0.359053
O O10 0.737283 0.133277 0.617192
O O11 0.816849 0.792323 0.210367
O O12 0.587170 0.006016 0.173054
O O13 0.628078 0.281558 0.980513
O O14 0.500000 0.000000 0.000000
O O15 0.908558 0.419324 0.878370
#
# Coordination Sequence:
#
# PCOD9020042 Si02
#       7
#     2   2   2   2   2   2   2
#     4  12  27  42  66 102 136 175 226 268 333 402
#     4  11  24  42  67  97 137 178 218 279 329 388
#     4  10  24  43  68  98 133 175 222 279 324 396
#     4  10  21  46  67  95 137 176 222 272 334 391
#     4   9  20  42  67  97 130 171 224 272 324 396
#     4  10  23  44  64  99 135 171 230 272 325 401
#     4  12  24  41  67  98 132 179 220 275 334 384
#
# _framework density 22.162244000000001
#
# number of rings (size 3 to 8) (size 9 to 14) (size 15 to 20)
#    0.000    1.429    1.429    3.000    4.000    4.571 
#    0.000    5.000    0.000    0.000    0.000    0.000 
#    0.000    0.000    0.000    0.000    0.000    0.000 
#
# Total GULP energy -78134.660268 kJ/mol
# GULP energy per Si atom -5581.047162 kJ/mol
# Density = 2.211180 g / cm^3
# Si number density = 22.162244 Si / 1000 Ang^3
#
#
#
# Elastic Constant Matrix: (Units=GPa)
#
#
# Indices 1 2 3 4 5 6 
#
# 1 57.8072 -4.0820 4.4458 -3.7712 12.1124 -8.3464
# 2 -4.0820 81.5727 7.6318 -4.7233 1.4451 19.3298
# 3 4.4458 7.6318 55.9785 -23.0135 -8.2891 -8.0232
# 4 -3.7712 -4.7233 -23.0135 33.6163 6.1125 3.2155
# 5 12.1124 1.4451 -8.2891 6.1125 45.4788 -8.4953
# 6 -8.3464 19.3298 -8.0232 3.2155 -8.4953 35.7815
#
#
#
# Elastic Compliance Matrix: (Units=1/GPa)
#
#
# Indices 1 2 3 4 5 6 
#
# 1 0.018997 0.000709 -0.001137 0.002158 -0.005135 0.002380
# 2 0.000709 0.015029 -0.003401 0.001377 -0.003267 -0.009616
# 3 -0.001137 -0.003401 0.026778 0.016231 0.004450 0.007175
# 4 0.002158 0.001377 0.016231 0.042055 -0.003541 -0.001221
# 5 -0.005135 -0.003267 0.004450 -0.003541 0.026263 0.008119
# 6 0.002380 -0.009616 0.007175 -0.001221 0.008119 0.037343
#
#
# Mechanical properties :
#
#
# Convention : Reuss Voigt Hill
#
# Bulk Modulus (GPa) = 18.81668 23.48327 21.14997
# Shear Modulus (GPa) = 26.06344 35.46619 30.76482
#
# Velocity S-wave (km/s) = 3.43305 4.00471 3.72985
# Velocity P-wave (km/s) = 4.92172 5.65709 5.30217
#
# Compressibility (1/GPa) = 0.05314433
#
# Stress axis : x y z
#
# Youngs Moduli (GPa) = 52.64067 66.53864 37.34385
#
# Poissons Ratio (x) = -0.04717 0.04247
# Poissons Ratio (y) = -0.03732 0.12702
# Poissons Ratio (z) = 0.05987 0.22632
#
# Static dielectric constant tensor:
#      x y z
#    x 1.775690 0.031260 0.033760 
#    y 0.031260 1.866440 -0.029250 
#    z 0.033760 -0.029250 1.662240 
# 
# From -- ./inp_files/363743.got.cif
#   From: 2010.05.17/outbox.cif.g08.bks.cpg/sg2_182_cif.got.tgz:363743.got - 2010.06.03 11:33:40.
