data_PCOD9020164
_publ_section_title
;
Structure prediction by ZEFSAII (Michael W. Deem and Ramdas Pophale) SiO2 
 PCOD9020164
Probable space group: P -1
;
_chemical_formula_sum "Si O2"
_cell_formula_units_Z 14
_cell_length_a 12.535698
_cell_length_b 10.839508
_cell_length_c 6.985412
_cell_angle_alpha 52.507201
_cell_angle_beta 129.923810
_cell_angle_gamma 113.610083
_cell_volume 577.482957
_symmetry_space_group_name_H-M "P -1"
_symmetry_group_IT_number 2
_symmetry_cell_setting 'triclinic'
loop_
_space_group_symop_operation_xyz
x,y,z
-x,-y,-z
loop_
_atom_site_type_symbol
_atom_site_label
_atom_site_fract_x
_atom_site_fract_y
_atom_site_fract_z
Si Si1 0.322480 0.141694 0.644628
Si Si2 0.524379 0.320914 0.192000
Si Si3 0.655450 0.935350 0.707858
Si Si4 0.620745 0.201982 0.826670
Si Si5 0.080917 0.366388 0.097012
Si Si6 0.217167 0.647330 0.814943
Si Si7 0.086763 0.854115 0.172159
O O1 0.310859 0.089973 0.454387
O O2 0.473107 0.225372 0.744602
O O3 0.193083 0.252683 0.435540
O O4 0.343850 0.980607 0.934978
O O5 0.376123 0.231622 0.076123
O O6 0.585043 0.271544 0.514429
O O7 0.645780 0.305661 0.191899
O O8 0.500000 0.500000 0.000000
O O9 0.500000 0.000000 0.500000
O O10 0.770204 0.055327 0.800245
O O11 0.977657 0.250105 0.972649
O O12 0.745130 0.292925 0.987481
O O13 0.172309 0.468536 0.953426
O O14 0.000000 0.500000 0.000000
O O15 0.102175 0.742405 0.479262
O O16 0.000000 0.000000 0.000000
#
# Coordination Sequence:
#
# PCOD9020164 Si02
#       7
#     2   2   2   2   2   2   2
#     4  10  21  46  76 114 156 210 273 336 404 481
#     4  11  25  42  76 121 157 197 261 340 419 473
#     4  11  20  43  79 116 153 203 276 333 400 478
#     4  10  22  44  79 112 154 199 267 351 403 478
#     4  12  29  50  76 115 169 223 270 330 417 492
#     4  12  25  49  72 114 163 205 270 334 407 474
#     4  12  25  50  81 111 159 220 272 330 396 493
#
# _framework density 24.243141999999999
#
# number of rings (size 3 to 8) (size 9 to 14) (size 15 to 20)
#    0.000    0.857    4.286    2.143    2.000    2.286 
#    2.571    1.429    0.000    0.000    0.000    0.000 
#    0.000    0.000    0.000    0.000    0.000    0.000 
#
# Total GULP energy -78216.940956 kJ/mol
# GULP energy per Si atom -5586.924354 kJ/mol
# Density = 2.418796 g / cm^3
# Si number density = 24.243142 Si / 1000 Ang^3
#
#
#
# Elastic Constant Matrix: (Units=GPa)
#
#
# Indices 1 2 3 4 5 6 
#
# 1 110.0698 47.0036 52.3243 1.1507 2.5667 0.8349
# 2 47.0036 193.8214 74.3479 0.1341 3.7438 18.7974
# 3 52.3243 74.3479 161.9925 -6.8251 13.3723 -3.1905
# 4 1.1507 0.1341 -6.8251 36.9498 -0.2182 -2.8617
# 5 2.5667 3.7438 13.3723 -0.2182 47.3969 -13.5730
# 6 0.8349 18.7974 -3.1905 -2.8617 -13.5730 43.0614
#
#
#
# Elastic Compliance Matrix: (Units=1/GPa)
#
#
# Indices 1 2 3 4 5 6 
#
# 1 0.011167 -0.001629 -0.002925 -0.000851 0.000449 0.000363
# 2 -0.001629 0.006941 -0.002702 -0.000746 -0.000694 -0.003467
# 3 -0.002925 -0.002702 0.008596 0.001794 -0.001621 0.001481
# 4 -0.000851 -0.000746 0.001794 0.027616 0.000426 0.002445
# 5 0.000449 -0.000694 -0.001621 0.000426 0.023794 0.007702
# 6 0.000363 -0.003467 0.001481 0.002445 0.007702 0.027429
#
#
# Mechanical properties :
#
#
# Convention : Reuss Voigt Hill
#
# Bulk Modulus (GPa) = 82.01924 90.35948 86.18936
# Shear Modulus (GPa) = 40.28352 44.96214 42.62283
#
# Velocity S-wave (km/s) = 4.08075 4.31122 4.19757
# Velocity P-wave (km/s) = 7.49058 7.88259 7.68908
#
# Compressibility (1/GPa) = 0.01219226
#
# Stress axis : x y z
#
# Youngs Moduli (GPa) = 89.54878 144.07001 116.32655
#
# Poissons Ratio (x) = 0.23475 0.34025
# Poissons Ratio (y) = 0.14591 0.31429
# Poissons Ratio (z) = 0.26193 0.38925
#
# Static dielectric constant tensor:
#      x y z
#    x 2.244250 0.054580 0.095870 
#    y 0.054580 2.082920 0.074350 
#    z 0.095870 0.074350 2.038650 
# 
# From -- ./inp_files/266546.got.cif
#   From: 2010.05.17/outbox.cif.g08.bks.cpg/sg2_134_cif.got.tgz:266546.got - 2010.06.03 11:33:40.
