data_PCOD9020160
_publ_section_title
;
Structure prediction by ZEFSAII (Michael W. Deem and Ramdas Pophale) SiO2 
 PCOD9020160
Probable space group: P -1
;
_chemical_formula_sum "Si O2"
_cell_formula_units_Z 14
_cell_length_a 5.295254
_cell_length_b 10.205796
_cell_length_c 19.679488
_cell_angle_alpha 147.822613
_cell_angle_beta 106.122450
_cell_angle_gamma 80.608482
_cell_volume 538.702609
_symmetry_space_group_name_H-M "P -1"
_symmetry_group_IT_number 2
_symmetry_cell_setting 'triclinic'
loop_
_space_group_symop_operation_xyz
x,y,z
-x,-y,-z
loop_
_atom_site_type_symbol
_atom_site_label
_atom_site_fract_x
_atom_site_fract_y
_atom_site_fract_z
Si Si1 0.500000 0.500000 0.500000
Si Si2 0.268092 0.159916 0.064328
Si Si3 0.072608 0.595236 0.946912
Si Si4 0.496980 0.514572 0.354822
Si Si5 0.500000 0.000000 0.500000
Si Si6 0.226419 0.874531 0.209449
Si Si7 0.282872 0.238655 0.714445
Si Si8 0.998276 0.220523 0.441959
O O1 0.412445 0.418190 0.380112
O O2 0.735282 0.308983 0.434109
O O3 0.367736 0.341909 0.211934
O O4 0.190251 0.303091 0.054131
O O5 0.500000 0.000000 0.000000
O O6 0.000000 0.000000 0.000000
O O7 0.202990 0.501351 0.847059
O O8 0.004576 0.338079 0.871658
O O9 0.228047 0.803717 0.099134
O O10 0.415742 0.788145 0.458084
O O11 0.816133 0.570119 0.411066
O O12 0.613906 0.791748 0.366673
O O13 0.489278 0.815526 0.240189
O O14 0.170061 0.140506 0.353863
O O15 0.033299 0.025147 0.619736
#
# Coordination Sequence:
#
# PCOD9020160 Si02
#       8
#     1   2   2   2   1   2   2   2
#     4  12  26  48  74 116 158 214 248 338 410 500
#     4  12  33  55  77 116 163 225 268 326 409 502
#     4  10  25  46  78 105 159 205 272 329 396 488
#     4  12  29  50  82 112 160 207 273 333 410 490
#     4  12  24  46  78 116 164 200 268 340 408 482
#     4  10  21  46  75 116 147 201 263 340 404 474
#     4  11  23  43  73 121 152 205 261 339 414 478
#     4  11  24  45  76 117 154 202 266 334 412 484
#
# _framework density 25.988363
#
# number of rings (size 3 to 8) (size 9 to 14) (size 15 to 20)
#    0.000    0.857    2.857    1.714   10.000    2.857 
#    0.000    0.000    0.000    0.000    0.000    0.000 
#    0.000    0.000    0.000    0.000    0.000    0.000 
#
# Total GULP energy -77976.297504 kJ/mol
# GULP energy per Si atom -5569.735536 kJ/mol
# Density = 2.592921 g / cm^3
# Si number density = 25.988363 Si / 1000 Ang^3
#
#
#
# Elastic Constant Matrix: (Units=GPa)
#
#
# Indices 1 2 3 4 5 6 
#
# 1 97.7011 12.4428 39.8220 7.7511 -8.7498 -10.6779
# 2 12.4428 111.3835 45.5701 -4.4200 -2.5923 -9.0216
# 3 39.8220 45.5701 147.9179 -28.2598 6.5440 -13.9475
# 4 7.7511 -4.4200 -28.2598 44.7213 -3.8613 -10.7104
# 5 -8.7498 -2.5923 6.5440 -3.8613 44.2552 10.6417
# 6 -10.6779 -9.0216 -13.9475 -10.7104 10.6417 45.5320
#
#
#
# Elastic Compliance Matrix: (Units=1/GPa)
#
#
# Indices 1 2 3 4 5 6 
#
# 1 0.012681 0.000316 -0.004580 -0.004858 0.002820 -0.000168
# 2 0.000316 0.010390 -0.003457 -0.000982 0.000947 0.000622
# 3 -0.004580 -0.003457 0.011189 0.008296 -0.003082 0.004340
# 4 -0.004858 -0.000982 0.008296 0.030292 -0.001701 0.008731
# 5 0.002820 0.000947 -0.003082 -0.001701 0.025043 -0.006349
# 6 -0.000168 0.000622 0.004340 0.008731 -0.006349 0.026913
#
#
# Mechanical properties :
#
#
# Convention : Reuss Voigt Hill
#
# Bulk Modulus (GPa) = 53.13679 61.40803 57.27241
# Shear Modulus (GPa) = 36.17303 44.17955 40.17629
#
# Velocity S-wave (km/s) = 3.73486 4.12755 3.93610
# Velocity P-wave (km/s) = 6.25217 6.81145 6.53779
#
# Compressibility (1/GPa) = 0.01881935
#
# Stress axis : x y z
#
# Youngs Moduli (GPa) = 78.85576 96.24190 89.37148
#
# Poissons Ratio (x) = -0.03046 0.40934
# Poissons Ratio (y) = -0.02496 0.30897
# Poissons Ratio (z) = 0.36118 0.33272
#
# Static dielectric constant tensor:
#      x y z
#    x 1.654650 -0.203010 0.014630 
#    y -0.203010 1.921080 -0.030030 
#    z 0.014630 -0.030030 1.937200 
# 
# From -- ./inp_files/468095.got.cif
#   From: 2010.05.17/outbox.cif.g08.bks.cpg/sg2_235_cif.got.tgz:468095.got - 2010.06.03 11:33:40.
