data_PCOD9020124
_publ_section_title
;
Structure prediction by ZEFSAII (Michael W. Deem and Ramdas Pophale) SiO2 
 PCOD9020124
Probable space group: P -1
;
_chemical_formula_sum "Si O2"
_cell_formula_units_Z 14
_cell_length_a 11.815431
_cell_length_b 10.730074
_cell_length_c 5.506112
_cell_angle_alpha 119.725441
_cell_angle_beta 95.941074
_cell_angle_gamma 105.903438
_cell_volume 558.546880
_symmetry_space_group_name_H-M "P -1"
_symmetry_group_IT_number 2
_symmetry_cell_setting 'triclinic'
loop_
_space_group_symop_operation_xyz
x,y,z
-x,-y,-z
loop_
_atom_site_type_symbol
_atom_site_label
_atom_site_fract_x
_atom_site_fract_y
_atom_site_fract_z
Si Si1 0.368999 0.969981 0.191085
Si Si2 0.505509 0.237359 0.105601
Si Si3 0.278720 0.448012 0.559468
Si Si4 0.114654 0.873128 0.852438
Si Si5 0.299817 0.206214 0.676601
Si Si6 0.037679 0.439422 0.701886
Si Si7 0.896643 0.815264 0.058921
O O1 0.456212 0.117659 0.199414
O O2 0.312162 0.046069 0.454321
O O3 0.438189 0.856459 0.156729
O O4 0.249749 0.873571 0.910895
O O5 0.613144 0.397231 0.348860
O O6 0.393629 0.265370 0.978068
O O7 0.332959 0.334760 0.599823
O O8 0.183843 0.483099 0.754806
O O9 0.190842 0.347890 0.231581
O O10 0.036441 0.745195 0.519491
O O11 0.033637 0.833479 0.042746
O O12 0.126009 0.045116 0.950995
O O13 0.159834 0.175810 0.685493
O O14 0.000000 0.500000 0.500000
O O15 0.000000 0.500000 0.000000
#
# Coordination Sequence:
#
# PCOD9020124 Si02
#       7
#     2   2   2   2   2   2   2
#     4  11  24  46  69 103 139 194 239 297 372 433
#     4  11  25  45  67  99 146 191 242 302 357 445
#     4  11  25  45  70 104 144 190 239 308 364 436
#     4  10  21  46  71  99 142 184 234 302 368 436
#     4  12  23  43  69 105 138 185 252 294 366 441
#     4  11  27  49  74 112 149 196 244 303 382 446
#     4  10  23  42  68 104 134 179 239 300 372 428
#
# _framework density 25.065038999999999
#
# number of rings (size 3 to 8) (size 9 to 14) (size 15 to 20)
#    0.000    1.143    2.857    1.714    4.000    6.286 
#    5.143    0.000    0.000    0.000    0.000    0.000 
#    0.000    0.000    0.000    0.000    0.000    0.000 
#
# Total GULP energy -78379.923714 kJ/mol
# GULP energy per Si atom -5598.565980 kJ/mol
# Density = 2.500799 g / cm^3
# Si number density = 25.065039 Si / 1000 Ang^3
#
#
#
# Elastic Constant Matrix: (Units=GPa)
#
#
# Indices 1 2 3 4 5 6 
#
# 1 119.0492 39.1184 25.0592 7.8636 -7.5137 5.6284
# 2 39.1184 96.7647 33.8198 17.3551 14.8408 14.5322
# 3 25.0592 33.8198 99.9750 13.3108 -18.3376 18.7032
# 4 7.8636 17.3551 13.3108 34.4787 4.6831 12.3634
# 5 -7.5137 14.8408 -18.3376 4.6831 44.6664 0.6072
# 6 5.6284 14.5322 18.7032 12.3634 0.6072 45.5026
#
#
#
# Elastic Compliance Matrix: (Units=1/GPa)
#
#
# Indices 1 2 3 4 5 6 
#
# 1 0.010141 -0.004345 -0.000548 -0.000478 0.002969 0.000449
# 2 -0.004345 0.015830 -0.004927 -0.003526 -0.007624 -0.001433
# 3 -0.000548 -0.004927 0.014249 -0.002655 0.007722 -0.003597
# 4 -0.000478 -0.003526 -0.002655 0.034971 -0.003568 -0.007178
# 5 0.002969 -0.007624 0.007722 -0.003568 0.028972 -0.000524
# 6 0.000449 -0.001433 -0.003597 -0.007178 -0.000524 0.025815
#
#
# Mechanical properties :
#
#
# Convention : Reuss Voigt Hill
#
# Bulk Modulus (GPa) = 48.58873 56.86486 52.72679
# Shear Modulus (GPa) = 31.95377 39.44898 35.70137
#
# Velocity S-wave (km/s) = 3.57436 3.97150 3.77815
# Velocity P-wave (km/s) = 6.03836 6.61563 6.33358
#
# Compressibility (1/GPa) = 0.02058090
#
# Stress axis : x y z
#
# Youngs Moduli (GPa) = 98.61315 63.17288 70.17892
#
# Poissons Ratio (x) = 0.27448 0.03844
# Poissons Ratio (y) = 0.42847 0.34575
# Poissons Ratio (z) = 0.05401 0.31123
#
# Static dielectric constant tensor:
#      x y z
#    x 1.983900 -0.009850 -0.032800 
#    y -0.009850 1.985690 -0.032840 
#    z -0.032800 -0.032840 2.056710 
# 
# From -- ./inp_files/72229.got.cif
#   From: 2010.05.17/outbox.cif.g08.bks.cpg/sg2_37_cif.got.tgz:72229.got - 2010.06.03 11:33:40.
