data_PCOD9020474
_publ_section_title
;
Structure prediction by ZEFSAII (Michael W. Deem and Ramdas Pophale) SiO2 
 PCOD9020474
Probable space group: P -1
;
_chemical_formula_sum "Si O2"
_cell_formula_units_Z 14
_cell_length_a 5.003067
_cell_length_b 16.374250
_cell_length_c 10.606856
_cell_angle_alpha 116.308339
_cell_angle_beta 76.525545
_cell_angle_gamma 126.038692
_cell_volume 629.394723
_symmetry_space_group_name_H-M "P -1"
_symmetry_group_IT_number 2
_symmetry_cell_setting 'triclinic'
loop_
_space_group_symop_operation_xyz
x,y,z
-x,-y,-z
loop_
_atom_site_type_symbol
_atom_site_label
_atom_site_fract_x
_atom_site_fract_y
_atom_site_fract_z
Si Si1 0.442023 0.570919 0.381317
Si Si2 0.413874 0.085340 0.122061
Si Si3 0.859217 0.787173 0.896174
Si Si4 0.311402 0.191676 0.554914
Si Si5 0.340254 0.932475 0.598688
Si Si6 0.918478 0.097299 0.794205
Si Si7 0.718980 0.435979 0.310685
O O1 0.539493 0.680223 0.372894
O O2 0.703331 0.537389 0.333446
O O3 0.384659 0.584787 0.544592
O O4 0.095160 0.471565 0.294168
O O5 0.258165 0.134699 0.086211
O O6 0.792697 0.181729 0.184159
O O7 0.128835 0.006465 0.198351
O O8 0.500000 0.000000 0.000000
O O9 0.551315 0.668404 0.810365
O O10 0.944215 0.808666 0.051073
O O11 0.547376 0.152163 0.466811
O O12 0.042560 0.144064 0.440686
O O13 0.139676 0.138225 0.672549
O O14 0.500000 0.000000 0.500000
O O15 0.534767 0.031731 0.745419
#
# Coordination Sequence:
#
# PCOD9020474 Si02
#       7
#     2   2   2   2   2   2   2
#     4  10  22  41  63  85 114 151 203 256 295 343
#     4  10  22  36  56  87 123 159 193 228 288 361
#     4  11  23  39  61  88 120 160 197 241 301 346
#     4  11  23  39  61  88 120 160 197 241 301 346
#     4  10  22  36  56  87 123 159 193 228 288 361
#     4  10  22  38  58  88 126 154 190 242 284 362
#     4  10  22  41  63  85 114 151 203 256 295 343
#
# _framework density 22.243593000000001
#
# number of rings (size 3 to 8) (size 9 to 14) (size 15 to 20)
#    0.000    1.714    0.000    5.143    4.000    9.143 
#    0.000    1.429    0.000    0.000    0.000    0.000 
#    0.000    0.000    0.000    0.000    0.000    0.000 
#
# Total GULP energy -78056.782023 kJ/mol
# GULP energy per Si atom -5575.484430 kJ/mol
# Density = 2.219297 g / cm^3
# Si number density = 22.243593 Si / 1000 Ang^3
#
#
#
# Elastic Constant Matrix: (Units=GPa)
#
#
# Indices 1 2 3 4 5 6 
#
# 1 136.6765 25.8361 28.8082 -5.9093 12.3387 -7.1112
# 2 25.8361 89.2854 44.8415 4.4271 1.4197 -8.7657
# 3 28.8082 44.8415 116.1866 7.7361 32.1848 10.6881
# 4 -5.9093 4.4271 7.7361 27.2732 8.4264 7.1017
# 5 12.3387 1.4197 32.1848 8.4264 33.1729 9.9999
# 6 -7.1112 -8.7657 10.6881 7.1017 9.9999 33.7718
#
#
#
# Elastic Compliance Matrix: (Units=1/GPa)
#
#
# Indices 1 2 3 4 5 6 
#
# 1 0.008400 -0.002004 -0.000646 0.002984 -0.003753 0.001937
# 2 -0.002004 0.016456 -0.008104 -0.004457 0.007488 0.005134
# 3 -0.000646 -0.008104 0.016095 0.001988 -0.014490 -0.003461
# 4 0.002984 -0.004457 0.001988 0.042834 -0.011710 -0.006698
# 5 -0.003753 0.007488 -0.014490 -0.011710 0.050268 -0.006683
# 6 0.001937 0.005134 -0.003461 -0.006698 -0.006683 0.035834
#
#
# Mechanical properties :
#
#
# Convention : Reuss Voigt Hill
#
# Bulk Modulus (GPa) = 51.43622 60.12444 55.78033
# Shear Modulus (GPa) = 25.26836 35.02110 30.14473
#
# Velocity S-wave (km/s) = 3.37409 3.97222 3.68531
# Velocity P-wave (km/s) = 6.19303 6.93734 6.57573
#
# Compressibility (1/GPa) = 0.01944155
#
# Stress axis : x y z
#
# Youngs Moduli (GPa) = 119.04311 60.76819 62.13281
#
# Poissons Ratio (x) = 0.12179 0.04017
# Poissons Ratio (y) = 0.23858 0.50352
# Poissons Ratio (z) = 0.07696 0.49246
#
# Static dielectric constant tensor:
#      x y z
#    x 1.897970 0.005570 0.001820 
#    y 0.005570 1.856630 -0.010280 
#    z 0.001820 -0.010280 1.934190 
# 
# From -- ./inp_files/368710.got.cif
#   From: 2010.05.17/outbox.cif.g08.bks.cpg/sg2_185_cif.got.tgz:368710.got - 2010.06.03 11:33:40.
