data_PCOD9020996
_publ_section_title
;
Structure prediction by ZEFSAII (Michael W. Deem and Ramdas Pophale) SiO2 
 PCOD9020996
Probable space group: P -1
;
_chemical_formula_sum "Si O2"
_cell_formula_units_Z 14
_cell_length_a 5.430937
_cell_length_b 11.477816
_cell_length_c 11.169676
_cell_angle_alpha 118.172137
_cell_angle_beta 109.410455
_cell_angle_gamma 92.072796
_cell_volume 563.070140
_symmetry_space_group_name_H-M "P -1"
_symmetry_group_IT_number 2
_symmetry_cell_setting 'triclinic'
loop_
_space_group_symop_operation_xyz
x,y,z
-x,-y,-z
loop_
_atom_site_type_symbol
_atom_site_label
_atom_site_fract_x
_atom_site_fract_y
_atom_site_fract_z
Si Si1 0.901552 0.821588 0.153101
Si Si2 0.648677 0.814165 0.491477
Si Si3 0.088773 0.661695 0.559632
Si Si4 0.731578 0.444913 0.703385
Si Si5 0.760580 0.548165 0.142080
Si Si6 0.515735 0.668939 0.810739
Si Si7 0.540480 0.958432 0.313795
O O1 0.855639 0.706892 0.195161
O O2 0.738340 0.930651 0.228624
O O3 0.224787 0.873519 0.211409
O O4 0.736015 0.761147 0.976803
O O5 0.491280 0.674803 0.334317
O O6 0.684253 0.919899 0.439213
O O7 0.878084 0.756360 0.564640
O O8 0.499582 0.890409 0.599957
O O9 0.166723 0.639225 0.424466
O O10 0.317651 0.726866 0.723798
O O11 0.000000 0.500000 0.500000
O O12 0.651537 0.575633 0.700816
O O13 0.963965 0.498566 0.861088
O O14 0.663816 0.451936 0.196252
O O15 0.500000 0.500000 0.000000
#
# Coordination Sequence:
#
# PCOD9020996 Si02
#       7
#     2   2   2   2   2   2   2
#     4  11  25  44  70 100 138 180 230 277 341 407
#     4  11  26  43  70  98 133 177 228 286 335 404
#     4  12  24  41  63 100 137 172 228 277 348 404
#     4  12  21  40  66  97 134 174 224 286 343 398
#     4  10  22  37  63  98 139 171 220 276 349 401
#     4  11  25  40  64 100 136 179 221 283 344 411
#     4  11  26  47  72 100 135 183 231 280 338 403
#
# _framework density 24.863686000000001
#
# number of rings (size 3 to 8) (size 9 to 14) (size 15 to 20)
#    0.000    0.857    4.286    2.143    6.000    2.286 
#    0.000    1.429    0.000    0.000    0.000    0.000 
#    0.000    0.000    0.000    0.000    0.000    0.000 
#
# Total GULP energy -77979.150265 kJ/mol
# GULP energy per Si atom -5569.939305 kJ/mol
# Density = 2.480710 g / cm^3
# Si number density = 24.863686 Si / 1000 Ang^3
#
#
#
# Elastic Constant Matrix: (Units=GPa)
#
#
# Indices 1 2 3 4 5 6 
#
# 1 74.3403 50.2415 31.0692 -3.6864 23.5093 -26.4426
# 2 50.2415 120.4389 47.7496 -9.5024 13.9800 -42.1146
# 3 31.0692 47.7496 106.2069 -21.9950 26.0742 -13.1091
# 4 -3.6864 -9.5024 -21.9950 44.4940 -6.2207 5.3996
# 5 23.5093 13.9800 26.0742 -6.2207 44.0662 3.0063
# 6 -26.4426 -42.1146 -13.1091 5.3996 3.0063 60.4288
#
#
#
# Elastic Compliance Matrix: (Units=1/GPa)
#
#
# Indices 1 2 3 4 5 6 
#
# 1 0.023676 -0.005987 -0.001232 -0.002240 -0.010773 0.006657
# 2 -0.005987 0.014752 -0.004214 -0.000173 0.000523 0.006737
# 3 -0.001232 -0.004214 0.014036 0.005239 -0.005529 -0.000624
# 4 -0.002240 -0.000173 0.005239 0.025389 0.001893 -0.002327
# 5 -0.010773 0.000523 -0.005529 0.001893 0.032313 -0.007326
# 6 0.006657 0.006737 -0.000624 -0.002327 -0.007326 0.024594
#
#
# Mechanical properties :
#
#
# Convention : Reuss Voigt Hill
#
# Bulk Modulus (GPa) = 33.78430 62.12295 47.95363
# Shear Modulus (GPa) = 29.85219 41.25953 35.55586
#
# Velocity S-wave (km/s) = 3.46878 4.07803 3.78568
# Velocity P-wave (km/s) = 5.44615 6.87120 6.19976
#
# Compressibility (1/GPa) = 0.02959954
#
# Stress axis : x y z
#
# Youngs Moduli (GPa) = 42.23648 67.78569 71.24638
#
# Poissons Ratio (x) = 0.40581 0.08777
# Poissons Ratio (y) = 0.25285 0.30022
# Poissons Ratio (z) = 0.05203 0.28564
#
# Static dielectric constant tensor:
#      x y z
#    x 2.278820 0.022410 0.013160 
#    y 0.022410 1.948840 0.019420 
#    z 0.013160 0.019420 2.060540 
# 
# From -- ./inp_files/65796.got.cif
#   From: 2010.05.17/outbox.cif.g08.bks.cpg/sg2_33_cif.got.tgz:65796.got - 2010.06.03 11:33:40.
