data_PCOD9020861
_publ_section_title
;
Structure prediction by ZEFSAII (Michael W. Deem and Ramdas Pophale) SiO2 
 PCOD9020861
Probable space group: P -1
;
_chemical_formula_sum "Si O2"
_cell_formula_units_Z 16
_cell_length_a 13.516556
_cell_length_b 14.537362
_cell_length_c 13.277936
_cell_angle_alpha 150.110117
_cell_angle_beta 42.682709
_cell_angle_gamma 148.115170
_cell_volume 686.766980
_symmetry_space_group_name_H-M "P -1"
_symmetry_group_IT_number 2
_symmetry_cell_setting 'triclinic'
loop_
_space_group_symop_operation_xyz
x,y,z
-x,-y,-z
loop_
_atom_site_type_symbol
_atom_site_label
_atom_site_fract_x
_atom_site_fract_y
_atom_site_fract_z
Si Si1 0.728804 0.510286 0.864442
Si Si2 0.856903 0.377340 0.116976
Si Si3 0.914728 0.738948 0.277239
Si Si4 0.744115 0.183171 0.672846
Si Si5 0.074899 0.020394 0.076087
Si Si6 0.643944 0.057412 0.161129
Si Si7 0.641755 0.685380 0.268334
Si Si8 0.254658 0.505474 0.402976
O O1 0.701952 0.281795 0.704231
O O2 0.727742 0.503637 0.738890
O O3 0.927686 0.760551 0.984247
O O4 0.601601 0.540815 0.058563
O O5 0.804564 0.522704 0.234397
O O6 0.706765 0.176459 0.116842
O O7 0.052464 0.595133 0.230125
O O8 0.917337 0.259897 0.885697
O O9 0.777349 0.677229 0.230004
O O10 0.000000 0.000000 0.500000
O O11 0.575491 0.094743 0.794199
O O12 0.729238 0.956764 0.441320
O O13 0.272522 0.074226 0.994881
O O14 0.096999 0.244228 0.314378
O O15 0.000000 0.000000 0.000000
O O16 0.756998 0.291483 0.369780
O O17 0.451078 0.585980 0.373851
#
# Coordination Sequence:
#
# PCOD9020861 Si02
#       8
#     2   2   2   2   2   2   2   2
#     4  11  22  40  65  96 134 185 214 271 328 393
#     4  11  24  45  69  97 130 175 218 278 339 386
#     4  11  23  43  74  95 127 173 223 273 337 400
#     4  11  23  41  69  96 135 175 222 268 335 390
#     4  10  22  37  60  93 128 174 220 265 317 383
#     4  11  24  43  67  99 137 174 220 278 324 397
#     4  11  22  40  67  95 131 173 223 278 322 392
#     4  10  25  40  63 100 137 175 225 265 332 396
#
# _framework density 23.297567999999998
#
# number of rings (size 3 to 8) (size 9 to 14) (size 15 to 20)
#    0.000    1.250    3.750    1.125    1.750    8.000 
#    0.000    5.000    2.750    0.000    0.000    0.000 
#    0.000    0.000    0.000    0.000    0.000    0.000 
#
# Total GULP energy -89345.906170 kJ/mol
# GULP energy per Si atom -5584.119136 kJ/mol
# Density = 2.324454 g / cm^3
# Si number density = 23.297568 Si / 1000 Ang^3
#
#
#
# Elastic Constant Matrix: (Units=GPa)
#
#
# Indices 1 2 3 4 5 6 
#
# 1 82.7090 36.5403 26.2831 -0.2386 -15.6081 -27.8770
# 2 36.5403 107.0223 6.8130 8.9926 -18.7726 -23.6034
# 3 26.2831 6.8130 102.5315 32.0444 -14.6282 -26.7757
# 4 -0.2386 8.9926 32.0444 34.1935 -8.4888 0.4358
# 5 -15.6081 -18.7726 -14.6282 -8.4888 32.1480 7.7589
# 6 -27.8770 -23.6034 -26.7757 0.4358 7.7589 22.3604
#
#
#
# Elastic Compliance Matrix: (Units=1/GPa)
#
#
# Indices 1 2 3 4 5 6 
#
# 1 0.021967 -0.000062 0.003752 -0.002665 0.004302 0.030373
# 2 -0.000062 0.018294 0.013819 -0.017207 0.004016 0.034723
# 3 0.003752 0.013819 0.036646 -0.038495 0.001069 0.063526
# 4 -0.002665 -0.017207 -0.038495 0.072630 0.007610 -0.071639
# 5 0.004302 0.004016 0.001069 0.007610 0.038685 -0.002689
# 6 0.030373 0.034723 0.063526 -0.071639 -0.002689 0.197640
#
#
# Mechanical properties :
#
#
# Convention : Reuss Voigt Hill
#
# Bulk Modulus (GPa) = 8.93465 47.94842 28.44153
# Shear Modulus (GPa) = 12.88154 32.58214 22.73184
#
# Velocity S-wave (km/s) = 2.35396 3.74374 3.12704
# Velocity P-wave (km/s) = 3.35135 6.27001 5.02715
#
# Compressibility (1/GPa) = 0.11192386
#
# Stress axis : x y z
#
# Youngs Moduli (GPa) = 45.52283 54.66414 27.28799
#
# Poissons Ratio (x) = 0.00338 -0.10237
# Poissons Ratio (y) = 0.00281 -0.37708
# Poissons Ratio (z) = -0.17078 -0.75539
#
# Static dielectric constant tensor:
#      x y z
#    x 1.938310 0.018250 -0.012310 
#    y 0.018250 1.941240 -0.028090 
#    z -0.012310 -0.028090 1.888250 
# 
# From -- ./inp_files/534560.got.cif
#   From: 2010.05.17/outbox.cif.g08.bks.cpg/sg2_268_cif.got.tgz:534560.got - 2010.06.03 11:33:40.
