data_PCOD9020145
_publ_section_title
;
Structure prediction by ZEFSAII (Michael W. Deem and Ramdas Pophale) SiO2 
 PCOD9020145
Probable space group: P -1
;
_chemical_formula_sum "Si O2"
_cell_formula_units_Z 12
_cell_length_a 7.921314
_cell_length_b 13.159180
_cell_length_c 13.526817
_cell_angle_alpha 33.790583
_cell_angle_beta 40.728203
_cell_angle_gamma 51.067180
_cell_volume 511.657118
_symmetry_space_group_name_H-M "P -1"
_symmetry_group_IT_number 2
_symmetry_cell_setting 'triclinic'
loop_
_space_group_symop_operation_xyz
x,y,z
-x,-y,-z
loop_
_atom_site_type_symbol
_atom_site_label
_atom_site_fract_x
_atom_site_fract_y
_atom_site_fract_z
Si Si1 0.229210 0.680277 0.536973
Si Si2 0.548895 0.924496 0.431585
Si Si3 0.703674 0.760653 0.826503
Si Si4 0.065753 0.686994 0.377804
Si Si5 0.508270 0.959182 0.913609
Si Si6 0.292770 0.553662 0.805905
O O1 0.159821 0.641508 0.485222
O O2 0.332373 0.526350 0.692490
O O3 0.956503 0.744039 0.658488
O O4 0.450084 0.837596 0.312487
O O5 0.345894 0.764298 0.629090
O O6 0.818438 0.819487 0.388503
O O7 0.500000 0.000000 0.500000
O O8 0.497693 0.098321 0.244840
O O9 0.745685 0.851564 0.843403
O O10 0.576661 0.565864 0.069288
O O11 0.272144 0.816506 0.124784
O O12 0.000000 0.500000 0.500000
O O13 0.500000 0.000000 0.000000
O O14 0.000000 0.500000 0.000000
#
# Coordination Sequence:
#
# PCOD9020145 Si02
#       6
#     2   2   2   2   2   2
#     4  10  21  46  74 101 137 194 244 294 342 438
#     4  12  25  46  75 106 145 188 237 303 359 425
#     4  11  22  44  74 104 143 181 251 288 356 421
#     4  11  25  47  69 108 149 187 235 298 368 425
#     4  10  22  41  71  99 137 188 235 290 354 423
#     4  10  24  42  71 107 136 184 239 298 345 420
#
# _framework density 23.453206000000002
#
# number of rings (size 3 to 8) (size 9 to 14) (size 15 to 20)
#    0.000    1.333    3.333    1.500    2.333    1.333 
#    9.000    2.500    0.000    0.000    0.000    0.000 
#    0.000    0.000    0.000    0.000    0.000    0.000 
#
# Total GULP energy -66871.640188 kJ/mol
# GULP energy per Si atom -5572.636682 kJ/mol
# Density = 2.339983 g / cm^3
# Si number density = 23.453206 Si / 1000 Ang^3
#
#
#
# Elastic Constant Matrix: (Units=GPa)
#
#
# Indices 1 2 3 4 5 6 
#
# 1 105.3383 57.3177 83.3094 -7.2268 17.2305 14.7214
# 2 57.3177 151.5283 55.0600 17.9456 8.9641 3.9823
# 3 83.3094 55.0600 211.1628 -4.9565 32.2894 5.9059
# 4 -7.2268 17.9456 -4.9565 43.4254 -9.0209 5.0842
# 5 17.2305 8.9641 32.2894 -9.0209 47.5420 -0.6649
# 6 14.7214 3.9823 5.9059 5.0842 -0.6649 37.1253
#
#
#
# Elastic Compliance Matrix: (Units=1/GPa)
#
#
# Indices 1 2 3 4 5 6 
#
# 1 0.017906 -0.005240 -0.005235 0.005077 -0.001072 -0.006420
# 2 -0.005240 0.009334 -0.000463 -0.005099 -0.000488 0.001840
# 3 -0.005235 -0.000463 0.007356 -0.000602 -0.003112 0.000982
# 4 0.005077 -0.005099 -0.000602 0.027473 0.004673 -0.005049
# 5 -0.001072 -0.000488 -0.003112 0.004673 0.024526 0.000772
# 6 -0.006420 0.001840 0.000982 -0.005049 0.000772 0.029833
#
#
# Mechanical properties :
#
#
# Convention : Reuss Voigt Hill
#
# Bulk Modulus (GPa) = 78.61920 95.48928 87.05424
# Shear Modulus (GPa) = 35.07683 43.77469 39.42576
#
# Velocity S-wave (km/s) = 3.87151 4.32495 4.10450
# Velocity P-wave (km/s) = 7.31978 8.10824 7.72408
#
# Compressibility (1/GPa) = 0.01271954
#
# Stress axis : x y z
#
# Youngs Moduli (GPa) = 55.84804 107.13353 135.94059
#
# Poissons Ratio (x) = 0.56136 0.71169
# Poissons Ratio (y) = 0.29263 0.06295
# Poissons Ratio (z) = 0.29238 0.04961
#
# Static dielectric constant tensor:
#      x y z
#    x 2.057190 -0.055340 0.094660 
#    y -0.055340 1.998600 -0.032970 
#    z 0.094660 -0.032970 1.978340 
# 
# From -- ./inp_files/501367.got.cif
#   From: 2010.05.17/outbox.cif.g08.bks.cpg/sg2_251_cif.got.tgz:501367.got - 2010.06.03 11:33:40.
