data_PCOD9020697
_publ_section_title
;
Structure prediction by ZEFSAII (Michael W. Deem and Ramdas Pophale) SiO2 
 PCOD9020697
Probable space group: P -1
;
_chemical_formula_sum "Si O2"
_cell_formula_units_Z 15
_cell_length_a 8.346708
_cell_length_b 20.267760
_cell_length_c 10.975120
_cell_angle_alpha 31.861042
_cell_angle_beta 136.245658
_cell_angle_gamma 136.890398
_cell_volume 642.291184
_symmetry_space_group_name_H-M "P -1"
_symmetry_group_IT_number 2
_symmetry_cell_setting 'triclinic'
loop_
_space_group_symop_operation_xyz
x,y,z
-x,-y,-z
loop_
_atom_site_type_symbol
_atom_site_label
_atom_site_fract_x
_atom_site_fract_y
_atom_site_fract_z
Si Si1 0.729067 0.293850 0.248897
Si Si2 0.318468 0.366736 0.044258
Si Si3 0.395111 0.120340 0.004393
Si Si4 0.068873 0.881896 0.662110
Si Si5 0.558991 0.394315 0.548335
Si Si6 0.000000 0.500000 0.500000
Si Si7 0.189067 0.532737 0.184540
Si Si8 0.091514 0.948684 0.287489
O O1 0.478804 0.290575 0.179955
O O2 0.825416 0.173783 0.526436
O O3 0.922406 0.432535 0.179874
O O4 0.752504 0.323181 0.069064
O O5 0.133262 0.260570 0.198781
O O6 0.500000 0.500000 0.000000
O O7 0.145541 0.409012 0.787328
O O8 0.662676 0.109529 0.154273
O O9 0.302406 0.078673 0.155382
O O10 0.414949 0.265321 0.743937
O O11 0.163110 0.038767 0.922507
O O12 0.077727 0.918132 0.468640
O O13 0.000000 0.000000 0.500000
O O14 0.727438 0.381753 0.551012
O O15 0.373436 0.474391 0.303470
O O16 0.758944 0.472958 0.634656
#
# Coordination Sequence:
#
# PCOD9020697 Si02
#       8
#     2   2   2   2   2   1   2   2
#     4  11  22  42  66 100 135 179 234 284 343 410
#     4  12  28  44  71 107 148 187 230 291 363 422
#     4  11  24  47  73 103 135 186 244 291 353 416
#     4  12  28  49  73 105 146 192 237 294 366 432
#     4  11  21  41  64 101 136 177 223 283 346 422
#     4  12  24  44  64 104 148 182 224 284 360 426
#     4  10  22  36  66  97 134 176 228 279 341 408
#     4  11  26  47  76 101 138 186 245 300 342 425
#
# _framework density 23.353892999999999
#
# number of rings (size 3 to 8) (size 9 to 14) (size 15 to 20)
#    0.000    0.800    4.000    2.800    5.600    1.600 
#    0.000    1.333    0.000    0.000    0.000    0.000 
#    0.000    0.000    0.000    0.000    0.000    0.000 
#
# Total GULP energy -83536.733597 kJ/mol
# GULP energy per Si atom -5569.115573 kJ/mol
# Density = 2.330074 g / cm^3
# Si number density = 23.353893 Si / 1000 Ang^3
#
#
#
# Elastic Constant Matrix: (Units=GPa)
#
#
# Indices 1 2 3 4 5 6 
#
# 1 93.7342 27.3375 42.6496 -4.8165 19.2276 27.3833
# 2 27.3375 75.8676 33.9542 -10.8268 8.7296 27.0320
# 3 42.6496 33.9542 120.0018 -2.6166 -4.1428 18.9873
# 4 -4.8165 -10.8268 -2.6166 40.6308 21.2739 -4.6769
# 5 19.2276 8.7296 -4.1428 21.2739 38.5770 -4.2841
# 6 27.3833 27.0320 18.9873 -4.6769 -4.2841 37.1878
#
#
#
# Elastic Compliance Matrix: (Units=1/GPa)
#
#
# Indices 1 2 3 4 5 6 
#
# 1 0.023606 0.006710 -0.007761 0.014595 -0.024305 -0.019261
# 2 0.006710 0.025846 -0.006804 0.015835 -0.020952 -0.020677
# 3 -0.007761 -0.006804 0.012511 -0.007307 0.011299 0.004656
# 4 0.014595 0.015835 -0.007307 0.049515 -0.040837 -0.017004
# 5 -0.024305 -0.020952 0.011299 -0.040837 0.069873 0.030272
# 6 -0.019261 -0.020677 0.004656 -0.017004 0.030272 0.055075
#
#
# Mechanical properties :
#
#
# Convention : Reuss Voigt Hill
#
# Bulk Modulus (GPa) = 21.62108 55.27625 38.44866
# Shear Modulus (GPa) = 18.68775 35.65662 27.17219
#
# Velocity S-wave (km/s) = 2.83185 3.91166 3.41471
# Velocity P-wave (km/s) = 4.46885 6.64243 5.66094
#
# Compressibility (1/GPa) = 0.04625115
#
# Stress axis : x y z
#
# Youngs Moduli (GPa) = 42.36283 38.69062 79.92958
#
# Poissons Ratio (x) = -0.25962 0.62037
# Poissons Ratio (y) = -0.28426 0.54387
# Poissons Ratio (z) = 0.32880 0.26327
#
# Static dielectric constant tensor:
#      x y z
#    x 2.056120 0.028000 -0.041250 
#    y 0.028000 2.004650 0.087640 
#    z -0.041250 0.087640 1.939030 
# 
# From -- ./inp_files/406180.got.cif
#   From: 2010.05.17/outbox.cif.g08.bks.cpg/sg2_204_cif.got.tgz:406180.got - 2010.06.03 11:33:40.
