data_PCOD9020323
_publ_section_title
;
Structure prediction by ZEFSAII (Michael W. Deem and Ramdas Pophale) SiO2 
 PCOD9020323
Probable space group: P -1
;
_chemical_formula_sum "Si O2"
_cell_formula_units_Z 15
_cell_length_a 11.945906
_cell_length_b 10.088235
_cell_length_c 10.755012
_cell_angle_alpha 30.389681
_cell_angle_beta 108.521019
_cell_angle_gamma 113.831240
_cell_volume 598.438814
_symmetry_space_group_name_H-M "P -1"
_symmetry_group_IT_number 2
_symmetry_cell_setting 'triclinic'
loop_
_space_group_symop_operation_xyz
x,y,z
-x,-y,-z
loop_
_atom_site_type_symbol
_atom_site_label
_atom_site_fract_x
_atom_site_fract_y
_atom_site_fract_z
Si Si1 0.848105 0.924543 0.411315
Si Si2 0.893778 0.717552 0.190943
Si Si3 0.743135 0.489558 0.090880
Si Si4 0.480102 0.573346 0.291454
Si Si5 0.106031 0.503172 0.376522
Si Si6 0.650062 0.863920 0.584644
Si Si7 0.695688 0.050998 0.029722
Si Si8 0.000000 0.500000 0.000000
O O1 0.895350 0.658259 0.621236
O O2 0.781204 0.891964 0.542541
O O3 0.745967 0.941417 0.259309
O O4 0.958644 0.182628 0.214594
O O5 0.798555 0.666199 0.088727
O O6 0.845755 0.639120 0.376431
O O7 0.969181 0.497381 0.364002
O O8 0.000000 0.000000 0.000000
O O9 0.660072 0.183200 0.346040
O O10 0.656332 0.657733 0.863192
O O11 0.858759 0.463422 0.063532
O O12 0.500000 0.500000 0.500000
O O13 0.451167 0.311001 0.405680
O O14 0.369101 0.717287 0.136402
O O15 0.599410 0.819269 0.108094
O O16 0.193957 0.797549 0.143001
#
# Coordination Sequence:
#
# PCOD9020323 Si02
#       8
#     2   2   2   2   2   2   2   1
#     4  11  22  39  59  98 130 175 208 269 333 397
#     4  11  26  44  66  90 127 178 235 271 320 388
#     4  11  26  40  63  94 133 178 212 272 339 394
#     4  11  21  36  65  96 132 171 212 268 333 401
#     4  11  23  40  68  91 126 170 230 276 314 387
#     4  11  24  40  63  96 139 169 209 273 338 405
#     4  11  21  37  62  95 133 163 220 269 328 386
#     4  10  22  34  58  86 136 162 206 252 336 402
#
# _framework density 25.065218999999999
#
# number of rings (size 3 to 8) (size 9 to 14) (size 15 to 20)
#    0.000    1.067    2.667    4.000    9.333    1.067 
#    0.000    0.000    0.000    1.600    0.000    0.000 
#    0.000    0.000    0.000    0.000    0.000    0.000 
#
# Total GULP energy -83655.278490 kJ/mol
# GULP energy per Si atom -5577.018566 kJ/mol
# Density = 2.500817 g / cm^3
# Si number density = 25.065219 Si / 1000 Ang^3
#
#
#
# Elastic Constant Matrix: (Units=GPa)
#
#
# Indices 1 2 3 4 5 6 
#
# 1 36.9262 -15.6148 -8.4275 -1.8659 5.1957 0.5263
# 2 -15.6148 137.0157 39.0208 -22.3219 -1.1087 17.3499
# 3 -8.4275 39.0208 113.5274 -16.7518 2.9122 8.8232
# 4 -1.8659 -22.3219 -16.7518 57.1743 10.9315 -5.0317
# 5 5.1957 -1.1087 2.9122 10.9315 28.3131 -4.1709
# 6 0.5263 17.3499 8.8232 -5.0317 -4.1709 29.8460
#
#
#
# Elastic Compliance Matrix: (Units=1/GPa)
#
#
# Indices 1 2 3 4 5 6 
#
# 1 0.030646 0.004049 0.002029 0.004350 -0.007923 -0.003868
# 2 0.004049 0.009446 -0.002054 0.003204 -0.002092 -0.004708
# 3 0.002029 -0.002054 0.010269 0.002648 -0.002800 -0.001823
# 4 0.004350 0.003204 0.002648 0.021395 -0.009266 -0.000410
# 5 -0.007923 -0.002092 -0.002800 -0.009266 0.041503 0.006422
# 6 -0.003868 -0.004708 -0.001823 -0.000410 0.006422 0.037677
#
#
# Mechanical properties :
#
#
# Convention : Reuss Voigt Hill
#
# Bulk Modulus (GPa) = 17.12044 35.26960 26.19502
# Shear Modulus (GPa) = 30.79625 41.23272 36.01449
#
# Velocity S-wave (km/s) = 3.50901 4.06028 3.79467
# Velocity P-wave (km/s) = 4.82314 6.00690 5.44727
#
# Compressibility (1/GPa) = 0.05840970
#
# Stress axis : x y z
#
# Youngs Moduli (GPa) = 32.63056 105.86568 97.37853
#
# Poissons Ratio (x) = -0.42865 -0.19758
# Poissons Ratio (y) = -0.13212 0.20000
# Poissons Ratio (z) = -0.06621 0.21743
#
# Static dielectric constant tensor:
#      x y z
#    x 4.464050 6.518060 7.086740 
#    y 6.518060 20.564470 19.974750 
#    z 7.086740 19.974750 23.554800 
# 
# From -- ./inp_files/70270.got.cif
#   From: 2010.05.17/outbox.cif.g08.bks.cpg/sg2_36_cif.got.tgz:70270.got - 2010.06.03 11:33:40.
