data_PCOD9020545
_publ_section_title
;
Structure prediction by ZEFSAII (Michael W. Deem and Ramdas Pophale) SiO2 
 PCOD9020545
Probable space group: P -1
;
_chemical_formula_sum "Si O2"
_cell_formula_units_Z 16
_cell_length_a 23.842869
_cell_length_b 12.396694
_cell_length_c 5.229868
_cell_angle_alpha 73.433803
_cell_angle_beta 121.502005
_cell_angle_gamma 143.523728
_cell_volume 755.210678
_symmetry_space_group_name_H-M "P -1"
_symmetry_group_IT_number 2
_symmetry_cell_setting 'triclinic'
loop_
_space_group_symop_operation_xyz
x,y,z
-x,-y,-z
loop_
_atom_site_type_symbol
_atom_site_label
_atom_site_fract_x
_atom_site_fract_y
_atom_site_fract_z
Si Si1 0.527376 0.111388 0.740905
Si Si2 0.771753 0.203415 0.088766
Si Si3 0.922417 0.059993 0.873613
Si Si4 0.861373 0.773553 0.597761
Si Si5 0.172998 0.906871 0.038537
Si Si6 0.318381 0.920342 0.540328
Si Si7 0.957872 0.605146 0.436669
Si Si8 0.225963 0.459587 0.938721
O O1 0.500000 0.000000 0.500000
O O2 0.437926 0.089817 0.585149
O O3 0.649695 0.327085 0.899697
O O4 0.500000 0.000000 0.000000
O O5 0.767896 0.066688 0.088616
O O6 0.685412 0.124990 0.147839
O O7 0.890944 0.403663 0.331831
O O8 0.748606 0.234924 0.740626
O O9 0.978019 0.243684 0.742591
O O10 0.873608 0.918033 0.624633
O O11 0.836129 0.984349 0.929499
O O12 0.015849 0.112005 0.195814
O O13 0.797982 0.662187 0.261418
O O14 0.804237 0.631832 0.795376
O O15 0.045707 0.706382 0.801642
O O16 0.241591 0.924922 0.386554
O O17 0.860895 0.559320 0.311298
#
# Coordination Sequence:
#
# PCOD9020545 Si02
#       8
#     2   2   2   2   2   2   2   2
#     4  12  24  42  67  91 121 159 201 244 300 358
#     4  10  23  36  56  87 125 156 194 242 292 367
#     4  10  22  37  60  88 123 162 201 249 296 359
#     4  10  23  40  60  89 124 156 204 248 303 347
#     4  10  22  36  60  84 124 161 197 244 294 363
#     4  10  23  40  56  86 119 161 194 243 294 357
#     4  11  21  34  57  90 122 156 198 236 307 354
#     4  11  23  39  62  90 121 156 196 252 296 360
#
# _framework density 21.186142
#
# number of rings (size 3 to 8) (size 9 to 14) (size 15 to 20)
#    0.750    0.750    1.250    4.125    3.500    3.500 
#    0.000    0.000    0.000    1.500    0.000    0.000 
#    0.000    0.000    0.000    0.000    0.000    0.000 
#
# Total GULP energy -89126.608830 kJ/mol
# GULP energy per Si atom -5570.413052 kJ/mol
# Density = 2.113792 g / cm^3
# Si number density = 21.186142 Si / 1000 Ang^3
#
#
#
# Elastic Constant Matrix: (Units=GPa)
#
#
# Indices 1 2 3 4 5 6 
#
# 1 130.1710 41.7771 51.4264 3.6350 -17.5708 3.8247
# 2 41.7771 44.3250 20.4032 3.9067 -5.6218 13.3207
# 3 51.4264 20.4032 97.4127 10.1301 -17.4885 6.0256
# 4 3.6350 3.9067 10.1301 25.0939 3.8869 -1.1377
# 5 -17.5708 -5.6218 -17.4885 3.8869 44.0417 6.7491
# 6 3.8247 13.3207 6.0256 -1.1377 6.7491 22.4068
#
#
#
# Elastic Compliance Matrix: (Units=1/GPa)
#
#
# Indices 1 2 3 4 5 6 
#
# 1 0.013495 -0.012430 -0.005030 0.002201 0.000631 0.006360
# 2 -0.012430 0.042893 0.000892 -0.007241 0.005436 -0.025623
# 3 -0.005030 0.000892 0.014712 -0.006434 0.005371 -0.005572
# 4 0.002201 -0.007241 -0.006434 0.044993 -0.008166 0.010403
# 5 0.000631 0.005436 0.005371 -0.008166 0.028623 -0.013820
# 6 0.006360 -0.025623 -0.005572 0.010403 -0.013820 0.064966
#
#
# Mechanical properties :
#
#
# Convention : Reuss Voigt Hill
#
# Bulk Modulus (GPa) = 26.34015 55.45801 40.89908
# Shear Modulus (GPa) = 19.57154 28.86193 24.21673
#
# Velocity S-wave (km/s) = 3.04269 3.69494 3.38456
# Velocity P-wave (km/s) = 4.98033 6.66610 5.88390
#
# Compressibility (1/GPa) = 0.03796486
#
# Stress axis : x y z
#
# Youngs Moduli (GPa) = 74.09886 23.31373 67.96986
#
# Poissons Ratio (x) = 0.28978 0.34190
# Poissons Ratio (y) = 0.92102 -0.06061
# Poissons Ratio (z) = 0.37273 -0.02079
#
# Static dielectric constant tensor:
#      x y z
#    x 1.874870 -0.018310 0.056420 
#    y -0.018310 1.793360 -0.070670 
#    z 0.056420 -0.070670 1.905230 
# 
# From -- ./inp_files/123453.got.cif
#   From: 2010.05.17/outbox.cif.g08.bks.cpg/sg2_62_cif.got.tgz:123453.got - 2010.06.03 11:33:40.
