data_PCOD9020100
_publ_section_title
;
Structure prediction by ZEFSAII (Michael W. Deem and Ramdas Pophale) SiO2 
 PCOD9020100
Probable space group: P -1
;
_chemical_formula_sum "Si O2"
_cell_formula_units_Z 16
_cell_length_a 7.435551
_cell_length_b 6.546302
_cell_length_c 19.525533
_cell_angle_alpha 134.208238
_cell_angle_beta 79.718542
_cell_angle_gamma 100.544718
_cell_volume 668.012402
_symmetry_space_group_name_H-M "P -1"
_symmetry_group_IT_number 2
_symmetry_cell_setting 'triclinic'
loop_
_space_group_symop_operation_xyz
x,y,z
-x,-y,-z
loop_
_atom_site_type_symbol
_atom_site_label
_atom_site_fract_x
_atom_site_fract_y
_atom_site_fract_z
Si Si1 0.672038 0.386773 0.156601
Si Si2 0.163561 0.100476 0.665869
Si Si3 0.170922 0.290759 0.337636
Si Si4 0.282561 0.949368 0.484947
Si Si5 0.315798 0.585400 0.995506
Si Si6 0.180862 0.195361 0.018790
Si Si7 0.454444 0.179327 0.397793
Si Si8 0.278643 0.254558 0.173223
O O1 0.673624 0.489679 0.102155
O O2 0.477770 0.412361 0.212300
O O3 0.828499 0.581092 0.229662
O O4 0.688810 0.047676 0.070402
O O5 0.175958 0.126416 0.588694
O O6 0.355628 0.971711 0.646328
O O7 0.998341 0.888789 0.656544
O O8 0.198411 0.628635 0.429604
O O9 0.360029 0.182264 0.330402
O O10 0.155949 0.273623 0.252563
O O11 0.500000 0.000000 0.500000
O O12 0.294928 0.034975 0.424946
O O13 0.161483 0.408014 0.008122
O O14 0.500000 0.500000 0.000000
O O15 0.292409 0.918082 0.081677
O O16 0.233341 0.355562 0.123432
O O17 0.000000 0.000000 0.000000
O O18 0.500000 0.500000 0.500000
#
# Coordination Sequence:
#
# PCOD9020100 Si02
#       8
#     2   2   2   2   2   2   2   2
#     4  11  24  44  65  99 133 175 224 276 333 399
#     4  11  26  45  68 103 140 171 228 283 330 404
#     4  12  26  45  68 103 139 175 224 283 333 401
#     4  10  21  46  70  97 137 173 219 281 328 399
#     4  11  21  42  69  92 125 179 222 270 332 393
#     4  11  25  43  68  97 136 173 224 279 339 396
#     4  11  24  45  74  95 130 186 221 267 350 394
#     4  11  24  42  68  97 133 175 226 277 333 400
#
# _framework density 23.951651999999999
#
# number of rings (size 3 to 8) (size 9 to 14) (size 15 to 20)
#    0.000    1.000    5.000    2.625    5.250    2.500 
#    0.000    0.000    0.000    0.000    0.000    0.000 
#    0.000    0.000    0.000    0.000    0.000    0.000 
#
# Total GULP energy -89447.956102 kJ/mol
# GULP energy per Si atom -5590.497256 kJ/mol
# Density = 2.389714 g / cm^3
# Si number density = 23.951652 Si / 1000 Ang^3
#
#
#
# Elastic Constant Matrix: (Units=GPa)
#
#
# Indices 1 2 3 4 5 6 
#
# 1 77.5930 29.3113 13.1185 -0.6862 4.5698 20.4166
# 2 29.3113 128.3772 21.4858 -12.3471 7.4960 28.3085
# 3 13.1185 21.4858 88.8351 -13.5111 5.5205 8.4690
# 4 -0.6862 -12.3471 -13.5111 32.8541 11.1913 4.9342
# 5 4.5698 7.4960 5.5205 11.1913 21.5589 5.3760
# 6 20.4166 28.3085 8.4690 4.9342 5.3760 52.9764
#
#
#
# Elastic Compliance Matrix: (Units=1/GPa)
#
#
# Indices 1 2 3 4 5 6 
#
# 1 0.015141 -0.002239 -0.001222 -0.000028 -0.001022 -0.004337
# 2 -0.002239 0.010259 -0.000499 0.005969 -0.004917 -0.004596
# 3 -0.001222 -0.000499 0.013279 0.007717 -0.006617 -0.001433
# 4 -0.000028 0.005969 0.007717 0.045705 -0.026274 -0.006003
# 5 -0.001022 -0.004917 -0.006617 -0.026274 0.063627 0.000069
# 6 -0.004337 -0.004596 -0.001433 -0.006003 0.000069 0.023785
#
#
# Mechanical properties :
#
#
# Convention : Reuss Voigt Hill
#
# Bulk Modulus (GPa) = 32.51018 46.95961 39.73489
# Shear Modulus (GPa) = 26.31994 36.87054 31.59524
#
# Velocity S-wave (km/s) = 3.31853 3.92774 3.63592
# Velocity P-wave (km/s) = 5.31848 6.34177 5.85253
#
# Compressibility (1/GPa) = 0.03075960
#
# Stress axis : x y z
#
# Youngs Moduli (GPa) = 66.04433 97.47533 75.30466
#
# Poissons Ratio (x) = 0.21828 0.09200
# Poissons Ratio (y) = 0.14789 0.03758
# Poissons Ratio (z) = 0.08069 0.04865
#
# Static dielectric constant tensor:
#      x y z
#    x 2.044040 0.001210 -0.043600 
#    y 0.001210 1.973700 -0.047200 
#    z -0.043600 -0.047200 1.969620 
# 
# From -- ./inp_files/585938.got.cif
#   From: 2010.05.17/outbox.cif.g08.bks.cpg/sg2_293_cif.got.tgz:585938.got - 2010.06.03 11:33:40.
