data_PCOD9020680
_publ_section_title
;
Structure prediction by ZEFSAII (Michael W. Deem and Ramdas Pophale) SiO2 
 PCOD9020680
Probable space group: P -1
;
_chemical_formula_sum "Si O2"
_cell_formula_units_Z 15
_cell_length_a 8.582174
_cell_length_b 10.580215
_cell_length_c 17.366500
_cell_angle_alpha 58.387202
_cell_angle_beta 25.730271
_cell_angle_gamma 58.765495
_cell_volume 578.404036
_symmetry_space_group_name_H-M "P -1"
_symmetry_group_IT_number 2
_symmetry_cell_setting 'triclinic'
loop_
_space_group_symop_operation_xyz
x,y,z
-x,-y,-z
loop_
_atom_site_type_symbol
_atom_site_label
_atom_site_fract_x
_atom_site_fract_y
_atom_site_fract_z
Si Si1 0.333077 0.627713 0.877710
Si Si2 0.641362 0.563664 0.294431
Si Si3 0.591110 0.061351 0.188457
Si Si4 0.587321 0.716840 0.580766
Si Si5 0.784369 0.886052 0.303791
Si Si6 0.823121 0.432516 0.819018
Si Si7 0.280653 0.851607 0.292948
Si Si8 0.500000 0.000000 0.000000
O O1 0.324380 0.694184 0.775383
O O2 0.664158 0.499365 0.787985
O O3 0.416415 0.763635 0.852277
O O4 0.969764 0.567136 0.086077
O O5 0.383606 0.446122 0.419503
O O6 0.457309 0.733137 0.315595
O O7 0.831222 0.520303 0.305051
O O8 0.301737 0.011228 0.273663
O O9 0.558072 0.982272 0.309900
O O10 0.000000 0.000000 0.000000
O O11 0.519663 0.826718 0.503164
O O12 0.929734 0.779171 0.446977
O O13 0.050860 0.744343 0.194199
O O14 0.071449 0.982293 0.183252
O O15 0.500000 0.500000 0.000000
O O16 0.508761 0.874255 0.107298
#
# Coordination Sequence:
#
# PCOD9020680 Si02
#       8
#     2   2   2   2   2   2   2   1
#     4  11  25  44  71 103 138 181 231 293 340 412
#     4  11  22  46  70  99 136 187 233 280 343 423
#     4  12  21  46  76  97 133 185 242 272 343 424
#     4  11  28  42  64 109 145 177 227 293 355 397
#     4  11  23  44  70 100 139 184 228 283 344 416
#     4  10  23  42  69 106 130 177 239 281 339 403
#     4  11  23  42  73 100 133 186 231 281 343 416
#     4  10  22  36  66 102 130 174 222 278 336 410
#
# _framework density 25.933429
#
# number of rings (size 3 to 8) (size 9 to 14) (size 15 to 20)
#    0.000    1.067    4.000    1.600    5.600    2.667 
#    4.800    0.000    0.000    0.000    0.000    0.000 
#    0.000    0.000    0.000    0.000    0.000    0.000 
#
# Total GULP energy -83597.621540 kJ/mol
# GULP energy per Si atom -5573.174769 kJ/mol
# Density = 2.587440 g / cm^3
# Si number density = 25.933429 Si / 1000 Ang^3
#
#
#
# Elastic Constant Matrix: (Units=GPa)
#
#
# Indices 1 2 3 4 5 6 
#
# 1 70.5853 4.4123 27.3939 -14.0435 -5.2947 -1.6645
# 2 4.4123 88.5667 14.8927 -17.7866 -12.8839 0.7927
# 3 27.3939 14.8927 149.9206 -20.1628 1.3366 4.3137
# 4 -14.0435 -17.7866 -20.1628 36.6771 4.5887 -3.8594
# 5 -5.2947 -12.8839 1.3366 4.5887 36.4967 -17.3129
# 6 -1.6645 0.7927 4.3137 -3.8594 -17.3129 30.3571
#
#
#
# Elastic Compliance Matrix: (Units=1/GPa)
#
#
# Indices 1 2 3 4 5 6 
#
# 1 0.016619 0.001310 -0.002595 0.005491 0.004387 0.004446
# 2 0.001310 0.013488 -0.000920 0.006201 0.006180 0.004163
# 3 -0.002595 -0.000920 0.007706 0.002863 -0.002394 -0.002215
# 4 0.005491 0.006201 0.002863 0.034334 0.000696 0.004494
# 5 0.004387 0.006180 -0.002394 0.000696 0.041755 0.024321
# 6 0.004446 0.004163 -0.002215 0.004494 0.024321 0.047833
#
#
# Mechanical properties :
#
#
# Convention : Reuss Voigt Hill
#
# Bulk Modulus (GPa) = 29.93940 44.71893 37.32916
# Shear Modulus (GPa) = 28.20400 38.19778 33.20089
#
# Velocity S-wave (km/s) = 3.30139 3.84202 3.58192
# Velocity P-wave (km/s) = 5.10901 6.07970 5.61537
#
# Compressibility (1/GPa) = 0.03340081
#
# Stress axis : x y z
#
# Youngs Moduli (GPa) = 60.17232 74.14228 129.77074
#
# Poissons Ratio (x) = -0.09709 0.33680
# Poissons Ratio (y) = -0.07880 0.11938
# Poissons Ratio (z) = 0.15617 0.06821
#
# Static dielectric constant tensor:
#      x y z
#    x 2.066890 0.040910 0.075650 
#    y 0.040910 2.040120 0.075910 
#    z 0.075650 0.075910 2.090240 
# 
# From -- ./inp_files/184514.got.cif
#   From: 2010.05.17/outbox.cif.g08.bks.cpg/sg2_93_cif.got.tgz:184514.got - 2010.06.03 11:33:40.
