data_PCOD9020800
_publ_section_title
;
Structure prediction by ZEFSAII (Michael W. Deem and Ramdas Pophale) SiO2 
 PCOD9020800
Probable space group: P -1
;
_chemical_formula_sum "Si O2"
_cell_formula_units_Z 16
_cell_length_a 12.186887
_cell_length_b 13.951970
_cell_length_c 8.756438
_cell_angle_alpha 70.011493
_cell_angle_beta 65.067051
_cell_angle_gamma 122.947239
_cell_volume 748.746903
_symmetry_space_group_name_H-M "P -1"
_symmetry_group_IT_number 2
_symmetry_cell_setting 'triclinic'
loop_
_space_group_symop_operation_xyz
x,y,z
-x,-y,-z
loop_
_atom_site_type_symbol
_atom_site_label
_atom_site_fract_x
_atom_site_fract_y
_atom_site_fract_z
Si Si1 0.822137 0.653508 0.286350
Si Si2 0.358689 0.326992 0.837370
Si Si3 0.353900 0.271185 0.226694
Si Si4 0.761313 0.974474 0.007350
Si Si5 0.009683 0.396794 0.625631
Si Si6 0.811761 0.630443 0.727075
Si Si7 0.775343 0.035069 0.597272
Si Si8 0.450855 0.977186 0.861970
O O1 0.597418 0.515535 0.568994
O O2 0.782272 0.677282 0.134343
O O3 0.861098 0.558406 0.331896
O O4 0.023342 0.845337 0.138743
O O5 0.333979 0.281636 0.052308
O O6 0.292649 0.180701 0.862334
O O7 0.233937 0.286179 0.356128
O O8 0.267644 0.099449 0.392598
O O9 0.596296 0.444400 0.021063
O O10 0.763455 0.001085 0.807442
O O11 0.580951 0.924871 0.206688
O O12 0.104312 0.389313 0.440296
O O13 0.000000 0.500000 0.500000
O O14 0.777859 0.220350 0.908438
O O15 0.996921 0.768428 0.660310
O O16 0.613730 0.014307 0.666787
O O17 0.500000 0.000000 0.000000
#
# Coordination Sequence:
#
# PCOD9020800 Si02
#       8
#     2   2   2   2   2   2   2   2
#     4  10  19  32  47  73  99 128 161 209 244 288
#     4  10  19  31  50  68 100 132 168 195 245 299
#     4  10  21  31  48  72  98 139 164 197 247 297
#     4   9  17  29  46  71  99 124 154 205 249 286
#     4  11  20  31  52  75 100 125 161 208 257 291
#     4  11  19  33  48  70 107 126 164 207 243 296
#     4  10  17  31  48  72 102 128 161 201 251 294
#     4   9  16  27  45  70  99 121 152 201 246 290
#
# _framework density 21.369036000000001
#
# number of rings (size 3 to 8) (size 9 to 14) (size 15 to 20)
#    0.000    2.000    5.000    1.500    3.500    0.000 
#    0.000    0.000    0.000    0.750    0.000    3.500 
#    0.000    0.000    0.000    0.000    0.000    0.000 
#
# Total GULP energy -89105.881737 kJ/mol
# GULP energy per Si atom -5569.117609 kJ/mol
# Density = 2.132040 g / cm^3
# Si number density = 21.369036 Si / 1000 Ang^3
#
#
#
# Elastic Constant Matrix: (Units=GPa)
#
#
# Indices 1 2 3 4 5 6 
#
# 1 143.3060 46.7607 48.1213 -10.9021 -27.6678 -22.0444
# 2 46.7607 77.4249 35.2404 -14.0102 -14.8089 -28.1890
# 3 48.1213 35.2404 59.4633 -6.0738 -31.0480 -9.7941
# 4 -10.9021 -14.0102 -6.0738 23.7655 0.2087 -5.0515
# 5 -27.6678 -14.8089 -31.0480 0.2087 37.9738 0.3235
# 6 -22.0444 -28.1890 -9.7941 -5.0515 0.3235 32.0069
#
#
#
# Elastic Compliance Matrix: (Units=1/GPa)
#
#
# Indices 1 2 3 4 5 6 
#
# 1 0.010839 -0.000392 -0.005300 0.004675 0.003332 0.006202
# 2 -0.000392 0.033743 -0.010159 0.023455 0.004182 0.029998
# 3 -0.005300 -0.010159 0.040429 0.001644 0.025225 -0.000222
# 4 0.004675 0.023455 0.001644 0.065712 0.013241 0.034617
# 5 0.003332 0.004182 0.025225 0.013241 0.050814 0.015273
# 6 0.006202 0.029998 -0.000222 0.034617 0.015273 0.067176
#
#
# Mechanical properties :
#
#
# Convention : Reuss Voigt Hill
#
# Bulk Modulus (GPa) = 18.75906 60.04877 39.40391
# Shear Modulus (GPa) = 15.71407 28.75401 22.23404
#
# Velocity S-wave (km/s) = 2.71471 3.67221 3.22915
# Velocity P-wave (km/s) = 4.31553 6.79279 5.69060
#
# Compressibility (1/GPa) = 0.05330758
#
# Stress axis : x y z
#
# Youngs Moduli (GPa) = 92.26039 29.63581 24.73456
#
# Poissons Ratio (x) = 0.01163 0.13109
# Poissons Ratio (y) = 0.03621 0.25129
# Poissons Ratio (z) = 0.48897 0.30108
#
# Static dielectric constant tensor:
#      x y z
#    x 1.804820 -0.025650 0.032280 
#    y -0.025650 1.850310 0.010990 
#    z 0.032280 0.010990 1.769230 
# 
# From -- ./inp_files/253019.got.cif
#   From: 2010.05.17/outbox.cif.g08.bks.cpg/sg2_127_cif.got.tgz:253019.got - 2010.06.03 11:33:40.
