data_PCOD9020428
_publ_section_title
;
Structure prediction by ZEFSAII (Michael W. Deem and Ramdas Pophale) SiO2 
 PCOD9020428
Probable space group: P -1
;
_chemical_formula_sum "Si O2"
_cell_formula_units_Z 16
_cell_length_a 10.287418
_cell_length_b 5.445782
_cell_length_c 14.447473
_cell_angle_alpha 49.606628
_cell_angle_beta 73.741231
_cell_angle_gamma 91.976117
_cell_volume 565.397036
_symmetry_space_group_name_H-M "P -1"
_symmetry_group_IT_number 2
_symmetry_cell_setting 'triclinic'
loop_
_space_group_symop_operation_xyz
x,y,z
-x,-y,-z
loop_
_atom_site_type_symbol
_atom_site_label
_atom_site_fract_x
_atom_site_fract_y
_atom_site_fract_z
Si Si1 0.429306 0.598011 0.603776
Si Si2 0.514875 0.931193 0.137346
Si Si3 0.152015 0.943296 0.481533
Si Si4 0.216265 0.285152 0.584005
Si Si5 0.070375 0.110775 0.084678
Si Si6 0.153059 0.676677 0.051209
Si Si7 0.721341 0.337966 0.215143
Si Si8 0.414951 0.285343 0.213872
O O1 0.496671 0.357055 0.708942
O O2 0.628019 0.500058 0.463924
O O3 0.285362 0.545135 0.707172
O O4 0.500000 0.000000 0.500000
O O5 0.452708 0.686854 0.123118
O O6 0.680677 0.144888 0.043587
O O7 0.418684 0.151619 0.141928
O O8 0.128613 0.541398 0.564624
O O9 0.212881 0.144561 0.515703
O O10 0.270200 0.112253 0.338729
O O11 0.000000 0.000000 0.500000
O O12 0.202375 0.950341 0.728718
O O13 0.103320 0.277567 0.137655
O O14 0.199710 0.362463 0.939238
O O15 0.094453 0.755669 0.142543
O O16 0.937346 0.172577 0.041562
O O17 0.557770 0.220367 0.244181
#
# Coordination Sequence:
#
# PCOD9020428 Si02
#       8
#     2   2   2   2   2   2   2   2
#     4  11  22  33  50  83 119 143 179 221 273 329
#     4  11  19  34  50  82 112 144 178 216 264 335
#     4  12  28  44  56  74 105 153 200 234 276 324
#     4  12  23  40  59  77 109 145 184 236 276 330
#     4  10  19  29  48  72 114 152 173 208 252 339
#     4  10  17  31  46  70 111 161 171 199 261 322
#     4  11  21  34  53  88 112 138 184 220 283 326
#     4  11  22  34  56  75 112 136 178 233 265 318
#
# _framework density 28.2987
#
# number of rings (size 3 to 8) (size 9 to 14) (size 15 to 20)
#    0.000    1.000    6.250    2.625    1.750    1.000 
#    0.000    0.000    0.000    0.000    0.000    0.000 
#    0.000    6.000    0.000    0.000    0.000    0.000 
#
# Total GULP energy -89489.939157 kJ/mol
# GULP energy per Si atom -5593.121197 kJ/mol
# Density = 2.823429 g / cm^3
# Si number density = 28.298700 Si / 1000 Ang^3
#
#
#
# Elastic Constant Matrix: (Units=GPa)
#
#
# Indices 1 2 3 4 5 6 
#
# 1 130.1734 44.6488 44.7888 6.7268 -17.2695 -21.6834
# 2 44.6488 263.7534 31.6682 -8.1267 4.9991 -2.5546
# 3 44.7888 31.6682 66.4983 -0.3210 -20.6243 -12.4252
# 4 6.7268 -8.1267 -0.3210 39.5639 -12.2185 -4.4220
# 5 -17.2695 4.9991 -20.6243 -12.2185 29.6402 -0.5968
# 6 -21.6834 -2.5546 -12.4252 -4.4220 -0.5968 53.5163
#
#
#
# Elastic Compliance Matrix: (Units=1/GPa)
#
#
# Indices 1 2 3 4 5 6 
#
# 1 0.010843 -0.001233 -0.005422 -0.001072 0.002371 0.003013
# 2 -0.001233 0.004334 -0.002356 0.000027 -0.003095 -0.000872
# 3 -0.005422 -0.002356 0.026479 0.006915 0.018606 0.004617
# 4 -0.001072 0.000027 0.006915 0.031256 0.017147 0.003946
# 5 0.002371 -0.003095 0.018606 0.017147 0.055801 0.007172
# 6 0.003013 -0.000872 0.004617 0.003946 0.007172 0.021343
#
#
# Mechanical properties :
#
#
# Convention : Reuss Voigt Hill
#
# Bulk Modulus (GPa) = 42.31495 78.07075 60.19285
# Shear Modulus (GPa) = 28.41603 47.16536 37.79070
#
# Velocity S-wave (km/s) = 3.17226 4.08695 3.65831
# Velocity P-wave (km/s) = 5.32946 7.06533 6.25787
#
# Compressibility (1/GPa) = 0.02363231
#
# Stress axis : x y z
#
# Youngs Moduli (GPa) = 92.22905 230.72559 37.76572
#
# Poissons Ratio (x) = 0.28453 0.20478
# Poissons Ratio (y) = 0.11374 0.08899
# Poissons Ratio (z) = 0.50009 0.54365
#
# Static dielectric constant tensor:
#      x y z
#    x 2.245740 0.020070 -0.004790 
#    y 0.020070 2.469730 0.036860 
#    z -0.004790 0.036860 2.211030 
# 
# From -- ./inp_files/592269.got.cif
#   From: 2010.05.17/outbox.cif.g08.bks.cpg/sg2_297_cif.got.tgz:592269.got - 2010.06.03 11:33:40.
