data_PCOD9020179
_publ_section_title
;
Structure prediction by ZEFSAII (Michael W. Deem and Ramdas Pophale) SiO2 
 PCOD9020179
Probable space group: P -1
;
_chemical_formula_sum "Si O2"
_cell_formula_units_Z 12
_cell_length_a 17.370361
_cell_length_b 5.491636
_cell_length_c 5.816960
_cell_angle_alpha 78.628091
_cell_angle_beta 70.350016
_cell_angle_gamma 103.898739
_cell_volume 483.260334
_symmetry_space_group_name_H-M "P -1"
_symmetry_group_IT_number 2
_symmetry_cell_setting 'triclinic'
loop_
_space_group_symop_operation_xyz
x,y,z
-x,-y,-z
loop_
_atom_site_type_symbol
_atom_site_label
_atom_site_fract_x
_atom_site_fract_y
_atom_site_fract_z
Si Si1 0.331003 0.532686 0.993140
Si Si2 0.196822 0.536147 0.778461
Si Si3 0.043640 0.371196 0.299485
Si Si4 0.079699 0.041068 0.733441
Si Si5 0.298923 0.966283 0.292093
Si Si6 0.486423 0.122196 0.242588
O O1 0.290275 0.563713 0.785087
O O2 0.286061 0.226710 0.155301
O O3 0.313417 0.752713 0.136607
O O4 0.434924 0.600672 0.878182
O O5 0.158979 0.255435 0.740454
O O6 0.217499 0.791785 0.551475
O O7 0.129895 0.534085 0.048234
O O8 0.074901 0.173382 0.465487
O O9 0.000000 0.500000 0.500000
O O10 0.959231 0.261146 0.243245
O O11 0.000000 0.000000 0.000000
O O12 0.385748 0.089404 0.334978
O O13 0.500000 0.000000 0.500000
O O14 0.500000 0.000000 0.000000
#
# Coordination Sequence:
#
# PCOD9020179 Si02
#       6
#     2   2   2   2   2   2
#     4  11  25  48  71 113 152 198 252 313 375 455
#     4  11  23  46  69 105 146 191 246 315 378 448
#     4  10  22  46  70 100 132 184 248 300 380 455
#     4   9  21  44  66  96 131 180 236 300 376 451
#     4  11  25  48  71 111 152 202 249 310 382 449
#     4  10  21  46  80 111 158 209 262 313 381 465
#
# _framework density 24.831336
#
# number of rings (size 3 to 8) (size 9 to 14) (size 15 to 20)
#    0.000    1.667    1.667    1.500    0.000    4.000 
#   39.000    3.333    0.000    0.000    0.000    0.000 
#    0.000    0.000    0.000    0.000    0.000    0.000 
#
# Total GULP energy -66843.576382 kJ/mol
# GULP energy per Si atom -5570.298032 kJ/mol
# Density = 2.477482 g / cm^3
# Si number density = 24.831336 Si / 1000 Ang^3
#
#
#
# Elastic Constant Matrix: (Units=GPa)
#
#
# Indices 1 2 3 4 5 6 
#
# 1 91.0716 11.0698 4.7677 -2.1863 -5.7873 40.6869
# 2 11.0698 135.5936 34.5936 -8.6625 -8.4663 26.4614
# 3 4.7677 34.5936 110.3020 -23.0691 -6.2070 13.1984
# 4 -2.1863 -8.6625 -23.0691 50.0092 2.2318 5.0241
# 5 -5.7873 -8.4663 -6.2070 2.2318 43.7649 -8.3646
# 6 40.6869 26.4614 13.1984 5.0241 -8.3646 46.2714
#
#
#
# Elastic Compliance Matrix: (Units=1/GPa)
#
#
# Indices 1 2 3 4 5 6 
#
# 1 0.019188 0.001931 0.001602 0.003849 -0.000685 -0.018975
# 2 0.001931 0.009059 -0.001830 0.001436 0.000446 -0.006432
# 3 0.001602 -0.001830 0.011188 0.005304 0.000399 -0.004057
# 4 0.003849 0.001436 0.005304 0.023776 -0.001305 -0.008536
# 5 -0.000685 0.000446 0.000399 -0.001305 0.023864 0.004689
# 6 -0.018975 -0.006432 -0.004057 -0.008536 0.004689 0.044907
#
#
# Mechanical properties :
#
#
# Convention : Reuss Voigt Hill
#
# Bulk Modulus (GPa) = 23.34189 48.64771 35.99480
# Shear Modulus (GPa) = 35.00055 47.11152 41.05604
#
# Velocity S-wave (km/s) = 3.75845 4.36048 4.07061
# Velocity P-wave (km/s) = 5.31556 6.70712 6.05147
#
# Compressibility (1/GPa) = 0.04284143
#
# Stress axis : x y z
#
# Youngs Moduli (GPa) = 52.11614 110.38899 89.38338
#
# Poissons Ratio (x) = -0.21316 -0.14319
# Poissons Ratio (y) = -0.10063 0.16353
# Poissons Ratio (z) = -0.08349 0.20196
#
# Static dielectric constant tensor:
#      x y z
#    x 1.727390 0.647560 0.165300 
#    y 0.647560 0.155540 -0.559330 
#    z 0.165300 -0.559330 1.801350 
# 
# From -- ./inp_files/102842.got.cif
#   From: 2010.05.17/outbox.cif.g08.bks.cpg/sg2_52_cif.got.tgz:102842.got - 2010.06.03 11:33:40.
