data_PCOD9020915
_publ_section_title
;
Structure prediction by ZEFSAII (Michael W. Deem and Ramdas Pophale) SiO2 
 PCOD9020915
Probable space group: P -1
;
_chemical_formula_sum "Si O2"
_cell_formula_units_Z 12
_cell_length_a 5.294154
_cell_length_b 19.343146
_cell_length_c 4.946953
_cell_angle_alpha 86.917343
_cell_angle_beta 87.048449
_cell_angle_gamma 115.602195
_cell_volume 454.621452
_symmetry_space_group_name_H-M "P -1"
_symmetry_group_IT_number 2
_symmetry_cell_setting 'triclinic'
loop_
_space_group_symop_operation_xyz
x,y,z
-x,-y,-z
loop_
_atom_site_type_symbol
_atom_site_label
_atom_site_fract_x
_atom_site_fract_y
_atom_site_fract_z
Si Si1 0.610381 0.618278 0.817847
Si Si2 0.864438 0.542253 0.181677
Si Si3 0.631225 0.339952 0.656418
Si Si4 0.191410 0.069148 0.285110
Si Si5 0.311981 0.806105 0.512447
Si Si6 0.779164 0.119402 0.016222
O O1 0.438057 0.528852 0.746478
O O2 0.609386 0.662251 0.534954
O O3 0.844113 0.609873 0.990895
O O4 0.462986 0.651685 0.038024
O O5 0.073446 0.583357 0.407119
O O6 0.000000 0.500000 0.000000
O O7 0.706180 0.270761 0.599081
O O8 0.458948 0.062700 0.136452
O O9 0.999646 0.086324 0.078072
O O10 0.359816 0.144170 0.443043
O O11 0.000000 0.000000 0.500000
O O12 0.158385 0.807575 0.800842
O O13 0.226851 0.854079 0.291060
#
# Coordination Sequence:
#
# PCOD9020915 Si02
#       6
#     2   2   2   2   2   2
#     4  10  22  37  62  87 118 160 202 256 305 375
#     4   9  21  38  59  87 120 156 206 252 311 364
#     4  11  22  40  60  88 121 158 205 251 315 369
#     4  10  24  44  69  98 131 171 216 266 318 381
#     4  10  25  40  64  95 130 171 213 266 320 385
#     4  10  24  42  68  95 133 167 219 261 321 378
#
# _framework density 26.395588
#
# number of rings (size 3 to 8) (size 9 to 14) (size 15 to 20)
#    1.000    1.000    0.000    2.000    2.333   12.667 
#    0.000    0.000    0.000    0.000    0.000    0.000 
#    0.000    0.000    0.000    0.000    0.000    0.000 
#
# Total GULP energy -67119.489435 kJ/mol
# GULP energy per Si atom -5593.290786 kJ/mol
# Density = 2.633551 g / cm^3
# Si number density = 26.395588 Si / 1000 Ang^3
#
#
#
# Elastic Constant Matrix: (Units=GPa)
#
#
# Indices 1 2 3 4 5 6 
#
# 1 123.6638 21.0391 24.4703 2.5532 28.7917 -17.9056
# 2 21.0391 93.4195 0.3448 19.9966 -1.6840 4.5709
# 3 24.4703 0.3448 110.8684 12.5624 18.7638 -0.4719
# 4 2.5532 19.9966 12.5624 40.1444 -12.5561 3.5000
# 5 28.7917 -1.6840 18.7638 -12.5561 49.9750 1.2804
# 6 -17.9056 4.5709 -0.4719 3.5000 1.2804 23.3562
#
#
#
# Elastic Compliance Matrix: (Units=1/GPa)
#
#
# Indices 1 2 3 4 5 6 
#
# 1 0.012124 -0.002897 -0.001095 -0.002258 -0.007510 0.010590
# 2 -0.002897 0.012877 0.001265 -0.006247 0.000155 -0.003788
# 3 -0.001095 0.001265 0.010661 -0.005379 -0.004685 0.000191
# 4 -0.002258 -0.006247 -0.005379 0.034109 0.011843 -0.006377
# 5 -0.007510 0.000155 -0.004685 0.011843 0.029314 -0.009264
# 6 0.010590 -0.003788 0.000191 -0.006377 -0.009264 0.053142
#
#
# Mechanical properties :
#
#
# Convention : Reuss Voigt Hill
#
# Bulk Modulus (GPa) = 33.10339 46.62891 39.86615
# Shear Modulus (GPa) = 29.80603 41.50163 35.65383
#
# Velocity S-wave (km/s) = 3.36401 3.96952 3.67924
# Velocity P-wave (km/s) = 5.25902 6.22199 5.76066
#
# Compressibility (1/GPa) = 0.03020839
#
# Stress axis : x y z
#
# Youngs Moduli (GPa) = 82.47804 77.65504 93.80250
#
# Poissons Ratio (x) = 0.22495 0.10272
# Poissons Ratio (y) = 0.23892 -0.11864
# Poissons Ratio (z) = 0.09032 -0.09821
#
# Static dielectric constant tensor:
#      x y z
#    x 2.119460 0.086790 -0.053090 
#    y 0.086790 2.144400 -0.051480 
#    z -0.053090 -0.051480 2.025830 
# 
# From -- ./inp_files/6374.got.cif
#   From: 2010.05.17/outbox.cif.g08.bks.cpg/sg2_4_cif.got.tgz:6374.got - 2010.06.03 11:33:40.
