data_PCOD9020252
_publ_section_title
;
Structure prediction by ZEFSAII (Michael W. Deem and Ramdas Pophale) SiO2 
 PCOD9020252
Probable space group: P -1
;
_chemical_formula_sum "Si O2"
_cell_formula_units_Z 14
_cell_length_a 18.900417
_cell_length_b 9.681161
_cell_length_c 11.489225
_cell_angle_alpha 36.608566
_cell_angle_beta 149.394965
_cell_angle_gamma 151.042760
_cell_volume 507.580696
_symmetry_space_group_name_H-M "P -1"
_symmetry_group_IT_number 2
_symmetry_cell_setting 'triclinic'
loop_
_space_group_symop_operation_xyz
x,y,z
-x,-y,-z
loop_
_atom_site_type_symbol
_atom_site_label
_atom_site_fract_x
_atom_site_fract_y
_atom_site_fract_z
Si Si1 0.800145 0.812128 0.313569
Si Si2 0.320590 0.431112 0.048744
Si Si3 0.930350 0.194611 0.666553
Si Si4 0.239716 0.340181 0.384910
Si Si5 0.331897 0.751013 0.635040
Si Si6 0.672767 0.010981 0.805891
Si Si7 0.000000 0.500000 0.000000
Si Si8 0.500000 0.500000 0.500000
O O1 0.714882 0.704552 0.392000
O O2 0.761050 0.573931 0.327229
O O3 0.764387 0.014258 0.056941
O O4 0.000000 0.000000 0.500000
O O5 0.345928 0.228148 0.141075
O O6 0.422174 0.525262 0.249394
O O7 0.374520 0.703060 0.858384
O O8 0.112342 0.245390 0.911133
O O9 0.797389 0.161927 0.596291
O O10 0.000000 0.500000 0.500000
O O11 0.805061 0.921263 0.587554
O O12 0.076453 0.345247 0.147812
O O13 0.403175 0.608525 0.366319
O O14 0.490171 0.926600 0.648655
O O15 0.827446 0.342563 0.771276
#
# Coordination Sequence:
#
# PCOD9020252 Si02
#       8
#     2   2   2   2   2   2   1   1
#     4  11  20  44  77 105 142 191 263 305 359 440
#     4  10  21  48  70 105 149 193 246 299 374 442
#     4  10  22  46  73 105 146 187 244 307 371 436
#     4  12  26  48  67 112 145 198 244 300 380 444
#     4  10  22  41  79 111 136 193 253 321 358 430
#     4  11  22  45  74 107 144 193 254 311 364 441
#     4  12  26  46  72 106 156 198 240 310 378 456
#     4  12  28  44  72 104 162 198 232 304 378 466
#
# _framework density 27.58182
#
# number of rings (size 3 to 8) (size 9 to 14) (size 15 to 20)
#    0.000    1.143    2.857    5.143    2.000    1.714 
#    7.714    5.000    0.000    0.000    0.000    0.000 
#    0.000    0.000    0.000    0.000    0.000    0.000 
#
# Total GULP energy -77973.168553 kJ/mol
# GULP energy per Si atom -5569.512039 kJ/mol
# Density = 2.751904 g / cm^3
# Si number density = 27.581820 Si / 1000 Ang^3
#
#
#
# Elastic Constant Matrix: (Units=GPa)
#
#
# Indices 1 2 3 4 5 6 
#
# 1 213.4750 11.8610 76.6051 -4.6223 2.3420 2.3063
# 2 11.8610 53.6473 8.5060 -0.7064 -7.1571 -25.5416
# 3 76.6051 8.5060 124.7363 4.6060 -6.5691 3.4923
# 4 -4.6223 -0.7064 4.6060 47.5428 0.6718 1.6311
# 5 2.3420 -7.1571 -6.5691 0.6718 78.5337 4.3025
# 6 2.3063 -25.5416 3.4923 1.6311 4.3025 47.3350
#
#
#
# Elastic Compliance Matrix: (Units=1/GPa)
#
#
# Indices 1 2 3 4 5 6 
#
# 1 0.006119 -0.001113 -0.003731 0.000969 -0.000571 -0.000605
# 2 -0.001113 0.025999 -0.001400 -0.000090 0.001516 0.014052
# 3 -0.003731 -0.001400 0.010543 -0.001371 0.000954 -0.001391
# 4 0.000969 -0.000090 -0.001371 0.021288 -0.000295 -0.000701
# 5 -0.000571 0.001516 0.000954 -0.000295 0.012993 -0.000395
# 6 -0.000605 0.014052 -0.001391 -0.000701 -0.000395 0.028900
#
#
# Mechanical properties :
#
#
# Convention : Reuss Voigt Hill
#
# Bulk Modulus (GPa) = 33.14008 65.08922 49.11465
# Shear Modulus (GPa) = 38.94476 54.34141 46.64308
#
# Velocity S-wave (km/s) = 3.76170 4.44350 4.11674
# Velocity P-wave (km/s) = 5.55954 7.06937 6.35942
#
# Compressibility (1/GPa) = 0.03017494
#
# Stress axis : x y z
#
# Youngs Moduli (GPa) = 163.43154 38.46240 94.84631
#
# Poissons Ratio (x) = 0.04279 0.35385
# Poissons Ratio (y) = 0.18183 0.13278
# Poissons Ratio (z) = 0.60973 0.05384
#
# Static dielectric constant tensor:
#      x y z
#    x 1.769710 -0.645260 -0.006140 
#    y -0.645260 0.784450 0.697850 
#    z -0.006140 0.697850 0.469080 
# 
# From -- ./inp_files/461972.got.cif
#   From: 2010.05.17/outbox.cif.g08.bks.cpg/sg2_231_cif.got.tgz:461972.got - 2010.06.03 11:33:40.
