data_PCOD9020851
_publ_section_title
;
Structure prediction by ZEFSAII (Michael W. Deem and Ramdas Pophale) SiO2 
 PCOD9020851
Probable space group: P -1
;
_chemical_formula_sum "Si O2"
_cell_formula_units_Z 12
_cell_length_a 8.221596
_cell_length_b 12.812990
_cell_length_c 9.542393
_cell_angle_alpha 56.034926
_cell_angle_beta 32.092560
_cell_angle_gamma 62.449824
_cell_volume 442.809387
_symmetry_space_group_name_H-M "P -1"
_symmetry_group_IT_number 2
_symmetry_cell_setting 'triclinic'
loop_
_space_group_symop_operation_xyz
x,y,z
-x,-y,-z
loop_
_atom_site_type_symbol
_atom_site_label
_atom_site_fract_x
_atom_site_fract_y
_atom_site_fract_z
Si Si1 0.230133 0.770357 0.773098
Si Si2 0.712868 0.689806 0.041756
Si Si3 0.796366 0.586895 0.755801
Si Si4 0.745635 0.611538 0.381255
Si Si5 0.287264 0.123652 0.480568
Si Si6 0.388266 0.912643 0.020545
O O1 0.446823 0.663462 0.632338
O O2 0.455031 0.878487 0.585223
O O3 0.987037 0.789106 0.812018
O O4 0.021680 0.718711 0.093075
O O5 0.794045 0.614228 0.902893
O O6 0.688350 0.604762 0.260914
O O7 0.419542 0.771995 0.165325
O O8 0.766482 0.723490 0.605400
O O9 0.103861 0.508025 0.568505
O O10 0.500000 0.500000 0.000000
O O11 0.955881 0.062234 0.793785
O O12 0.403616 0.085919 0.270300
O O13 0.500000 0.000000 0.000000
#
# Coordination Sequence:
#
# PCOD9020851 Si02
#       6
#     2   2   2   2   2   2
#     4  10  22  40  61  89 134 167 209 251 309 367
#     4   9  24  40  63  92 131 164 215 261 310 374
#     4  11  21  39  63  98 134 175 206 251 311 383
#     4  10  22  37  60  90 135 169 206 243 315 371
#     4  11  24  42  66  96 129 165 214 263 309 381
#     4  11  25  46  70  92 122 165 216 273 326 366
#
# _framework density 27.099699000000001
#
# number of rings (size 3 to 8) (size 9 to 14) (size 15 to 20)
#    1.000    0.667    1.667    2.000    7.000    4.000 
#    0.000    1.667    0.000    0.000    0.000    0.000 
#    0.000    0.000    0.000    0.000    0.000    0.000 
#
# Total GULP energy -67255.206505 kJ/mol
# GULP energy per Si atom -5604.600542 kJ/mol
# Density = 2.703802 g / cm^3
# Si number density = 27.099699 Si / 1000 Ang^3
#
#
#
# Elastic Constant Matrix: (Units=GPa)
#
#
# Indices 1 2 3 4 5 6 
#
# 1 145.4576 25.0060 16.6115 7.1133 -14.5383 16.9107
# 2 25.0060 84.1378 24.4585 -2.6830 -13.1529 13.2258
# 3 16.6115 24.4585 99.8968 10.2457 -30.4058 -3.7178
# 4 7.1133 -2.6830 10.2457 43.6932 -4.4434 -11.5318
# 5 -14.5383 -13.1529 -30.4058 -4.4434 44.6755 -1.7018
# 6 16.9107 13.2258 -3.7178 -11.5318 -1.7018 45.6175
#
#
#
# Elastic Compliance Matrix: (Units=1/GPa)
#
#
# Indices 1 2 3 4 5 6 
#
# 1 0.007764 -0.001575 -0.000355 -0.001879 0.001525 -0.002869
# 2 -0.001575 0.014019 -0.002917 0.001071 0.001607 -0.003388
# 3 -0.000355 -0.002917 0.013523 -0.001971 0.008105 0.001884
# 4 -0.001879 0.001071 -0.001971 0.025620 0.001167 0.006746
# 5 0.001525 0.001607 0.008105 0.001167 0.029023 0.001007
# 6 -0.002869 -0.003388 0.001884 0.006746 0.001007 0.025864
#
#
# Mechanical properties :
#
#
# Convention : Reuss Voigt Hill
#
# Bulk Modulus (GPa) = 39.04580 51.29381 45.16980
# Shear Modulus (GPa) = 37.30091 44.35831 40.82961
#
# Velocity S-wave (km/s) = 3.71406 4.05020 3.88576
# Velocity P-wave (km/s) = 5.72990 6.39070 6.06930
#
# Compressibility (1/GPa) = 0.02561095
#
# Stress axis : x y z
#
# Youngs Moduli (GPa) = 128.79960 71.33043 73.94911
#
# Poissons Ratio (x) = 0.11233 0.02628
# Poissons Ratio (y) = 0.20283 0.21574
# Poissons Ratio (z) = 0.04577 0.20810
#
# Static dielectric constant tensor:
#      x y z
#    x 2.102550 -0.035110 -0.063400 
#    y -0.035110 2.227390 -0.081040 
#    z -0.063400 -0.081040 2.088740 
# 
# From -- ./inp_files/28580.got.cif
#   From: 2010.05.17/outbox.cif.g08.bks.cpg/sg2_15_cif.got.tgz:28580.got - 2010.06.03 11:33:40.
