data_PCOD9020522
_publ_section_title
;
Structure prediction by ZEFSAII (Michael W. Deem and Ramdas Pophale) SiO2 
 PCOD9020522
Probable space group: P -1
;
_chemical_formula_sum "Si O2"
_cell_formula_units_Z 16
_cell_length_a 15.022945
_cell_length_b 11.873613
_cell_length_c 14.544437
_cell_angle_alpha 66.276709
_cell_angle_beta 19.483280
_cell_angle_gamma 65.488397
_cell_volume 786.790293
_symmetry_space_group_name_H-M "P -1"
_symmetry_group_IT_number 2
_symmetry_cell_setting 'triclinic'
loop_
_space_group_symop_operation_xyz
x,y,z
-x,-y,-z
loop_
_atom_site_type_symbol
_atom_site_label
_atom_site_fract_x
_atom_site_fract_y
_atom_site_fract_z
Si Si1 0.266945 0.502226 0.300574
Si Si2 0.500065 0.255268 0.254042
Si Si3 0.021247 0.126194 0.706830
Si Si4 0.980629 0.145748 0.123159
Si Si5 0.149105 0.214170 0.131199
Si Si6 0.192679 0.952042 0.244438
Si Si7 0.369134 0.728691 0.255054
Si Si8 0.545614 0.856014 0.469986
O O1 0.343546 0.383224 0.329690
O O2 0.279832 0.621214 0.313334
O O3 0.000000 0.500000 0.500000
O O4 0.500000 0.500000 0.000000
O O5 0.493865 0.231111 0.376444
O O6 0.323954 0.152618 0.418596
O O7 0.801161 0.230529 0.929472
O O8 0.968684 0.112229 0.655251
O O9 0.973687 0.998788 0.845049
O O10 0.073111 0.220723 0.095976
O O11 0.670631 0.168040 0.389124
O O12 0.160818 0.165687 0.852912
O O13 0.872971 0.234067 0.450477
O O14 0.282827 0.072491 0.067447
O O15 0.359069 0.299236 0.941447
O O16 0.404033 0.845127 0.115521
O O17 0.000000 0.000000 0.500000
O O18 0.500000 0.000000 0.500000
#
# Coordination Sequence:
#
# PCOD9020522 Si02
#       8
#     2   2   2   2   2   2   2   2
#     4  12  26  44  63  88 120 163 208 246 294 346
#     4  12  24  38  61  88 119 160 198 242 300 353
#     4  11  21  36  57  87 124 154 192 240 297 367
#     4  11  21  37  59  92 125 156 186 244 306 371
#     4  10  22  36  59  85 115 154 193 239 304 352
#     4   9  20  34  55  84 114 149 194 238 295 348
#     4  11  21  39  58  80 117 154 200 248 285 349
#     4  12  21  37  61  91 128 154 194 243 312 356
#
# _framework density 20.335787
#
# number of rings (size 3 to 8) (size 9 to 14) (size 15 to 20)
#    0.000    1.000    2.500    5.250    0.000    8.000 
#    0.000    0.000    0.000    4.500    0.000    0.000 
#    0.000    0.000    0.000    0.000    0.000    0.000 
#
# Total GULP energy -89407.144494 kJ/mol
# GULP energy per Si atom -5587.946531 kJ/mol
# Density = 2.028950 g / cm^3
# Si number density = 20.335787 Si / 1000 Ang^3
#
#
#
# Elastic Constant Matrix: (Units=GPa)
#
#
# Indices 1 2 3 4 5 6 
#
# 1 116.6119 28.8093 5.4837 -9.5015 -9.9511 -1.0638
# 2 28.8093 40.2550 -3.8698 -2.2645 7.9055 -10.6032
# 3 5.4837 -3.8698 70.0347 -5.3096 -7.0640 -1.0185
# 4 -9.5015 -2.2645 -5.3096 14.8076 5.5483 -4.8263
# 5 -9.9511 7.9055 -7.0640 5.5483 43.9094 -2.2219
# 6 -1.0638 -10.6032 -1.0185 -4.8263 -2.2219 33.1391
#
#
#
# Elastic Compliance Matrix: (Units=1/GPa)
#
#
# Indices 1 2 3 4 5 6 
#
# 1 0.011500 -0.009287 -0.000796 0.003729 0.003586 -0.001843
# 2 -0.009287 0.037132 0.002677 0.007944 -0.008744 0.012236
# 3 -0.000796 0.002677 0.015061 0.005574 0.001167 0.002184
# 4 0.003729 0.007944 0.005574 0.081174 -0.009235 0.014036
# 5 0.003586 -0.008744 0.001167 -0.009235 0.026403 -0.002221
# 6 -0.001843 0.012236 0.002184 0.014036 -0.002221 0.035994
#
#
# Mechanical properties :
#
#
# Convention : Reuss Voigt Hill
#
# Bulk Modulus (GPa) = 20.45740 31.97202 26.21471
# Shear Modulus (GPa) = 20.97579 31.46979 26.22279
#
# Velocity S-wave (km/s) = 3.21514 3.93811 3.59484
# Velocity P-wave (km/s) = 4.88513 6.03609 5.49085
#
# Compressibility (1/GPa) = 0.04888207
#
# Stress axis : x y z
#
# Youngs Moduli (GPa) = 86.95456 26.93078 66.39710
#
# Poissons Ratio (x) = 0.25010 0.05285
# Poissons Ratio (y) = 0.80753 -0.17775
# Poissons Ratio (z) = 0.06922 -0.07210
#
# Static dielectric constant tensor:
#      x y z
#    x 1.691220 0.032830 0.014440 
#    y 0.032830 1.697550 -0.031380 
#    z 0.014440 -0.031380 1.690810 
# 
# From -- ./inp_files/367933.got.cif
#   From: 2010.05.17/outbox.cif.g08.bks.cpg/sg2_184_cif.got.tgz:367933.got - 2010.06.03 11:33:40.
