data_PCOD9020981
_publ_section_title
;
Structure prediction by ZEFSAII (Michael W. Deem and Ramdas Pophale) SiO2 
 PCOD9020981
Probable space group: P -1
;
_chemical_formula_sum "Si O2"
_cell_formula_units_Z 16
_cell_length_a 8.911322
_cell_length_b 9.040854
_cell_length_c 22.272339
_cell_angle_alpha 148.704431
_cell_angle_beta 55.915370
_cell_angle_gamma 122.988710
_cell_volume 762.950605
_symmetry_space_group_name_H-M "P -1"
_symmetry_group_IT_number 2
_symmetry_cell_setting 'triclinic'
loop_
_space_group_symop_operation_xyz
x,y,z
-x,-y,-z
loop_
_atom_site_type_symbol
_atom_site_label
_atom_site_fract_x
_atom_site_fract_y
_atom_site_fract_z
Si Si1 0.160909 0.157321 0.685247
Si Si2 0.003178 0.192267 0.921953
Si Si3 0.853846 0.121184 0.532235
Si Si4 0.602981 0.545876 0.055902
Si Si5 0.087382 0.260498 0.320347
Si Si6 0.442172 0.115892 0.152679
Si Si7 0.139857 0.793714 0.918119
Si Si8 0.477108 0.650701 0.249459
O O1 0.071860 0.452016 0.807106
O O2 0.335926 0.221518 0.712741
O O3 0.209531 0.088952 0.582423
O O4 0.026937 0.889184 0.650581
O O5 0.207779 0.238843 0.919517
O O6 0.975578 0.945550 0.793597
O O7 0.000000 0.500000 0.000000
O O8 0.854445 0.148940 0.992325
O O9 0.934982 0.422254 0.585858
O O10 0.685190 0.190465 0.634528
O O11 0.000000 0.000000 0.500000
O O12 0.500822 0.657351 0.174894
O O13 0.500000 0.500000 0.000000
O O14 0.630190 0.220653 0.954619
O O15 0.303918 0.242342 0.273091
O O16 0.655534 0.147321 0.133547
O O17 0.437394 0.320271 0.166778
O O18 0.000000 0.000000 0.000000
#
# Coordination Sequence:
#
# PCOD9020981 Si02
#       8
#     2   2   2   2   2   2   2   2
#     4  11  22  47  69  93 131 181 223 261 324 403
#     4  12  21  40  64  94 132 173 212 262 330 405
#     4  11  27  44  68  97 127 171 226 284 325 374
#     4  12  23  38  62 101 137 166 209 272 335 382
#     4  11  23  42  70  91 130 174 227 263 327 399
#     4  10  22  37  63  95 128 177 213 257 321 403
#     4  11  24  37  63 102 137 167 211 275 334 378
#     4  10  23  44  67  91 129 176 224 264 319 402
#
# _framework density 20.971212999999999
#
# number of rings (size 3 to 8) (size 9 to 14) (size 15 to 20)
#    0.000    1.000    3.750    2.625    5.250    2.000 
#    0.000    0.625    0.000    0.000    0.000    0.000 
#    0.000    0.000    0.000    0.000    0.000    0.000 
#
# Total GULP energy -89369.846371 kJ/mol
# GULP energy per Si atom -5585.615398 kJ/mol
# Density = 2.092348 g / cm^3
# Si number density = 20.971213 Si / 1000 Ang^3
#
#
#
# Elastic Constant Matrix: (Units=GPa)
#
#
# Indices 1 2 3 4 5 6 
#
# 1 129.4889 53.6748 56.3470 -11.7100 -12.6040 -8.5209
# 2 53.6748 99.1156 40.7949 -9.5190 -12.8570 3.8109
# 3 56.3470 40.7949 125.2311 -13.0081 -2.0231 -21.0802
# 4 -11.7100 -9.5190 -13.0081 34.8106 -7.1308 4.2729
# 5 -12.6040 -12.8570 -2.0231 -7.1308 41.2330 -1.6289
# 6 -8.5209 3.8109 -21.0802 4.2729 -1.6289 29.5671
#
#
#
# Elastic Compliance Matrix: (Units=1/GPa)
#
#
# Indices 1 2 3 4 5 6 
#
# 1 0.011458 -0.004461 -0.003244 0.001718 0.002306 0.001443
# 2 -0.004461 0.014857 -0.003494 0.002660 0.003325 -0.005893
# 3 -0.003244 -0.003494 0.012022 0.001286 -0.000959 0.007848
# 4 0.001718 0.002660 0.001286 0.032318 0.006879 -0.003222
# 5 0.002306 0.003325 -0.000959 0.006879 0.027139 0.000054
# 6 0.001443 -0.005893 0.007848 -0.003222 0.000054 0.041061
#
#
# Mechanical properties :
#
#
# Convention : Reuss Voigt Hill
#
# Bulk Modulus (GPa) = 62.74039 72.82986 67.78513
# Shear Modulus (GPa) = 30.01812 34.65674 32.33743
#
# Velocity S-wave (km/s) = 3.78748 4.06961 3.93108
# Velocity P-wave (km/s) = 7.00779 7.54229 7.27995
#
# Compressibility (1/GPa) = 0.01593870
#
# Stress axis : x y z
#
# Youngs Moduli (GPa) = 87.27361 67.30920 83.17980
#
# Poissons Ratio (x) = 0.30029 0.26980
# Poissons Ratio (y) = 0.38936 0.29065
# Poissons Ratio (z) = 0.28308 0.23520
#
# Static dielectric constant tensor:
#      x y z
#    x 1.797320 0.026920 -0.013880 
#    y 0.026920 1.772800 -0.008940 
#    z -0.013880 -0.008940 1.745400 
# 
# From -- ./inp_files/242461.got.cif
#   From: 2010.05.17/outbox.cif.g08.bks.cpg/sg2_122_cif.got.tgz:242461.got - 2010.06.03 11:33:40.
