data_PCOD9020408
_publ_section_title
;
Structure prediction by ZEFSAII (Michael W. Deem and Ramdas Pophale) SiO2 
 PCOD9020408
Probable space group: P -1
;
_chemical_formula_sum "Si O2"
_cell_formula_units_Z 14
_cell_length_a 14.314053
_cell_length_b 11.105938
_cell_length_c 12.424965
_cell_angle_alpha 104.940430
_cell_angle_beta 74.481665
_cell_angle_gamma 161.289931
_cell_volume 610.446178
_symmetry_space_group_name_H-M "P -1"
_symmetry_group_IT_number 2
_symmetry_cell_setting 'triclinic'
loop_
_space_group_symop_operation_xyz
x,y,z
-x,-y,-z
loop_
_atom_site_type_symbol
_atom_site_label
_atom_site_fract_x
_atom_site_fract_y
_atom_site_fract_z
Si Si1 0.333987 0.171882 0.505054
Si Si2 0.637046 0.574654 0.711586
Si Si3 0.188227 0.370097 0.135241
Si Si4 0.244234 0.651770 0.857538
Si Si5 0.919480 0.505040 0.891030
Si Si6 0.133763 0.325374 0.628265
Si Si7 0.406680 0.476857 0.925605
O O1 0.500000 0.500000 0.500000
O O2 0.370372 0.218142 0.632595
O O3 0.543608 0.321216 0.425570
O O4 0.030436 0.809440 0.452822
O O5 0.666600 0.498848 0.769842
O O6 0.584796 0.641731 0.807161
O O7 0.933658 0.963571 0.642750
O O8 0.057341 0.347974 0.159214
O O9 0.391343 0.590403 0.017502
O O10 0.920054 0.949232 0.109840
O O11 0.150744 0.674676 0.847016
O O12 0.156960 0.443953 0.750016
O O13 0.588196 0.056150 0.869465
O O14 0.074521 0.438565 0.974406
O O15 0.500000 0.500000 0.000000
#
# Coordination Sequence:
#
# PCOD9020408 Si02
#       7
#     2   2   2   2   2   2   2
#     4  10  22  38  59  90 121 155 196 245 296 352
#     4  10  22  35  60  89 120 154 190 242 310 349
#     4  10  22  36  58  88 123 155 189 246 294 363
#     4  10  23  40  61  85 113 164 194 242 287 340
#     4  10  23  40  60  86 118 152 205 233 289 354
#     4  11  23  39  63  87 122 154 200 248 289 353
#     4   9  21  34  52  92 119 157 185 230 306 362
#
# _framework density 22.934042999999999
#
# number of rings (size 3 to 8) (size 9 to 14) (size 15 to 20)
#    0.000    2.000    0.000    2.571   16.000    2.286 
#    0.000    0.000    0.000    5.143    0.000    0.000 
#    0.000    0.000    0.000    0.000    0.000    0.000 
#
# Total GULP energy -78211.359092 kJ/mol
# GULP energy per Si atom -5586.525649 kJ/mol
# Density = 2.288184 g / cm^3
# Si number density = 22.934043 Si / 1000 Ang^3
#
#
#
# Elastic Constant Matrix: (Units=GPa)
#
#
# Indices 1 2 3 4 5 6 
#
# 1 109.1792 22.8082 44.4621 6.4792 6.2735 20.0445
# 2 22.8082 44.4430 27.5299 8.2689 3.4351 17.3815
# 3 44.4621 27.5299 128.3466 21.4759 6.1414 6.9812
# 4 6.4792 8.2689 21.4759 37.6104 7.0176 1.1335
# 5 6.2735 3.4351 6.1414 7.0176 36.0923 -1.7339
# 6 20.0445 17.3815 6.9812 1.1335 -1.7339 30.6228
#
#
#
# Elastic Compliance Matrix: (Units=1/GPa)
#
#
# Indices 1 2 3 4 5 6 
#
# 1 0.012175 -0.001525 -0.003592 0.000823 -0.001828 -0.006419
# 2 -0.001525 0.033965 -0.005163 -0.003318 -0.002266 -0.017109
# 3 -0.003592 -0.005163 0.010719 -0.004517 0.000315 0.003023
# 4 0.000823 -0.003318 -0.004517 0.030654 -0.004973 0.000958
# 5 -0.001828 -0.002266 0.000315 -0.004973 0.029358 0.004257
# 6 -0.006419 -0.017109 0.003023 0.000958 0.004257 0.046085
#
#
# Mechanical properties :
#
#
# Convention : Reuss Voigt Hill
#
# Bulk Modulus (GPa) = 27.54762 52.39658 39.97210
# Shear Modulus (GPa) = 25.56026 33.34301 29.45164
#
# Velocity S-wave (km/s) = 3.34205 3.81710 3.58745
# Velocity P-wave (km/s) = 5.18943 6.50563 5.88444
#
# Compressibility (1/GPa) = 0.03630078
#
# Stress axis : x y z
#
# Youngs Moduli (GPa) = 82.13387 29.44195 93.28859
#
# Poissons Ratio (x) = 0.04489 0.33508
# Poissons Ratio (y) = 0.12523 0.48164
# Poissons Ratio (z) = 0.29501 0.15201
#
# Static dielectric constant tensor:
#      x y z
#    x 1.912810 0.016170 0.011810 
#    y 0.016170 1.912240 -0.043520 
#    z 0.011810 -0.043520 1.945750 
# 
# From -- ./inp_files/62666.got.cif
#   From: 2010.05.17/outbox.cif.g08.bks.cpg/sg2_32_cif.got.tgz:62666.got - 2010.06.03 11:33:40.
