data_PCOD9020789
_publ_section_title
;
Structure prediction by ZEFSAII (Michael W. Deem and Ramdas Pophale) SiO2 
 PCOD9020789
Probable space group: P -1
;
_chemical_formula_sum "Si O2"
_cell_formula_units_Z 16
_cell_length_a 12.812031
_cell_length_b 12.755677
_cell_length_c 12.020439
_cell_angle_alpha 80.431122
_cell_angle_beta 35.154124
_cell_angle_gamma 57.278475
_cell_volume 782.392880
_symmetry_space_group_name_H-M "P -1"
_symmetry_group_IT_number 2
_symmetry_cell_setting 'triclinic'
loop_
_space_group_symop_operation_xyz
x,y,z
-x,-y,-z
loop_
_atom_site_type_symbol
_atom_site_label
_atom_site_fract_x
_atom_site_fract_y
_atom_site_fract_z
Si Si1 0.452099 0.116186 0.103450
Si Si2 0.015064 0.743109 0.235328
Si Si3 0.560734 0.798369 0.514872
Si Si4 0.284255 0.830425 0.292804
Si Si5 0.779830 0.026631 0.028451
Si Si6 0.286364 0.913199 0.519338
Si Si7 0.154458 0.645843 0.367952
Si Si8 0.476371 0.652060 0.760520
O O1 0.633138 0.015814 0.070078
O O2 0.152185 0.242952 0.371394
O O3 0.540408 0.184666 0.948601
O O4 0.500000 0.000000 0.000000
O O5 0.183873 0.629235 0.211737
O O6 0.802718 0.752923 0.369790
O O7 0.865010 0.910537 0.383589
O O8 0.221914 0.686404 0.970261
O O9 0.304960 0.955091 0.773154
O O10 0.563129 0.672914 0.568184
O O11 0.521704 0.829991 0.413708
O O12 0.247796 0.721288 0.319295
O O13 0.362677 0.831927 0.349134
O O14 0.000000 0.000000 0.500000
O O15 0.631403 0.200633 0.104827
O O16 0.076770 0.921513 0.759630
O O17 0.302876 0.496533 0.336584
#
# Coordination Sequence:
#
# PCOD9020789 Si02
#       8
#     2   2   2   2   2   2   2   2
#     4  12  21  36  59  87 118 150 191 236 292 340
#     4  11  20  35  61  89 116 146 191 241 293 341
#     4  10  22  37  58  88 119 151 191 232 288 348
#     4  12  22  37  59  84 116 153 189 238 286 336
#     4   9  19  36  58  84 115 149 186 236 286 336
#     4  11  20  39  58  86 122 151 188 241 286 335
#     4  12  22  39  59  86 120 147 195 241 289 343
#     4   9  23  37  57  86 116 155 188 237 292 343
#
# _framework density 20.450084
#
# number of rings (size 3 to 8) (size 9 to 14) (size 15 to 20)
#    0.750    0.500    5.000    1.875    0.000    3.000 
#    0.000    0.625    0.000    1.500    0.000    0.000 
#    0.000    0.000    0.000    0.000    0.000    0.000 
#
# Total GULP energy -89254.459445 kJ/mol
# GULP energy per Si atom -5578.403715 kJ/mol
# Density = 2.040354 g / cm^3
# Si number density = 20.450084 Si / 1000 Ang^3
#
#
#
# Elastic Constant Matrix: (Units=GPa)
#
#
# Indices 1 2 3 4 5 6 
#
# 1 107.7782 15.1200 8.6206 -8.1433 8.1873 -18.0542
# 2 15.1200 48.0891 -3.3179 0.0831 -9.8239 -11.5517
# 3 8.6206 -3.3179 50.1248 -20.5189 -12.8894 5.4093
# 4 -8.1433 0.0831 -20.5189 26.9521 -1.4398 -3.3788
# 5 8.1873 -9.8239 -12.8894 -1.4398 19.2602 -4.1647
# 6 -18.0542 -11.5517 5.4093 -3.3788 -4.1647 22.8718
#
#
#
# Elastic Compliance Matrix: (Units=1/GPa)
#
#
# Indices 1 2 3 4 5 6 
#
# 1 0.012301 -0.004747 -0.006027 -0.000554 -0.010257 0.006788
# 2 -0.004747 0.035629 0.017103 0.015870 0.036993 0.019283
# 3 -0.006027 0.017103 0.050562 0.040134 0.049612 0.006885
# 4 -0.000554 0.015870 0.040134 0.071901 0.044187 0.016754
# 5 -0.010257 0.036993 0.049612 0.044187 0.117443 0.026766
# 6 0.006788 0.019283 0.006885 0.016754 0.026766 0.064540
#
#
# Mechanical properties :
#
#
# Convention : Reuss Voigt Hill
#
# Bulk Modulus (GPa) = 8.99679 27.42640 18.21159
# Shear Modulus (GPa) = 13.27078 26.18812 19.72945
#
# Velocity S-wave (km/s) = 2.55018 3.58241 3.10943
# Velocity P-wave (km/s) = 3.61665 5.52739 4.67077
#
# Compressibility (1/GPa) = 0.11115079
#
# Stress axis : x y z
#
# Youngs Moduli (GPa) = 81.29625 28.06681 19.77759
#
# Poissons Ratio (x) = 0.13324 0.11919
# Poissons Ratio (y) = 0.38593 -0.33826
# Poissons Ratio (z) = 0.48994 -0.48003
#
# Static dielectric constant tensor:
#      x y z
#    x 1.870940 0.064480 -0.109070 
#    y 0.064480 1.805850 -0.118070 
#    z -0.109070 -0.118070 1.853910 
# 
# From -- ./inp_files/434018.got.cif
#   From: 2010.05.17/outbox.cif.g08.bks.cpg/sg2_218_cif.got.tgz:434018.got - 2010.06.03 11:33:40.
