data_PCOD9020509
_publ_section_title
;
Structure prediction by ZEFSAII (Michael W. Deem and Ramdas Pophale) SiO2 
 PCOD9020509
Probable space group: P -1
;
_chemical_formula_sum "Si O2"
_cell_formula_units_Z 16
_cell_length_a 21.213025
_cell_length_b 5.243399
_cell_length_c 8.789422
_cell_angle_alpha 100.007258
_cell_angle_beta 95.410850
_cell_angle_gamma 42.763156
_cell_volume 652.873569
_symmetry_space_group_name_H-M "P -1"
_symmetry_group_IT_number 2
_symmetry_cell_setting 'triclinic'
loop_
_space_group_symop_operation_xyz
x,y,z
-x,-y,-z
loop_
_atom_site_type_symbol
_atom_site_label
_atom_site_fract_x
_atom_site_fract_y
_atom_site_fract_z
Si Si1 0.978553 0.237437 0.870481
Si Si2 0.255991 0.476929 0.111285
Si Si3 0.790377 0.949431 0.049613
Si Si4 0.912756 0.016522 0.653488
Si Si5 0.893721 0.849650 0.313906
Si Si6 0.397239 0.338011 0.332588
Si Si7 0.558908 0.471777 0.380794
Si Si8 0.503163 0.276337 0.108224
O O1 0.074137 0.058111 0.806094
O O2 0.935333 0.249212 0.705965
O O3 0.892252 0.651783 0.961295
O O4 0.000000 0.000000 0.000000
O O5 0.328688 0.337767 0.242687
O O6 0.158918 0.817005 0.210752
O O7 0.253924 0.191290 0.020733
O O8 0.266879 0.643943 0.992416
O O9 0.813214 0.918061 0.229117
O O10 0.873012 0.057396 0.486806
O O11 0.011969 0.590675 0.671269
O O12 0.369975 0.569248 0.505647
O O13 0.416714 0.498411 0.226497
O O14 0.492494 0.890978 0.335040
O O15 0.500000 0.500000 0.500000
O O16 0.578832 0.187038 0.231923
O O17 0.500000 0.500000 0.000000
O O18 0.500000 0.000000 0.000000
#
# Coordination Sequence:
#
# PCOD9020509 Si02
#       8
#     2   2   2   2   2   2   2   2
#     4  11  19  35  59  87 112 160 215 269 309 369
#     4  11  25  42  61  91 126 173 203 261 319 385
#     4  11  23  38  60  87 124 165 217 252 318 382
#     4  10  22  36  58  90 119 160 210 271 316 364
#     4  11  20  37  60  86 120 161 217 270 310 361
#     4  10  22  42  67  97 133 168 215 262 317 394
#     4   9  20  39  70  98 123 169 214 257 309 385
#     4  11  21  38  67 103 130 158 209 264 309 371
#
# _framework density 24.507044
#
# number of rings (size 3 to 8) (size 9 to 14) (size 15 to 20)
#    0.000    1.500    3.750    2.250    3.500    0.000 
#    0.000    2.500    0.000    0.000    0.000    0.000 
#    0.000    0.000    0.000    0.000    0.000    0.000 
#
# Total GULP energy -89188.307171 kJ/mol
# GULP energy per Si atom -5574.269198 kJ/mol
# Density = 2.445126 g / cm^3
# Si number density = 24.507044 Si / 1000 Ang^3
#
#
#
# Elastic Constant Matrix: (Units=GPa)
#
#
# Indices 1 2 3 4 5 6 
#
# 1 100.3983 33.6864 93.6449 -4.5537 34.1814 26.6977
# 2 33.6864 43.3933 37.4762 -0.1694 11.3389 23.2460
# 3 93.6449 37.4762 191.3818 12.8203 79.7874 27.4669
# 4 -4.5537 -0.1694 12.8203 33.1224 4.4807 1.6831
# 5 34.1814 11.3389 79.7874 4.4807 65.7821 0.7790
# 6 26.6977 23.2460 27.4669 1.6831 0.7790 37.2135
#
#
#
# Elastic Compliance Matrix: (Units=1/GPa)
#
#
# Indices 1 2 3 4 5 6 
#
# 1 0.022947 -0.006490 -0.010105 0.007163 0.001026 -0.005295
# 2 -0.006490 0.040024 -0.001046 0.000995 -0.002093 -0.019574
# 3 -0.010105 -0.001046 0.018269 -0.006014 -0.016259 -0.004968
# 4 0.007163 0.000995 -0.006014 0.033498 0.001153 -0.002861
# 5 0.001026 -0.002093 -0.016259 0.001153 0.034531 0.011797
# 6 -0.005295 -0.019574 -0.004968 -0.002861 0.011797 0.046448
#
#
# Mechanical properties :
#
#
# Convention : Reuss Voigt Hill
#
# Bulk Modulus (GPa) = 21.75960 73.86536 47.81248
# Shear Modulus (GPa) = 20.29893 38.58133 29.44013
#
# Velocity S-wave (km/s) = 2.88112 3.97204 3.46973
# Velocity P-wave (km/s) = 4.46834 7.15836 5.96691
#
# Compressibility (1/GPa) = 0.04595673
#
# Stress axis : x y z
#
# Youngs Moduli (GPa) = 43.57924 24.98498 54.73863
#
# Poissons Ratio (x) = 0.16215 0.55312
# Poissons Ratio (y) = 0.28283 0.05728
# Poissons Ratio (z) = 0.44036 0.02615
#
# Static dielectric constant tensor:
#      x y z
#    x 2.093870 0.039490 0.056280 
#    y 0.039490 2.029290 0.007760 
#    z 0.056280 0.007760 1.974360 
# 
# From -- ./inp_files/223362.got.cif
#   From: 2010.05.17/outbox.cif.g08.bks.cpg/sg2_112_cif.got.tgz:223362.got - 2010.06.03 11:33:40.
