data_PCOD9020536
_publ_section_title
;
Structure prediction by ZEFSAII (Michael W. Deem and Ramdas Pophale) SiO2 
 PCOD9020536
Probable space group: P -1
;
_chemical_formula_sum "Si O2"
_cell_formula_units_Z 16
_cell_length_a 19.184134
_cell_length_b 9.648605
_cell_length_c 5.324128
_cell_angle_alpha 61.843635
_cell_angle_beta 103.635221
_cell_angle_gamma 125.460599
_cell_volume 706.719907
_symmetry_space_group_name_H-M "P -1"
_symmetry_group_IT_number 2
_symmetry_cell_setting 'triclinic'
loop_
_space_group_symop_operation_xyz
x,y,z
-x,-y,-z
loop_
_atom_site_type_symbol
_atom_site_label
_atom_site_fract_x
_atom_site_fract_y
_atom_site_fract_z
Si Si1 0.754995 0.309441 0.677451
Si Si2 0.977614 0.610191 0.194725
Si Si3 0.095745 0.268765 0.573657
Si Si4 0.445597 0.613626 0.134241
Si Si5 0.818167 0.237003 0.272133
Si Si6 0.560486 0.740742 0.620737
Si Si7 0.597898 0.128552 0.381020
Si Si8 0.911583 0.083295 0.301619
O O1 0.820330 0.530852 0.589280
O O2 0.790430 0.264576 0.496280
O O3 0.660760 0.244670 0.563996
O O4 0.756913 0.207373 0.015147
O O5 0.931601 0.707522 0.192355
O O6 0.906546 0.439646 0.112911
O O7 0.000000 0.500000 0.500000
O O8 0.067687 0.774919 0.027937
O O9 0.006284 0.190396 0.415918
O O10 0.115029 0.112617 0.667097
O O11 0.491059 0.672892 0.393740
O O12 0.399549 0.386684 0.270520
O O13 0.516315 0.689298 0.903527
O O14 0.396935 0.719141 0.939957
O O15 0.843665 0.085475 0.418982
O O16 0.615055 0.967039 0.454517
O O17 0.500000 0.000000 0.500000
#
# Coordination Sequence:
#
# PCOD9020536 Si02
#       8
#     2   2   2   2   2   2   2   2
#     4  11  25  43  60  93 131 166 215 272 317 383
#     4  11  19  35  61  91 121 170 216 253 309 381
#     4  10  22  36  59  93 126 164 209 267 310 378
#     4   9  18  34  60  91 122 142 204 257 314 369
#     4  11  23  40  62  90 130 170 210 260 323 379
#     4   9  18  34  60  94 115 152 197 261 308 386
#     4  10  22  42  70  92 123 173 222 263 332 389
#     4  11  20  37  62  90 124 168 214 251 319 386
#
# _framework density 22.639807000000001
#
# number of rings (size 3 to 8) (size 9 to 14) (size 15 to 20)
#    0.000    1.750    2.500    2.625    0.000    4.000 
#    2.250    0.000    5.500    0.000    0.000    0.000 
#    0.000    0.000    0.000    0.000    0.000    0.000 
#
# Total GULP energy -89234.786372 kJ/mol
# GULP energy per Si atom -5577.174148 kJ/mol
# Density = 2.258828 g / cm^3
# Si number density = 22.639807 Si / 1000 Ang^3
#
#
#
# Elastic Constant Matrix: (Units=GPa)
#
#
# Indices 1 2 3 4 5 6 
#
# 1 60.4645 51.3348 32.0457 -8.4650 2.5801 -2.0475
# 2 51.3348 145.4702 42.9192 -17.1935 13.2035 -27.1690
# 3 32.0457 42.9192 96.6423 0.1425 13.1039 -6.4472
# 4 -8.4650 -17.1935 0.1425 33.7218 -3.8808 14.4688
# 5 2.5801 13.2035 13.1039 -3.8808 31.2651 3.8098
# 6 -2.0475 -27.1690 -6.4472 14.4688 3.8098 40.6159
#
#
#
# Elastic Compliance Matrix: (Units=1/GPa)
#
#
# Indices 1 2 3 4 5 6 
#
# 1 0.028647 -0.009590 -0.006741 0.007001 0.006494 -0.009144
# 2 -0.009590 0.012596 -0.001177 -0.000110 -0.005056 0.008269
# 3 -0.006741 -0.001177 0.014114 -0.004404 -0.005802 0.003226
# 4 0.007001 -0.000110 -0.004404 0.038703 0.007940 -0.014952
# 5 0.006494 -0.005056 -0.005802 0.007940 0.038268 -0.010394
# 6 -0.009144 0.008269 0.003226 -0.014952 -0.010394 0.036505
#
#
# Mechanical properties :
#
#
# Convention : Reuss Voigt Hill
#
# Bulk Modulus (GPa) = 49.16160 61.68625 55.42392
# Shear Modulus (GPa) = 23.73859 32.87238 28.30548
#
# Velocity S-wave (km/s) = 3.24162 3.81461 3.53973
# Velocity P-wave (km/s) = 5.98102 6.83430 6.42185
#
# Compressibility (1/GPa) = 0.02034108
#
# Stress axis : x y z
#
# Youngs Moduli (GPa) = 34.90807 79.39080 70.85369
#
# Poissons Ratio (x) = 0.76137 0.47762
# Poissons Ratio (y) = 0.33477 0.08336
# Poissons Ratio (z) = 0.23531 0.09341
#
# Static dielectric constant tensor:
#      x y z
#    x 1.925520 -0.025880 0.003780 
#    y -0.025880 1.843850 -0.000650 
#    z 0.003780 -0.000650 1.924770 
# 
# From -- ./inp_files/115937.got.cif
#   From: 2010.05.17/outbox.cif.g08.bks.cpg/sg2_58_cif.got.tgz:115937.got - 2010.06.03 11:33:40.
