data_PCOD9020778
_publ_section_title
;
Structure prediction by ZEFSAII (Michael W. Deem and Ramdas Pophale) SiO2 
 PCOD9020778
Probable space group: P -1
;
_chemical_formula_sum "Si O2"
_cell_formula_units_Z 16
_cell_length_a 9.928079
_cell_length_b 5.219333
_cell_length_c 19.111004
_cell_angle_alpha 117.477599
_cell_angle_beta 119.659680
_cell_angle_gamma 57.944382
_cell_volume 702.276996
_symmetry_space_group_name_H-M "P -1"
_symmetry_group_IT_number 2
_symmetry_cell_setting 'triclinic'
loop_
_space_group_symop_operation_xyz
x,y,z
-x,-y,-z
loop_
_atom_site_type_symbol
_atom_site_label
_atom_site_fract_x
_atom_site_fract_y
_atom_site_fract_z
Si Si1 0.598900 0.626158 0.269846
Si Si2 0.183296 0.507245 0.548609
Si Si3 0.424237 0.756639 0.613139
Si Si4 0.101131 0.006767 0.096031
Si Si5 0.661453 0.121174 0.550697
Si Si6 0.889805 0.438140 0.222480
Si Si7 0.717948 0.543110 0.823111
Si Si8 0.943857 0.113590 0.703755
O O1 0.730998 0.568319 0.361449
O O2 0.701990 0.513658 0.210537
O O3 0.468529 0.460843 0.225303
O O4 0.514060 0.006781 0.300503
O O5 0.230449 0.804083 0.582245
O O6 0.000000 0.500000 0.500000
O O7 0.279335 0.254116 0.480034
O O8 0.541940 0.387661 0.605674
O O9 0.425629 0.814253 0.538553
O O10 0.241199 0.147139 0.130541
O O11 0.967961 0.231564 0.147558
O O12 0.191100 0.669045 0.113001
O O13 0.000000 0.000000 0.000000
O O14 0.838917 0.150791 0.610731
O O15 0.909711 0.765263 0.257401
O O16 0.000646 0.223164 0.287560
O O17 0.820858 0.346236 0.758304
#
# Coordination Sequence:
#
# PCOD9020778 Si02
#       8
#     2   2   2   2   2   2   2   2
#     4  11  25  39  61  94 135 170 225 273 329 387
#     4  11  24  38  57  85 128 177 229 278 331 368
#     4  10  24  38  56  83 124 173 221 280 326 377
#     4  10  22  46  73 101 131 165 211 257 324 410
#     4  10  22  37  58  82 117 169 229 276 320 373
#     4  10  24  40  64  98 129 169 206 269 322 391
#     4  10  23  40  69 100 128 173 210 263 325 391
#     4  10  22  39  64  88 126 171 224 262 325 382
#
# _framework density 22.783035000000002
#
# number of rings (size 3 to 8) (size 9 to 14) (size 15 to 20)
#    0.000    1.750    0.000    2.250   14.000    2.000 
#    0.000    1.250    0.000    0.000    0.000    0.000 
#    0.000    0.000    0.000    0.000    0.000    0.000 
#
# Total GULP energy -89182.554717 kJ/mol
# GULP energy per Si atom -5573.909670 kJ/mol
# Density = 2.273118 g / cm^3
# Si number density = 22.783035 Si / 1000 Ang^3
#
#
#
# Elastic Constant Matrix: (Units=GPa)
#
#
# Indices 1 2 3 4 5 6 
#
# 1 159.6809 24.2610 48.1381 7.7387 18.1373 4.6791
# 2 24.2610 37.5901 24.0221 1.7499 -5.8669 13.8688
# 3 48.1381 24.0221 104.4216 -9.7886 8.8626 -2.4134
# 4 7.7387 1.7499 -9.7886 20.3902 2.2011 0.6493
# 5 18.1373 -5.8669 8.8626 2.2011 31.6507 6.7331
# 6 4.6791 13.8688 -2.4134 0.6493 6.7331 30.6837
#
#
#
# Elastic Compliance Matrix: (Units=1/GPa)
#
#
# Indices 1 2 3 4 5 6 
#
# 1 0.008566 -0.005429 -0.002513 -0.003475 -0.005442 0.002217
# 2 -0.005429 0.054070 -0.013676 -0.010793 0.024039 -0.029734
# 3 -0.002513 -0.013676 0.015760 0.010281 -0.008220 0.009390
# 4 -0.003475 -0.010793 0.010281 0.056902 -0.008299 0.006834
# 5 -0.005442 0.024039 -0.008220 -0.008299 0.046451 -0.020700
# 6 0.002217 -0.029734 0.009390 0.006834 -0.020700 0.050828
#
#
# Mechanical properties :
#
#
# Convention : Reuss Voigt Hill
#
# Bulk Modulus (GPa) = 28.43954 54.94835 41.69395
# Shear Modulus (GPa) = 17.38934 30.22970 23.80952
#
# Velocity S-wave (km/s) = 2.76571 3.64655 3.23624
# Velocity P-wave (km/s) = 4.76537 6.47304 5.68370
#
# Compressibility (1/GPa) = 0.03516231
#
# Stress axis : x y z
#
# Youngs Moduli (GPa) = 116.73642 18.49444 63.45366
#
# Poissons Ratio (x) = 0.10040 0.15945
# Poissons Ratio (y) = 0.63371 0.86776
# Poissons Ratio (z) = 0.29334 0.25292
#
# Static dielectric constant tensor:
#      x y z
#    x 1.920890 -0.003570 0.006010 
#    y -0.003570 2.031610 -0.031490 
#    z 0.006010 -0.031490 1.815950 
# 
# From -- ./inp_files/109921.got.cif
#   From: 2010.05.17/outbox.cif.g08.bks.cpg/sg2_55_cif.got.tgz:109921.got - 2010.06.03 11:33:40.
