data_PCOD9020242
_publ_section_title
;
Structure prediction by ZEFSAII (Michael W. Deem and Ramdas Pophale) SiO2 
 PCOD9020242
Probable space group: P -1
;
_chemical_formula_sum "Si O2"
_cell_formula_units_Z 13
_cell_length_a 5.143948
_cell_length_b 11.206043
_cell_length_c 13.965746
_cell_angle_alpha 137.010247
_cell_angle_beta 59.319762
_cell_angle_gamma 110.918581
_cell_volume 471.911060
_symmetry_space_group_name_H-M "P -1"
_symmetry_group_IT_number 2
_symmetry_cell_setting 'triclinic'
loop_
_space_group_symop_operation_xyz
x,y,z
-x,-y,-z
loop_
_atom_site_type_symbol
_atom_site_label
_atom_site_fract_x
_atom_site_fract_y
_atom_site_fract_z
Si Si1 0.736436 0.482565 0.860704
Si Si2 0.966931 0.212899 0.924468
Si Si3 0.386691 0.195915 0.658716
Si Si4 0.239907 0.901854 0.798773
Si Si5 0.400609 0.374676 0.556776
Si Si6 0.500000 0.000000 0.000000
Si Si7 0.164415 0.396016 0.280428
O O1 0.661355 0.292077 0.718331
O O2 0.658353 0.595182 0.846765
O O3 0.500000 0.500000 0.000000
O O4 0.009905 0.593960 0.920336
O O5 0.089419 0.214123 0.792793
O O6 0.213791 0.083397 0.855280
O O7 0.670765 0.106328 0.940755
O O8 0.324691 0.285376 0.619836
O O9 0.500000 0.000000 0.500000
O O10 0.472074 0.774475 0.624699
O O11 0.298569 0.895884 0.896295
O O12 0.909215 0.803135 0.795465
O O13 0.130101 0.487626 0.627048
O O14 0.663934 0.506537 0.611873
#
# Coordination Sequence:
#
# PCOD9020242 Si02
#       7
#     2   2   2   2   2   1   2
#     4   9  21  43  71 102 151 193 248 311 376 455
#     4  11  24  48  69 113 149 201 250 312 391 457
#     4  10  21  47  79 107 144 195 261 320 380 450
#     4  12  26  44  74 104 157 194 261 308 380 468
#     4  11  26  47  76 113 149 199 256 328 382 452
#     4  12  28  40  68 110 152 210 242 316 374 478
#     4  11  25  46  74 110 152 199 254 313 393 451
#
# _framework density 27.547563
#
# number of rings (size 3 to 8) (size 9 to 14) (size 15 to 20)
#    0.000    1.231    3.077    1.385    4.308    1.231 
#    8.308    7.692    0.000    0.000    0.000    0.000 
#    0.000    0.000    0.000    0.000    0.000    0.000 
#
# Total GULP energy -72678.289432 kJ/mol
# GULP energy per Si atom -5590.637649 kJ/mol
# Density = 2.748486 g / cm^3
# Si number density = 27.547563 Si / 1000 Ang^3
#
#
#
# Elastic Constant Matrix: (Units=GPa)
#
#
# Indices 1 2 3 4 5 6 
#
# 1 128.9965 28.5769 32.5431 4.1838 9.9252 3.5692
# 2 28.5769 184.9506 70.1675 -11.4673 -8.7087 -1.1927
# 3 32.5431 70.1675 191.7129 16.7345 8.0142 -25.0977
# 4 4.1838 -11.4673 16.7345 64.5735 -10.0555 9.7157
# 5 9.9252 -8.7087 8.0142 -10.0555 24.9514 -1.9765
# 6 3.5692 -1.1927 -25.0977 9.7157 -1.9765 53.4786
#
#
#
# Elastic Compliance Matrix: (Units=1/GPa)
#
#
# Indices 1 2 3 4 5 6 
#
# 1 0.008628 -0.001270 -0.000863 -0.001053 -0.004099 -0.000969
# 2 -0.001270 0.007232 -0.003145 0.003238 0.005216 -0.001625
# 3 -0.000863 -0.003145 0.007554 -0.003751 -0.004371 0.004053
# 4 -0.001053 0.003238 -0.003751 0.019407 0.010197 -0.004767
# 5 -0.004099 0.005216 -0.004371 0.010197 0.048907 -0.001707
# 6 -0.000969 -0.001625 0.004053 -0.004767 -0.001707 0.021432
#
#
# Mechanical properties :
#
#
# Convention : Reuss Voigt Hill
#
# Bulk Modulus (GPa) = 77.77489 85.35945 81.56717
# Shear Modulus (GPa) = 39.06151 53.55886 46.31019
#
# Velocity S-wave (km/s) = 3.76967 4.41413 4.10457
# Velocity P-wave (km/s) = 6.87325 7.55201 7.22061
#
# Compressibility (1/GPa) = 0.01285762
#
# Stress axis : x y z
#
# Youngs Moduli (GPa) = 115.90565 138.27182 132.37336
#
# Poissons Ratio (x) = 0.17563 0.11427
# Poissons Ratio (y) = 0.14722 0.41630
# Poissons Ratio (z) = 0.10006 0.43485
#
# Static dielectric constant tensor:
#      x y z
#    x 2.061250 0.103530 0.027410 
#    y 0.103530 2.101580 -0.056190 
#    z 0.027410 -0.056190 2.122850 
# 
# From -- ./inp_files/482391.got.cif
#   From: 2010.05.17/outbox.cif.g08.bks.cpg/sg2_242_cif.got.tgz:482391.got - 2010.06.03 11:33:40.
