data_PCOD9020557
_publ_section_title
;
Structure prediction by ZEFSAII (Michael W. Deem and Ramdas Pophale) SiO2 
 PCOD9020557
Probable space group: P -1
;
_chemical_formula_sum "Si O2"
_cell_formula_units_Z 14
_cell_length_a 18.311863
_cell_length_b 11.243951
_cell_length_c 14.958424
_cell_angle_alpha 149.947108
_cell_angle_beta 27.242308
_cell_angle_gamma 150.674600
_cell_volume 631.849681
_symmetry_space_group_name_H-M "P -1"
_symmetry_group_IT_number 2
_symmetry_cell_setting 'triclinic'
loop_
_space_group_symop_operation_xyz
x,y,z
-x,-y,-z
loop_
_atom_site_type_symbol
_atom_site_label
_atom_site_fract_x
_atom_site_fract_y
_atom_site_fract_z
Si Si1 0.168704 0.778444 0.012931
Si Si2 0.698719 0.416176 0.882084
Si Si3 0.354879 0.919214 0.444785
Si Si4 0.434978 0.555024 0.512232
Si Si5 0.731766 0.923666 0.067174
Si Si6 0.955309 0.245241 0.186878
Si Si7 0.623674 0.887125 0.840753
O O1 0.323353 0.709996 0.762498
O O2 0.184321 0.013356 0.082076
O O3 0.000000 0.500000 0.000000
O O4 0.214253 0.887692 0.134826
O O5 0.697679 0.196739 0.672588
O O6 0.858536 0.500092 0.833846
O O7 0.730147 0.667309 0.949047
O O8 0.508762 0.305335 0.064582
O O9 0.528785 0.885123 0.263352
O O10 0.192402 0.772926 0.592929
O O11 0.408748 0.232160 0.581662
O O12 0.500000 0.500000 0.500000
O O13 0.334303 0.288496 0.391233
O O14 0.858946 0.180368 0.154208
O O15 0.000000 0.000000 0.000000
O O16 0.500000 0.000000 0.000000
#
# Coordination Sequence:
#
# PCOD9020557 Si02
#       7
#     2   2   2   2   2   2   2
#     4  11  26  45  67  99 134 171 218 276 324 385
#     4  11  22  41  67  97 128 172 218 266 326 385
#     4  11  21  40  63  95 132 168 216 268 325 386
#     4  11  22  42  69  95 127 176 222 261 326 397
#     4  10  22  42  63  95 135 166 213 270 327 384
#     4  10  22  36  60  92 127 169 211 264 317 381
#     4  12  24  44  72  93 131 177 218 269 329 391
#
# _framework density 22.157171000000002
#
# number of rings (size 3 to 8) (size 9 to 14) (size 15 to 20)
#    0.000    1.143    4.286    3.000    2.000    4.000 
#    0.000    1.429    0.000    0.000    0.000    0.000 
#    0.000    0.000    0.000    0.000    0.000    0.000 
#
# Total GULP energy -78211.426467 kJ/mol
# GULP energy per Si atom -5586.530462 kJ/mol
# Density = 2.210674 g / cm^3
# Si number density = 22.157171 Si / 1000 Ang^3
#
#
#
# Elastic Constant Matrix: (Units=GPa)
#
#
# Indices 1 2 3 4 5 6 
#
# 1 79.9057 34.2720 1.6815 10.6166 23.6603 18.9344
# 2 34.2720 93.8522 -0.5113 8.6868 0.4634 22.1233
# 3 1.6815 -0.5113 39.7588 17.5116 20.9589 13.3995
# 4 10.6166 8.6868 17.5116 33.5548 11.2921 5.2331
# 5 23.6603 0.4634 20.9589 11.2921 29.8834 14.4270
# 6 18.9344 22.1233 13.3995 5.2331 14.4270 56.2384
#
#
#
# Elastic Compliance Matrix: (Units=1/GPa)
#
#
# Indices 1 2 3 4 5 6 
#
# 1 0.025277 -0.008270 0.016664 -0.004511 -0.029237 -0.001308
# 2 -0.008270 0.015147 -0.002516 -0.003145 0.011833 -0.005318
# 3 0.016664 -0.002516 0.057784 -0.019187 -0.043847 -0.005355
# 4 -0.004511 -0.003145 -0.019187 0.041626 -0.000365 0.003548
# 5 -0.029237 0.011833 -0.043847 -0.000365 0.091027 -0.007682
# 6 -0.001308 -0.005318 -0.005355 0.003548 -0.007682 0.023230
#
#
# Mechanical properties :
#
#
# Convention : Reuss Voigt Hill
#
# Bulk Modulus (GPa) = 9.09369 31.60013 20.34691
# Shear Modulus (GPa) = 17.92182 35.80694 26.86438
#
# Velocity S-wave (km/s) = 2.84711 4.02436 3.48580
# Velocity P-wave (km/s) = 3.86279 5.99056 5.04024
#
# Compressibility (1/GPa) = 0.10996640
#
# Stress axis : x y z
#
# Youngs Moduli (GPa) = 39.56121 66.01804 17.30587
#
# Poissons Ratio (x) = 0.54594 -0.28839
# Poissons Ratio (y) = 0.32716 0.04354
# Poissons Ratio (z) = -0.65926 0.16609
#
# Static dielectric constant tensor:
#      x y z
#    x 1.885680 -0.005280 -0.024010 
#    y -0.005280 1.926350 -0.005530 
#    z -0.024010 -0.005530 1.834810 
# 
# From -- ./inp_files/280102.got.cif
#   From: 2010.05.17/outbox.cif.g08.bks.cpg/sg2_141_cif.got.tgz:280102.got - 2010.06.03 11:33:40.
