data_PCOD9020847
_publ_section_title
;
Structure prediction by ZEFSAII (Michael W. Deem and Ramdas Pophale) SiO2 
 PCOD9020847
Probable space group: P -1
;
_chemical_formula_sum "Si O2"
_cell_formula_units_Z 12
_cell_length_a 8.671526
_cell_length_b 8.415705
_cell_length_c 13.972810
_cell_angle_alpha 151.133783
_cell_angle_beta 70.836274
_cell_angle_gamma 102.617975
_cell_volume 459.635151
_symmetry_space_group_name_H-M "P -1"
_symmetry_group_IT_number 2
_symmetry_cell_setting 'triclinic'
loop_
_space_group_symop_operation_xyz
x,y,z
-x,-y,-z
loop_
_atom_site_type_symbol
_atom_site_label
_atom_site_fract_x
_atom_site_fract_y
_atom_site_fract_z
Si Si1 0.305749 0.967585 0.752236
Si Si2 0.451536 0.319178 0.606130
Si Si3 0.660612 0.660935 0.869907
Si Si4 0.050626 0.093873 0.145066
Si Si5 0.170302 0.645560 0.043078
Si Si6 0.176866 0.004648 0.418439
O O1 0.433573 0.729422 0.537185
O O2 0.357115 0.049252 0.893454
O O3 0.291366 0.322671 0.884629
O O4 0.124783 0.850391 0.734382
O O5 0.506016 0.619594 0.814200
O O6 0.500000 0.000000 0.500000
O O7 0.268797 0.299127 0.592724
O O8 0.824351 0.647494 0.763276
O O9 0.706460 0.328704 0.747962
O O10 0.166795 0.801449 0.022179
O O11 0.000000 0.000000 0.000000
O O12 0.165927 0.949649 0.278614
O O13 0.000000 0.500000 0.000000
O O14 0.000000 0.000000 0.500000
#
# Coordination Sequence:
#
# PCOD9020847 Si02
#       6
#     2   2   2   2   2   2
#     4   9  19  38  62  89 120 154 203 246 287 359
#     4  10  22  37  60  90 119 156 201 246 303 346
#     4   9  20  38  63  88 120 161 193 244 304 349
#     4   9  18  36  62  92 121 156 201 236 302 361
#     4   9  19  34  62  89 111 157 198 244 293 345
#     4  10  22  39  57  88 118 151 208 247 288 361
#
# _framework density 26.107662999999999
#
# number of rings (size 3 to 8) (size 9 to 14) (size 15 to 20)
#    0.000    2.667    0.000    1.000    9.333    6.667 
#    0.000    0.833    0.000    8.000    0.000    0.000 
#    0.000    0.000    0.000    0.000    0.000    0.000 
#
# Total GULP energy -67068.761054 kJ/mol
# GULP energy per Si atom -5589.063421 kJ/mol
# Density = 2.604824 g / cm^3
# Si number density = 26.107663 Si / 1000 Ang^3
#
#
#
# Elastic Constant Matrix: (Units=GPa)
#
#
# Indices 1 2 3 4 5 6 
#
# 1 177.1573 39.6757 89.0981 -20.2672 30.9796 36.4425
# 2 39.6757 100.2143 35.9641 -17.3975 11.5170 -7.2871
# 3 89.0981 35.9641 136.1916 -22.9836 20.5085 16.6592
# 4 -20.2672 -17.3975 -22.9836 35.1154 7.3894 -1.4136
# 5 30.9796 11.5170 20.5085 7.3894 45.6185 -4.4601
# 6 36.4425 -7.2871 16.6592 -1.4136 -4.4601 51.1396
#
#
#
# Elastic Compliance Matrix: (Units=1/GPa)
#
#
# Indices 1 2 3 4 5 6 
#
# 1 0.011456 -0.002085 -0.004386 0.003801 -0.006631 -0.007505
# 2 -0.002085 0.012543 -0.001412 0.004550 -0.001488 0.003729
# 3 -0.004386 -0.001412 0.012072 0.005268 -0.003056 -0.001129
# 4 0.003801 0.004550 0.005268 0.038908 -0.012774 -0.003815
# 5 -0.006631 -0.001488 -0.003056 -0.012774 0.031011 0.007860
# 6 -0.007505 0.003729 -0.001129 -0.003815 0.007860 0.026382
#
#
# Mechanical properties :
#
#
# Convention : Reuss Voigt Hill
#
# Bulk Modulus (GPa) = 49.25083 82.55987 65.90535
# Shear Modulus (GPa) = 32.27741 42.96305 37.62023
#
# Velocity S-wave (km/s) = 3.51995 4.06101 3.80012
# Velocity P-wave (km/s) = 5.95193 7.32671 6.67481
#
# Compressibility (1/GPa) = 0.02030423
#
# Stress axis : x y z
#
# Youngs Moduli (GPa) = 87.29223 79.72536 82.83540
#
# Poissons Ratio (x) = 0.16625 0.36329
# Poissons Ratio (y) = 0.18203 0.11700
# Poissons Ratio (z) = 0.38284 0.11260
#
# Static dielectric constant tensor:
#      x y z
#    x 2.043410 -0.066900 -0.023400 
#    y -0.066900 2.053500 0.079380 
#    z -0.023400 0.079380 2.075900 
# 
# From -- ./inp_files/188798.got.cif
#   From: 2010.05.17/outbox.cif.g08.bks.cpg/sg2_95_cif.got.tgz:188798.got - 2010.06.03 11:33:40.
