data_PCOD9020819
_publ_section_title
;
Structure prediction by ZEFSAII (Michael W. Deem and Ramdas Pophale) SiO2 
 PCOD9020819
Probable space group: P -1
;
_chemical_formula_sum "Si O2"
_cell_formula_units_Z 12
_cell_length_a 22.188956
_cell_length_b 24.732411
_cell_length_c 11.729110
_cell_angle_alpha 149.937971
_cell_angle_beta 31.361923
_cell_angle_gamma 169.357798
_cell_volume 595.091926
_symmetry_space_group_name_H-M "P -1"
_symmetry_group_IT_number 2
_symmetry_cell_setting 'triclinic'
loop_
_space_group_symop_operation_xyz
x,y,z
-x,-y,-z
loop_
_atom_site_type_symbol
_atom_site_label
_atom_site_fract_x
_atom_site_fract_y
_atom_site_fract_z
Si Si1 0.697237 0.277873 0.155843
Si Si2 0.380640 0.641500 0.362885
Si Si3 0.762505 0.811445 0.194879
Si Si4 0.349384 0.488669 0.722302
Si Si5 0.759223 0.947274 0.094659
Si Si6 0.619634 0.811781 0.648662
O O1 0.758217 0.392630 0.386394
O O2 0.517186 0.206916 0.235490
O O3 0.000000 0.500000 0.000000
O O4 0.500000 0.000000 0.000000
O O5 0.688047 0.853886 0.320565
O O6 0.535981 0.809958 0.299527
O O7 0.086871 0.301817 0.192897
O O8 0.685467 0.774464 0.382282
O O9 0.500000 0.500000 0.000000
O O10 0.109612 0.054701 0.073345
O O11 0.500000 0.500000 0.500000
O O12 0.382679 0.565090 0.680640
O O13 0.553056 0.740411 0.938710
O O14 0.971933 0.149398 0.746672
#
# Coordination Sequence:
#
# PCOD9020819 Si02
#       6
#     2   2   2   2   2   2
#     4  11  23  44  71  90 115 155 209 276 317 344
#     4  10  22  37  59  90 117 155 203 254 309 353
#     4   9  20  33  56  84 124 157 192 243 299 361
#     4  12  24  37  61  88 135 175 198 231 291 379
#     4  11  21  36  57  86 129 164 192 236 299 372
#     4  11  24  40  59  94 123 159 214 246 300 368
#
# _framework density 20.164952
#
# number of rings (size 3 to 8) (size 9 to 14) (size 15 to 20)
#    0.000    1.333    1.667    4.000    4.667    6.667 
#    0.000    0.000    0.000   20.000    0.000    0.000 
#    0.000    0.000    0.000    0.000    0.000    0.000 
#
# Total GULP energy -67034.840896 kJ/mol
# GULP energy per Si atom -5586.236741 kJ/mol
# Density = 2.011906 g / cm^3
# Si number density = 20.164952 Si / 1000 Ang^3
#
#
#
# Elastic Constant Matrix: (Units=GPa)
#
#
# Indices 1 2 3 4 5 6 
#
# 1 61.3951 4.9027 23.2930 2.1253 9.3689 -9.4733
# 2 4.9027 68.3491 17.9033 -5.5213 0.1124 -2.3317
# 3 23.2930 17.9033 95.8390 -7.1620 12.5723 9.6290
# 4 2.1253 -5.5213 -7.1620 37.1349 -1.3997 8.1572
# 5 9.3689 0.1124 12.5723 -1.3997 35.9687 5.3731
# 6 -9.4733 -2.3317 9.6290 8.1572 5.3731 34.0624
#
#
#
# Elastic Compliance Matrix: (Units=1/GPa)
#
#
# Indices 1 2 3 4 5 6 
#
# 1 0.020779 -0.000051 -0.005651 -0.004504 -0.004993 0.009239
# 2 -0.000051 0.015598 -0.003051 0.001452 0.000874 0.001431
# 3 -0.005651 -0.003051 0.013566 0.003759 -0.002192 -0.006170
# 4 -0.004504 0.001452 0.003759 0.030395 0.002515 -0.009892
# 5 -0.004993 0.000874 -0.002192 0.002515 0.030888 -0.006184
# 6 0.009239 0.001431 -0.006170 -0.009892 -0.006184 0.037114
#
#
# Mechanical properties :
#
#
# Convention : Reuss Voigt Hill
#
# Bulk Modulus (GPa) = 30.82822 35.30900 33.06861
# Shear Modulus (GPa) = 28.30324 33.39883 30.85104
#
# Velocity S-wave (km/s) = 3.75051 4.07416 3.91568
# Velocity P-wave (km/s) = 5.83749 6.29919 6.07273
#
# Compressibility (1/GPa) = 0.03243781
#
# Stress axis : x y z
#
# Youngs Moduli (GPa) = 48.12487 64.10932 73.71428
#
# Poissons Ratio (x) = 0.00326 0.41654
# Poissons Ratio (y) = 0.00245 0.22493
# Poissons Ratio (z) = 0.27194 0.19562
#
# Static dielectric constant tensor:
#      x y z
#    x 1.718300 0.008150 -0.003880 
#    y 0.008150 1.699520 -0.009060 
#    z -0.003880 -0.009060 1.738680 
# 
# From -- ./inp_files/59375.got.cif
#   From: 2010.05.17/outbox.cif.g08.bks.cpg/sg2_30_cif.got.tgz:59375.got - 2010.06.03 11:33:40.
