data_PCOD9020550
_publ_section_title
;
Structure prediction by ZEFSAII (Michael W. Deem and Ramdas Pophale) SiO2 
 PCOD9020550
Probable space group: P -1
;
_chemical_formula_sum "Si O2"
_cell_formula_units_Z 14
_cell_length_a 15.860175
_cell_length_b 8.664956
_cell_length_c 6.267140
_cell_angle_alpha 112.270796
_cell_angle_beta 73.252921
_cell_angle_gamma 65.433174
_cell_volume 614.887027
_symmetry_space_group_name_H-M "P -1"
_symmetry_group_IT_number 2
_symmetry_cell_setting 'triclinic'
loop_
_space_group_symop_operation_xyz
x,y,z
-x,-y,-z
loop_
_atom_site_type_symbol
_atom_site_label
_atom_site_fract_x
_atom_site_fract_y
_atom_site_fract_z
Si Si1 0.640174 0.972575 0.317498
Si Si2 0.884818 0.670711 0.459534
Si Si3 0.736473 0.572847 0.734131
Si Si4 0.192727 0.957516 0.969961
Si Si5 0.885876 0.221171 0.768246
Si Si6 0.962282 0.737096 0.043730
Si Si7 0.429434 0.165506 0.323718
O O1 0.631566 0.912014 0.534794
O O2 0.516136 0.144390 0.415377
O O3 0.685739 0.760103 0.041439
O O4 0.709795 0.056273 0.232403
O O5 0.813153 0.598939 0.546139
O O6 0.854337 0.855331 0.729911
O O7 0.873837 0.758094 0.277740
O O8 0.003221 0.450166 0.237816
O O9 0.812573 0.359324 0.693926
O O10 0.645542 0.624533 0.651300
O O11 0.194949 0.790663 0.023126
O O12 0.094061 0.048428 0.922047
O O13 0.935509 0.317352 0.920320
O O14 0.000000 0.000000 0.500000
O O15 0.500000 0.000000 0.000000
#
# Coordination Sequence:
#
# PCOD9020550 Si02
#       7
#     2   2   2   2   2   2   2
#     4   9  20  38  67  94 115 152 209 258 317 366
#     4  10  22  36  61  88 114 159 224 260 294 357
#     4  10  22  36  60  89 125 161 204 254 308 366
#     4  11  22  40  58  89 127 163 207 259 302 370
#     4  12  25  41  55  89 137 177 206 244 304 367
#     4  11  23  36  61  83 121 172 215 258 302 348
#     4   9  18  39  67  94 116 146 202 270 315 365
#
# _framework density 22.768412000000001
#
# number of rings (size 3 to 8) (size 9 to 14) (size 15 to 20)
#    0.000    1.714    1.429    2.571   10.000    0.000 
#    0.000    0.714    0.000    7.714    0.000    0.000 
#    0.000    0.000    0.000    0.000    0.000    0.000 
#
# Total GULP energy -78000.101718 kJ/mol
# GULP energy per Si atom -5571.435837 kJ/mol
# Density = 2.271659 g / cm^3
# Si number density = 22.768412 Si / 1000 Ang^3
#
#
#
# Elastic Constant Matrix: (Units=GPa)
#
#
# Indices 1 2 3 4 5 6 
#
# 1 87.3370 58.7731 26.0695 -17.4185 -22.1882 -0.6398
# 2 58.7731 147.6644 25.2175 -37.4741 -7.0875 -27.0885
# 3 26.0695 25.2175 117.2319 -26.0462 -22.0458 7.3964
# 4 -17.4185 -37.4741 -26.0462 37.1038 9.6027 0.1130
# 5 -22.1882 -7.0875 -22.0458 9.6027 26.0663 -6.5882
# 6 -0.6398 -27.0885 7.3964 0.1130 -6.5882 39.3128
#
#
#
# Elastic Compliance Matrix: (Units=1/GPa)
#
#
# Indices 1 2 3 4 5 6 
#
# 1 0.020769 -0.008933 -0.000379 -0.003522 0.015431 -0.003150
# 2 -0.008933 0.014825 -0.000188 0.012150 -0.005913 0.009079
# 3 -0.000379 -0.000188 0.011286 0.005814 0.006740 -0.001146
# 4 -0.003522 0.012150 0.005814 0.044132 -0.009650 0.005477
# 5 0.015431 -0.005913 0.006740 -0.009650 0.060427 0.005063
# 6 -0.003150 0.009079 -0.001146 0.005477 0.005063 0.032690
#
#
# Mechanical properties :
#
#
# Convention : Reuss Voigt Hill
#
# Bulk Modulus (GPa) = 35.86620 63.59486 49.73053
# Shear Modulus (GPa) = 23.53813 36.64146 30.08979
#
# Velocity S-wave (km/s) = 3.21877 4.01597 3.63927
# Velocity P-wave (km/s) = 5.44066 7.03533 6.28875
#
# Compressibility (1/GPa) = 0.02788141
#
# Stress axis : x y z
#
# Youngs Moduli (GPa) = 48.14856 67.45526 88.60192
#
# Poissons Ratio (x) = 0.60255 0.03357
# Poissons Ratio (y) = 0.43009 0.01664
# Poissons Ratio (z) = 0.01824 0.01267
#
# Static dielectric constant tensor:
#      x y z
#    x 1.924490 -0.065230 0.017760 
#    y -0.065230 1.932930 0.010710 
#    z 0.017760 0.010710 1.941440 
# 
# From -- ./inp_files/49017.got.cif
#   From: 2010.05.17/outbox.cif.g08.bks.cpg/sg2_25_cif.got.tgz:49017.got - 2010.06.03 11:33:40.
