data_PCOD9020423
_publ_section_title
;
Structure prediction by ZEFSAII (Michael W. Deem and Ramdas Pophale) SiO2 
 PCOD9020423
Probable space group: P -1
;
_chemical_formula_sum "Si O2"
_cell_formula_units_Z 14
_cell_length_a 5.029756
_cell_length_b 13.753898
_cell_length_c 13.523212
_cell_angle_alpha 46.290048
_cell_angle_beta 92.281628
_cell_angle_gamma 81.539163
_cell_volume 655.650960
_symmetry_space_group_name_H-M "P -1"
_symmetry_group_IT_number 2
_symmetry_cell_setting 'triclinic'
loop_
_space_group_symop_operation_xyz
x,y,z
-x,-y,-z
loop_
_atom_site_type_symbol
_atom_site_label
_atom_site_fract_x
_atom_site_fract_y
_atom_site_fract_z
Si Si1 0.314432 0.726126 0.589406
Si Si2 0.616446 0.096986 0.355892
Si Si3 0.588909 0.485341 0.642076
Si Si4 0.172853 0.015033 0.298830
Si Si5 0.179341 0.045103 0.055797
Si Si6 0.637807 0.776895 0.210148
Si Si7 0.987420 0.361180 0.509814
O O1 0.338338 0.776788 0.664765
O O2 0.513529 0.574954 0.679406
O O3 0.027505 0.709726 0.547671
O O4 0.349583 0.855768 0.429606
O O5 0.375167 0.113860 0.259591
O O6 0.910965 0.034305 0.353991
O O7 0.500000 0.000000 0.500000
O O8 0.536276 0.334353 0.742254
O O9 0.333511 0.584000 0.507913
O O10 0.878391 0.510492 0.597858
O O11 0.070366 0.045183 0.164605
O O12 0.453007 0.922130 0.143700
O O13 0.228595 0.187871 0.914562
O O14 0.000000 0.000000 0.000000
O O15 0.845007 0.727833 0.338629
#
# Coordination Sequence:
#
# PCOD9020423 Si02
#       7
#     2   2   2   2   2   2   2
#     4   9  21  34  63  93 125 151 201 254 323 367
#     4  10  22  37  62  94 128 160 198 261 316 374
#     4  10  23  36  64  91 128 160 202 258 322 368
#     4  11  23  38  62  91 130 161 209 250 314 370
#     4  11  27  41  65  86 127 177 214 255 298 372
#     4  11  24  42  59  91 127 168 216 254 307 375
#     4  10  22  35  63  92 128 156 200 257 318 370
#
# _framework density 21.352823999999998
#
# number of rings (size 3 to 8) (size 9 to 14) (size 15 to 20)
#    0.857    0.857    0.000    4.286   16.000    0.000 
#    0.000    0.000    0.000    1.714    0.000    0.000 
#    0.000    0.000    0.000    0.000    0.000    0.000 
#
# Total GULP energy -78004.081605 kJ/mol
# GULP energy per Si atom -5571.720115 kJ/mol
# Density = 2.130422 g / cm^3
# Si number density = 21.352824 Si / 1000 Ang^3
#
#
#
# Elastic Constant Matrix: (Units=GPa)
#
#
# Indices 1 2 3 4 5 6 
#
# 1 107.0342 38.3342 22.2704 3.5377 -0.9238 9.7206
# 2 38.3342 105.1410 28.2084 11.1692 -9.4875 31.2417
# 3 22.2704 28.2084 72.0557 5.1717 -11.4991 10.6952
# 4 3.5377 11.1692 5.1717 30.1559 5.7725 0.0351
# 5 -0.9238 -9.4875 -11.4991 5.7725 31.9052 4.3773
# 6 9.7206 31.2417 10.6952 0.0351 4.3773 41.1132
#
#
#
# Elastic Compliance Matrix: (Units=1/GPa)
#
#
# Indices 1 2 3 4 5 6 
#
# 1 0.011152 -0.004118 -0.002458 0.001051 -0.002164 0.001362
# 2 -0.004118 0.016268 -0.001807 -0.006529 0.006845 -0.011641
# 3 -0.002458 -0.001807 0.017100 -0.003231 0.006577 -0.003192
# 4 0.001051 -0.006529 -0.003231 0.038085 -0.010882 0.006679
# 5 -0.002164 0.006845 0.006577 -0.010882 0.039103 -0.010555
# 6 0.001362 -0.011641 -0.003192 0.006679 -0.010555 0.034796
#
#
# Mechanical properties :
#
#
# Convention : Reuss Voigt Hill
#
# Bulk Modulus (GPa) = 36.02947 51.31745 43.67346
# Shear Modulus (GPa) = 27.39413 33.66272 30.52843
#
# Velocity S-wave (km/s) = 3.58568 3.97482 3.78526
# Velocity P-wave (km/s) = 5.83548 6.71944 6.29300
#
# Compressibility (1/GPa) = 0.02775506
#
# Stress axis : x y z
#
# Youngs Moduli (GPa) = 89.66997 61.47181 58.47856
#
# Poissons Ratio (x) = 0.25315 0.14371
# Poissons Ratio (y) = 0.36928 0.10565
# Poissons Ratio (z) = 0.22037 0.11106
#
# Static dielectric constant tensor:
#      x y z
#    x 1.860140 -0.001850 0.012620 
#    y -0.001850 1.929060 0.042390 
#    z 0.012620 0.042390 1.803170 
# 
# From -- ./inp_files/363869.got.cif
#   From: 2010.05.17/outbox.cif.g08.bks.cpg/sg2_182_cif.got.tgz:363869.got - 2010.06.03 11:33:40.
