data_PCOD9020032
_publ_section_title
;
Structure prediction by ZEFSAII (Michael W. Deem and Ramdas Pophale) SiO2 
 PCOD9020032
Probable space group: P -1
;
_chemical_formula_sum "Si O2"
_cell_formula_units_Z 14
_cell_length_a 9.025631
_cell_length_b 7.028434
_cell_length_c 14.304741
_cell_angle_alpha 58.638379
_cell_angle_beta 125.467767
_cell_angle_gamma 130.605207
_cell_volume 545.933273
_symmetry_space_group_name_H-M "P -1"
_symmetry_group_IT_number 2
_symmetry_cell_setting 'triclinic'
loop_
_space_group_symop_operation_xyz
x,y,z
-x,-y,-z
loop_
_atom_site_type_symbol
_atom_site_label
_atom_site_fract_x
_atom_site_fract_y
_atom_site_fract_z
Si Si1 0.080124 0.770731 0.011587
Si Si2 0.602172 0.328534 0.552888
Si Si3 0.016683 0.652837 0.372928
Si Si4 0.280031 0.158270 0.824135
Si Si5 0.350267 0.242312 0.309916
Si Si6 0.636465 0.577326 0.936221
Si Si7 0.538992 0.180378 0.757577
O O1 0.292369 0.880837 0.120081
O O2 0.000000 0.500000 0.000000
O O3 0.880091 0.708673 0.017473
O O4 0.127507 0.957483 0.893914
O O5 0.500000 0.500000 0.500000
O O6 0.850658 0.429855 0.625163
O O7 0.541485 0.268898 0.437390
O O8 0.502419 0.114400 0.651800
O O9 0.000000 0.500000 0.500000
O O10 0.797065 0.633682 0.269541
O O11 0.163908 0.966901 0.348459
O O12 0.517045 0.293730 0.917586
O O13 0.319853 0.066604 0.762575
O O14 0.358700 0.260017 0.195826
O O15 0.348022 0.504838 0.270005
O O16 0.500000 0.500000 0.000000
#
# Coordination Sequence:
#
# PCOD9020032 Si02
#       7
#     2   2   2   2   2   2   2
#     4  12  22  44  68 100 143 183 225 282 346 409
#     4  10  23  43  68  95 133 175 234 287 335 407
#     4  12  23  41  69  95 135 188 228 282 346 406
#     4  11  24  43  68 101 141 179 231 281 349 412
#     4  10  21  46  66  97 142 176 229 286 338 414
#     4  11  25  42  69 100 140 176 232 281 342 411
#     4  10  22  43  70 101 137 185 227 284 343 406
#
# _framework density 25.644161
#
# number of rings (size 3 to 8) (size 9 to 14) (size 15 to 20)
#    0.000    1.143    4.286    3.429    2.000    1.714 
#    0.000    7.857    0.000    0.000    0.000    0.000 
#    0.000    0.000    0.000    0.000    0.000    0.000 
#
# Total GULP energy -78036.654733 kJ/mol
# GULP energy per Si atom -5574.046767 kJ/mol
# Density = 2.558579 g / cm^3
# Si number density = 25.644161 Si / 1000 Ang^3
#
#
#
# Elastic Constant Matrix: (Units=GPa)
#
#
# Indices 1 2 3 4 5 6 
#
# 1 175.0855 10.8156 70.8654 -1.0401 -15.3254 31.1775
# 2 10.8156 71.6593 15.4936 -22.7052 -4.7763 10.8094
# 3 70.8654 15.4936 187.1171 -12.9505 -20.0753 3.8271
# 4 -1.0401 -22.7052 -12.9505 48.0749 5.7333 -3.2332
# 5 -15.3254 -4.7763 -20.0753 5.7333 61.1370 -0.1824
# 6 31.1775 10.8094 3.8271 -3.2332 -0.1824 43.9312
#
#
#
# Elastic Compliance Matrix: (Units=1/GPa)
#
#
# Indices 1 2 3 4 5 6 
#
# 1 0.007927 -0.000037 -0.002843 -0.001114 0.001139 -0.005446
# 2 -0.000037 0.017088 -0.000765 0.007582 0.000353 -0.003552
# 3 -0.002843 -0.000765 0.006681 0.001338 0.001301 0.001728
# 4 -0.001114 0.007582 0.001338 0.024950 -0.001585 0.000638
# 5 0.001139 0.000353 0.001301 -0.001585 0.017243 -0.001054
# 6 -0.005446 -0.003552 0.001728 0.000638 -0.001054 0.027394
#
#
# Mechanical properties :
#
#
# Convention : Reuss Voigt Hill
#
# Bulk Modulus (GPa) = 40.97495 69.80123 55.38809
# Shear Modulus (GPa) = 42.84158 53.07446 47.95802
#
# Velocity S-wave (km/s) = 4.09175 4.55428 4.32920
# Velocity P-wave (km/s) = 6.19162 7.41171 6.82897
#
# Compressibility (1/GPa) = 0.02440516
#
# Stress axis : x y z
#
# Youngs Moduli (GPa) = 126.14692 58.52116 149.67703
#
# Poissons Ratio (x) = 0.00219 0.42548
# Poissons Ratio (y) = 0.00471 0.11458
# Poissons Ratio (z) = 0.35859 0.04480
#
# Static dielectric constant tensor:
#      x y z
#    x 2.193510 -0.051020 0.045440 
#    y -0.051020 2.073960 0.021810 
#    z 0.045440 0.021810 2.125360 
# 
# From -- ./inp_files/492132.got.cif
#   From: 2010.05.17/outbox.cif.g08.bks.cpg/sg2_247_cif.got.tgz:492132.got - 2010.06.03 11:33:40.
