data_PCOD9020094
_publ_section_title
;
Structure prediction by ZEFSAII (Michael W. Deem and Ramdas Pophale) SiO2 
 PCOD9020094
Probable space group: P -1
;
_chemical_formula_sum "Si O2"
_cell_formula_units_Z 16
_cell_length_a 8.312964
_cell_length_b 8.560633
_cell_length_c 9.845033
_cell_angle_alpha 88.262385
_cell_angle_beta 90.060443
_cell_angle_gamma 110.254006
_cell_volume 656.957695
_symmetry_space_group_name_H-M "P -1"
_symmetry_group_IT_number 2
_symmetry_cell_setting 'triclinic'
loop_
_space_group_symop_operation_xyz
x,y,z
-x,-y,-z
loop_
_atom_site_type_symbol
_atom_site_label
_atom_site_fract_x
_atom_site_fract_y
_atom_site_fract_z
Si Si1 0.186091 0.812639 0.855855
Si Si2 0.016065 0.836384 0.572963
Si Si3 0.199389 0.751269 0.324953
Si Si4 0.140022 0.434819 0.808114
Si Si5 0.834567 0.769324 0.955659
Si Si6 0.561728 0.895592 0.786694
Si Si7 0.423996 0.580236 0.619559
Si Si8 0.720462 0.554287 0.723537
O O1 0.160801 0.614945 0.866931
O O2 0.391747 0.893728 0.868230
O O3 0.134190 0.861423 0.705569
O O4 0.043165 0.858932 0.942878
O O5 0.831330 0.710362 0.625728
O O6 0.104721 0.762800 0.461692
O O7 0.000000 0.000000 0.500000
O O8 0.282483 0.611518 0.343909
O O9 0.056090 0.674077 0.213754
O O10 0.332527 0.924621 0.275304
O O11 0.228808 0.487082 0.659519
O O12 0.210272 0.309903 0.894629
O O13 0.701974 0.845417 0.880745
O O14 0.811028 0.606330 0.865284
O O15 0.486814 0.776295 0.654847
O O16 0.500000 0.500000 0.500000
O O17 0.525834 0.535238 0.747112
#
# Coordination Sequence:
#
# PCOD9020094 Si02
#       8
#     2   2   2   2   2   2   2   2
#     4  10  22  42  68  96 127 180 221 277 330 402
#     4  11  22  40  68  95 132 180 221 274 338 401
#     4  12  23  40  63  99 135 171 221 277 342 397
#     4  11  23  40  73  95 126 181 230 270 333 406
#     4  10  21  46  70  93 132 179 231 273 331 400
#     4  10  25  43  66 101 138 173 220 280 342 400
#     4  10  22  42  66  96 130 172 224 277 330 405
#     4  10  22  39  65  96 130 171 222 283 327 396
#
# _framework density 24.354689
#
# number of rings (size 3 to 8) (size 9 to 14) (size 15 to 20)
#    0.000    1.500    2.500    3.750    3.500    5.500 
#    6.750    0.625    0.000    0.000    0.000    0.000 
#    0.000    0.000    0.000    0.000    0.000    0.000 
#
# Total GULP energy -89163.808937 kJ/mol
# GULP energy per Si atom -5572.738059 kJ/mol
# Density = 2.429926 g / cm^3
# Si number density = 24.354689 Si / 1000 Ang^3
#
#
#
# Elastic Constant Matrix: (Units=GPa)
#
#
# Indices 1 2 3 4 5 6 
#
# 1 133.9432 45.5253 20.5428 -19.5986 -4.8024 15.5095
# 2 45.5253 118.0023 38.9037 -21.2291 -3.7770 18.2836
# 3 20.5428 38.9037 61.9769 -28.5741 7.4521 1.4830
# 4 -19.5986 -21.2291 -28.5741 31.7181 -7.8729 -1.4947
# 5 -4.8024 -3.7770 7.4521 -7.8729 33.3927 -9.3988
# 6 15.5095 18.2836 1.4830 -1.4947 -9.3988 45.6235
#
#
#
# Elastic Compliance Matrix: (Units=1/GPa)
#
#
# Indices 1 2 3 4 5 6 
#
# 1 0.009201 -0.002593 0.000673 0.004869 0.001570 -0.001628
# 2 -0.002593 0.012434 -0.006585 0.001063 0.001772 -0.003487
# 3 0.000673 -0.006585 0.031146 0.023793 -0.001461 0.001876
# 4 0.004869 0.001063 0.023793 0.059158 0.009767 0.001096
# 5 0.001570 0.001772 -0.001461 0.009767 0.034771 0.006287
# 6 -0.001628 -0.003487 0.001876 0.001096 0.006287 0.025139
#
#
# Mechanical properties :
#
#
# Convention : Reuss Voigt Hill
#
# Bulk Modulus (GPa) = 27.95593 58.20736 43.08165
# Shear Modulus (GPa) = 24.90237 36.07692 30.48965
#
# Velocity S-wave (km/s) = 3.20111 3.85296 3.54206
# Velocity P-wave (km/s) = 5.01661 6.61404 5.86992
#
# Compressibility (1/GPa) = 0.03577058
#
# Stress axis : x y z
#
# Youngs Moduli (GPa) = 108.68109 80.42300 32.10702
#
# Poissons Ratio (x) = 0.20857 -0.02161
# Poissons Ratio (y) = 0.28185 0.21143
# Poissons Ratio (z) = -0.07315 0.52959
#
# Static dielectric constant tensor:
#      x y z
#    x 2.103940 -0.040150 0.039980 
#    y -0.040150 1.972930 0.018480 
#    z 0.039980 0.018480 2.058790 
# 
# From -- ./inp_files/378736.got.cif
#   From: 2010.05.17/outbox.cif.g08.bks.cpg/sg2_190_cif.got.tgz:378736.got - 2010.06.03 11:33:40.
