data_PCOD9020909
_publ_section_title
;
Structure prediction by ZEFSAII (Michael W. Deem and Ramdas Pophale) SiO2 
 PCOD9020909
Probable space group: P -1
;
_chemical_formula_sum "Si O2"
_cell_formula_units_Z 12
_cell_length_a 19.664659
_cell_length_b 14.820661
_cell_length_c 11.903173
_cell_angle_alpha 150.505772
_cell_angle_beta 29.861984
_cell_angle_gamma 161.786122
_cell_volume 515.093084
_symmetry_space_group_name_H-M "P -1"
_symmetry_group_IT_number 2
_symmetry_cell_setting 'triclinic'
loop_
_space_group_symop_operation_xyz
x,y,z
-x,-y,-z
loop_
_atom_site_type_symbol
_atom_site_label
_atom_site_fract_x
_atom_site_fract_y
_atom_site_fract_z
Si Si1 0.767882 0.543172 0.110960
Si Si2 0.309378 0.327528 0.860284
Si Si3 0.960757 0.640674 0.632775
Si Si4 0.052130 0.566017 0.806357
Si Si5 0.735420 0.735505 0.577108
Si Si6 0.659445 0.077898 0.016158
O O1 0.765452 0.696844 0.186448
O O2 0.671054 0.524804 0.343959
O O3 0.605602 0.202094 0.933295
O O4 0.016324 0.728107 0.977626
O O5 0.567560 0.539227 0.709510
O O6 0.260004 0.468742 0.144642
O O7 0.158843 0.999116 0.761334
O O8 0.000000 0.500000 0.500000
O O9 0.955927 0.580510 0.443869
O O10 0.834886 0.332151 0.947264
O O11 0.261740 0.765563 0.806015
O O12 0.700638 0.904787 0.771164
O O13 0.000000 0.000000 0.500000
#
# Coordination Sequence:
#
# PCOD9020909 Si02
#       6
#     2   2   2   2   2   2
#     4  11  20  39  66  94 135 174 220 285 345 392
#     4  10  23  41  69  99 132 184 223 273 345 397
#     4  11  22  43  70  97 139 183 227 272 335 415
#     4  11  21  38  64 100 131 175 223 283 336 403
#     4  11  21  40  65  97 136 174 224 283 339 400
#     4  10  22  37  61  99 133 169 225 282 340 392
#
# _framework density 23.296758000000001
#
# number of rings (size 3 to 8) (size 9 to 14) (size 15 to 20)
#    0.000    1.333    3.333    4.500    0.000    0.000 
#    0.000    3.333    3.667   11.000    0.000    0.000 
#    0.000    0.000    0.000    0.000    0.000    0.000 
#
# Total GULP energy -66983.717371 kJ/mol
# GULP energy per Si atom -5581.976448 kJ/mol
# Density = 2.324373 g / cm^3
# Si number density = 23.296758 Si / 1000 Ang^3
#
#
#
# Elastic Constant Matrix: (Units=GPa)
#
#
# Indices 1 2 3 4 5 6 
#
# 1 84.2208 35.2815 34.9166 2.7335 14.5145 10.7346
# 2 35.2815 82.5697 18.2554 -1.9738 -2.1047 -2.7282
# 3 34.9166 18.2554 137.3781 -9.0465 16.1836 -2.4393
# 4 2.7335 -1.9738 -9.0465 37.4465 -1.5102 -8.0830
# 5 14.5145 -2.1047 16.1836 -1.5102 34.4415 6.7575
# 6 10.7346 -2.7282 -2.4393 -8.0830 6.7575 30.5209
#
#
#
# Elastic Compliance Matrix: (Units=1/GPa)
#
#
# Indices 1 2 3 4 5 6 
#
# 1 0.018542 -0.007641 -0.003489 -0.004427 -0.005371 -0.007467
# 2 -0.007641 0.015733 -0.000366 0.002279 0.003698 0.003849
# 3 -0.003489 -0.000366 0.008854 0.002980 -0.003251 0.003411
# 4 -0.004427 0.002279 0.002980 0.030016 -0.000032 0.009955
# 5 -0.005371 0.003698 -0.003251 -0.000032 0.034151 -0.005610
# 6 -0.007467 0.003849 0.003411 0.009955 -0.005610 0.039886
#
#
# Mechanical properties :
#
#
# Convention : Reuss Voigt Hill
#
# Bulk Modulus (GPa) = 49.65780 53.45284 51.55532
# Shear Modulus (GPa) = 28.26698 34.86277 31.56487
#
# Velocity S-wave (km/s) = 3.48709 3.87261 3.68490
# Velocity P-wave (km/s) = 6.12982 6.55670 6.34685
#
# Compressibility (1/GPa) = 0.02013782
#
# Stress axis : x y z
#
# Youngs Moduli (GPa) = 53.93216 63.56197 112.93965
#
# Poissons Ratio (x) = 0.48567 0.39402
# Poissons Ratio (y) = 0.41209 0.04132
# Poissons Ratio (z) = 0.18816 0.02325
#
# Static dielectric constant tensor:
#      x y z
#    x 1.960620 0.047660 0.013570 
#    y 0.047660 2.038240 -0.024870 
#    z 0.013570 -0.024870 1.878510 
# 
# From -- ./inp_files/419028.got.cif
#   From: 2010.05.17/outbox.cif.g08.bks.cpg/sg2_210_cif.got.tgz:419028.got - 2010.06.03 11:33:40.
