data_PCOD9020019
_publ_section_title
;
Structure prediction by ZEFSAII (Michael W. Deem and Ramdas Pophale) SiO2 
 PCOD9020019
Probable space group: P -1
;
_chemical_formula_sum "Si O2"
_cell_formula_units_Z 16
_cell_length_a 16.655003
_cell_length_b 6.496618
_cell_length_c 12.473585
_cell_angle_alpha 99.691316
_cell_angle_beta 33.974401
_cell_angle_gamma 112.262275
_cell_volume 669.673162
_symmetry_space_group_name_H-M "P -1"
_symmetry_group_IT_number 2
_symmetry_cell_setting 'triclinic'
loop_
_space_group_symop_operation_xyz
x,y,z
-x,-y,-z
loop_
_atom_site_type_symbol
_atom_site_label
_atom_site_fract_x
_atom_site_fract_y
_atom_site_fract_z
Si Si1 0.934188 0.115247 0.826328
Si Si2 0.706596 0.704197 0.894883
Si Si3 0.897361 0.551250 0.525304
Si Si4 0.839227 0.442468 0.068701
Si Si5 0.639314 0.606964 0.441137
Si Si6 0.094594 0.936583 0.798133
Si Si7 0.560265 0.138950 0.835045
Si Si8 0.574202 0.330879 0.169053
O O1 0.004848 0.315214 0.675681
O O2 0.056353 0.028249 0.735757
O O3 0.797829 0.898758 0.899213
O O4 0.866834 0.214284 0.006856
O O5 0.823701 0.719239 0.670288
O O6 0.546989 0.723048 0.043729
O O7 0.661403 0.456569 0.976344
O O8 0.746489 0.311205 0.641641
O O9 0.000000 0.500000 0.500000
O O10 0.763583 0.501917 0.264064
O O11 0.709491 0.406877 0.116684
O O12 0.007424 0.660104 0.874550
O O13 0.500000 0.500000 0.500000
O O14 0.724896 0.886874 0.360456
O O15 0.552123 0.569075 0.648339
O O16 0.000000 0.000000 0.000000
O O17 0.511068 0.941955 0.781027
O O18 0.500000 0.000000 0.000000
#
# Coordination Sequence:
#
# PCOD9020019 Si02
#       8
#     2   2   2   2   2   2   2   2
#     4  12  25  42  74 100 139 186 234 289 354 427
#     4  12  25  47  70 102 142 189 234 294 356 425
#     4  12  28  47  70 106 144 190 242 297 352 423
#     4  10  21  46  65  99 137 178 233 286 352 413
#     4   9  22  40  68  96 132 178 227 285 339 415
#     4  10  23  42  68  97 136 182 226 290 350 411
#     4  12  26  45  71 101 143 187 234 294 355 424
#     4  11  22  43  71  98 139 181 232 285 361 414
#
# _framework density 23.892253
#
# number of rings (size 3 to 8) (size 9 to 14) (size 15 to 20)
#    0.000    1.000    3.750    2.250    3.500    2.000 
#    0.000    3.125    0.000    0.000    0.000    0.000 
#    0.000    0.000    0.000    0.000    0.000    0.000 
#
# Total GULP energy -89448.353511 kJ/mol
# GULP energy per Si atom -5590.522094 kJ/mol
# Density = 2.383787 g / cm^3
# Si number density = 23.892253 Si / 1000 Ang^3
#
#
#
# Elastic Constant Matrix: (Units=GPa)
#
#
# Indices 1 2 3 4 5 6 
#
# 1 87.0061 22.1210 27.2083 -10.4549 -20.6878 1.1603
# 2 22.1210 107.7686 34.4930 -2.5766 -16.6751 32.1228
# 3 27.2083 34.4930 91.9783 0.6535 -8.2084 9.1223
# 4 -10.4549 -2.5766 0.6535 51.2392 16.6784 -5.9500
# 5 -20.6878 -16.6751 -8.2084 16.6784 41.6842 -5.7441
# 6 1.1603 32.1228 9.1223 -5.9500 -5.7441 43.1061
#
#
#
# Elastic Compliance Matrix: (Units=1/GPa)
#
#
# Indices 1 2 3 4 5 6 
#
# 1 0.014463 -0.001749 -0.003386 0.001377 0.005615 0.002569
# 2 -0.001749 0.014088 -0.003497 -0.001849 0.003510 -0.009499
# 3 -0.003386 -0.003497 0.013209 -0.001032 -0.000100 -0.000254
# 4 0.001377 -0.001849 -0.001032 0.023057 -0.008997 0.003543
# 5 0.005615 0.003510 -0.000100 -0.008997 0.031795 0.000250
# 6 0.002569 -0.009499 -0.000254 0.003543 0.000250 0.030784
#
#
# Mechanical properties :
#
#
# Convention : Reuss Voigt Hill
#
# Bulk Modulus (GPa) = 40.82455 50.48864 45.65660
# Shear Modulus (GPa) = 32.71710 40.73461 36.72586
#
# Velocity S-wave (km/s) = 3.70450 4.13356 3.92490
# Velocity P-wave (km/s) = 5.95162 6.63019 6.30005
#
# Compressibility (1/GPa) = 0.02449506
#
# Stress axis : x y z
#
# Youngs Moduli (GPa) = 69.14085 70.98443 75.70718
#
# Poissons Ratio (x) = 0.12416 0.25634
# Poissons Ratio (y) = 0.12093 0.26476
# Poissons Ratio (z) = 0.23411 0.24825
#
# Static dielectric constant tensor:
#      x y z
#    x 1.919340 0.014440 -0.012680 
#    y 0.014440 1.936490 0.006880 
#    z -0.012680 0.006880 1.930560 
# 
# From -- ./inp_files/459668.got.cif
#   From: 2010.05.17/outbox.cif.g08.bks.cpg/sg2_230_cif.got.tgz:459668.got - 2010.06.03 11:33:40.
