data_PCOD9020437
_publ_section_title
;
Structure prediction by ZEFSAII (Michael W. Deem and Ramdas Pophale) SiO2 
 PCOD9020437
Probable space group: P -1
;
_chemical_formula_sum "Si O2"
_cell_formula_units_Z 14
_cell_length_a 14.100237
_cell_length_b 8.523647
_cell_length_c 11.773590
_cell_angle_alpha 111.355613
_cell_angle_beta 57.301449
_cell_angle_gamma 63.627152
_cell_volume 638.260205
_symmetry_space_group_name_H-M "P -1"
_symmetry_group_IT_number 2
_symmetry_cell_setting 'triclinic'
loop_
_space_group_symop_operation_xyz
x,y,z
-x,-y,-z
loop_
_atom_site_type_symbol
_atom_site_label
_atom_site_fract_x
_atom_site_fract_y
_atom_site_fract_z
Si Si1 0.075571 0.879764 0.793099
Si Si2 0.294193 0.543141 0.958822
Si Si3 0.307383 0.480065 0.202259
Si Si4 0.716001 0.180781 0.527847
Si Si5 0.959524 0.435844 0.326816
Si Si6 0.930538 0.499341 0.928825
Si Si7 0.254594 0.163938 0.239840
O O1 0.250785 0.783200 0.610376
O O2 0.141490 0.608810 0.660880
O O3 0.000000 0.000000 0.000000
O O4 0.885650 0.144173 0.905402
O O5 0.503699 0.362446 0.739381
O O6 0.273149 0.567032 0.115695
O O7 0.254592 0.396542 0.909934
O O8 0.241258 0.715278 0.386639
O O9 0.240469 0.370836 0.249412
O O10 0.537964 0.175403 0.994004
O O11 0.889586 0.832134 0.324096
O O12 0.092973 0.336974 0.111929
O O13 0.102862 0.237760 0.288519
O O14 0.798933 0.753040 0.571510
O O15 0.000000 0.500000 0.000000
#
# Coordination Sequence:
#
# PCOD9020437 Si02
#       7
#     2   2   2   2   2   2   2
#     4  11  25  44  66  94 132 172 226 268 309 384
#     4  11  24  43  68  99 130 172 212 269 328 386
#     4  11  21  42  62 102 132 162 216 265 330 397
#     4  11  24  43  68  99 130 172 212 269 328 386
#     4  11  20  42  62  94 128 179 210 266 336 367
#     4  11  25  44  66  94 132 172 226 268 309 384
#     4  10  22  35  67  96 132 165 209 273 324 392
#
# _framework density 21.934626999999999
#
# number of rings (size 3 to 8) (size 9 to 14) (size 15 to 20)
#    0.000    1.143    2.857    3.857    0.000    5.714 
#    0.000    2.857    0.000    0.000    0.000    0.000 
#    0.000    0.000    0.000    0.000    0.000    0.000 
#
# Total GULP energy -78139.731890 kJ/mol
# GULP energy per Si atom -5581.409421 kJ/mol
# Density = 2.188470 g / cm^3
# Si number density = 21.934627 Si / 1000 Ang^3
#
#
#
# Elastic Constant Matrix: (Units=GPa)
#
#
# Indices 1 2 3 4 5 6 
#
# 1 49.1643 37.0478 44.6526 -24.6005 -1.7709 6.1529
# 2 37.0478 68.4185 42.1971 -23.3294 17.3713 -4.0485
# 3 44.6526 42.1971 98.9328 -23.8026 1.6737 -12.7356
# 4 -24.6005 -23.3294 -23.8026 39.2795 -4.5901 -1.9553
# 5 -1.7709 17.3713 1.6737 -4.5901 37.2932 -7.8572
# 6 6.1529 -4.0485 -12.7356 -1.9553 -7.8572 21.8870
#
#
#
# Elastic Compliance Matrix: (Units=1/GPa)
#
#
# Indices 1 2 3 4 5 6 
#
# 1 0.071262 -0.023765 -0.022336 0.016640 0.010745 -0.032082
# 2 -0.023765 0.033785 -0.001963 0.002561 -0.015070 0.006607
# 3 -0.022336 -0.001963 0.023857 0.000737 0.003309 0.021052
# 4 0.016640 0.002561 0.000737 0.038447 0.004570 0.001300
# 5 0.010745 -0.015070 0.003309 0.004570 0.036811 0.009740
# 6 -0.032082 0.006607 0.021052 0.001300 0.009740 0.071793
#
#
# Mechanical properties :
#
#
# Convention : Reuss Voigt Hill
#
# Bulk Modulus (GPa) = 30.50733 51.59008 41.04871
# Shear Modulus (GPa) = 13.05459 25.86647 19.46053
#
# Velocity S-wave (km/s) = 2.44223 3.43775 2.98183
# Velocity P-wave (km/s) = 4.67880 6.27124 5.53262
#
# Compressibility (1/GPa) = 0.03277901
#
# Stress axis : x y z
#
# Youngs Moduli (GPa) = 14.03270 29.59889 41.91555
#
# Poissons Ratio (x) = 0.70340 0.93622
# Poissons Ratio (y) = 0.33348 0.08226
# Poissons Ratio (z) = 0.31343 0.05809
#
# Static dielectric constant tensor:
#      x y z
#    x 1.795550 0.052170 -0.012830 
#    y 0.052170 1.888450 -0.008450 
#    z -0.012830 -0.008450 1.821700 
# 
# From -- ./inp_files/447805.got.cif
#   From: 2010.05.17/outbox.cif.g08.bks.cpg/sg2_224_cif.got.tgz:447805.got - 2010.06.03 11:33:40.
