data_PCOD9020639
_publ_section_title
;
Structure prediction by ZEFSAII (Michael W. Deem and Ramdas Pophale) SiO2 
 PCOD9020639
Probable space group: P -1
;
_chemical_formula_sum "Si O2"
_cell_formula_units_Z 16
_cell_length_a 11.561531
_cell_length_b 8.705351
_cell_length_c 14.324954
_cell_angle_alpha 105.021001
_cell_angle_beta 138.113166
_cell_angle_gamma 52.965711
_cell_volume 718.375358
_symmetry_space_group_name_H-M "P -1"
_symmetry_group_IT_number 2
_symmetry_cell_setting 'triclinic'
loop_
_space_group_symop_operation_xyz
x,y,z
-x,-y,-z
loop_
_atom_site_type_symbol
_atom_site_label
_atom_site_fract_x
_atom_site_fract_y
_atom_site_fract_z
Si Si1 0.934804 0.976219 0.853740
Si Si2 0.214700 0.990372 0.635632
Si Si3 0.611310 0.422652 0.286459
Si Si4 0.515115 0.629761 0.453241
Si Si5 0.107946 0.351623 0.273594
Si Si6 0.952440 0.694309 0.554388
Si Si7 0.412383 0.691705 0.043337
Si Si8 0.300863 0.205272 0.859812
O O1 0.894738 0.809603 0.810248
O O2 0.720438 0.174424 0.701792
O O3 0.151959 0.881204 0.903438
O O4 0.000000 0.000000 0.000000
O O5 0.238200 0.086475 0.573701
O O6 0.178060 0.138996 0.718002
O O7 0.411986 0.752040 0.739976
O O8 0.000000 0.000000 0.500000
O O9 0.639354 0.488145 0.413539
O O10 0.423951 0.617395 0.143717
O O11 0.824910 0.334321 0.335920
O O12 0.500000 0.500000 0.500000
O O13 0.664557 0.680287 0.597633
O O14 0.088724 0.311609 0.364226
O O15 0.885521 0.589198 0.161794
O O16 0.000000 0.500000 0.500000
O O17 0.573900 0.745218 0.127233
O O18 0.500000 0.500000 0.000000
O O19 0.500000 0.000000 0.000000
#
# Coordination Sequence:
#
# PCOD9020639 Si02
#       8
#     2   2   2   2   2   2   2   2
#     4  12  28  51  77 104 147 203 255 310 374 458
#     4  10  22  36  64 107 147 181 227 296 374 436
#     4  11  21  42  69 105 148 186 246 304 373 444
#     4  12  29  50  72 104 153 207 256 305 369 461
#     4  12  25  48  76 108 146 194 259 303 383 455
#     4  11  18  39  72 107 139 182 239 316 371 431
#     4  12  23  47  77 108 148 191 250 319 389 444
#     4  12  25  41  73 112 149 187 240 317 384 439
#
# _framework density 22.272476999999999
#
# number of rings (size 3 to 8) (size 9 to 14) (size 15 to 20)
#    0.000    0.500    6.250    1.875    3.500    1.000 
#    4.500    0.625    0.000    0.000    0.000    0.000 
#    0.000    0.000    0.000    0.000    0.000    0.000 
#
# Total GULP energy -89401.211601 kJ/mol
# GULP energy per Si atom -5587.575725 kJ/mol
# Density = 2.222178 g / cm^3
# Si number density = 22.272477 Si / 1000 Ang^3
#
#
#
# Elastic Constant Matrix: (Units=GPa)
#
#
# Indices 1 2 3 4 5 6 
#
# 1 73.6152 41.6641 51.0572 0.9862 0.7511 11.5835
# 2 41.6641 143.5089 84.1111 2.2199 1.5096 25.3849
# 3 51.0572 84.1111 135.2182 -2.6422 6.4747 11.8259
# 4 0.9862 2.2199 -2.6422 60.1816 3.5441 -1.8787
# 5 0.7511 1.5096 6.4747 3.5441 39.2775 -6.2180
# 6 11.5835 25.3849 11.8259 -1.8787 -6.2180 36.0176
#
#
#
# Elastic Compliance Matrix: (Units=1/GPa)
#
#
# Indices 1 2 3 4 5 6 
#
# 1 0.019105 -0.001421 -0.006080 -0.000640 0.000253 -0.003136
# 2 -0.001421 0.012374 -0.006625 -0.000902 -0.000253 -0.006179
# 3 -0.006080 -0.006625 0.013752 0.001106 -0.001699 0.001874
# 4 -0.000640 -0.000902 0.001106 0.016830 -0.001480 0.001101
# 5 0.000253 -0.000253 -0.001699 -0.001480 0.026700 0.005187
# 6 -0.003136 -0.006179 0.001874 0.001101 0.005187 0.033465
#
#
# Mechanical properties :
#
#
# Convention : Reuss Voigt Hill
#
# Bulk Modulus (GPa) = 58.90372 78.44523 68.67447
# Shear Modulus (GPa) = 32.02305 38.79602 35.40953
#
# Velocity S-wave (km/s) = 3.79593 4.17811 3.99160
# Velocity P-wave (km/s) = 6.76139 7.65328 7.22112
#
# Compressibility (1/GPa) = 0.01697686
#
# Stress axis : x y z
#
# Youngs Moduli (GPa) = 52.34234 80.81769 72.71854
#
# Poissons Ratio (x) = 0.11484 0.44215
# Poissons Ratio (y) = 0.07437 0.48179
# Poissons Ratio (z) = 0.31826 0.53545
#
# Static dielectric constant tensor:
#      x y z
#    x 1.784230 -0.000380 0.013560 
#    y -0.000380 1.912500 -0.082200 
#    z 0.013560 -0.082200 1.904530 
# 
# From -- ./inp_files/516003.got.cif
#   From: 2010.05.17/outbox.cif.g08.bks.cpg/sg2_259_cif.got.tgz:516003.got - 2010.06.03 11:33:40.
