data_PCOD9020478
_publ_section_title
;
Structure prediction by ZEFSAII (Michael W. Deem and Ramdas Pophale) SiO2 
 PCOD9020478
Probable space group: P -1
;
_chemical_formula_sum "Si O2"
_cell_formula_units_Z 16
_cell_length_a 10.368104
_cell_length_b 13.701623
_cell_length_c 18.273200
_cell_angle_alpha 153.610071
_cell_angle_beta 149.023464
_cell_angle_gamma 32.403890
_cell_volume 559.885468
_symmetry_space_group_name_H-M "P -1"
_symmetry_group_IT_number 2
_symmetry_cell_setting 'triclinic'
loop_
_space_group_symop_operation_xyz
x,y,z
-x,-y,-z
loop_
_atom_site_type_symbol
_atom_site_label
_atom_site_fract_x
_atom_site_fract_y
_atom_site_fract_z
Si Si1 0.678023 0.794150 0.263289
Si Si2 0.787345 0.398822 0.535257
Si Si3 0.651569 0.964106 0.209943
Si Si4 0.938956 0.001615 0.057364
Si Si5 0.269278 0.627040 0.074012
Si Si6 0.703055 0.139907 0.626254
Si Si7 0.849256 0.247545 0.322638
Si Si8 0.744676 0.599661 0.884100
O O1 0.717323 0.939889 0.310959
O O2 0.956625 0.605764 0.298915
O O3 0.564055 0.621057 0.045519
O O4 0.597192 0.976910 0.413644
O O5 0.500000 0.500000 0.500000
O O6 0.824858 0.459130 0.509622
O O7 0.807686 0.127243 0.366755
O O8 0.332899 0.061186 0.112921
O O9 0.737866 0.733287 0.047193
O O10 0.175501 0.810067 0.085944
O O11 0.889593 0.222918 0.238221
O O12 0.000000 0.000000 0.000000
O O13 0.989828 0.620790 0.970406
O O14 0.446728 0.686644 0.264306
O O15 0.746744 0.337393 0.725251
O O16 0.912293 0.964002 0.667897
O O17 0.544373 0.252314 0.188861
#
# Coordination Sequence:
#
# PCOD9020478 Si02
#       8
#     2   2   2   2   2   2   2   2
#     4  11  23  34  59  94 133 163 196 249 318 397
#     4  11  22  35  57  95 136 165 194 251 326 397
#     4  11  22  36  59  94 123 162 212 251 317 389
#     4  10  22  43  66  85 117 171 227 273 311 356
#     4  11  22  38  60  89 125 164 210 255 315 388
#     4  10  22  36  56  89 133 168 191 247 319 386
#     4   9  21  36  58  88 121 162 207 250 311 383
#     4  11  20  36  59  92 129 164 195 253 325 390
#
# _framework density 28.577272000000001
#
# number of rings (size 3 to 8) (size 9 to 14) (size 15 to 20)
#    0.000    1.500    1.250    5.250    7.000    3.500 
#    0.000    0.625    0.000   18.750    0.000    0.000 
#    0.000    0.000    0.000    0.000    0.000    0.000 
#
# Total GULP energy -89215.107291 kJ/mol
# GULP energy per Si atom -5575.944206 kJ/mol
# Density = 2.851223 g / cm^3
# Si number density = 28.577272 Si / 1000 Ang^3
#
#
#
# Elastic Constant Matrix: (Units=GPa)
#
#
# Indices 1 2 3 4 5 6 
#
# 1 165.5885 22.2918 70.2708 0.0816 -43.0689 17.5438
# 2 22.2918 84.9703 35.2453 -3.7426 -12.4740 10.9182
# 3 70.2708 35.2453 173.8745 -6.2379 -63.1657 4.8553
# 4 0.0816 -3.7426 -6.2379 37.8262 4.5228 -13.3467
# 5 -43.0689 -12.4740 -63.1657 4.5228 64.7837 -12.1329
# 6 17.5438 10.9182 4.8553 -13.3467 -12.1329 42.5360
#
#
#
# Elastic Compliance Matrix: (Units=1/GPa)
#
#
# Indices 1 2 3 4 5 6 
#
# 1 0.008013 -0.000555 -0.002096 -0.001689 0.002797 -0.002655
# 2 -0.000555 0.013320 -0.002802 -0.000151 -0.001133 -0.003241
# 3 -0.002096 -0.002802 0.010244 0.001575 0.008573 0.003354
# 4 -0.001689 -0.000151 0.001575 0.030224 0.000162 0.010086
# 5 0.002797 -0.001133 0.008573 0.000162 0.026505 0.005770
# 6 -0.002655 -0.003241 0.003354 0.010086 0.005770 0.029864
#
#
# Mechanical properties :
#
#
# Convention : Reuss Voigt Hill
#
# Bulk Modulus (GPa) = 48.38016 75.56100 61.97058
# Shear Modulus (GPa) = 36.77327 48.80419 42.78873
#
# Velocity S-wave (km/s) = 3.59109 4.13703 3.87369
# Velocity P-wave (km/s) = 5.84474 7.02271 6.46063
#
# Compressibility (1/GPa) = 0.02066963
#
# Stress axis : x y z
#
# Youngs Moduli (GPa) = 124.79640 75.07360 97.62062
#
# Poissons Ratio (x) = 0.04169 0.20464
# Poissons Ratio (y) = 0.06930 0.27355
# Poissons Ratio (z) = 0.26160 0.21037
#
# Static dielectric constant tensor:
#      x y z
#    x 2.357870 -0.109160 -0.026540 
#    y -0.109160 2.466090 0.022030 
#    z -0.026540 0.022030 2.372760 
# 
# From -- ./inp_files/501038.got.cif
#   From: 2010.05.17/outbox.cif.g08.bks.cpg/sg2_251_cif.got.tgz:501038.got - 2010.06.03 11:33:40.
