data_PCOD9020537
_publ_section_title
;
Structure prediction by ZEFSAII (Michael W. Deem and Ramdas Pophale) SiO2 
 PCOD9020537
Probable space group: P -1
;
_chemical_formula_sum "Si O2"
_cell_formula_units_Z 16
_cell_length_a 8.713016
_cell_length_b 9.599413
_cell_length_c 7.794832
_cell_angle_alpha 78.485278
_cell_angle_beta 99.248152
_cell_angle_gamma 102.450890
_cell_volume 619.076735
_symmetry_space_group_name_H-M "P -1"
_symmetry_group_IT_number 2
_symmetry_cell_setting 'triclinic'
loop_
_space_group_symop_operation_xyz
x,y,z
-x,-y,-z
loop_
_atom_site_type_symbol
_atom_site_label
_atom_site_fract_x
_atom_site_fract_y
_atom_site_fract_z
Si Si1 0.565265 0.564547 0.812725
Si Si2 0.209067 0.129256 0.144088
Si Si3 0.337720 0.135691 0.780643
Si Si4 0.746947 0.555717 0.373105
Si Si5 0.922140 0.254671 0.192509
Si Si6 0.162538 0.944363 0.503093
Si Si7 0.314551 0.727996 0.126375
Si Si8 0.948661 0.453307 0.738482
O O1 0.671127 0.722591 0.813068
O O2 0.414138 0.557789 0.663148
O O3 0.649083 0.433435 0.802151
O O4 0.500000 0.500000 0.000000
O O5 0.223961 0.002026 0.314319
O O6 0.030392 0.155111 0.142530
O O7 0.253180 0.104761 0.959799
O O8 0.297983 0.286492 0.662921
O O9 0.281428 0.018961 0.653757
O O10 0.526311 0.162381 0.834307
O O11 0.855983 0.512914 0.551588
O O12 0.869686 0.564827 0.237821
O O13 0.029567 0.412254 0.160407
O O14 0.887498 0.219488 0.397211
O O15 0.752356 0.250200 0.077931
O O16 0.000000 0.000000 0.500000
O O17 0.152000 0.706161 0.207545
#
# Coordination Sequence:
#
# PCOD9020537 Si02
#       8
#     2   2   2   2   2   2   2   2
#     4  11  20  36  60  96 126 160 207 262 324 385
#     4  11  22  41  69  92 124 173 212 263 318 371
#     4  11  24  42  66  99 125 165 221 260 313 385
#     4  10  22  36  59  94 134 161 210 264 322 380
#     4  11  23  41  63  90 130 169 218 257 313 387
#     4  10  25  45  66  91 126 176 219 259 305 379
#     4  11  23  35  65  96 127 165 203 272 327 373
#     4  11  22  37  61  97 130 169 203 267 330 376
#
# _framework density 25.844939
#
# number of rings (size 3 to 8) (size 9 to 14) (size 15 to 20)
#    0.000    1.250    3.750    3.375    1.750    3.500 
#    0.000    3.125    0.000    0.000    0.000    0.000 
#    0.000    0.000    0.000    0.000    0.000    0.000 
#
# Total GULP energy -89417.977759 kJ/mol
# GULP energy per Si atom -5588.623610 kJ/mol
# Density = 2.578611 g / cm^3
# Si number density = 25.844939 Si / 1000 Ang^3
#
#
#
# Elastic Constant Matrix: (Units=GPa)
#
#
# Indices 1 2 3 4 5 6 
#
# 1 93.2345 37.1244 27.3187 1.2427 16.1392 21.6754
# 2 37.1244 114.0829 45.4292 3.6160 5.6265 32.1609
# 3 27.3187 45.4292 97.7820 -19.1470 14.0624 14.2722
# 4 1.2427 3.6160 -19.1470 34.5929 10.5648 -2.2414
# 5 16.1392 5.6265 14.0624 10.5648 50.4279 6.1516
# 6 21.6754 32.1609 14.2722 -2.2414 6.1516 35.9218
#
#
#
# Elastic Compliance Matrix: (Units=1/GPa)
#
#
# Indices 1 2 3 4 5 6 
#
# 1 0.013845 -0.002113 -0.001852 -0.000766 -0.002874 -0.005283
# 2 -0.002113 0.015255 -0.006859 -0.007138 0.003692 -0.010735
# 3 -0.001852 -0.006859 0.016851 0.012151 -0.006177 0.002379
# 4 -0.000766 -0.007138 0.012151 0.040374 -0.011602 0.006531
# 5 -0.002874 0.003692 -0.006177 -0.011602 0.024994 -0.004121
# 6 -0.005283 -0.010735 0.002379 0.006531 -0.004121 0.040805
#
#
# Mechanical properties :
#
#
# Convention : Reuss Voigt Hill
#
# Bulk Modulus (GPa) = 41.14542 58.31600 49.73071
# Shear Modulus (GPa) = 27.49160 37.20367 32.34763
#
# Velocity S-wave (km/s) = 3.26500 3.79818 3.54164
# Velocity P-wave (km/s) = 5.49257 6.46898 6.00067
#
# Compressibility (1/GPa) = 0.02430404
#
# Stress axis : x y z
#
# Youngs Moduli (GPa) = 72.22586 65.55270 59.34212
#
# Poissons Ratio (x) = 0.13849 0.10992
# Poissons Ratio (y) = 0.15259 0.40702
# Poissons Ratio (z) = 0.13379 0.44962
#
# Static dielectric constant tensor:
#      x y z
#    x 2.236410 -0.006840 -0.210460 
#    y -0.006840 2.059770 -0.049580 
#    z -0.210460 -0.049580 2.220050 
# 
# From -- ./inp_files/176751.got.cif
#   From: 2010.05.17/outbox.cif.g08.bks.cpg/sg2_89_cif.got.tgz:176751.got - 2010.06.03 11:33:40.
