data_PCOD9020354
_publ_section_title
;
Structure prediction by ZEFSAII (Michael W. Deem and Ramdas Pophale) SiO2 
 PCOD9020354
Probable space group: P -1
;
_chemical_formula_sum "Si O2"
_cell_formula_units_Z 16
_cell_length_a 19.953676
_cell_length_b 13.608203
_cell_length_c 8.415943
_cell_angle_alpha 124.304848
_cell_angle_beta 51.847792
_cell_angle_gamma 156.677419
_cell_volume 711.406927
_symmetry_space_group_name_H-M "P -1"
_symmetry_group_IT_number 2
_symmetry_cell_setting 'triclinic'
loop_
_space_group_symop_operation_xyz
x,y,z
-x,-y,-z
loop_
_atom_site_type_symbol
_atom_site_label
_atom_site_fract_x
_atom_site_fract_y
_atom_site_fract_z
Si Si1 0.915478 0.519442 0.207505
Si Si2 0.472595 0.997109 0.790413
Si Si3 0.973276 0.345966 0.494512
Si Si4 0.576972 0.474200 0.575253
Si Si5 0.786263 0.930054 0.815555
Si Si6 0.550832 0.817099 0.221486
Si Si7 0.194926 0.015677 0.819400
Si Si8 0.424392 0.090840 0.255312
O O1 0.727193 0.297169 0.196597
O O2 0.895722 0.496655 0.405517
O O3 0.047688 0.787909 0.218337
O O4 0.000000 0.500000 0.000000
O O5 0.584781 0.019660 0.691882
O O6 0.495421 0.111520 0.710993
O O7 0.484475 0.098395 0.016741
O O8 0.000000 0.500000 0.500000
O O9 0.963217 0.218919 0.276632
O O10 0.775699 0.106444 0.644720
O O11 0.727659 0.756802 0.622386
O O12 0.591520 0.415653 0.664833
O O13 0.375099 0.280835 0.710679
O O14 0.557905 0.358340 0.355709
O O15 0.611973 0.801801 0.978020
O O16 0.829542 0.940583 0.943374
O O17 0.731674 0.021535 0.248199
#
# Coordination Sequence:
#
# PCOD9020354 Si02
#       8
#     2   2   2   2   2   2   2   2
#     4  12  20  32  56  79 111 135 182 222 264 313
#     4  11  21  36  51  83 109 147 176 211 277 312
#     4  11  19  33  51  83 108 137 172 224 267 309
#     4   8  17  33  51  78 104 141 179 214 268 310
#     4   9  16  32  54  78 106 139 173 224 265 313
#     4   8  15  30  52  75 103 135 175 219 255 314
#     4   7  16  29  48  76 104 132 168 219 262 305
#     4  10  22  35  54  76 115 142 177 219 262 323
#
# _framework density 22.490645000000001
#
# number of rings (size 3 to 8) (size 9 to 14) (size 15 to 20)
#    1.500    0.750    2.500    3.000    0.000    0.500 
#    0.000    7.500    0.000    0.000    0.000    2.625 
#    0.000    0.000    0.000    0.000    0.000    0.000 
#
# Total GULP energy -89110.683038 kJ/mol
# GULP energy per Si atom -5569.417690 kJ/mol
# Density = 2.243945 g / cm^3
# Si number density = 22.490645 Si / 1000 Ang^3
#
#
#
# Elastic Constant Matrix: (Units=GPa)
#
#
# Indices 1 2 3 4 5 6 
#
# 1 39.6780 3.0480 3.9603 3.8978 4.1691 9.8890
# 2 3.0480 116.3515 45.2265 41.9450 -0.0792 -9.7708
# 3 3.9603 45.2265 85.1304 40.4378 5.4194 6.7848
# 4 3.8978 41.9450 40.4378 37.8208 1.2330 -0.1450
# 5 4.1691 -0.0792 5.4194 1.2330 17.6868 3.0139
# 6 9.8890 -9.7708 6.7848 -0.1450 3.0139 15.6409
#
#
#
# Elastic Compliance Matrix: (Units=1/GPa)
#
#
# Indices 1 2 3 4 5 6 
#
# 1 0.031596 -0.002667 0.004392 -0.004931 -0.004592 -0.022709
# 2 -0.002667 0.016005 -0.002253 -0.015029 0.000315 0.012462
# 3 0.004392 -0.002253 0.026898 -0.026613 -0.004848 -0.015165
# 4 -0.004931 -0.015029 -0.026613 0.071983 0.003328 0.005299
# 5 -0.004592 0.000315 -0.004848 0.003328 0.059953 -0.006319
# 6 -0.022709 0.012462 -0.015165 0.005299 -0.006319 0.093922
#
#
# Mechanical properties :
#
#
# Convention : Reuss Voigt Hill
#
# Bulk Modulus (GPa) = 13.61626 38.40328 26.00977
# Shear Modulus (GPa) = 15.34233 26.82471 21.08352
#
# Velocity S-wave (km/s) = 2.61466 3.45730 3.06508
# Velocity P-wave (km/s) = 3.89649 5.74887 4.91081
#
# Compressibility (1/GPa) = 0.07344162
#
# Stress axis : x y z
#
# Youngs Moduli (GPa) = 31.64954 62.48037 37.17722
#
# Poissons Ratio (x) = 0.16665 -0.16327
# Poissons Ratio (y) = 0.08442 0.08377
# Poissons Ratio (z) = -0.13899 0.14078
#
# Static dielectric constant tensor:
#      x y z
#    x 1.885430 -0.007520 0.038640 
#    y -0.007520 1.830890 -0.016890 
#    z 0.038640 -0.016890 1.910080 
# 
# From -- ./inp_files/305821.got.cif
#   From: 2010.05.17/outbox.cif.g08.bks.cpg/sg2_153_cif.got.tgz:305821.got - 2010.06.03 11:33:40.
