data_PCOD9020734
_publ_section_title
;
Structure prediction by ZEFSAII (Michael W. Deem and Ramdas Pophale) SiO2 
 PCOD9020734
Probable space group: P -1
;
_chemical_formula_sum "Si O2"
_cell_formula_units_Z 16
_cell_length_a 10.038662
_cell_length_b 5.048006
_cell_length_c 26.358269
_cell_angle_alpha 66.957320
_cell_angle_beta 44.817839
_cell_angle_gamma 60.134632
_cell_volume 814.857245
_symmetry_space_group_name_H-M "P -1"
_symmetry_group_IT_number 2
_symmetry_cell_setting 'triclinic'
loop_
_space_group_symop_operation_xyz
x,y,z
-x,-y,-z
loop_
_atom_site_type_symbol
_atom_site_label
_atom_site_fract_x
_atom_site_fract_y
_atom_site_fract_z
Si Si1 0.087649 0.237580 0.312921
Si Si2 0.958663 0.711723 0.124314
Si Si3 0.204113 0.869129 0.668210
Si Si4 0.472974 0.796361 0.122371
Si Si5 0.674011 0.568216 0.417981
Si Si6 0.510917 0.118696 0.190567
Si Si7 0.116382 0.252691 0.029248
Si Si8 0.051186 0.807340 0.205608
O O1 0.318271 0.111781 0.275563
O O2 0.073754 0.527851 0.259210
O O3 0.009173 0.022103 0.313667
O O4 0.898954 0.365305 0.392174
O O5 0.033347 0.404146 0.094324
O O6 0.010901 0.694006 0.170551
O O7 0.067435 0.944492 0.056340
O O8 0.721434 0.880132 0.168689
O O9 0.316477 0.548426 0.634426
O O10 0.331391 0.086858 0.605697
O O11 0.133369 0.912516 0.742099
O O12 0.524362 0.457331 0.158329
O O13 0.259457 0.870911 0.147432
O O14 0.466745 0.026829 0.152537
O O15 0.649827 0.799035 0.036928
O O16 0.500000 0.500000 0.500000
O O17 0.000000 0.500000 0.000000
#
# Coordination Sequence:
#
# PCOD9020734 Si02
#       8
#     2   2   2   2   2   2   2   2
#     4   8  19  32  55  73 110 133 173 200 261 298
#     4  12  25  35  58  75 103 130 185 220 263 318
#     4   9  17  31  50  74 109 137 163 206 253 300
#     4  11  21  36  58  66 106 132 173 216 280 312
#     4   9  16  28  50  83 110 132 167 208 245 291
#     4  11  19  36  54  78  92 146 169 219 256 311
#     4  12  23  39  53  76  99 135 176 225 274 318
#     4  10  22  37  52  81 103 139 172 221 263 309
#
# _framework density 19.635341
#
# number of rings (size 3 to 8) (size 9 to 14) (size 15 to 20)
#    0.750    1.000    3.750    1.500    1.750    1.000 
#    0.000    0.000    0.000    0.000    0.000    4.375 
#    0.000    0.125    0.000    0.000    0.000    0.000 
#
# Total GULP energy -89197.278690 kJ/mol
# GULP energy per Si atom -5574.829918 kJ/mol
# Density = 1.959065 g / cm^3
# Si number density = 19.635341 Si / 1000 Ang^3
#
#
#
# Elastic Constant Matrix: (Units=GPa)
#
#
# Indices 1 2 3 4 5 6 
#
# 1 74.7004 9.8152 33.3710 1.7587 -15.2816 4.2731
# 2 9.8152 46.1794 3.5728 3.1637 -6.3972 16.5951
# 3 33.3710 3.5728 94.5140 14.4281 -37.1150 -11.9712
# 4 1.7587 3.1637 14.4281 22.3979 5.0737 -4.8698
# 5 -15.2816 -6.3972 -37.1150 5.0737 40.4543 4.5138
# 6 4.2731 16.5951 -11.9712 -4.8698 4.5138 31.4957
#
#
#
# Elastic Compliance Matrix: (Units=1/GPa)
#
#
# Indices 1 2 3 4 5 6 
#
# 1 0.016754 -0.002031 -0.006681 0.002566 -0.000072 -0.003335
# 2 -0.002031 0.030737 0.003537 -0.012892 0.010979 -0.018142
# 3 -0.006681 0.003537 0.025943 -0.021754 0.024337 0.002052
# 4 0.002566 -0.012892 -0.021754 0.070328 -0.031359 0.013545
# 5 -0.000072 0.010979 0.024337 -0.031359 0.053701 -0.009070
# 6 -0.003335 -0.018142 0.002052 0.013545 -0.009070 0.045936
#
#
# Mechanical properties :
#
#
# Convention : Reuss Voigt Hill
#
# Bulk Modulus (GPa) = 15.85217 34.32355 25.08786
# Shear Modulus (GPa) = 18.19655 30.11190 24.15422
#
# Velocity S-wave (km/s) = 3.04752 3.92031 3.51114
# Velocity P-wave (km/s) = 4.52482 6.16525 5.40760
#
# Compressibility (1/GPa) = 0.06308285
#
# Stress axis : x y z
#
# Youngs Moduli (GPa) = 59.68703 32.53461 38.54572
#
# Poissons Ratio (x) = 0.06609 0.25753
# Poissons Ratio (y) = 0.12124 -0.13633
# Poissons Ratio (z) = 0.39877 -0.11507
#
# Static dielectric constant tensor:
#      x y z
#    x 1.696080 -0.003240 -0.014930 
#    y -0.003240 1.741640 0.024530 
#    z -0.014930 0.024530 1.733720 
# 
# From -- ./inp_files/407019.got.cif
#   From: 2010.05.17/outbox.cif.g08.bks.cpg/sg2_204_cif.got.tgz:407019.got - 2010.06.03 11:33:40.
