data_PCOD9020725
_publ_section_title
;
Structure prediction by ZEFSAII (Michael W. Deem and Ramdas Pophale) SiO2 
 PCOD9020725
Probable space group: P -1
;
_chemical_formula_sum "Si O2"
_cell_formula_units_Z 16
_cell_length_a 16.731178
_cell_length_b 17.768516
_cell_length_c 9.844011
_cell_angle_alpha 23.768406
_cell_angle_beta 39.405630
_cell_angle_gamma 33.389298
_cell_volume 648.627955
_symmetry_space_group_name_H-M "P -1"
_symmetry_group_IT_number 2
_symmetry_cell_setting 'triclinic'
loop_
_space_group_symop_operation_xyz
x,y,z
-x,-y,-z
loop_
_atom_site_type_symbol
_atom_site_label
_atom_site_fract_x
_atom_site_fract_y
_atom_site_fract_z
Si Si1 0.483417 0.745931 0.977322
Si Si2 0.954735 0.715880 0.373271
Si Si3 0.976031 0.068444 0.576032
Si Si4 0.299386 0.515248 0.657565
Si Si5 0.306497 0.217546 0.520001
Si Si6 0.751681 0.453810 0.619755
Si Si7 0.804723 0.984883 0.393536
Si Si8 0.514487 0.872449 0.327453
O O1 0.398128 0.617937 0.312169
O O2 0.592982 0.683991 0.063118
O O3 0.592137 0.681419 0.815088
O O4 0.369146 0.998806 0.708869
O O5 0.855551 0.638204 0.556342
O O6 0.122874 0.545066 0.456599
O O7 0.891591 0.808064 0.454806
O O8 0.943593 0.905830 0.976341
O O9 0.835778 0.305226 0.378476
O O10 0.000000 0.000000 0.500000
O O11 0.106365 0.065677 0.497547
O O12 0.239947 0.477312 0.658545
O O13 0.360453 0.122232 0.754620
O O14 0.591398 0.619666 0.606965
O O15 0.789801 0.207076 0.987121
O O16 0.642415 0.034776 0.552733
O O17 0.500000 0.000000 0.000000
#
# Coordination Sequence:
#
# PCOD9020725 Si02
#       8
#     2   2   2   2   2   2   2   2
#     4  10  22  36  70  94 126 175 216 278 328 397
#     4  11  22  44  74  95 132 185 221 276 337 408
#     4  11  23  38  67 102 133 165 221 286 334 384
#     4  11  20  41  66 100 130 165 233 277 332 391
#     4  11  22  43  61  95 137 178 221 259 341 406
#     4  11  22  43  69  97 130 180 227 276 329 402
#     4  11  22  45  72  98 131 179 226 275 340 397
#     4  12  28  42  64 100 141 177 221 284 334 393
#
# _framework density 24.667453999999999
#
# number of rings (size 3 to 8) (size 9 to 14) (size 15 to 20)
#    0.000    1.000    3.750    4.125    1.750    4.500 
#    2.250    1.250    0.000    0.000    0.000    0.000 
#    0.000    0.000    0.000    0.000    0.000    0.000 
#
# Total GULP energy -89529.913606 kJ/mol
# GULP energy per Si atom -5595.619600 kJ/mol
# Density = 2.461131 g / cm^3
# Si number density = 24.667454 Si / 1000 Ang^3
#
#
#
# Elastic Constant Matrix: (Units=GPa)
#
#
# Indices 1 2 3 4 5 6 
#
# 1 170.3587 45.8582 36.6616 15.7860 35.6219 -14.3190
# 2 45.8582 122.0526 32.0803 7.4140 6.6079 -9.4342
# 3 36.6616 32.0803 49.4226 6.9766 24.9418 -10.1037
# 4 15.7860 7.4140 6.9766 33.2419 0.6692 8.0044
# 5 35.6219 6.6079 24.9418 0.6692 38.2936 3.7298
# 6 -14.3190 -9.4342 -10.1037 8.0044 3.7298 47.0650
#
#
#
# Elastic Compliance Matrix: (Units=1/GPa)
#
#
# Indices 1 2 3 4 5 6 
#
# 1 0.008951 -0.002537 0.000871 -0.004626 -0.008753 0.003882
# 2 -0.002537 0.010970 -0.008693 0.000711 0.006219 -0.001053
# 3 0.000871 -0.008693 0.043466 -0.009862 -0.028598 0.011797
# 4 -0.004626 0.000711 -0.009862 0.036488 0.010985 -0.010458
# 5 -0.008753 0.006219 -0.028598 0.010985 0.052945 -0.013620
# 6 0.003882 -0.001053 0.011797 -0.010458 -0.013620 0.027608
#
#
# Mechanical properties :
#
#
# Convention : Reuss Voigt Hill
#
# Bulk Modulus (GPa) = 23.43571 63.44822 43.44197
# Shear Modulus (GPa) = 23.21611 38.86903 31.04257
#
# Velocity S-wave (km/s) = 3.07117 3.97384 3.55130
# Velocity P-wave (km/s) = 4.70078 6.84343 5.87068
#
# Compressibility (1/GPa) = 0.04266992
#
# Stress axis : x y z
#
# Youngs Moduli (GPa) = 111.72391 91.15808 23.00632
#
# Poissons Ratio (x) = 0.23127 -0.02004
# Poissons Ratio (y) = 0.28344 0.19999
# Poissons Ratio (z) = -0.09734 0.79242
#
# Static dielectric constant tensor:
#      x y z
#    x 2.027160 0.029770 -0.010210 
#    y 0.029770 1.948780 0.031680 
#    z -0.010210 0.031680 1.958530 
# 
# From -- ./inp_files/336633.got.cif
#   From: 2010.05.17/outbox.cif.g08.bks.cpg/sg2_169_cif.got.tgz:336633.got - 2010.06.03 11:33:40.
