data_PCOD9020439
_publ_section_title
;
Structure prediction by ZEFSAII (Michael W. Deem and Ramdas Pophale) SiO2 
 PCOD9020439
Probable space group: P -1
;
_chemical_formula_sum "Si O2"
_cell_formula_units_Z 16
_cell_length_a 18.793534
_cell_length_b 12.211067
_cell_length_c 12.310821
_cell_angle_alpha 114.907820
_cell_angle_beta 28.111311
_cell_angle_gamma 133.725540
_cell_volume 801.133630
_symmetry_space_group_name_H-M "P -1"
_symmetry_group_IT_number 2
_symmetry_cell_setting 'triclinic'
loop_
_space_group_symop_operation_xyz
x,y,z
-x,-y,-z
loop_
_atom_site_type_symbol
_atom_site_label
_atom_site_fract_x
_atom_site_fract_y
_atom_site_fract_z
Si Si1 0.414720 0.428910 0.907558
Si Si2 0.123132 0.440680 0.195961
Si Si3 0.000865 0.387651 0.090469
Si Si4 0.843490 0.098952 0.801188
Si Si5 0.352583 0.635629 0.542708
Si Si6 0.301714 0.234883 0.188919
Si Si7 0.268555 0.790519 0.191226
Si Si8 0.710838 0.039342 0.204193
O O1 0.618549 0.476957 0.598305
O O2 0.492021 0.580717 0.948851
O O3 0.263917 0.402929 0.010200
O O4 0.294788 0.265322 0.083861
O O5 0.277936 0.652721 0.096450
O O6 0.028386 0.391536 0.182056
O O7 0.916554 0.311816 0.506086
O O8 0.817346 0.382464 0.306875
O O9 0.911140 0.211399 0.080533
O O10 0.235348 0.560977 0.786527
O O11 0.833813 0.205282 0.777002
O O12 0.080586 0.167013 0.509010
O O13 0.680601 0.897965 0.886215
O O14 0.774255 0.088190 0.012516
O O15 0.603231 0.844830 0.293410
O O16 0.500000 0.000000 0.000000
O O17 0.500000 0.000000 0.500000
#
# Coordination Sequence:
#
# PCOD9020439 Si02
#       8
#     2   2   2   2   2   2   2   2
#     4  11  21  41  61  97 130 167 210 269 328 386
#     4  11  26  43  62  97 137 164 220 258 332 394
#     4  10  24  41  64  93 126 174 216 268 310 386
#     4  11  21  41  63  97 123 165 224 267 316 388
#     4  10  22  40  66  91 125 169 223 263 316 373
#     4  10  22  35  68  92 127 166 213 271 322 378
#     4  11  26  41  65  92 132 177 207 265 330 388
#     4  10  22  38  62  94 120 161 220 269 308 366
#
# _framework density 19.971698
#
# number of rings (size 3 to 8) (size 9 to 14) (size 15 to 20)
#    0.000    1.500    2.500    1.500   10.500    1.500 
#    0.000    0.625    0.000    0.000    0.000    0.000 
#    0.000    0.000    0.000    0.000    0.000    0.000 
#
# Total GULP energy -89290.123901 kJ/mol
# GULP energy per Si atom -5580.632744 kJ/mol
# Density = 1.992624 g / cm^3
# Si number density = 19.971698 Si / 1000 Ang^3
#
#
#
# Elastic Constant Matrix: (Units=GPa)
#
#
# Indices 1 2 3 4 5 6 
#
# 1 99.5451 31.5779 42.9262 -0.6022 24.1703 -6.8984
# 2 31.5779 79.8985 24.4987 -3.3413 5.7699 -2.1874
# 3 42.9262 24.4987 84.8761 7.2098 24.5144 1.0527
# 4 -0.6022 -3.3413 7.2098 35.6215 -0.4950 -0.5731
# 5 24.1703 5.7699 24.5144 -0.4950 21.4302 0.6174
# 6 -6.8984 -2.1874 1.0527 -0.5731 0.6174 29.9525
#
#
#
# Elastic Compliance Matrix: (Units=1/GPa)
#
#
# Indices 1 2 3 4 5 6 
#
# 1 0.016427 -0.004418 -0.003097 0.000359 -0.013898 0.003863
# 2 -0.004418 0.015162 -0.003891 0.002213 0.005399 0.000158
# 3 -0.003097 -0.003891 0.020320 -0.004814 -0.018775 -0.001417
# 4 0.000359 0.002213 -0.004814 0.029347 0.005159 0.000869
# 5 -0.013898 0.005399 -0.018775 0.005159 0.082589 -0.003750
# 6 0.003863 0.000158 -0.001417 0.000869 -0.003750 0.034431
#
#
# Mechanical properties :
#
#
# Convention : Reuss Voigt Hill
#
# Bulk Modulus (GPa) = 34.36768 51.36949 42.86858
# Shear Modulus (GPa) = 21.66488 28.42196 25.04342
#
# Velocity S-wave (km/s) = 3.29717 3.77651 3.54495
# Velocity P-wave (km/s) = 5.63389 6.69276 6.18602
#
# Compressibility (1/GPa) = 0.02909710
#
# Stress axis : x y z
#
# Youngs Moduli (GPa) = 60.87421 65.95356 49.21163
#
# Poissons Ratio (x) = 0.29141 0.15241
# Poissons Ratio (y) = 0.26897 0.19148
# Poissons Ratio (z) = 0.18853 0.25662
#
# Static dielectric constant tensor:
#      x y z
#    x 1.679860 0.001730 -0.007350 
#    y 0.001730 1.808240 -0.054730 
#    z -0.007350 -0.054730 1.712670 
# 
# From -- ./inp_files/446703.got.cif
#   From: 2010.05.17/outbox.cif.g08.bks.cpg/sg2_224_cif.got.tgz:446703.got - 2010.06.03 11:33:40.
