data_PCOD9020662
_publ_section_title
;
Structure prediction by ZEFSAII (Michael W. Deem and Ramdas Pophale) SiO2 
 PCOD9020662
Probable space group: P -1
;
_chemical_formula_sum "Si O2"
_cell_formula_units_Z 15
_cell_length_a 11.793750
_cell_length_b 12.391395
_cell_length_c 10.875489
_cell_angle_alpha 73.188661
_cell_angle_beta 59.662871
_cell_angle_gamma 32.213408
_cell_volume 697.502220
_symmetry_space_group_name_H-M "P -1"
_symmetry_group_IT_number 2
_symmetry_cell_setting 'triclinic'
loop_
_space_group_symop_operation_xyz
x,y,z
-x,-y,-z
loop_
_atom_site_type_symbol
_atom_site_label
_atom_site_fract_x
_atom_site_fract_y
_atom_site_fract_z
Si Si1 0.910104 0.671776 0.570100
Si Si2 0.475619 0.839977 0.826734
Si Si3 0.937565 0.341082 0.272194
Si Si4 0.435944 0.486065 0.744794
Si Si5 0.220366 0.601598 0.286985
Si Si6 0.942460 0.172138 0.945327
Si Si7 0.439220 0.851232 0.136715
Si Si8 0.000000 0.500000 0.000000
O O1 0.640829 0.829227 0.710243
O O2 0.087509 0.562011 0.626628
O O3 0.000000 0.500000 0.500000
O O4 0.960583 0.742862 0.433653
O O5 0.618448 0.623606 0.771866
O O6 0.205372 0.043692 0.848954
O O7 0.444047 0.848381 0.986819
O O8 0.717904 0.417501 0.327959
O O9 0.977082 0.395859 0.118365
O O10 0.191346 0.090794 0.238029
O O11 0.633085 0.441227 0.671637
O O12 0.562504 0.275038 0.772834
O O13 0.235474 0.653556 0.907853
O O14 0.180681 0.713218 0.156464
O O15 0.000000 0.000000 0.000000
O O16 0.694000 0.724244 0.079147
#
# Coordination Sequence:
#
# PCOD9020662 Si02
#       8
#     2   2   2   2   2   2   2   1
#     4  10  25  45  65  89 134 177 209 262 320 403
#     4  11  21  40  67  96 132 170 214 267 324 381
#     4  11  23  41  65  99 128 167 220 263 331 379
#     4  11  23  38  67  99 129 169 214 279 323 367
#     4  11  24  43  62  95 138 173 216 256 321 397
#     4  12  22  37  69 100 128 167 217 275 323 368
#     4  11  21  37  64 101 131 161 215 276 324 373
#     4  10  22  36  64  96 132 162 202 276 322 370
#
# _framework density 21.505309
#
# number of rings (size 3 to 8) (size 9 to 14) (size 15 to 20)
#    0.000    1.067    5.333    1.600    0.000    1.067 
#    0.000    6.000    0.000    0.000    0.000    0.000 
#    0.000    0.000    0.000    0.000    0.000    0.000 
#
# Total GULP energy -83555.688984 kJ/mol
# GULP energy per Si atom -5570.379266 kJ/mol
# Density = 2.145636 g / cm^3
# Si number density = 21.505309 Si / 1000 Ang^3
#
#
#
# Elastic Constant Matrix: (Units=GPa)
#
#
# Indices 1 2 3 4 5 6 
#
# 1 152.6733 34.9006 46.9359 0.9270 -3.7908 -14.9739
# 2 34.9006 89.4234 6.5869 -1.6852 3.9258 -7.2098
# 3 46.9359 6.5869 34.2515 -4.1236 -13.0799 -1.2241
# 4 0.9270 -1.6852 -4.1236 10.2853 4.0307 -5.6975
# 5 -3.7908 3.9258 -13.0799 4.0307 29.4138 3.2104
# 6 -14.9739 -7.2098 -1.2241 -5.6975 3.2104 32.2251
#
#
#
# Elastic Compliance Matrix: (Units=1/GPa)
#
#
# Indices 1 2 3 4 5 6 
#
# 1 0.014685 -0.003408 -0.022838 -0.005263 -0.007635 0.005024
# 2 -0.003408 0.012766 0.002119 0.005541 -0.002239 0.002556
# 3 -0.022838 0.002119 0.072308 0.016672 0.027427 -0.007176
# 4 -0.005263 0.005541 0.016672 0.122969 -0.013310 0.022495
# 5 -0.007635 -0.002239 0.027427 -0.013310 0.048445 -0.010187
# 6 0.005024 0.002556 -0.007176 0.022495 -0.010187 0.038657
#
#
# Mechanical properties :
#
#
# Convention : Reuss Voigt Hill
#
# Bulk Modulus (GPa) = 19.41589 50.35501 34.88545
# Shear Modulus (GPa) = 13.32435 26.91318 20.11876
#
# Velocity S-wave (km/s) = 2.49184 3.54145 3.06195
# Velocity P-wave (km/s) = 4.16258 6.33943 5.36263
#
# Compressibility (1/GPa) = 0.05150421
#
# Stress axis : x y z
#
# Youngs Moduli (GPa) = 68.09641 78.33548 13.82968
#
# Poissons Ratio (x) = 0.26697 0.31584
# Poissons Ratio (y) = 0.23208 -0.02930
# Poissons Ratio (z) = 1.55517 -0.16596
#
# Static dielectric constant tensor:
#      x y z
#    x 1.832800 0.000620 0.008310 
#    y 0.000620 1.737100 0.018220 
#    z 0.008310 0.018220 1.794060 
# 
# From -- ./inp_files/65883.got.cif
#   From: 2010.05.17/outbox.cif.g08.bks.cpg/sg2_33_cif.got.tgz:65883.got - 2010.06.03 11:33:40.
