data_PCOD9020564
_publ_section_title
;
Structure prediction by ZEFSAII (Michael W. Deem and Ramdas Pophale) SiO2 
 PCOD9020564
Probable space group: P -1
;
_chemical_formula_sum "Si O2"
_cell_formula_units_Z 14
_cell_length_a 11.814268
_cell_length_b 12.998319
_cell_length_c 11.009468
_cell_angle_alpha 102.114881
_cell_angle_beta 118.955161
_cell_angle_gamma 129.077503
_cell_volume 748.707437
_symmetry_space_group_name_H-M "P -1"
_symmetry_group_IT_number 2
_symmetry_cell_setting 'triclinic'
loop_
_space_group_symop_operation_xyz
x,y,z
-x,-y,-z
loop_
_atom_site_type_symbol
_atom_site_label
_atom_site_fract_x
_atom_site_fract_y
_atom_site_fract_z
Si Si1 0.300580 0.601769 0.112596
Si Si2 0.775797 0.402731 0.432061
Si Si3 0.850506 0.918155 0.527353
Si Si4 0.006569 0.586981 0.847606
Si Si5 0.337111 0.977424 0.972537
Si Si6 0.911336 0.730785 0.518380
Si Si7 0.217072 0.340092 0.842103
O O1 0.595267 0.801335 0.340756
O O2 0.152796 0.500395 0.137521
O O3 0.212126 0.642451 0.002561
O O4 0.229825 0.449376 0.961314
O O5 0.789661 0.537733 0.452255
O O6 0.000000 0.500000 0.500000
O O7 0.830558 0.421730 0.606943
O O8 0.520071 0.180086 0.191251
O O9 0.787554 0.755954 0.497758
O O10 0.000000 0.000000 0.500000
O O11 0.046541 0.126853 0.753606
O O12 0.145322 0.785526 0.915352
O O13 0.182032 0.923427 0.770240
O O14 0.500000 0.000000 0.000000
O O15 0.906009 0.717917 0.366583
O O16 0.500000 0.500000 0.000000
#
# Coordination Sequence:
#
# PCOD9020564 Si02
#       7
#     2   2   2   2   2   2   2
#     4  11  23  42  63  92 138 157 203 260 313 379
#     4  11  21  39  63  89 121 167 211 256 302 367
#     4  10  22  37  61  93 121 164 208 256 303 364
#     4  10  25  41  62  97 126 169 199 256 323 365
#     4  11  23  37  62  89 124 161 213 260 294 371
#     4  10  22  36  60  97 117 155 214 256 309 347
#     4  11  22  36  64  96 123 164 207 256 310 367
#
# _framework density 18.698892000000001
#
# number of rings (size 3 to 8) (size 9 to 14) (size 15 to 20)
#    0.000    1.429    5.714    0.857    6.000    1.143 
#    0.000    5.714    0.000    5.143    0.000    0.000 
#    0.000    0.000    0.000    0.000    0.000    0.000 
#
# Total GULP energy -78103.146816 kJ/mol
# GULP energy per Si atom -5578.796201 kJ/mol
# Density = 1.865633 g / cm^3
# Si number density = 18.698892 Si / 1000 Ang^3
#
#
#
# Elastic Constant Matrix: (Units=GPa)
#
#
# Indices 1 2 3 4 5 6 
#
# 1 92.9256 32.2962 55.7569 -1.8350 -0.0732 -10.0184
# 2 32.2962 69.0163 45.9163 2.2349 -4.0164 -11.4245
# 3 55.7569 45.9163 162.7877 8.0353 -7.8527 -7.4348
# 4 -1.8350 2.2349 8.0353 37.9131 -4.8023 -6.5484
# 5 -0.0732 -4.0164 -7.8527 -4.8023 31.8042 -1.5367
# 6 -10.0184 -11.4245 -7.4348 -6.5484 -1.5367 24.4416
#
#
#
# Elastic Compliance Matrix: (Units=1/GPa)
#
#
# Indices 1 2 3 4 5 6 
#
# 1 0.014955 -0.003836 -0.004031 0.002323 -0.000917 0.003675
# 2 -0.003836 0.020206 -0.004013 0.000946 0.002035 0.007033
# 3 -0.004031 -0.004013 0.008752 -0.001871 0.001300 -0.001285
# 4 0.002323 0.000946 -0.001871 0.028923 0.004458 0.008855
# 5 -0.000917 0.002035 0.001300 0.004458 0.032896 0.004233
# 6 0.003675 0.007033 -0.001285 0.008855 0.004233 0.047955
#
#
# Mechanical properties :
#
#
# Convention : Reuss Voigt Hill
#
# Bulk Modulus (GPa) = 49.62211 65.85205 57.73708
# Shear Modulus (GPa) = 27.14950 31.54914 29.34932
#
# Velocity S-wave (km/s) = 3.81456 4.11203 3.96608
# Velocity P-wave (km/s) = 6.78205 7.60517 7.20537
#
# Compressibility (1/GPa) = 0.02015231
#
# Stress axis : x y z
#
# Youngs Moduli (GPa) = 66.86839 49.48971 114.26099
#
# Poissons Ratio (x) = 0.18986 0.46060
# Poissons Ratio (y) = 0.25653 0.45850
# Poissons Ratio (z) = 0.26956 0.19859
#
# Static dielectric constant tensor:
#      x y z
#    x 1.624300 -0.027960 -0.000790 
#    y -0.027960 1.707160 -0.003980 
#    z -0.000790 -0.003980 1.664070 
# 
# From -- ./inp_files/427615.got.cif
#   From: 2010.05.17/outbox.cif.g08.bks.cpg/sg2_214_cif.got.tgz:427615.got - 2010.06.03 11:33:40.
