data_PCOD9020856
_publ_section_title
;
Structure prediction by ZEFSAII (Michael W. Deem and Ramdas Pophale) SiO2 
 PCOD9020856
Probable space group: P -1
;
_chemical_formula_sum "Si O2"
_cell_formula_units_Z 16
_cell_length_a 11.595258
_cell_length_b 7.952495
_cell_length_c 12.724074
_cell_angle_alpha 45.459995
_cell_angle_beta 86.472520
_cell_angle_gamma 113.977400
_cell_volume 646.941972
_symmetry_space_group_name_H-M "P -1"
_symmetry_group_IT_number 2
_symmetry_cell_setting 'triclinic'
loop_
_space_group_symop_operation_xyz
x,y,z
-x,-y,-z
loop_
_atom_site_type_symbol
_atom_site_label
_atom_site_fract_x
_atom_site_fract_y
_atom_site_fract_z
Si Si1 0.094986 0.108226 0.784210
Si Si2 0.770514 0.185846 0.108232
Si Si3 0.348025 0.497514 0.763337
Si Si4 0.106457 0.455736 0.451075
Si Si5 0.368274 0.076218 0.557070
Si Si6 0.237990 0.262021 0.081517
Si Si7 0.190266 0.102207 0.380959
Si Si8 0.677128 0.211882 0.883001
O O1 0.192178 0.283023 0.804621
O O2 0.168528 0.348194 0.578621
O O3 0.093770 0.825864 0.886659
O O4 0.927431 0.987101 0.847362
O O5 0.662723 0.938910 0.311574
O O6 0.769862 0.465936 0.008063
O O7 0.727275 0.115556 0.019449
O O8 0.374246 0.804302 0.656776
O O9 0.482357 0.606597 0.630895
O O10 0.349709 0.370282 0.931350
O O11 0.239579 0.742337 0.250908
O O12 0.000000 0.500000 0.500000
O O13 0.984954 0.160098 0.516018
O O14 0.240159 0.001848 0.517710
O O15 0.260604 0.154534 0.236805
O O16 0.252207 0.438110 0.257793
O O17 0.500000 0.000000 0.000000
#
# Coordination Sequence:
#
# PCOD9020856 Si02
#       8
#     2   2   2   2   2   2   2   2
#     4  11  22  38  67  92 127 167 218 266 322 390
#     4  10  23  40  64  92 127 166 218 264 322 387
#     4  10  22  37  60  91 130 163 214 268 323 381
#     4  11  25  46  69 100 135 178 222 270 334 397
#     4  10  22  41  62  90 125 174 214 261 325 387
#     4   9  21  41  59  95 125 169 210 269 323 382
#     4  10  22  44  68  93 133 177 223 264 331 398
#     4  11  26  45  68 100 136 174 221 279 329 395
#
# _framework density 24.731739000000001
#
# number of rings (size 3 to 8) (size 9 to 14) (size 15 to 20)
#    0.000    1.750    0.000    2.625    3.500    8.000 
#    4.500    0.000    0.000    0.000    0.000    0.000 
#    0.000    0.000    0.000    0.000    0.000    0.000 
#
# Total GULP energy -89361.524456 kJ/mol
# GULP energy per Si atom -5585.095278 kJ/mol
# Density = 2.467545 g / cm^3
# Si number density = 24.731739 Si / 1000 Ang^3
#
#
#
# Elastic Constant Matrix: (Units=GPa)
#
#
# Indices 1 2 3 4 5 6 
#
# 1 51.0239 4.8421 35.7644 8.0182 -0.3436 4.2180
# 2 4.8421 68.2202 34.8169 3.7502 -12.0782 -11.4150
# 3 35.7644 34.8169 181.7760 30.9409 0.6758 9.9984
# 4 8.0182 3.7502 30.9409 48.6648 1.0541 8.4458
# 5 -0.3436 -12.0782 0.6758 1.0541 43.2742 3.3592
# 6 4.2180 -11.4150 9.9984 8.4458 3.3592 20.5558
#
#
#
# Elastic Compliance Matrix: (Units=1/GPa)
#
#
# Indices 1 2 3 4 5 6 
#
# 1 0.022898 0.000352 -0.004339 -0.000670 0.000535 -0.002205
# 2 0.000352 0.019924 -0.004419 -0.001112 0.004663 0.012836
# 3 -0.004339 -0.004419 0.007986 -0.003320 -0.001008 -0.003919
# 4 -0.000670 -0.001112 -0.003320 0.024397 -0.000170 -0.008862
# 5 0.000535 0.004663 -0.001008 -0.000170 0.024509 -0.000965
# 6 -0.002205 0.012836 -0.003919 -0.008862 -0.000965 0.061934
#
#
# Mechanical properties :
#
#
# Convention : Reuss Voigt Hill
#
# Bulk Modulus (GPa) = 29.41685 50.20743 39.81214
# Shear Modulus (GPa) = 26.34459 37.53873 31.94166
#
# Velocity S-wave (km/s) = 3.26730 3.90017 3.59768
# Velocity P-wave (km/s) = 5.11409 6.37390 5.77843
#
# Compressibility (1/GPa) = 0.03399412
#
# Stress axis : x y z
#
# Youngs Moduli (GPa) = 43.67205 50.19193 125.22025
#
# Poissons Ratio (x) = -0.01767 0.54337
# Poissons Ratio (y) = -0.01538 0.55340
# Poissons Ratio (z) = 0.18951 0.22182
#
# Static dielectric constant tensor:
#      x y z
#    x 1.966430 -0.092730 -0.017440 
#    y -0.092730 2.028740 -0.020560 
#    z -0.017440 -0.020560 2.003800 
# 
# From -- ./inp_files/418931.got.cif
#   From: 2010.05.17/outbox.cif.g08.bks.cpg/sg2_210_cif.got.tgz:418931.got - 2010.06.03 11:33:40.
