data_PCOD9020287
_publ_section_title
;
Structure prediction by ZEFSAII (Michael W. Deem and Ramdas Pophale) SiO2 
 PCOD9020287
Probable space group: P -1
;
_chemical_formula_sum "Si O2"
_cell_formula_units_Z 14
_cell_length_a 5.615186
_cell_length_b 12.983681
_cell_length_c 11.630911
_cell_angle_alpha 97.880891
_cell_angle_beta 130.231532
_cell_angle_gamma 111.970510
_cell_volume 507.221971
_symmetry_space_group_name_H-M "P -1"
_symmetry_group_IT_number 2
_symmetry_cell_setting 'triclinic'
loop_
_space_group_symop_operation_xyz
x,y,z
-x,-y,-z
loop_
_atom_site_type_symbol
_atom_site_label
_atom_site_fract_x
_atom_site_fract_y
_atom_site_fract_z
Si Si1 0.449961 0.152249 0.963614
Si Si2 0.945137 0.837689 0.966381
Si Si3 0.914331 0.883311 0.533513
Si Si4 0.654540 0.696207 0.237066
Si Si5 0.851275 0.560742 0.707275
Si Si6 0.465179 0.824066 0.613620
Si Si7 0.455687 0.448822 0.140204
O O1 0.126287 0.086235 0.951776
O O2 0.632948 0.090727 0.949193
O O3 0.834134 0.280712 0.165754
O O4 0.317673 0.207914 0.834162
O O5 0.622200 0.780307 0.754718
O O6 0.855866 0.710113 0.986259
O O7 0.583998 0.745131 0.342104
O O8 0.785192 0.890955 0.621205
O O9 0.300987 0.891253 0.639979
O O10 0.000000 0.000000 0.500000
O O11 0.408180 0.551694 0.080114
O O12 0.066580 0.724001 0.400462
O O13 0.500000 0.500000 0.500000
O O14 0.630089 0.522948 0.754492
O O15 0.131594 0.522984 0.751836
#
# Coordination Sequence:
#
# PCOD9020287 Si02
#       7
#     2   2   2   2   2   2   2
#     4  10  23  38  57  87 131 168 206 250 300 352
#     4  10  22  39  60  89 130 167 198 250 298 360
#     4  10  23  43  68  93 119 153 207 264 312 366
#     4  10  26  36  65  92 124 163 211 250 310 362
#     4  10  22  33  53  78 119 168 205 235 290 343
#     4  10  23  39  67  95 115 161 211 249 307 375
#     4  10  23  34  57  83 127 159 207 240 293 345
#
# _framework density 27.601327000000001
#
# number of rings (size 3 to 8) (size 9 to 14) (size 15 to 20)
#    0.857    1.143    0.000    1.714   12.000    4.571 
#    0.000    0.000    0.000    5.143    0.000    0.000 
#    0.000    0.000    0.000    0.000    0.000    0.000 
#
# Total GULP energy -78225.337409 kJ/mol
# GULP energy per Si atom -5587.524101 kJ/mol
# Density = 2.753851 g / cm^3
# Si number density = 27.601327 Si / 1000 Ang^3
#
#
#
# Elastic Constant Matrix: (Units=GPa)
#
#
# Indices 1 2 3 4 5 6 
#
# 1 302.5630 59.9808 70.8950 -13.2837 -9.3631 -10.2927
# 2 59.9808 87.7046 18.4505 -4.8447 1.9066 -22.4517
# 3 70.8950 18.4505 120.4542 3.7816 5.9894 4.0161
# 4 -13.2837 -4.8447 3.7816 38.6016 -0.2342 -4.6621
# 5 -9.3631 1.9066 5.9894 -0.2342 53.1965 5.1983
# 6 -10.2927 -22.4517 4.0161 -4.6621 5.1983 48.5327
#
#
#
# Elastic Compliance Matrix: (Units=1/GPa)
#
#
# Indices 1 2 3 4 5 6 
#
# 1 0.004446 -0.002494 -0.002337 0.001453 0.001141 0.000000
# 2 -0.002494 0.015267 -0.001090 0.001999 -0.001537 0.006981
# 3 -0.002337 -0.001090 0.010042 -0.002162 -0.001327 -0.001896
# 4 0.001453 0.001999 -0.002162 0.027355 0.000155 0.004023
# 5 0.001141 -0.001537 -0.001327 0.000155 0.019441 -0.002426
# 6 0.000000 0.006981 -0.001896 0.004023 -0.002426 0.024637
#
#
# Mechanical properties :
#
#
# Convention : Reuss Voigt Hill
#
# Bulk Modulus (GPa) = 55.82405 89.93048 72.87727
# Shear Modulus (GPa) = 42.01608 52.15920 47.08764
#
# Velocity S-wave (km/s) = 3.90583 4.35182 4.13485
# Velocity P-wave (km/s) = 6.37258 7.60946 7.01832
#
# Compressibility (1/GPa) = 0.01791343
#
# Stress axis : x y z
#
# Youngs Moduli (GPa) = 224.91043 65.49902 99.58550
#
# Poissons Ratio (x) = 0.16333 0.23276
# Poissons Ratio (y) = 0.56083 0.10855
# Poissons Ratio (z) = 0.52569 0.07140
#
# Static dielectric constant tensor:
#      x y z
#    x 2.141320 0.044830 -0.010550 
#    y 0.044830 2.353900 0.042790 
#    z -0.010550 0.042790 2.191790 
# 
# From -- ./inp_files/365721.got.cif
#   From: 2010.05.17/outbox.cif.g08.bks.cpg/sg2_183_cif.got.tgz:365721.got - 2010.06.03 11:33:40.
