data_PCOD9020198
_publ_section_title
;
Structure prediction by ZEFSAII (Michael W. Deem and Ramdas Pophale) SiO2 
 PCOD9020198
Probable space group: P -1
;
_chemical_formula_sum "Si O2"
_cell_formula_units_Z 16
_cell_length_a 16.693844
_cell_length_b 6.348033
_cell_length_c 8.233195
_cell_angle_alpha 102.116347
_cell_angle_beta 52.069449
_cell_angle_gamma 116.808396
_cell_volume 611.404473
_symmetry_space_group_name_H-M "P -1"
_symmetry_group_IT_number 2
_symmetry_cell_setting 'triclinic'
loop_
_space_group_symop_operation_xyz
x,y,z
-x,-y,-z
loop_
_atom_site_type_symbol
_atom_site_label
_atom_site_fract_x
_atom_site_fract_y
_atom_site_fract_z
Si Si1 0.659653 0.944058 0.215131
Si Si2 0.081768 0.841796 0.113973
Si Si3 0.279197 0.565578 0.599394
Si Si4 0.424081 0.306392 0.400864
Si Si5 0.924641 0.687291 0.983144
Si Si6 0.760769 0.179152 0.597288
Si Si7 0.590182 0.138980 0.044233
Si Si8 0.015761 0.772844 0.543541
O O1 0.671476 0.189480 0.324729
O O2 0.595913 0.947846 0.131900
O O3 0.595301 0.738607 0.389547
O O4 0.786275 0.986790 0.025318
O O5 0.078636 0.575503 0.073052
O O6 0.018720 0.848093 0.362895
O O7 0.023387 0.832038 0.010606
O O8 0.378442 0.491375 0.421448
O O9 0.215251 0.618058 0.535247
O O10 0.190552 0.362843 0.789566
O O11 0.544084 0.318192 0.205084
O O12 0.334815 0.055792 0.397027
O O13 0.938698 0.775128 0.793399
O O14 0.860092 0.112411 0.516256
O O15 0.710579 0.256014 0.828648
O O16 0.500000 0.000000 0.000000
O O17 0.000000 0.500000 0.500000
#
# Coordination Sequence:
#
# PCOD9020198 Si02
#       8
#     2   2   2   2   2   2   2   2
#     4  10  19  38  61  83 114 152 198 241 294 352
#     4   9  16  30  56  85 114 152 196 238 292 350
#     4  10  21  37  58  87 119 153 196 239 289 355
#     4  10  22  38  60  85 116 157 192 244 296 345
#     4   9  17  30  52  87 118 150 195 237 287 350
#     4  10  20  38  60  84 117 152 194 242 295 351
#     4  10  21  38  62  86 114 154 196 243 298 347
#     4  10  17  30  60  86 114 157 198 242 295 351
#
# _framework density 26.169257000000002
#
# number of rings (size 3 to 8) (size 9 to 14) (size 15 to 20)
#    0.000    2.250    1.250    4.125    0.000    1.000 
#    0.000    5.000    0.000    3.750    0.000    0.000 
#    0.000    0.000    0.000    0.000    0.000    0.000 
#
# Total GULP energy -89552.965345 kJ/mol
# GULP energy per Si atom -5597.060334 kJ/mol
# Density = 2.610969 g / cm^3
# Si number density = 26.169257 Si / 1000 Ang^3
#
#
#
# Elastic Constant Matrix: (Units=GPa)
#
#
# Indices 1 2 3 4 5 6 
#
# 1 117.1769 24.7869 43.2638 -4.7495 14.9057 -28.6613
# 2 24.7869 46.4407 48.2229 -4.9881 12.2417 -12.5560
# 3 43.2638 48.2229 165.4711 9.0587 6.8479 -14.2888
# 4 -4.7495 -4.9881 9.0587 47.7908 -18.3555 12.5944
# 5 14.9057 12.2417 6.8479 -18.3555 48.0604 -1.4486
# 6 -28.6613 -12.5560 -14.2888 12.5944 -1.4486 42.3908
#
#
#
# Elastic Compliance Matrix: (Units=1/GPa)
#
#
# Indices 1 2 3 4 5 6 
#
# 1 0.011662 -0.001883 -0.001626 -0.001958 -0.003435 0.007243
# 2 -0.001883 0.035362 -0.009142 0.001304 -0.006457 0.005512
# 3 -0.001626 -0.009142 0.009275 -0.002731 0.000472 0.000147
# 4 -0.001958 0.001304 -0.002731 0.028275 0.011165 -0.009877
# 5 -0.003435 -0.006457 0.000472 0.011165 0.027520 -0.006453
# 6 0.007243 0.005512 0.000147 -0.009877 -0.006453 0.032884
#
#
# Mechanical properties :
#
#
# Convention : Reuss Voigt Hill
#
# Bulk Modulus (GPa) = 32.25851 62.40400 47.33126
# Shear Modulus (GPa) = 27.68384 41.83607 34.75995
#
# Velocity S-wave (km/s) = 3.25603 4.00268 3.64850
# Velocity P-wave (km/s) = 5.14677 6.72755 5.98954
#
# Compressibility (1/GPa) = 0.03099957
#
# Stress axis : x y z
#
# Youngs Moduli (GPa) = 85.74907 28.27870 107.81492
#
# Poissons Ratio (x) = 0.05324 0.17526
# Poissons Ratio (y) = 0.16144 0.98560
# Poissons Ratio (z) = 0.13939 0.25851
#
# Static dielectric constant tensor:
#      x y z
#    x 2.246750 -0.027610 -0.038960 
#    y -0.027610 2.157410 0.015700 
#    z -0.038960 0.015700 2.100820 
# 
# From -- ./inp_files/141374.got.cif
#   From: 2010.05.17/outbox.cif.g08.bks.cpg/sg2_71_cif.got.tgz:141374.got - 2010.06.03 11:33:40.
