data_PCOD9020966
_publ_section_title
;
Structure prediction by ZEFSAII (Michael W. Deem and Ramdas Pophale) SiO2 
 PCOD9020966
Probable space group: P -1
;
_chemical_formula_sum "Si O2"
_cell_formula_units_Z 16
_cell_length_a 10.827804
_cell_length_b 5.688757
_cell_length_c 16.682863
_cell_angle_alpha 80.508958
_cell_angle_beta 135.450015
_cell_angle_gamma 83.335253
_cell_volume 669.297046
_symmetry_space_group_name_H-M "P -1"
_symmetry_group_IT_number 2
_symmetry_cell_setting 'triclinic'
loop_
_space_group_symop_operation_xyz
x,y,z
-x,-y,-z
loop_
_atom_site_type_symbol
_atom_site_label
_atom_site_fract_x
_atom_site_fract_y
_atom_site_fract_z
Si Si1 0.366562 0.802436 0.609076
Si Si2 0.721117 0.352326 0.112991
Si Si3 0.871164 0.114644 0.023060
Si Si4 0.762530 0.829686 0.776400
Si Si5 0.480633 0.355794 0.776567
Si Si6 0.997062 0.389081 0.793918
Si Si7 0.318746 0.909115 0.743418
Si Si8 0.682119 0.256239 0.585991
O O1 0.574489 0.807274 0.726881
O O2 0.383981 0.506649 0.643535
O O3 0.235002 0.958362 0.611091
O O4 0.327538 0.877858 0.495218
O O5 0.791351 0.251678 0.062764
O O6 0.838913 0.534950 0.174534
O O7 0.774161 0.123326 0.214380
O O8 0.500000 0.500000 0.000000
O O9 0.060629 0.171121 0.088093
O O10 0.917488 0.826873 0.087869
O O11 0.702692 0.230607 0.877819
O O12 0.849920 0.613096 0.763403
O O13 0.698697 0.083205 0.680655
O O14 0.433119 0.603912 0.798490
O O15 0.410999 0.127751 0.784545
O O16 0.872890 0.316900 0.674212
O O17 0.500000 0.500000 0.500000
#
# Coordination Sequence:
#
# PCOD9020966 Si02
#       8
#     2   2   2   2   2   2   2   2
#     4  10  23  39  64  92 129 168 217 265 330 390
#     4  11  20  39  64  91 130 172 218 267 318 383
#     4  10  22  37  63  92 133 165 220 266 319 388
#     4  10  22  39  60  98 124 164 217 272 325 384
#     4  10  23  40  60  96 128 173 215 258 328 386
#     4  10  23  37  62  97 127 164 223 269 319 381
#     4  10  24  38  62  93 127 171 216 259 323 385
#     4  11  22  39  70  95 122 168 217 276 326 381
#
# _framework density 23.90568
#
# number of rings (size 3 to 8) (size 9 to 14) (size 15 to 20)
#    0.750    1.000    2.500    1.125    5.250    1.500 
#    0.000    1.875    0.000    7.500    0.000    0.000 
#    0.000    0.000    0.000    0.000    0.000    0.000 
#
# Total GULP energy -89235.039931 kJ/mol
# GULP energy per Si atom -5577.189996 kJ/mol
# Density = 2.385127 g / cm^3
# Si number density = 23.905680 Si / 1000 Ang^3
#
#
#
# Elastic Constant Matrix: (Units=GPa)
#
#
# Indices 1 2 3 4 5 6 
#
# 1 81.3090 21.7940 12.8142 19.3960 3.7857 13.7425
# 2 21.7940 100.5250 20.6524 -4.3305 17.6960 26.4048
# 3 12.8142 20.6524 54.3858 -2.8554 1.8240 13.3298
# 4 19.3960 -4.3305 -2.8554 23.4275 -4.6360 13.3509
# 5 3.7857 17.6960 1.8240 -4.6360 32.4674 1.5210
# 6 13.7425 26.4048 13.3298 13.3509 1.5210 41.6702
#
#
#
# Elastic Compliance Matrix: (Units=1/GPa)
#
#
# Indices 1 2 3 4 5 6 
#
# 1 0.018336 -0.004747 -0.004690 -0.019903 -0.002360 0.004924
# 2 -0.004747 0.015871 -0.001158 0.012358 -0.005711 -0.011872
# 3 -0.004690 -0.001158 0.022655 0.011868 0.002014 -0.008842
# 4 -0.019903 0.012358 0.011868 0.082670 0.008215 -0.031850
# 5 -0.002360 -0.005711 0.002014 0.008215 0.035256 -0.000166
# 6 0.004924 -0.011872 -0.008842 -0.031850 -0.000166 0.042936
#
#
# Mechanical properties :
#
#
# Convention : Reuss Voigt Hill
#
# Bulk Modulus (GPa) = 28.03454 38.52678 33.28066
# Shear Modulus (GPa) = 19.93586 31.57698 25.75642
#
# Velocity S-wave (km/s) = 2.89093 3.63836 3.28597
# Velocity P-wave (km/s) = 4.78497 5.81389 5.32434
#
# Compressibility (1/GPa) = 0.03567028
#
# Stress axis : x y z
#
# Youngs Moduli (GPa) = 54.53861 63.00828 44.14069
#
# Poissons Ratio (x) = 0.29910 0.20703
# Poissons Ratio (y) = 0.25890 0.05112
# Poissons Ratio (z) = 0.25580 0.07298
#
# Static dielectric constant tensor:
#      x y z
#    x 1.958690 -0.001350 -0.024970 
#    y -0.001350 2.022420 0.023490 
#    z -0.024970 0.023490 1.933910 
# 
# From -- ./inp_files/93603.got.cif
#   From: 2010.05.17/outbox.cif.g08.bks.cpg/sg2_47_cif.got.tgz:93603.got - 2010.06.03 11:33:40.
