data_PCOD9020232
_publ_section_title
;
Structure prediction by ZEFSAII (Michael W. Deem and Ramdas Pophale) SiO2 
 PCOD9020232
Probable space group: P -1
;
_chemical_formula_sum "Si O2"
_cell_formula_units_Z 16
_cell_length_a 21.678212
_cell_length_b 8.544645
_cell_length_c 16.015518
_cell_angle_alpha 68.503911
_cell_angle_beta 162.476314
_cell_angle_gamma 120.466101
_cell_volume 687.143310
_symmetry_space_group_name_H-M "P -1"
_symmetry_group_IT_number 2
_symmetry_cell_setting 'triclinic'
loop_
_space_group_symop_operation_xyz
x,y,z
-x,-y,-z
loop_
_atom_site_type_symbol
_atom_site_label
_atom_site_fract_x
_atom_site_fract_y
_atom_site_fract_z
Si Si1 0.515087 0.637156 0.832837
Si Si2 0.563039 0.446645 0.440192
Si Si3 0.638161 0.185332 0.705834
Si Si4 0.757842 0.899320 0.649293
Si Si5 0.222548 0.971197 0.808419
Si Si6 0.988403 0.275294 0.755126
Si Si7 0.952090 0.292212 0.512188
Si Si8 0.014194 0.337061 0.286943
O O1 0.426906 0.624140 0.626356
O O2 0.303531 0.426194 0.643228
O O3 0.781542 0.674844 0.162481
O O4 0.557010 0.821674 0.906536
O O5 0.686042 0.377566 0.678521
O O6 0.686423 0.686784 0.559220
O O7 0.271573 0.335474 0.108039
O O8 0.463324 0.147310 0.565977
O O9 0.500000 0.000000 0.500000
O O10 0.878292 0.212544 0.052229
O O11 0.819675 0.066115 0.627299
O O12 0.000000 0.000000 0.000000
O O13 0.249573 0.889243 0.771884
O O14 0.123321 0.795173 0.783832
O O15 0.000000 0.000000 0.500000
O O16 0.901157 0.258339 0.550693
O O17 0.998114 0.465971 0.769677
O O18 0.000000 0.500000 0.500000
#
# Coordination Sequence:
#
# PCOD9020232 Si02
#       8
#     2   2   2   2   2   2   2   2
#     4  10  26  42  73 103 141 185 234 279 368 414
#     4  11  24  48  67 103 145 187 231 294 342 419
#     4  12  27  45  72 104 147 186 236 292 353 418
#     4  12  25  44  72  99 138 188 239 282 350 416
#     4  10  23  46  72  97 142 179 232 293 355 416
#     4  11  24  44  74 103 139 184 238 287 353 415
#     4  10  21  47  75 102 139 184 234 298 350 416
#     4  12  25  44  69 103 145 182 235 296 349 422
#
# _framework density 23.28481
#
# number of rings (size 3 to 8) (size 9 to 14) (size 15 to 20)
#    0.000    1.000    3.750    1.875    5.250    5.500 
#    0.000    1.875    0.000    0.000    0.000    0.000 
#    0.000    0.000    0.000    0.000    0.000    0.000 
#
# Total GULP energy -89609.472003 kJ/mol
# GULP energy per Si atom -5600.592000 kJ/mol
# Density = 2.323181 g / cm^3
# Si number density = 23.284810 Si / 1000 Ang^3
#
#
#
# Elastic Constant Matrix: (Units=GPa)
#
#
# Indices 1 2 3 4 5 6 
#
# 1 111.9246 43.4142 48.5854 12.8799 -40.6360 0.4932
# 2 43.4142 121.7134 29.2759 10.6037 -32.3340 13.9391
# 3 48.5854 29.2759 88.5494 23.9435 -21.2678 4.4984
# 4 12.8799 10.6037 23.9435 35.9861 -4.5915 -10.5770
# 5 -40.6360 -32.3340 -21.2678 -4.5915 40.8958 -0.1618
# 6 0.4932 13.9391 4.4984 -10.5770 -0.1618 38.2391
#
#
#
# Elastic Compliance Matrix: (Units=1/GPa)
#
#
# Indices 1 2 3 4 5 6 
#
# 1 0.016344 -0.001348 -0.005692 0.000208 0.012242 0.001059
# 2 -0.001348 0.011553 -0.000150 -0.003382 0.007317 -0.005081
# 3 -0.005692 -0.000150 0.018401 -0.011362 0.002499 -0.005169
# 4 0.000208 -0.003382 -0.011362 0.039760 -0.003858 0.013548
# 5 0.012242 0.007317 0.002499 -0.003858 0.043253 -0.004003
# 6 0.001059 -0.005081 -0.005169 0.013548 -0.004003 0.032328
#
#
# Mechanical properties :
#
#
# Convention : Reuss Voigt Hill
#
# Bulk Modulus (GPa) = 31.32982 62.74871 47.03926
# Shear Modulus (GPa) = 26.78681 36.41831 31.60256
#
# Velocity S-wave (km/s) = 3.39543 3.95908 3.68804
# Velocity P-wave (km/s) = 5.37180 6.92141 6.19525
#
# Compressibility (1/GPa) = 0.03191847
#
# Stress axis : x y z
#
# Youngs Moduli (GPa) = 61.18292 86.55508 54.34556
#
# Poissons Ratio (x) = 0.11668 0.30933
# Poissons Ratio (y) = 0.08248 0.00816
# Poissons Ratio (z) = 0.34825 0.01299
#
# Static dielectric constant tensor:
#      x y z
#    x 1.847990 -0.027170 0.023100 
#    y -0.027170 1.835850 0.006410 
#    z 0.023100 0.006410 1.921800 
# 
# From -- ./inp_files/89875.got.cif
#   From: 2010.05.17/outbox.cif.g08.bks.cpg/sg2_45_cif.got.tgz:89875.got - 2010.06.03 11:33:40.
