data_PCOD9020839
_publ_section_title
;
Structure prediction by ZEFSAII (Michael W. Deem and Ramdas Pophale) SiO2 
 PCOD9020839
Probable space group: P -1
;
_chemical_formula_sum "Si O2"
_cell_formula_units_Z 16
_cell_length_a 8.976123
_cell_length_b 15.963309
_cell_length_c 10.097769
_cell_angle_alpha 44.888304
_cell_angle_beta 50.093509
_cell_angle_gamma 64.414789
_cell_volume 782.601378
_symmetry_space_group_name_H-M "P -1"
_symmetry_group_IT_number 2
_symmetry_cell_setting 'triclinic'
loop_
_space_group_symop_operation_xyz
x,y,z
-x,-y,-z
loop_
_atom_site_type_symbol
_atom_site_label
_atom_site_fract_x
_atom_site_fract_y
_atom_site_fract_z
Si Si1 0.406769 0.252782 0.907355
Si Si2 0.495712 0.878430 0.228241
Si Si3 0.905029 0.827313 0.509121
Si Si4 0.202798 0.070561 0.791868
Si Si5 0.748596 0.198283 0.288459
Si Si6 0.470350 0.857448 0.785278
Si Si7 0.042814 0.368510 0.080227
Si Si8 0.912390 0.954957 0.739223
O O1 0.540916 0.229697 0.983434
O O2 0.254294 0.354607 0.904789
O O3 0.260078 0.136799 0.099593
O O4 0.527757 0.238066 0.720377
O O5 0.705094 0.884422 0.174433
O O6 0.353635 0.863538 0.453889
O O7 0.500000 0.000000 0.000000
O O8 0.849777 0.819790 0.395502
O O9 0.703004 0.881673 0.615214
O O10 0.942209 0.715216 0.704032
O O11 0.085235 0.922619 0.317484
O O12 0.354875 0.975804 0.752062
O O13 0.000000 0.000000 0.000000
O O14 0.600325 0.202914 0.244804
O O15 0.918177 0.122560 0.213482
O O16 0.869114 0.312863 0.149413
O O17 0.000000 0.500000 0.000000
O O18 0.000000 0.000000 0.500000
#
# Coordination Sequence:
#
# PCOD9020839 Si02
#       8
#     2   2   2   2   2   2   2   2
#     4  10  22  37  60  86 126 153 196 248 294 357
#     4  12  23  34  55  95 131 155 184 233 305 375
#     4  11  20  35  59  82 122 156 194 242 291 356
#     4  12  24  31  53  92 138 156 184 230 305 377
#     4  11  22  35  62  85 121 151 195 245 298 359
#     4  11  20  37  53  88 119 160 187 236 300 366
#     4  10  24  43  65  83 108 162 220 250 285 345
#     4  11  16  30  54  84 113 155 184 227 297 360
#
# _framework density 20.444635000000002
#
# number of rings (size 3 to 8) (size 9 to 14) (size 15 to 20)
#    0.000    1.000    7.500    2.625    3.500    0.000 
#    0.000    3.125    0.000    0.750    0.000    0.000 
#    0.000    0.000    0.000    0.000    0.000    0.000 
#
# Total GULP energy -89106.844424 kJ/mol
# GULP energy per Si atom -5569.177776 kJ/mol
# Density = 2.039810 g / cm^3
# Si number density = 20.444635 Si / 1000 Ang^3
#
#
#
# Elastic Constant Matrix: (Units=GPa)
#
#
# Indices 1 2 3 4 5 6 
#
# 1 158.9690 41.9172 24.3635 -3.2414 21.1064 19.8940
# 2 41.9172 126.9207 29.7728 -10.4646 6.2737 -0.1519
# 3 24.3635 29.7728 31.7431 3.4189 1.9962 -0.5922
# 4 -3.2414 -10.4646 3.4189 27.8459 4.9723 -0.3297
# 5 21.1064 6.2737 1.9962 4.9723 30.3539 14.0043
# 6 19.8940 -0.1519 -0.5922 -0.3297 14.0043 29.9183
#
#
#
# Elastic Compliance Matrix: (Units=1/GPa)
#
#
# Indices 1 2 3 4 5 6 
#
# 1 0.008467 -0.001196 -0.005412 0.001824 -0.003753 -0.003966
# 2 -0.001196 0.011249 -0.010054 0.005828 -0.002701 0.001982
# 3 -0.005412 -0.010054 0.046077 -0.010612 0.003246 0.002823
# 4 0.001824 0.005828 -0.010612 0.041519 -0.010388 0.003927
# 5 -0.003753 -0.002701 0.003246 -0.010388 0.046527 -0.019347
# 6 -0.003966 0.001982 0.002823 0.003927 -0.019347 0.045227
#
#
# Mechanical properties :
#
#
# Convention : Reuss Voigt Hill
#
# Bulk Modulus (GPa) = 30.79631 56.63777 43.71704
# Shear Modulus (GPa) = 20.55824 32.39558 26.47691
#
# Velocity S-wave (km/s) = 3.17449 3.98496 3.60259
# Velocity P-wave (km/s) = 5.34158 6.99545 6.22370
#
# Compressibility (1/GPa) = 0.03247142
#
# Stress axis : x y z
#
# Youngs Moduli (GPa) = 118.10430 88.89959 21.70260
#
# Poissons Ratio (x) = 0.10630 0.11744
# Poissons Ratio (y) = 0.14123 0.21819
# Poissons Ratio (z) = 0.63913 0.89376
#
# Static dielectric constant tensor:
#      x y z
#    x 1.822650 -0.054760 -0.025940 
#    y -0.054760 1.852300 0.159660 
#    z -0.025940 0.159660 1.862430 
# 
# From -- ./inp_files/401774.got.cif
#   From: 2010.05.17/outbox.cif.g08.bks.cpg/sg2_201_cif.got.tgz:401774.got - 2010.06.03 11:33:40.
