data_PCOD9020080
_publ_section_title
;
Structure prediction by ZEFSAII (Michael W. Deem and Ramdas Pophale) SiO2 
 PCOD9020080
Probable space group: P -1
;
_chemical_formula_sum "Si O2"
_cell_formula_units_Z 11
_cell_length_a 12.072454
_cell_length_b 7.911038
_cell_length_c 9.077299
_cell_angle_alpha 92.327348
_cell_angle_beta 137.858990
_cell_angle_gamma 64.638841
_cell_volume 467.557006
_symmetry_space_group_name_H-M "P -1"
_symmetry_group_IT_number 2
_symmetry_cell_setting 'triclinic'
loop_
_space_group_symop_operation_xyz
x,y,z
-x,-y,-z
loop_
_atom_site_type_symbol
_atom_site_label
_atom_site_fract_x
_atom_site_fract_y
_atom_site_fract_z
Si Si1 0.243841 0.169166 0.662458
Si Si2 0.282961 0.543687 0.268676
Si Si3 0.830092 0.579381 0.136718
Si Si4 0.930330 0.887206 0.117171
Si Si5 0.000000 0.000000 0.500000
Si Si6 0.477516 0.141631 0.616629
O O1 0.297157 0.278827 0.841812
O O2 0.193132 0.019862 0.678456
O O3 0.402477 0.087978 0.684052
O O4 0.022134 0.361086 0.385671
O O5 0.500000 0.500000 0.500000
O O6 0.305178 0.377757 0.403258
O O7 0.087658 0.772838 0.132513
O O8 0.265895 0.477630 0.086274
O O9 0.897046 0.713804 0.132209
O O10 0.023823 0.937022 0.344855
O O11 0.700460 0.088331 0.860189
O O12 0.500000 0.000000 0.500000
#
# Coordination Sequence:
#
# PCOD9020080 Si02
#       6
#     2   2   2   2   1   2
#     4  10  23  44  74  99 138 183 232 281 344 407
#     4  12  27  44  69 105 141 180 230 288 341 406
#     4  10  21  46  69  97 137 186 224 281 346 409
#     4  11  24  45  69  99 142 178 231 280 340 411
#     4  10  26  42  72 108 134 182 232 292 332 404
#     4  12  25  44  73 103 136 189 227 275 356 410
#
# _framework density 23.526544000000001
#
# number of rings (size 3 to 8) (size 9 to 14) (size 15 to 20)
#    0.000    1.091    3.636    1.636    5.091    5.091 
#    0.000    1.818    0.000    0.000    0.000    0.000 
#    0.000    0.000    0.000    0.000    0.000    0.000 
#
# Total GULP energy -61280.766884 kJ/mol
# GULP energy per Si atom -5570.978808 kJ/mol
# Density = 2.347300 g / cm^3
# Si number density = 23.526544 Si / 1000 Ang^3
#
#
#
# Elastic Constant Matrix: (Units=GPa)
#
#
# Indices 1 2 3 4 5 6 
#
# 1 125.5236 38.1376 14.6884 13.9778 8.0957 -44.2928
# 2 38.1376 96.0639 61.5945 30.2194 -0.0450 -37.3806
# 3 14.6884 61.5945 126.4242 38.8638 -10.2300 -29.8248
# 4 13.9778 30.2194 38.8638 66.1167 -2.7245 -20.4451
# 5 8.0957 -0.0450 -10.2300 -2.7245 28.4378 -0.9206
# 6 -44.2928 -37.3806 -29.8248 -20.4451 -0.9206 46.1715
#
#
#
# Elastic Compliance Matrix: (Units=1/GPa)
#
#
# Indices 1 2 3 4 5 6 
#
# 1 0.012654 -0.001635 0.001797 0.000696 -0.002496 0.012234
# 2 -0.001635 0.019464 -0.006746 -0.001890 -0.001821 0.008959
# 3 0.001797 -0.006746 0.013272 -0.003956 0.003975 0.003162
# 4 0.000696 -0.001890 -0.003956 0.019849 0.000452 0.005381
# 5 -0.002496 -0.001821 0.003975 0.000452 0.037334 -0.000357
# 6 0.012234 0.008959 0.003162 0.005381 -0.000357 0.045066
#
#
# Mechanical properties :
#
#
# Convention : Reuss Voigt Hill
#
# Bulk Modulus (GPa) = 31.03642 64.09475 47.56558
# Shear Modulus (GPa) = 29.14648 43.71794 36.43221
#
# Velocity S-wave (km/s) = 3.52359 4.31541 3.93944
# Velocity P-wave (km/s) = 5.45664 7.22032 6.39953
#
# Compressibility (1/GPa) = 0.03222021
#
# Stress axis : x y z
#
# Youngs Moduli (GPa) = 79.02901 51.37701 75.34895
#
# Poissons Ratio (x) = 0.08401 -0.13537
# Poissons Ratio (y) = 0.12923 0.50830
# Poissons Ratio (z) = -0.14199 0.34658
#
# Static dielectric constant tensor:
#      x y z
#    x 1.921590 0.060450 -0.051650 
#    y 0.060450 1.935800 -0.088040 
#    z -0.051650 -0.088040 1.919660 
# 
# From -- ./inp_files/166941.got.cif
#   From: 2010.05.17/outbox.cif.g08.bks.cpg/sg2_84_cif.got.tgz:166941.got - 2010.06.03 11:33:40.
