data_PCOD9020947
_publ_section_title
;
Structure prediction by ZEFSAII (Michael W. Deem and Ramdas Pophale) SiO2 
 PCOD9020947
Probable space group: P -1
;
_chemical_formula_sum "Si O2"
_cell_formula_units_Z 16
_cell_length_a 22.449814
_cell_length_b 8.298465
_cell_length_c 15.157759
_cell_angle_alpha 128.495881
_cell_angle_beta 160.031848
_cell_angle_gamma 53.604327
_cell_volume 754.383249
_symmetry_space_group_name_H-M "P -1"
_symmetry_group_IT_number 2
_symmetry_cell_setting 'triclinic'
loop_
_space_group_symop_operation_xyz
x,y,z
-x,-y,-z
loop_
_atom_site_type_symbol
_atom_site_label
_atom_site_fract_x
_atom_site_fract_y
_atom_site_fract_z
Si Si1 0.830548 0.880679 0.755805
Si Si2 0.014136 0.225494 0.562301
Si Si3 0.012218 0.106606 0.840290
Si Si4 0.627637 0.635125 0.956390
Si Si5 0.128472 0.687803 0.768382
Si Si6 0.090000 0.589079 0.348880
Si Si7 0.638629 0.082595 0.407256
Si Si8 0.472828 0.685608 0.954435
O O1 0.855288 0.645123 0.677409
O O2 0.674987 0.004366 0.530965
O O3 0.840614 0.874755 0.873352
O O4 0.000000 0.000000 0.000000
O O5 0.200615 0.233273 0.776194
O O6 0.841835 0.248850 0.269235
O O7 0.012103 0.391801 0.694370
O O8 0.000000 0.000000 0.500000
O O9 0.010372 0.287294 0.826408
O O10 0.824964 0.117655 0.632082
O O11 0.037924 0.881537 0.755806
O O12 0.707102 0.402864 0.981295
O O13 0.562615 0.650956 0.972032
O O14 0.482192 0.716941 0.713804
O O15 0.000000 0.500000 0.500000
O O16 0.268417 0.704994 0.655020
O O17 0.549207 0.892430 0.170018
O O18 0.500000 0.500000 0.000000
#
# Coordination Sequence:
#
# PCOD9020947 Si02
#       8
#     2   2   2   2   2   2   2   2
#     4  10  25  42  69  94 132 181 238 279 321 402
#     4  11  22  39  64 102 142 177 214 274 349 413
#     4  11  23  44  68  96 134 184 231 273 327 411
#     4  11  24  38  63  98 140 173 211 282 346 391
#     4  10  22  37  62  96 137 172 215 269 340 400
#     4  12  23  42  69 103 132 178 234 274 336 412
#     4  11  22  41  64 100 134 173 224 277 342 394
#     4  12  23  39  68 101 140 170 220 291 344 394
#
# _framework density 21.209378999999998
#
# number of rings (size 3 to 8) (size 9 to 14) (size 15 to 20)
#    0.000    1.000    3.750    3.750    8.750    0.000 
#    0.000    0.625    0.000    1.500    0.000    0.000 
#    0.000    0.000    0.000    0.000    0.000    0.000 
#
# Total GULP energy -89245.749361 kJ/mol
# GULP energy per Si atom -5577.859335 kJ/mol
# Density = 2.116111 g / cm^3
# Si number density = 21.209379 Si / 1000 Ang^3
#
#
#
# Elastic Constant Matrix: (Units=GPa)
#
#
# Indices 1 2 3 4 5 6 
#
# 1 82.3531 27.4447 32.9154 -25.0854 -9.0868 0.8552
# 2 27.4447 109.5602 37.7874 -43.0417 -23.1835 12.8639
# 3 32.9154 37.7874 82.6148 -33.7757 -26.3493 3.3454
# 4 -25.0854 -43.0417 -33.7757 46.2345 16.3528 -11.7260
# 5 -9.0868 -23.1835 -26.3493 16.3528 35.1367 -1.0470
# 6 0.8552 12.8639 3.3454 -11.7260 -1.0470 23.0439
#
#
#
# Elastic Compliance Matrix: (Units=1/GPa)
#
#
# Indices 1 2 3 4 5 6 
#
# 1 0.015781 -0.000949 -0.004176 0.006490 -0.002586 0.003735
# 2 -0.000949 0.015035 -0.000633 0.010961 0.004025 -0.002506
# 3 -0.004176 -0.000633 0.021086 0.009799 0.009840 0.002880
# 4 0.006490 0.010961 0.009799 0.048903 -0.005999 0.016830
# 5 -0.002586 0.004025 0.009840 -0.005999 0.040475 -0.004793
# 6 0.003735 -0.002506 0.002880 0.016830 -0.004793 0.052584
#
#
# Mechanical properties :
#
#
# Convention : Reuss Voigt Hill
#
# Bulk Modulus (GPa) = 24.76067 52.31367 38.53717
# Shear Modulus (GPa) = 22.84762 32.64172 27.74467
#
# Velocity S-wave (km/s) = 3.28570 3.92729 3.62073
# Velocity P-wave (km/s) = 5.10824 6.72932 5.97402
#
# Compressibility (1/GPa) = 0.04038662
#
# Stress axis : x y z
#
# Youngs Moduli (GPa) = 63.36734 66.51041 47.42594
#
# Poissons Ratio (x) = 0.06311 0.19805
# Poissons Ratio (y) = 0.06012 0.03001
# Poissons Ratio (z) = 0.26463 0.04208
#
# Static dielectric constant tensor:
#      x y z
#    x 1.804320 -0.031240 -0.013450 
#    y -0.031240 1.843130 -0.024870 
#    z -0.013450 -0.024870 1.779200 
# 
# From -- ./inp_files/542589.got.cif
#   From: 2010.05.17/outbox.cif.g08.bks.cpg/sg2_272_cif.got.tgz:542589.got - 2010.06.03 11:33:40.
