data_PCOD9020088
_publ_section_title
;
Structure prediction by ZEFSAII (Michael W. Deem and Ramdas Pophale) SiO2 
 PCOD9020088
Probable space group: P -1
;
_chemical_formula_sum "Si O2"
_cell_formula_units_Z 16
_cell_length_a 13.723411
_cell_length_b 8.104371
_cell_length_c 9.039380
_cell_angle_alpha 49.349747
_cell_angle_beta 107.773799
_cell_angle_gamma 97.613183
_cell_volume 723.284998
_symmetry_space_group_name_H-M "P -1"
_symmetry_group_IT_number 2
_symmetry_cell_setting 'triclinic'
loop_
_space_group_symop_operation_xyz
x,y,z
-x,-y,-z
loop_
_atom_site_type_symbol
_atom_site_label
_atom_site_fract_x
_atom_site_fract_y
_atom_site_fract_z
Si Si1 0.275770 0.865171 0.343172
Si Si2 0.148274 0.934153 0.989879
Si Si3 0.832104 0.381935 0.344255
Si Si4 0.341277 0.546414 0.973800
Si Si5 0.540477 0.222645 0.330737
Si Si6 0.882063 0.968315 0.419112
Si Si7 0.198534 0.313803 0.214616
Si Si8 0.970602 0.671607 0.112826
O O1 0.257628 0.896172 0.143449
O O2 0.186817 0.720297 0.447218
O O3 0.380391 0.737226 0.523441
O O4 0.257688 0.096265 0.288874
O O5 0.086799 0.117191 0.957236
O O6 0.139288 0.022613 0.768859
O O7 0.083561 0.724053 0.093829
O O8 0.826941 0.184489 0.342113
O O9 0.733222 0.534141 0.146992
O O10 0.940612 0.477094 0.317718
O O11 0.441891 0.389055 0.155731
O O12 0.267862 0.513201 0.101321
O O13 0.390143 0.754929 0.799493
O O14 0.500000 0.000000 0.500000
O O15 0.835503 0.766053 0.595186
O O16 0.000000 0.000000 0.500000
O O17 0.093578 0.360139 0.046944
#
# Coordination Sequence:
#
# PCOD9020088 Si02
#       8
#     2   2   2   2   2   2   2   2
#     4   9  18  32  52  81 110 142 180 235 289 328
#     4  10  20  34  52  77 113 149 189 234 286 328
#     4   9  20  35  54  80 112 147 189 232 278 340
#     4   9  18  32  54  86 110 141 183 239 284 327
#     4  10  17  30  58  89 111 136 190 241 285 338
#     4  11  21  36  54  79 112 159 200 222 272 341
#     4   9  16  33  53  75 114 145 183 228 273 330
#     4   9  18  34  53  75 107 148 184 238 278 326
#
# _framework density 22.121293000000001
#
# number of rings (size 3 to 8) (size 9 to 14) (size 15 to 20)
#    0.000    2.500    2.500    0.000    1.750    1.000 
#    0.000    0.000    0.000    1.500    0.000    0.000 
#    0.000    0.000    0.000    0.000    0.000    0.000 
#
# Total GULP energy -89083.851328 kJ/mol
# GULP energy per Si atom -5567.740708 kJ/mol
# Density = 2.207094 g / cm^3
# Si number density = 22.121293 Si / 1000 Ang^3
#
#
#
# Elastic Constant Matrix: (Units=GPa)
#
#
# Indices 1 2 3 4 5 6 
#
# 1 100.3590 21.2815 57.9179 3.1471 -16.3314 21.1895
# 2 21.2815 38.1153 38.8026 -3.7212 -11.1019 5.9284
# 3 57.9179 38.8026 174.4094 8.6531 -25.3162 20.8029
# 4 3.1471 -3.7212 8.6531 44.6968 16.4493 -7.4173
# 5 -16.3314 -11.1019 -25.3162 16.4493 45.8692 -20.6373
# 6 21.1895 5.9284 20.8029 -7.4173 -20.6373 18.2607
#
#
#
# Elastic Compliance Matrix: (Units=1/GPa)
#
#
# Indices 1 2 3 4 5 6 
#
# 1 0.016199 -0.005215 -0.002285 -0.002689 -0.005711 -0.022047
# 2 -0.005215 0.036978 -0.007089 0.004207 0.006908 0.011639
# 3 -0.002285 -0.007089 0.009077 -0.003573 0.001393 -0.005265
# 4 -0.002689 0.004207 -0.003573 0.028007 -0.008577 0.007508
# 5 -0.005711 0.006908 0.001393 -0.008577 0.050812 0.056738
# 6 -0.022047 0.011639 -0.005265 0.007508 0.056738 0.149738
#
#
# Mechanical properties :
#
#
# Convention : Reuss Voigt Hill
#
# Bulk Modulus (GPa) = 30.23429 60.98751 45.61090
# Shear Modulus (GPa) = 15.10513 34.75744 24.93129
#
# Velocity S-wave (km/s) = 2.61594 3.96816 3.36076
# Velocity P-wave (km/s) = 4.77717 6.97313 5.97687
#
# Compressibility (1/GPa) = 0.03307503
#
# Stress axis : x y z
#
# Youngs Moduli (GPa) = 61.73318 27.04342 110.16842
#
# Poissons Ratio (x) = 0.14104 0.25171
# Poissons Ratio (y) = 0.32195 0.78100
# Poissons Ratio (z) = 0.14105 0.19171
#
# Static dielectric constant tensor:
#      x y z
#    x 1.940230 -0.031260 0.059170 
#    y -0.031260 1.864850 -0.083900 
#    z 0.059170 -0.083900 1.945660 
# 
# From -- ./inp_files/216052.got.cif
#   From: 2010.05.17/outbox.cif.g08.bks.cpg/sg2_109_cif.got.tgz:216052.got - 2010.06.03 11:33:40.
