data_PCOD9020107
_publ_section_title
;
Structure prediction by ZEFSAII (Michael W. Deem and Ramdas Pophale) SiO2 
 PCOD9020107
Probable space group: P -1
;
_chemical_formula_sum "Si O2"
_cell_formula_units_Z 14
_cell_length_a 7.264454
_cell_length_b 18.775205
_cell_length_c 9.165972
_cell_angle_alpha 32.821602
_cell_angle_beta 131.084813
_cell_angle_gamma 126.564948
_cell_volume 507.847770
_symmetry_space_group_name_H-M "P -1"
_symmetry_group_IT_number 2
_symmetry_cell_setting 'triclinic'
loop_
_space_group_symop_operation_xyz
x,y,z
-x,-y,-z
loop_
_atom_site_type_symbol
_atom_site_label
_atom_site_fract_x
_atom_site_fract_y
_atom_site_fract_z
Si Si1 0.731686 0.425283 0.943562
Si Si2 0.986817 0.366169 0.632942
Si Si3 0.460705 0.085677 0.008221
Si Si4 0.983649 0.290457 0.073046
Si Si5 0.932501 0.988658 0.275154
Si Si6 0.619369 0.801859 0.914432
Si Si7 0.472876 0.353489 0.366935
O O1 0.592028 0.276860 0.160648
O O2 0.557324 0.529492 0.734772
O O3 0.000000 0.500000 0.000000
O O4 0.798029 0.387479 0.876193
O O5 0.740331 0.360071 0.423067
O O6 0.000000 0.500000 0.500000
O O7 0.214782 0.317348 0.753738
O O8 0.940345 0.270727 0.914629
O O9 0.466852 0.132826 0.095927
O O10 0.444508 0.216675 0.676002
O O11 0.987636 0.154316 0.396717
O O12 0.205206 0.001702 0.970219
O O13 0.260337 0.355326 0.134982
O O14 0.699220 0.013751 0.213594
O O15 0.183734 0.085621 0.242652
#
# Coordination Sequence:
#
# PCOD9020107 Si02
#       7
#     2   2   2   2   2   2   2
#     4  10  23  44  68 102 145 189 245 307 369 427
#     4  12  25  43  69 111 145 191 252 301 373 446
#     4  10  22  43  75 106 147 198 238 312 368 436
#     4  10  25  46  70 102 151 198 234 314 370 436
#     4  10  23  47  71 105 151 196 245 296 381 436
#     4  12  24  42  72 112 142 191 258 296 359 456
#     4  10  21  46  70  99 148 192 242 304 379 426
#
# _framework density 27.567314
#
# number of rings (size 3 to 8) (size 9 to 14) (size 15 to 20)
#    0.000    1.429    2.857    1.286    2.000    2.857 
#    2.571    0.000    0.000    0.000    0.000    0.000 
#    0.000    0.000    0.000    0.000    0.000    0.000 
#
# Total GULP energy -78214.549443 kJ/mol
# GULP energy per Si atom -5586.753532 kJ/mol
# Density = 2.750457 g / cm^3
# Si number density = 27.567314 Si / 1000 Ang^3
#
#
#
# Elastic Constant Matrix: (Units=GPa)
#
#
# Indices 1 2 3 4 5 6 
#
# 1 109.8429 55.1371 47.5400 -1.1063 37.6594 -6.1146
# 2 55.1371 174.6861 37.3904 11.3538 11.9982 19.5543
# 3 47.5400 37.3904 112.1189 -7.7801 21.3289 7.1118
# 4 -1.1063 11.3538 -7.7801 53.1419 2.0426 14.9974
# 5 37.6594 11.9982 21.3289 2.0426 46.4327 -13.2742
# 6 -6.1146 19.5543 7.1118 14.9974 -13.2742 55.6921
#
#
#
# Elastic Compliance Matrix: (Units=1/GPa)
#
#
# Indices 1 2 3 4 5 6 
#
# 1 0.016127 -0.003760 -0.003652 0.000734 -0.010198 0.000929
# 2 -0.003760 0.007394 -0.000993 -0.001184 0.000981 -0.002330
# 3 -0.003652 -0.000993 0.011806 0.002862 -0.003215 -0.003097
# 4 0.000734 -0.001184 0.002862 0.021582 -0.004483 -0.006750
# 5 -0.010198 0.000981 -0.003215 -0.004483 0.033559 0.008153
# 6 0.000929 -0.002330 -0.003097 -0.006750 0.008153 0.023032
#
#
# Mechanical properties :
#
#
# Convention : Reuss Voigt Hill
#
# Bulk Modulus (GPa) = 54.00342 75.19811 64.60076
# Shear Modulus (GPa) = 36.63492 48.15871 42.39682
#
# Velocity S-wave (km/s) = 3.64940 4.18419 3.92591
# Velocity P-wave (km/s) = 6.11471 7.11902 6.63589
#
# Compressibility (1/GPa) = 0.01851735
#
# Stress axis : x y z
#
# Youngs Moduli (GPa) = 62.00673 135.24305 84.70615
#
# Poissons Ratio (x) = 0.50849 0.30938
# Poissons Ratio (y) = 0.23314 0.08407
# Poissons Ratio (z) = 0.22647 0.13423
#
# Static dielectric constant tensor:
#      x y z
#    x 2.261430 0.157220 -0.063000 
#    y 0.157220 2.252570 -0.034130 
#    z -0.063000 -0.034130 2.198630 
# 
# From -- ./inp_files/401060.got.cif
#   From: 2010.05.17/outbox.cif.g08.bks.cpg/sg2_201_cif.got.tgz:401060.got - 2010.06.03 11:33:40.
