data_PCOD9020694
_publ_section_title
;
Structure prediction by ZEFSAII (Michael W. Deem and Ramdas Pophale) SiO2 
 PCOD9020694
Probable space group: P -1
;
_chemical_formula_sum "Si O2"
_cell_formula_units_Z 14
_cell_length_a 12.319697
_cell_length_b 22.886116
_cell_length_c 6.476408
_cell_angle_alpha 95.953180
_cell_angle_beta 63.948505
_cell_angle_gamma 149.643506
_cell_volume 659.349252
_symmetry_space_group_name_H-M "P -1"
_symmetry_group_IT_number 2
_symmetry_cell_setting 'triclinic'
loop_
_space_group_symop_operation_xyz
x,y,z
-x,-y,-z
loop_
_atom_site_type_symbol
_atom_site_label
_atom_site_fract_x
_atom_site_fract_y
_atom_site_fract_z
Si Si1 0.778355 0.595242 0.498449
Si Si2 0.905592 0.942766 0.784896
Si Si3 0.901957 0.058604 0.078538
Si Si4 0.775744 0.218995 0.427700
Si Si5 0.056952 0.432042 0.956718
Si Si6 0.878264 0.717903 0.091669
Si Si7 0.767140 0.388718 0.843035
O O1 0.882981 0.698557 0.318452
O O2 0.434234 0.445905 0.797533
O O3 0.001460 0.679492 0.526775
O O4 0.778192 0.543507 0.307761
O O5 0.066340 0.954288 0.724635
O O6 0.550924 0.773595 0.035891
O O7 0.000000 0.000000 0.500000
O O8 0.990391 0.039784 0.871868
O O9 0.563644 0.927254 0.270025
O O10 0.103479 0.204550 0.922719
O O11 0.840113 0.300937 0.245991
O O12 0.858319 0.197000 0.223299
O O13 0.255342 0.561190 0.987242
O O14 0.888345 0.396675 0.915073
O O15 0.000000 0.500000 0.500000
#
# Coordination Sequence:
#
# PCOD9020694 Si02
#       7
#     2   2   2   2   2   2   2
#     4  10  22  41  65  96 129 163 217 271 323 376
#     4  11  26  43  64  95 135 173 214 264 328 385
#     4  11  25  42  66  93 134 167 220 260 320 393
#     4  11  22  43  65  95 129 172 209 272 321 387
#     4  10  22  36  66  94 131 160 220 264 322 381
#     4  10  24  41  65  95 128 168 219 268 317 388
#     4  11  23  40  65  97 127 176 218 266 325 380
#
# _framework density 21.233056000000001
#
# number of rings (size 3 to 8) (size 9 to 14) (size 15 to 20)
#    0.000    1.429    0.000    4.286    6.000    5.143 
#    0.000    0.000    0.000    0.000    0.000    0.000 
#    0.000    0.000    0.000    0.000    0.000    0.000 
#
# Total GULP energy -78214.525110 kJ/mol
# GULP energy per Si atom -5586.751794 kJ/mol
# Density = 2.118473 g / cm^3
# Si number density = 21.233056 Si / 1000 Ang^3
#
#
#
# Elastic Constant Matrix: (Units=GPa)
#
#
# Indices 1 2 3 4 5 6 
#
# 1 126.1377 44.8661 34.7911 1.4165 27.6333 -6.8217
# 2 44.8661 59.3501 13.5137 3.2874 18.3205 -2.1167
# 3 34.7911 13.5137 62.8668 -1.4105 18.6333 4.7994
# 4 1.4165 3.2874 -1.4105 21.5117 3.9902 -5.1205
# 5 27.6333 18.3205 18.6333 3.9902 34.1610 2.0006
# 6 -6.8217 -2.1167 4.7994 -5.1205 2.0006 48.6724
#
#
#
# Elastic Compliance Matrix: (Units=1/GPa)
#
#
# Indices 1 2 3 4 5 6 
#
# 1 0.012792 -0.007339 -0.004362 0.001322 -0.004317 0.002220
# 2 -0.007339 0.024621 0.000974 -0.001790 -0.007594 0.000070
# 3 -0.004362 0.000974 0.020860 0.002618 -0.008561 -0.001999
# 4 0.001322 -0.001790 0.002618 0.049541 -0.007640 0.005375
# 5 -0.004317 -0.007594 -0.008561 -0.007640 0.042555 -0.002644
# 6 0.002220 0.000070 -0.001999 0.005375 -0.002644 0.021731
#
#
# Mechanical properties :
#
#
# Convention : Reuss Voigt Hill
#
# Bulk Modulus (GPa) = 27.15901 48.29961 37.72931
# Shear Modulus (GPa) = 24.29226 31.21459 27.75343
#
# Velocity S-wave (km/s) = 3.38609 3.83834 3.61929
# Velocity P-wave (km/s) = 5.30152 6.51464 5.93914
#
# Compressibility (1/GPa) = 0.03682020
#
# Stress axis : x y z
#
# Youngs Moduli (GPa) = 78.17202 40.61599 47.93867
#
# Poissons Ratio (x) = 0.29806 0.20911
# Poissons Ratio (y) = 0.57367 -0.04670
# Poissons Ratio (z) = 0.34100 -0.03957
#
# Static dielectric constant tensor:
#      x y z
#    x 1.756010 -0.024780 -0.004130 
#    y -0.024780 1.737750 0.014190 
#    z -0.004130 0.014190 1.784300 
# 
# From -- ./inp_files/71581.got.cif
#   From: 2010.05.17/outbox.cif.g08.bks.cpg/sg2_36_cif.got.tgz:71581.got - 2010.06.03 11:33:40.
