data_PCOD9020834
_publ_section_title
;
Structure prediction by ZEFSAII (Michael W. Deem and Ramdas Pophale) SiO2 
 PCOD9020834
Probable space group: P -1
;
_chemical_formula_sum "Si O2"
_cell_formula_units_Z 14
_cell_length_a 13.789824
_cell_length_b 24.528082
_cell_length_c 10.110954
_cell_angle_alpha 145.792047
_cell_angle_beta 146.957251
_cell_angle_gamma 24.085226
_cell_volume 731.140171
_symmetry_space_group_name_H-M "P -1"
_symmetry_group_IT_number 2
_symmetry_cell_setting 'triclinic'
loop_
_space_group_symop_operation_xyz
x,y,z
-x,-y,-z
loop_
_atom_site_type_symbol
_atom_site_label
_atom_site_fract_x
_atom_site_fract_y
_atom_site_fract_z
Si Si1 0.593726 0.147903 0.258577
Si Si2 0.777556 0.853429 0.299514
Si Si3 0.228369 0.281127 0.748693
Si Si4 0.866369 0.023739 0.600186
Si Si5 0.323010 0.638985 0.494751
Si Si6 0.745434 0.153580 0.972484
Si Si7 0.263153 0.423758 0.315882
O O1 0.711214 0.083064 0.405893
O O2 0.368831 0.316717 0.341179
O O3 0.460929 0.105446 0.958652
O O4 0.833552 0.086113 0.315419
O O5 0.773160 0.823177 0.389378
O O6 0.053415 0.701221 0.268315
O O7 0.801515 0.952927 0.470041
O O8 0.488974 0.194741 0.794819
O O9 0.986420 0.410603 0.644380
O O10 0.233743 0.356204 0.027620
O O11 0.781116 0.146669 0.842008
O O12 0.500000 0.500000 0.500000
O O13 0.493607 0.607030 0.505566
O O14 0.269115 0.745981 0.752294
O O15 0.000000 0.000000 0.000000
#
# Coordination Sequence:
#
# PCOD9020834 Si02
#       7
#     2   2   2   2   2   2   2
#     4  10  22  37  60  83 115 161 200 237 281 356
#     4  11  19  35  60  88 111 150 198 237 289 346
#     4   9  19  30  56  84 112 146 189 240 287 348
#     4  11  22  40  56  84 121 157 194 243 291 343
#     4  11  20  34  61  89 117 152 188 246 297 347
#     4  11  21  38  56  87 125 151 188 247 305 340
#     4   9  16  34  52  81 112 148 193 234 284 338
#
# _framework density 19.148174999999998
#
# number of rings (size 3 to 8) (size 9 to 14) (size 15 to 20)
#    0.000    1.714    4.286    2.143    2.000    0.571 
#    2.571    0.714    0.000    0.857    0.000    0.000 
#    0.000    0.000    0.000    0.000    0.000    0.000 
#
# Total GULP energy -77941.077690 kJ/mol
# GULP energy per Si atom -5567.219835 kJ/mol
# Density = 1.910459 g / cm^3
# Si number density = 19.148175 Si / 1000 Ang^3
#
#
#
# Elastic Constant Matrix: (Units=GPa)
#
#
# Indices 1 2 3 4 5 6 
#
# 1 79.8510 52.9943 33.8479 -4.4982 10.8645 -0.3188
# 2 52.9943 143.6019 40.9352 -16.2517 2.6147 -2.5450
# 3 33.8479 40.9352 53.7671 -18.6683 11.0977 -2.2609
# 4 -4.4982 -16.2517 -18.6683 33.1261 -4.5340 4.5551
# 5 10.8645 2.6147 11.0977 -4.5340 22.6400 -3.3767
# 6 -0.3188 -2.5450 -2.2609 4.5551 -3.3767 29.2831
#
#
#
# Elastic Compliance Matrix: (Units=1/GPa)
#
#
# Indices 1 2 3 4 5 6 
#
# 1 0.020774 -0.005449 -0.009881 -0.006118 -0.005830 -0.000731
# 2 -0.005449 0.010478 -0.004590 0.002304 0.004209 0.000624
# 3 -0.009881 -0.004590 0.035483 0.015306 -0.009237 -0.001213
# 4 -0.006118 0.002304 0.015306 0.040093 0.002506 -0.004632
# 5 -0.005830 0.004209 -0.009237 0.002506 0.052291 0.005229
# 6 -0.000731 0.000624 -0.001213 -0.004632 0.005229 0.035426
#
#
# Mechanical properties :
#
#
# Convention : Reuss Voigt Hill
#
# Bulk Modulus (GPa) = 37.17975 59.19719 48.18847
# Shear Modulus (GPa) = 20.54676 26.97268 23.75972
#
# Velocity S-wave (km/s) = 3.27928 3.75724 3.52637
# Velocity P-wave (km/s) = 5.81354 7.05726 6.46538
#
# Compressibility (1/GPa) = 0.02689636
#
# Stress axis : x y z
#
# Youngs Moduli (GPa) = 48.13817 95.43784 28.18259
#
# Poissons Ratio (x) = 0.52002 0.27846
# Poissons Ratio (y) = 0.26229 0.12935
# Poissons Ratio (z) = 0.47564 0.43802
#
# Static dielectric constant tensor:
#      x y z
#    x 1.596420 -0.144660 0.049560 
#    y -0.144660 1.433070 0.014010 
#    z 0.049560 0.014010 1.725480 
# 
# From -- ./inp_files/458317.got.cif
#   From: 2010.05.17/outbox.cif.g08.bks.cpg/sg2_230_cif.got.tgz:458317.got - 2010.06.03 11:33:40.
