data_PCOD9020335
_publ_section_title
;
Structure prediction by ZEFSAII (Michael W. Deem and Ramdas Pophale) SiO2 
 PCOD9020335
Probable space group: P -1
;
_chemical_formula_sum "Si O2"
_cell_formula_units_Z 16
_cell_length_a 10.302408
_cell_length_b 16.095715
_cell_length_c 11.991061
_cell_angle_alpha 22.238479
_cell_angle_beta 61.053957
_cell_angle_gamma 60.602233
_cell_volume 652.985212
_symmetry_space_group_name_H-M "P -1"
_symmetry_group_IT_number 2
_symmetry_cell_setting 'triclinic'
loop_
_space_group_symop_operation_xyz
x,y,z
-x,-y,-z
loop_
_atom_site_type_symbol
_atom_site_label
_atom_site_fract_x
_atom_site_fract_y
_atom_site_fract_z
Si Si1 0.243409 0.336160 0.985128
Si Si2 0.023157 0.736523 0.473820
Si Si3 0.502674 0.246688 0.239446
Si Si4 0.304079 0.746100 0.210732
Si Si5 0.467025 0.968608 0.277773
Si Si6 0.076193 0.003572 0.586657
Si Si7 0.496100 0.624613 0.504903
Si Si8 0.245328 0.512314 0.143344
O O1 0.114896 0.513785 0.768009
O O2 0.381884 0.464336 0.801071
O O3 0.183338 0.192003 0.285764
O O4 0.324307 0.154055 0.091666
O O5 0.136291 0.804791 0.247871
O O6 0.000624 0.910576 0.370527
O O7 0.874350 0.661251 0.573735
O O8 0.567088 0.180968 0.418780
O O9 0.618618 0.402553 0.946547
O O10 0.500000 0.000000 0.500000
O O11 0.344303 0.388774 0.155667
O O12 0.408391 0.711422 0.321115
O O13 0.345597 0.512017 0.422985
O O14 0.383743 0.922890 0.889297
O O15 0.503343 0.825495 0.332702
O O16 0.145006 0.749569 0.883416
O O17 0.000000 0.000000 0.500000
#
# Coordination Sequence:
#
# PCOD9020335 Si02
#       8
#     2   2   2   2   2   2   2   2
#     4  10  22  34  60  97 129 160 209 256 316 386
#     4  11  24  39  61  92 136 164 204 262 320 388
#     4  11  26  45  66  91 123 165 221 273 315 372
#     4   9  21  38  59  97 129 166 209 253 310 386
#     4  11  22  39  69  91 126 171 213 260 318 372
#     4  12  24  36  60  97 130 169 205 258 326 388
#     4   9  20  37  61  93 132 168 206 260 310 373
#     4  11  25  41  62  89 125 164 208 262 322 370
#
# _framework density 24.502853000000002
#
# number of rings (size 3 to 8) (size 9 to 14) (size 15 to 20)
#    0.000    1.500    2.500    2.250    5.250    4.000 
#    0.000    0.625    0.000    2.250    0.000    0.000 
#    0.000    0.000    0.000    0.000    0.000    0.000 
#
# Total GULP energy -89249.541926 kJ/mol
# GULP energy per Si atom -5578.096370 kJ/mol
# Density = 2.444708 g / cm^3
# Si number density = 24.502853 Si / 1000 Ang^3
#
#
#
# Elastic Constant Matrix: (Units=GPa)
#
#
# Indices 1 2 3 4 5 6 
#
# 1 62.4358 31.3744 20.7492 -14.2739 -18.3115 -8.7208
# 2 31.3744 139.8879 47.4538 -28.9661 -9.4671 -14.2476
# 3 20.7492 47.4538 84.4349 -26.6922 -15.7586 -8.4000
# 4 -14.2739 -28.9661 -26.6922 62.2398 -9.2701 -8.4239
# 5 -18.3115 -9.4671 -15.7586 -9.2701 40.0870 -0.2989
# 6 -8.7208 -14.2476 -8.4000 -8.4239 -0.2989 41.6346
#
#
#
# Elastic Compliance Matrix: (Units=1/GPa)
#
#
# Indices 1 2 3 4 5 6 
#
# 1 0.022858 -0.002607 0.000755 0.006849 0.011747 0.005518
# 2 -0.002607 0.009862 -0.003673 0.002832 0.000369 0.002663
# 3 0.000755 -0.003673 0.018356 0.008206 0.008623 0.004327
# 4 0.006849 0.002832 0.008206 0.025681 0.013032 0.009349
# 5 0.011747 0.000369 0.008623 0.013032 0.036856 0.007228
# 6 0.005518 0.002663 0.004327 0.009349 0.007228 0.028902
#
#
# Mechanical properties :
#
#
# Convention : Reuss Voigt Hill
#
# Bulk Modulus (GPa) = 24.98444 53.99037 39.48740
# Shear Modulus (GPa) = 29.95674 41.27103 35.61389
#
# Velocity S-wave (km/s) = 3.50034 4.10852 3.81656
# Velocity P-wave (km/s) = 5.15317 6.67748 5.96422
#
# Compressibility (1/GPa) = 0.04002491
#
# Stress axis : x y z
#
# Youngs Moduli (GPa) = 43.74929 101.40016 54.47768
#
# Poissons Ratio (x) = 0.26440 -0.04112
# Poissons Ratio (y) = 0.11407 0.20008
# Poissons Ratio (z) = -0.03302 0.37241
#
# Static dielectric constant tensor:
#      x y z
#    x 2.053000 0.005160 0.006750 
#    y 0.005160 1.946440 0.042210 
#    z 0.006750 0.042210 2.028920 
# 
# From -- ./inp_files/66339.got.cif
#   From: 2010.05.17/outbox.cif.g08.bks.cpg/sg2_34_cif.got.tgz:66339.got - 2010.06.03 11:33:40.
