data_PCOD9020994
_publ_section_title
;
Structure prediction by ZEFSAII (Michael W. Deem and Ramdas Pophale) SiO2 
 PCOD9020994
Probable space group: P -1
;
_chemical_formula_sum "Si O2"
_cell_formula_units_Z 16
_cell_length_a 8.669562
_cell_length_b 11.740630
_cell_length_c 8.915886
_cell_angle_alpha 93.647673
_cell_angle_beta 121.527289
_cell_angle_gamma 67.511984
_cell_volume 703.936552
_symmetry_space_group_name_H-M "P -1"
_symmetry_group_IT_number 2
_symmetry_cell_setting 'triclinic'
loop_
_space_group_symop_operation_xyz
x,y,z
-x,-y,-z
loop_
_atom_site_type_symbol
_atom_site_label
_atom_site_fract_x
_atom_site_fract_y
_atom_site_fract_z
Si Si1 0.841423 0.393693 0.531321
Si Si2 0.473073 0.716248 0.864341
Si Si3 0.212064 0.446551 0.738566
Si Si4 0.783378 0.496944 0.842587
Si Si5 0.108381 0.085741 0.014823
Si Si6 0.459367 0.983037 0.806052
Si Si7 0.034135 0.111655 0.614517
Si Si8 0.141222 0.684174 0.890168
O O1 0.708950 0.502228 0.358860
O O2 0.796456 0.442126 0.680619
O O3 0.062064 0.386559 0.614430
O O4 0.866757 0.251170 0.515470
O O5 0.595391 0.626549 0.783182
O O6 0.444125 0.850639 0.799518
O O7 0.273578 0.724861 0.848322
O O8 0.632117 0.649395 0.075392
O O9 0.087323 0.582267 0.765810
O O10 0.735163 0.405044 0.921561
O O11 0.000000 0.500000 0.000000
O O12 0.066751 0.104198 0.813914
O O13 0.341159 0.023589 0.167031
O O14 0.021984 0.206547 0.089112
O O15 0.000000 0.000000 0.000000
O O16 0.251649 0.089530 0.660149
O O17 0.500000 0.000000 0.000000
O O18 0.000000 0.000000 0.500000
#
# Coordination Sequence:
#
# PCOD9020994 Si02
#       8
#     2   2   2   2   2   2   2   2
#     4  11  22  39  65  95 135 178 212 272 347 404
#     4  11  22  39  65  97 132 168 224 276 335 403
#     4  10  22  37  63  98 131 173 212 278 340 392
#     4  11  19  37  63  92 127 170 224 269 329 403
#     4  11  23  41  70  99 124 180 239 275 328 405
#     4  10  22  41  70  96 127 181 228 279 331 405
#     4  11  25  45  67  99 141 179 222 279 345 404
#     4  11  21  38  63  94 130 167 226 280 327 398
#
# _framework density 22.729317999999999
#
# number of rings (size 3 to 8) (size 9 to 14) (size 15 to 20)
#    0.000    1.250    3.750    5.250    3.500    0.000 
#    0.000    4.375    0.000    0.000    0.000    0.000 
#    0.000    0.000    0.000    0.000    0.000    0.000 
#
# Total GULP energy -89102.126449 kJ/mol
# GULP energy per Si atom -5568.882903 kJ/mol
# Density = 2.267759 g / cm^3
# Si number density = 22.729318 Si / 1000 Ang^3
#
#
#
# Elastic Constant Matrix: (Units=GPa)
#
#
# Indices 1 2 3 4 5 6 
#
# 1 114.2287 35.5946 23.4928 5.8437 1.5806 -5.0763
# 2 35.5946 95.3845 19.0419 14.2739 -13.1359 -13.2330
# 3 23.4928 19.0419 99.3156 12.4042 -19.6797 -10.4920
# 4 5.8437 14.2739 12.4042 32.4462 -1.6643 -7.0290
# 5 1.5806 -13.1359 -19.6797 -1.6643 33.7724 -4.9953
# 6 -5.0763 -13.2330 -10.4920 -7.0290 -4.9953 37.9339
#
#
#
# Elastic Compliance Matrix: (Units=1/GPa)
#
#
# Indices 1 2 3 4 5 6 
#
# 1 0.010576 -0.004182 -0.002642 0.000493 -0.003812 -0.001185
# 2 -0.004182 0.014106 0.000599 -0.004357 0.006493 0.004574
# 3 -0.002642 0.000599 0.013097 -0.003512 0.008397 0.003933
# 4 0.000493 -0.004357 -0.003512 0.034741 -0.001488 0.003816
# 5 -0.003812 0.006493 0.008397 -0.001488 0.038445 0.008864
# 6 -0.001185 0.004574 0.003933 0.003816 0.008864 0.030761
#
#
# Mechanical properties :
#
#
# Convention : Reuss Voigt Hill
#
# Bulk Modulus (GPa) = 39.48211 51.68750 45.58480
# Shear Modulus (GPa) = 30.74661 36.21713 33.48187
#
# Velocity S-wave (km/s) = 3.68194 3.99608 3.84222
# Velocity P-wave (km/s) = 5.95683 6.63938 6.30735
#
# Compressibility (1/GPa) = 0.02532793
#
# Stress axis : x y z
#
# Youngs Moduli (GPa) = 94.55499 70.89224 76.35303
#
# Poissons Ratio (x) = 0.29650 0.20172
# Poissons Ratio (y) = 0.39546 -0.04573
# Poissons Ratio (z) = 0.24981 -0.04246
#
# Static dielectric constant tensor:
#      x y z
#    x 1.923260 -0.001000 0.013110 
#    y -0.001000 1.864750 0.016870 
#    z 0.013110 0.016870 1.931480 
# 
# From -- ./inp_files/187859.got.cif
#   From: 2010.05.17/outbox.cif.g08.bks.cpg/sg2_94_cif.got.tgz:187859.got - 2010.06.03 11:33:40.
