data_PCOD9020228
_publ_section_title
;
Structure prediction by ZEFSAII (Michael W. Deem and Ramdas Pophale) SiO2 
 PCOD9020228
Probable space group: P -1
;
_chemical_formula_sum "Si O2"
_cell_formula_units_Z 12
_cell_length_a 11.700181
_cell_length_b 4.870712
_cell_length_c 11.874333
_cell_angle_alpha 107.150047
_cell_angle_beta 132.514739
_cell_angle_gamma 64.203833
_cell_volume 449.089373
_symmetry_space_group_name_H-M "P -1"
_symmetry_group_IT_number 2
_symmetry_cell_setting 'triclinic'
loop_
_space_group_symop_operation_xyz
x,y,z
-x,-y,-z
loop_
_atom_site_type_symbol
_atom_site_label
_atom_site_fract_x
_atom_site_fract_y
_atom_site_fract_z
Si Si1 0.124083 0.669603 0.066510
Si Si2 0.348964 0.874688 0.418162
Si Si3 0.058642 0.193330 0.423541
Si Si4 0.751791 0.354601 0.089200
Si Si5 0.465475 0.149308 0.830356
Si Si6 0.660809 0.356622 0.378499
O O1 0.264425 0.721613 0.248096
O O2 0.191281 0.540688 0.974752
O O3 0.000000 0.500000 0.000000
O O4 0.000000 0.000000 0.000000
O O5 0.190766 0.154639 0.401336
O O6 0.391451 0.645812 0.526639
O O7 0.500000 0.000000 0.500000
O O8 0.154089 0.888805 0.522018
O O9 0.000000 0.500000 0.500000
O O10 0.897614 0.187738 0.251046
O O11 0.634599 0.645507 0.111446
O O12 0.649442 0.141045 0.958962
O O13 0.439515 0.830402 0.773924
O O14 0.383813 0.337519 0.686089
#
# Coordination Sequence:
#
# PCOD9020228 Si02
#       6
#     2   2   2   2   2   2
#     4  12  27  48  72 112 153 204 251 315 387 467
#     4  10  23  47  79 110 157 205 261 316 388 468
#     4  10  21  47  74 111 144 196 257 323 377 450
#     4  11  24  46  73 105 151 193 254 307 389 448
#     4  11  25  46  72 111 141 199 246 324 371 458
#     4  10  24  45  73 106 146 189 257 308 383 435
#
# _framework density 26.720739999999999
#
# number of rings (size 3 to 8) (size 9 to 14) (size 15 to 20)
#    1.000    0.333    3.333    1.000    0.000   10.000 
#    0.000    2.500    0.000    0.000    0.000    0.000 
#    0.000    0.000    0.000    0.000    0.000    0.000 
#
# Total GULP energy -67168.971419 kJ/mol
# GULP energy per Si atom -5597.414285 kJ/mol
# Density = 2.665992 g / cm^3
# Si number density = 26.720740 Si / 1000 Ang^3
#
#
#
# Elastic Constant Matrix: (Units=GPa)
#
#
# Indices 1 2 3 4 5 6 
#
# 1 166.4025 31.5695 45.1895 -9.4909 -3.3718 6.7795
# 2 31.5695 111.2792 26.4233 -8.8409 4.6902 3.4144
# 3 45.1895 26.4233 210.8000 -26.0858 16.3285 6.5901
# 4 -9.4909 -8.8409 -26.0858 37.8995 -2.5427 11.4154
# 5 -3.3718 4.6902 16.3285 -2.5427 58.0293 3.1519
# 6 6.7795 3.4144 6.5901 11.4154 3.1519 34.7278
#
#
#
# Elastic Compliance Matrix: (Units=1/GPa)
#
#
# Indices 1 2 3 4 5 6 
#
# 1 0.006753 -0.001559 -0.001160 0.001004 0.000963 -0.001362
# 2 -0.001559 0.009767 -0.000594 0.001763 -0.000578 -0.001070
# 3 -0.001160 -0.000594 0.005733 0.004031 -0.001347 -0.002006
# 4 0.001004 0.001763 0.004031 0.033575 0.000918 -0.012254
# 5 0.000963 -0.000578 -0.001347 0.000918 0.017852 -0.001798
# 6 -0.001362 -0.001070 -0.002006 -0.012254 -0.001798 0.033738
#
#
# Mechanical properties :
#
#
# Convention : Reuss Voigt Hill
#
# Bulk Modulus (GPa) = 63.99341 77.20514 70.59927
# Shear Modulus (GPa) = 41.92795 51.81795 46.87295
#
# Velocity S-wave (km/s) = 3.96550 4.40846 4.19284
# Velocity P-wave (km/s) = 6.70581 7.40734 7.06529
#
# Compressibility (1/GPa) = 0.01562661
#
# Stress axis : x y z
#
# Youngs Moduli (GPa) = 148.09116 102.38581 174.43796
#
# Poissons Ratio (x) = 0.15965 0.20233
# Poissons Ratio (y) = 0.23092 0.10355
# Poissons Ratio (z) = 0.17177 0.06078
#
# Static dielectric constant tensor:
#      x y z
#    x 2.328790 -0.291890 -0.105040 
#    y -0.291890 2.568420 0.222270 
#    z -0.105040 0.222270 2.148940 
# 
# From -- ./inp_files/411175.got.cif
#   From: 2010.05.17/outbox.cif.g08.bks.cpg/sg2_206_cif.got.tgz:411175.got - 2010.06.03 11:33:40.
