data_PCOD9020655
_publ_section_title
;
Structure prediction by ZEFSAII (Michael W. Deem and Ramdas Pophale) SiO2 
 PCOD9020655
Probable space group: P -1
;
_chemical_formula_sum "Si O2"
_cell_formula_units_Z 16
_cell_length_a 19.762666
_cell_length_b 9.436003
_cell_length_c 9.057331
_cell_angle_alpha 77.169276
_cell_angle_beta 120.839265
_cell_angle_gamma 141.742666
_cell_volume 844.641998
_symmetry_space_group_name_H-M "P -1"
_symmetry_group_IT_number 2
_symmetry_cell_setting 'triclinic'
loop_
_space_group_symop_operation_xyz
x,y,z
-x,-y,-z
loop_
_atom_site_type_symbol
_atom_site_label
_atom_site_fract_x
_atom_site_fract_y
_atom_site_fract_z
Si Si1 0.479302 0.301921 0.065357
Si Si2 0.666076 0.324963 0.719999
Si Si3 0.881851 0.458393 0.076017
Si Si4 0.641654 0.629044 0.648374
Si Si5 0.734334 0.999140 0.854765
Si Si6 0.403257 0.793200 0.669928
Si Si7 0.815801 0.098538 0.618158
Si Si8 0.277392 0.835118 0.743665
O O1 0.598306 0.370305 0.223045
O O2 0.392632 0.165559 0.149411
O O3 0.500000 0.500000 0.000000
O O4 0.396113 0.101102 0.889672
O O5 0.636439 0.449952 0.688306
O O6 0.655907 0.290710 0.540698
O O7 0.554051 0.069324 0.742947
O O8 0.805771 0.468193 0.895368
O O9 0.812764 0.357828 0.181479
O O10 0.036868 0.709095 0.206520
O O11 0.848876 0.252125 0.012016
O O12 0.500000 0.500000 0.500000
O O13 0.720466 0.808791 0.838622
O O14 0.733389 0.827755 0.573800
O O15 0.739440 0.066433 0.676823
O O16 0.336121 0.801250 0.709036
O O17 0.808281 0.182019 0.446232
#
# Coordination Sequence:
#
# PCOD9020655 Si02
#       8
#     2   2   2   2   2   2   2   2
#     4  11  24  37  62  94 133 149 198 257 321 369
#     4  11  23  38  65  87 128 156 216 252 300 372
#     4  11  22  42  61  92 124 165 212 250 299 370
#     4  10  22  36  64  93 120 153 206 258 312 347
#     4   9  21  39  59  93 114 164 199 250 298 363
#     4  11  23  40  60  95 122 167 197 258 312 360
#     4  10  23  39  67  87 124 165 214 246 302 365
#     4  11  23  38  62  91 126 164 202 254 311 361
#
# _framework density 18.942937000000001
#
# number of rings (size 3 to 8) (size 9 to 14) (size 15 to 20)
#    0.750    0.750    2.500    3.375    8.750    0.500 
#    0.000    0.000    0.000    0.750    0.000    0.000 
#    0.000    0.000    0.000    0.000    0.000    0.000 
#
# Total GULP energy -89118.201229 kJ/mol
# GULP energy per Si atom -5569.887577 kJ/mol
# Density = 1.889982 g / cm^3
# Si number density = 18.942937 Si / 1000 Ang^3
#
#
#
# Elastic Constant Matrix: (Units=GPa)
#
#
# Indices 1 2 3 4 5 6 
#
# 1 92.1862 47.1194 45.5396 -8.9528 -6.7316 -20.2567
# 2 47.1194 93.3120 37.4441 -1.6118 15.3294 -16.0011
# 3 45.5396 37.4441 98.5264 -4.7448 18.2752 -1.8812
# 4 -8.9528 -1.6118 -4.7448 19.1981 -0.7525 6.2957
# 5 -6.7316 15.3294 18.2752 -0.7525 34.6499 -4.5160
# 6 -20.2567 -16.0011 -1.8812 6.2957 -4.5160 25.8611
#
#
#
# Elastic Compliance Matrix: (Units=1/GPa)
#
#
# Indices 1 2 3 4 5 6 
#
# 1 0.026116 -0.008501 -0.011516 0.003913 0.017131 0.016397
# 2 -0.008501 0.017446 -0.001300 -0.004343 -0.008303 0.003648
# 3 -0.011516 -0.001300 0.018211 0.002215 -0.012686 -0.011255
# 4 0.003913 -0.004343 0.002215 0.058577 0.001020 -0.013543
# 5 0.017131 -0.008303 -0.012686 0.001020 0.044514 0.014883
# 6 0.016397 0.003648 -0.011255 -0.013543 0.014883 0.058846
#
#
# Mechanical properties :
#
#
# Convention : Reuss Voigt Hill
#
# Bulk Modulus (GPa) = 52.25228 60.47010 56.36119
# Shear Modulus (GPa) = 18.33348 26.20326 22.26837
#
# Velocity S-wave (km/s) = 3.11437 3.72327 3.43235
# Velocity P-wave (km/s) = 6.36995 7.10459 6.74728
#
# Compressibility (1/GPa) = 0.01913792
#
# Stress axis : x y z
#
# Youngs Moduli (GPa) = 38.29102 57.31994 54.91091
#
# Poissons Ratio (x) = 0.48730 0.63235
# Poissons Ratio (y) = 0.32552 0.07140
# Poissons Ratio (z) = 0.44096 0.07453
#
# Static dielectric constant tensor:
#      x y z
#    x 1.682260 -0.015940 -0.008580 
#    y -0.015940 1.684270 0.002880 
#    z -0.008580 0.002880 1.675550 
# 
# From -- ./inp_files/328924.got.cif
#   From: 2010.05.17/outbox.cif.g08.bks.cpg/sg2_165_cif.got.tgz:328924.got - 2010.06.03 11:33:40.
