data_PCOD9020973
_publ_section_title
;
Structure prediction by ZEFSAII (Michael W. Deem and Ramdas Pophale) SiO2 
 PCOD9020973
Probable space group: P -1
;
_chemical_formula_sum "Si O2"
_cell_formula_units_Z 16
_cell_length_a 13.808106
_cell_length_b 14.612804
_cell_length_c 7.221933
_cell_angle_alpha 104.188267
_cell_angle_beta 68.763044
_cell_angle_gamma 148.533106
_cell_volume 702.882279
_symmetry_space_group_name_H-M "P -1"
_symmetry_group_IT_number 2
_symmetry_cell_setting 'triclinic'
loop_
_space_group_symop_operation_xyz
x,y,z
-x,-y,-z
loop_
_atom_site_type_symbol
_atom_site_label
_atom_site_fract_x
_atom_site_fract_y
_atom_site_fract_z
Si Si1 0.459625 0.106584 0.102945
Si Si2 0.582144 0.398536 0.304656
Si Si3 0.437920 0.337459 0.743405
Si Si4 0.239697 0.350448 0.041179
Si Si5 0.825185 0.264153 0.978564
Si Si6 0.507427 0.843421 0.330636
Si Si7 0.907327 0.232102 0.289408
Si Si8 0.129768 0.502124 0.602408
O O1 0.462092 0.213999 0.231358
O O2 0.264123 0.895679 0.148432
O O3 0.640654 0.189083 0.103617
O O4 0.502276 0.141670 0.871356
O O5 0.457163 0.361429 0.520730
O O6 0.760844 0.494308 0.350478
O O7 0.662683 0.514975 0.128849
O O8 0.625766 0.525849 0.811571
O O9 0.441935 0.228889 0.724632
O O10 0.260390 0.258576 0.916369
O O11 0.027547 0.228016 0.168246
O O12 0.977358 0.427642 0.814367
O O13 0.910877 0.289300 0.120365
O O14 0.299971 0.697385 0.497755
O O15 0.683318 0.037205 0.392294
O O16 0.018410 0.373550 0.441150
#
# Coordination Sequence:
#
# PCOD9020973 Si02
#       8
#     2   2   2   2   2   2   2   2
#     4  10  22  44  66  94 131 163 218 259 317 377
#     4  11  20  39  65  92 126 164 207 262 311 375
#     4  10  22  37  63  94 125 166 207 260 317 371
#     4  11  20  40  62  91 131 166 207 258 317 375
#     4  10  24  43  65  93 129 175 204 265 316 372
#     4  10  22  42  64  93 126 170 208 265 311 371
#     4  11  22  43  65  90 133 165 212 260 313 375
#     4  11  23  40  63  96 124 167 213 254 319 368
#
# _framework density 22.763414000000001
#
# number of rings (size 3 to 8) (size 9 to 14) (size 15 to 20)
#    0.000    1.500    5.000    0.375    3.500    1.500 
#    4.500    1.875    0.000    2.250    0.000    0.000 
#    0.000    0.000    0.000    0.000    0.000    0.000 
#
# Total GULP energy -89563.501461 kJ/mol
# GULP energy per Si atom -5597.718841 kJ/mol
# Density = 2.271160 g / cm^3
# Si number density = 22.763414 Si / 1000 Ang^3
#
#
#
# Elastic Constant Matrix: (Units=GPa)
#
#
# Indices 1 2 3 4 5 6 
#
# 1 54.4186 17.5522 11.1533 6.0034 0.8984 5.1593
# 2 17.5522 122.6433 59.7595 0.2940 0.4049 9.9124
# 3 11.1533 59.7595 122.0478 10.1513 7.2766 15.9700
# 4 6.0034 0.2940 10.1513 36.9694 4.1874 2.2198
# 5 0.8984 0.4049 7.2766 4.1874 26.1736 3.7281
# 6 5.1593 9.9124 15.9700 2.2198 3.7281 28.0650
#
#
#
# Elastic Compliance Matrix: (Units=1/GPa)
#
#
# Indices 1 2 3 4 5 6 
#
# 1 0.019795 -0.002654 0.000065 -0.003082 0.000196 -0.002521
# 2 -0.002654 0.011196 -0.005362 0.001717 0.001236 -0.000715
# 3 0.000065 -0.005362 0.011726 -0.002688 -0.002138 -0.004294
# 4 -0.003082 0.001717 -0.002688 0.028714 -0.003727 -0.000287
# 5 0.000196 0.001236 -0.002138 -0.003727 0.039980 -0.004272
# 6 -0.002521 -0.000715 -0.004294 -0.000287 -0.004272 0.039381
#
#
# Mechanical properties :
#
#
# Convention : Reuss Voigt Hill
#
# Bulk Modulus (GPa) = 37.29414 52.89329 45.09372
# Shear Modulus (GPa) = 28.46864 32.28460 30.37662
#
# Velocity S-wave (km/s) = 3.54026 3.77007 3.65697
# Velocity P-wave (km/s) = 5.75589 6.49906 6.13873
#
# Compressibility (1/GPa) = 0.02681386
#
# Stress axis : x y z
#
# Youngs Moduli (GPa) = 50.51896 89.31673 85.27978
#
# Poissons Ratio (x) = 0.23707 -0.00556
# Poissons Ratio (y) = 0.13409 0.45731
# Poissons Ratio (z) = -0.00330 0.47896
#
# Static dielectric constant tensor:
#      x y z
#    x 1.851660 -0.013290 -0.015540 
#    y -0.013290 1.870740 0.001540 
#    z -0.015540 0.001540 1.860870 
# 
# From -- ./inp_files/314357.got.cif
#   From: 2010.05.17/outbox.cif.g08.bks.cpg/sg2_158_cif.got.tgz:314357.got - 2010.06.03 11:33:40.
