data_PCOD9020074
_publ_section_title
;
Structure prediction by ZEFSAII (Michael W. Deem and Ramdas Pophale) SiO2 
 PCOD9020074
Probable space group: P -1
;
_chemical_formula_sum "Si O2"
_cell_formula_units_Z 16
_cell_length_a 22.887941
_cell_length_b 17.269356
_cell_length_c 14.242844
_cell_angle_alpha 146.453342
_cell_angle_beta 158.715538
_cell_angle_gamma 23.617205
_cell_volume 810.671242
_symmetry_space_group_name_H-M "P -1"
_symmetry_group_IT_number 2
_symmetry_cell_setting 'triclinic'
loop_
_space_group_symop_operation_xyz
x,y,z
-x,-y,-z
loop_
_atom_site_type_symbol
_atom_site_label
_atom_site_fract_x
_atom_site_fract_y
_atom_site_fract_z
Si Si1 0.607667 0.779240 0.928660
Si Si2 0.502069 0.284826 0.936981
Si Si3 0.481168 0.629819 0.740498
Si Si4 0.640996 0.242620 0.613246
Si Si5 0.879981 0.478567 0.535414
Si Si6 0.518663 0.607189 0.262983
Si Si7 0.943490 0.117459 0.233378
Si Si8 0.990062 0.943495 0.322672
O O1 0.506800 0.736516 0.812180
O O2 0.526331 0.763336 0.693345
O O3 0.875819 0.607372 0.168232
O O4 0.500000 0.000000 0.000000
O O5 0.292177 0.357518 0.635369
O O6 0.460796 0.335188 0.036738
O O7 0.547804 0.420101 0.110247
O O8 0.730050 0.055281 0.037300
O O9 0.633087 0.403542 0.720425
O O10 0.227230 0.719942 0.450637
O O11 0.557980 0.311968 0.665077
O O12 0.887348 0.037943 0.750077
O O13 0.738244 0.545585 0.486804
O O14 0.934064 0.289790 0.389001
O O15 0.307158 0.781844 0.060542
O O16 0.013715 0.029615 0.354267
O O17 0.000000 0.000000 0.500000
#
# Coordination Sequence:
#
# PCOD9020074 Si02
#       8
#     2   2   2   2   2   2   2   2
#     4  12  24  39  59  85 124 160 193 240 297 357
#     4   9  18  35  61  91 113 151 201 245 288 347
#     4  10  22  38  60  89 118 153 198 243 293 346
#     4  11  23  39  60  89 119 155 198 243 297 346
#     4  11  20  36  62  86 122 155 196 238 298 351
#     4  10  20  35  61  91 116 151 199 251 291 341
#     4  11  18  36  61  90 117 150 197 247 288 350
#     4  10  17  30  58  88 114 144 196 247 284 333
#
# _framework density 19.736730999999999
#
# number of rings (size 3 to 8) (size 9 to 14) (size 15 to 20)
#    0.000    1.500    5.000    1.500    0.000    1.000 
#    0.000    0.000    0.000    1.500    0.000    0.000 
#    0.000    0.000    0.000    0.000    0.000    0.000 
#
# Total GULP energy -89099.894912 kJ/mol
# GULP energy per Si atom -5568.743432 kJ/mol
# Density = 1.969181 g / cm^3
# Si number density = 19.736731 Si / 1000 Ang^3
#
#
#
# Elastic Constant Matrix: (Units=GPa)
#
#
# Indices 1 2 3 4 5 6 
#
# 1 83.2078 47.2020 36.1413 -6.0439 -18.1910 -15.8882
# 2 47.2020 64.9411 15.7442 -11.4486 7.4249 -18.8436
# 3 36.1413 15.7442 82.8131 -23.1806 2.1098 -10.9626
# 4 -6.0439 -11.4486 -23.1806 32.0649 -3.4953 3.1564
# 5 -18.1910 7.4249 2.1098 -3.4953 23.2243 -9.9333
# 6 -15.8882 -18.8436 -10.9626 3.1564 -9.9333 28.7835
#
#
#
# Elastic Compliance Matrix: (Units=1/GPa)
#
#
# Indices 1 2 3 4 5 6 
#
# 1 0.087636 -0.061671 -0.030043 -0.019378 0.102780 0.034152
# 2 -0.061671 0.063497 0.020470 0.019091 -0.072659 -0.011844
# 3 -0.030043 0.020470 0.026235 0.017693 -0.032513 -0.006351
# 4 -0.019378 0.019091 0.017693 0.045514 -0.017036 -0.002330
# 5 0.102780 -0.072659 -0.032513 -0.017036 0.171993 0.058007
# 6 0.034152 -0.011844 -0.006351 -0.002330 0.058007 0.063694
#
#
# Mechanical properties :
#
#
# Convention : Reuss Voigt Hill
#
# Bulk Modulus (GPa) = 28.67064 47.68189 38.17627
# Shear Modulus (GPa) = 8.16081 25.60617 16.88349
#
# Velocity S-wave (km/s) = 2.03563 3.60583 2.92795
# Velocity P-wave (km/s) = 4.48142 6.44573 5.55115
#
# Compressibility (1/GPa) = 0.03487888
#
# Stress axis : x y z
#
# Youngs Moduli (GPa) = 11.41088 15.74867 38.11677
#
# Poissons Ratio (x) = 0.97124 1.14514
# Poissons Ratio (y) = 0.70373 -0.78024
# Poissons Ratio (z) = 0.34282 -0.32237
#
# Static dielectric constant tensor:
#      x y z
#    x 1.724840 -0.000800 -0.024880 
#    y -0.000800 1.710610 -0.053410 
#    z -0.024880 -0.053410 1.724690 
# 
# From -- ./inp_files/543186.got.cif
#   From: 2010.05.17/outbox.cif.g08.bks.cpg/sg2_272_cif.got.tgz:543186.got - 2010.06.03 11:33:40.
