data_PCOD9020338
_publ_section_title
;
Structure prediction by ZEFSAII (Michael W. Deem and Ramdas Pophale) SiO2 
 PCOD9020338
Probable space group: P -1
;
_chemical_formula_sum "Si O2"
_cell_formula_units_Z 16
_cell_length_a 12.694794
_cell_length_b 8.736987
_cell_length_c 17.879773
_cell_angle_alpha 113.183366
_cell_angle_beta 137.649931
_cell_angle_gamma 39.111525
_cell_volume 763.645874
_symmetry_space_group_name_H-M "P -1"
_symmetry_group_IT_number 2
_symmetry_cell_setting 'triclinic'
loop_
_space_group_symop_operation_xyz
x,y,z
-x,-y,-z
loop_
_atom_site_type_symbol
_atom_site_label
_atom_site_fract_x
_atom_site_fract_y
_atom_site_fract_z
Si Si1 0.217319 0.431179 0.139082
Si Si2 0.400251 0.925573 0.352417
Si Si3 0.550379 0.315483 0.911925
Si Si4 0.108883 0.453261 0.386869
Si Si5 0.388276 0.145056 0.703666
Si Si6 0.575606 0.670359 0.993894
Si Si7 0.101039 0.872540 0.111499
Si Si8 0.902193 0.699506 0.166335
O O1 0.248164 0.576442 0.138110
O O2 0.119074 0.559753 0.194904
O O3 0.463568 0.115279 0.219503
O O4 0.000000 0.500000 0.000000
O O5 0.643981 0.659927 0.474508
O O6 0.523676 0.936078 0.352268
O O7 0.242077 0.907223 0.230478
O O8 0.224126 0.182892 0.363687
O O9 0.497724 0.231585 0.803233
O O10 0.523276 0.527099 0.912411
O O11 0.380900 0.399128 0.908170
O O12 0.830275 0.065083 0.044271
O O13 0.099076 0.384382 0.625069
O O14 0.986415 0.636025 0.284041
O O15 0.337190 0.983987 0.911952
O O16 0.813492 0.583101 0.078516
O O17 0.000000 0.000000 0.000000
#
# Coordination Sequence:
#
# PCOD9020338 Si02
#       8
#     2   2   2   2   2   2   2   2
#     4  12  24  39  63 100 135 175 214 271 340 395
#     4  11  25  47  69  95 132 177 227 272 328 393
#     4  11  21  36  61 102 130 165 216 274 332 393
#     4  11  25  44  72  94 130 181 226 268 325 399
#     4  12  23  43  69  99 131 173 224 269 331 395
#     4  10  22  34  62  97 135 166 217 274 331 392
#     4  12  24  41  66  97 135 173 216 278 341 393
#     4  11  21  40  62  93 134 177 218 272 331 392
#
# _framework density 20.952119
#
# number of rings (size 3 to 8) (size 9 to 14) (size 15 to 20)
#    0.000    0.750    6.250    1.125    5.250    0.000 
#    0.000    1.250    2.750    0.000    0.000    0.000 
#    0.000    0.000    0.000    0.000    0.000    0.000 
#
# Total GULP energy -89339.331885 kJ/mol
# GULP energy per Si atom -5583.708243 kJ/mol
# Density = 2.090443 g / cm^3
# Si number density = 20.952119 Si / 1000 Ang^3
#
#
#
# Elastic Constant Matrix: (Units=GPa)
#
#
# Indices 1 2 3 4 5 6 
#
# 1 78.0202 9.6921 9.2842 -9.0870 -12.0142 -4.3493
# 2 9.6921 87.0981 8.7681 -8.9371 2.3295 10.9006
# 3 9.2842 8.7681 74.6938 -3.4113 9.2211 2.1347
# 4 -9.0870 -8.9371 -3.4113 25.4276 -2.3319 2.1431
# 5 -12.0142 2.3295 9.2211 -2.3319 27.4736 -4.7770
# 6 -4.3493 10.9006 2.1347 2.1431 -4.7770 40.1541
#
#
#
# Elastic Compliance Matrix: (Units=1/GPa)
#
#
# Indices 1 2 3 4 5 6 
#
# 1 0.015438 -0.001527 -0.002667 0.005172 0.008735 0.002992
# 2 -0.001527 0.012687 -0.000776 0.003978 -0.001841 -0.004000
# 3 -0.002667 -0.000776 0.014645 0.000300 -0.006272 -0.001619
# 4 0.005172 0.003978 0.000300 0.043271 0.005107 -0.002237
# 5 0.008735 -0.001841 -0.006272 0.005107 0.044087 0.006752
# 6 0.002992 -0.004000 -0.001619 -0.002237 0.006752 0.027323
#
#
# Mechanical properties :
#
#
# Convention : Reuss Voigt Hill
#
# Bulk Modulus (GPa) = 30.46031 32.81119 31.63575
# Shear Modulus (GPa) = 28.03707 32.74891 30.39299
#
# Velocity S-wave (km/s) = 3.66204 3.95781 3.81280
# Velocity P-wave (km/s) = 5.69652 6.04812 5.87495
#
# Compressibility (1/GPa) = 0.03282961
#
# Stress axis : x y z
#
# Youngs Moduli (GPa) = 64.77318 78.81891 68.28310
#
# Poissons Ratio (x) = 0.12034 0.18214
# Poissons Ratio (y) = 0.09890 0.05301
# Poissons Ratio (z) = 0.17278 0.06119
#
# Static dielectric constant tensor:
#      x y z
#    x 1.837110 -0.071430 -0.030420 
#    y -0.071430 1.811210 0.008480 
#    z -0.030420 0.008480 1.751780 
# 
# From -- ./inp_files/572742.got.cif
#   From: 2010.05.17/outbox.cif.g08.bks.cpg/sg2_287_cif.got.tgz:572742.got - 2010.06.03 11:33:40.
