data_PCOD9020907
_publ_section_title
;
Structure prediction by ZEFSAII (Michael W. Deem and Ramdas Pophale) SiO2 
 PCOD9020907
Probable space group: P -1
;
_chemical_formula_sum "Si O2"
_cell_formula_units_Z 10
_cell_length_a 5.386863
_cell_length_b 11.930887
_cell_length_c 14.732443
_cell_angle_alpha 139.960765
_cell_angle_beta 57.460237
_cell_angle_gamma 110.642889
_cell_volume 510.426701
_symmetry_space_group_name_H-M "P -1"
_symmetry_group_IT_number 2
_symmetry_cell_setting 'triclinic'
loop_
_space_group_symop_operation_xyz
x,y,z
-x,-y,-z
loop_
_atom_site_type_symbol
_atom_site_label
_atom_site_fract_x
_atom_site_fract_y
_atom_site_fract_z
Si Si1 0.749308 0.309529 0.814883
Si Si2 0.547132 0.468367 0.131114
Si Si3 0.633515 0.837823 0.434729
Si Si4 0.384765 0.907916 0.053487
Si Si5 0.671425 0.963613 0.225154
O O1 0.721412 0.463262 0.841679
O O2 0.456017 0.208875 0.814319
O O3 0.014229 0.170178 0.647103
O O4 0.778226 0.385951 0.957238
O O5 0.591021 0.644119 0.285412
O O6 0.521781 0.302214 0.096316
O O7 0.500000 0.000000 0.500000
O O8 0.482319 0.876299 0.585463
O O9 0.540715 0.971358 0.153616
O O10 0.026395 0.945479 0.150340
O O11 0.500000 0.000000 0.000000
#
# Coordination Sequence:
#
# PCOD9020907 Si02
#       5
#     2   2   2   2   2
#     4  10  22  37  61  98 132 163 199 254 322 389
#     4  10  23  36  64  92 128 167 210 247 316 381
#     4  12  22  36  61 101 139 159 193 260 331 385
#     4  11  26  48  66  86 122 175 225 262 298 366
#     4  11  24  41  68  95 126 164 212 261 321 371
#
# _framework density 19.591452
#
# number of rings (size 3 to 8) (size 9 to 14) (size 15 to 20)
#    0.000    1.200    2.000    4.200   11.200    0.000 
#    0.000    2.000    0.000    0.000    0.000    0.000 
#    0.000    0.000    0.000    0.000    0.000    0.000 
#
# Total GULP energy -55761.359521 kJ/mol
# GULP energy per Si atom -5576.135952 kJ/mol
# Density = 1.954686 g / cm^3
# Si number density = 19.591452 Si / 1000 Ang^3
#
#
#
# Elastic Constant Matrix: (Units=GPa)
#
#
# Indices 1 2 3 4 5 6 
#
# 1 106.1249 59.6071 62.3097 -5.9495 -9.2661 -11.5493
# 2 59.6071 135.8643 73.2672 11.3603 -4.8103 -19.2160
# 3 62.3097 73.2672 173.0690 17.2393 8.5350 -2.4111
# 4 -5.9495 11.3603 17.2393 21.0429 7.4634 1.1963
# 5 -9.2661 -4.8103 8.5350 7.4634 55.8178 1.3110
# 6 -11.5493 -19.2160 -2.4111 1.1963 1.3110 28.6142
#
#
#
# Elastic Compliance Matrix: (Units=1/GPa)
#
#
# Indices 1 2 3 4 5 6 
#
# 1 0.015922 -0.004945 -0.004716 0.010378 0.001499 0.002206
# 2 -0.004945 0.012600 -0.002865 -0.006734 0.001452 0.006439
# 3 -0.004716 -0.002865 0.009403 -0.006808 -0.001494 -0.002682
# 4 0.010378 -0.006734 -0.006808 0.061991 -0.006030 -0.003223
# 5 0.001499 0.001452 -0.001494 -0.006030 0.019305 0.000822
# 6 0.002206 0.006439 -0.002682 -0.003223 0.000822 0.040033
#
#
# Mechanical properties :
#
#
# Convention : Reuss Voigt Hill
#
# Bulk Modulus (GPa) = 77.67782 89.49179 83.58481
# Shear Modulus (GPa) = 26.51170 35.75325 31.13247
#
# Velocity S-wave (km/s) = 3.68262 4.27657 3.99066
# Velocity P-wave (km/s) = 7.60376 8.37637 7.99940
#
# Compressibility (1/GPa) = 0.01287369
#
# Stress axis : x y z
#
# Youngs Moduli (GPa) = 62.80722 79.36554 106.34802
#
# Poissons Ratio (x) = 0.39246 0.50151
# Poissons Ratio (y) = 0.31058 0.30467
# Poissons Ratio (z) = 0.29618 0.22737
#
# Static dielectric constant tensor:
#      x y z
#    x 1.805110 0.017900 0.032320 
#    y 0.017900 1.683180 0.010670 
#    z 0.032320 0.010670 1.707920 
# 
# From -- ./inp_files/22380.got.cif
#   From: 2010.05.17/outbox.cif.g08.bks.cpg/sg2_12_cif.got.tgz:22380.got - 2010.06.03 11:33:40.
