data_PCOD9020678
_publ_section_title
;
Structure prediction by ZEFSAII (Michael W. Deem and Ramdas Pophale) SiO2 
 PCOD9020678
Probable space group: P -1
;
_chemical_formula_sum "Si O2"
_cell_formula_units_Z 15
_cell_length_a 11.775771
_cell_length_b 7.956512
_cell_length_c 15.461865
_cell_angle_alpha 141.452127
_cell_angle_beta 125.821168
_cell_angle_gamma 51.415887
_cell_volume 691.413502
_symmetry_space_group_name_H-M "P -1"
_symmetry_group_IT_number 2
_symmetry_cell_setting 'triclinic'
loop_
_space_group_symop_operation_xyz
x,y,z
-x,-y,-z
loop_
_atom_site_type_symbol
_atom_site_label
_atom_site_fract_x
_atom_site_fract_y
_atom_site_fract_z
Si Si1 0.755878 0.081765 0.274840
Si Si2 0.717105 0.139645 0.777681
Si Si3 0.000000 0.000000 0.500000
Si Si4 0.025930 0.163544 0.883634
Si Si5 0.539325 0.776363 0.006042
Si Si6 0.752751 0.968711 0.924217
Si Si7 0.425789 0.320219 0.505280
Si Si8 0.716544 0.402457 0.629700
O O1 0.653180 0.413183 0.360372
O O2 0.863970 0.035831 0.385753
O O3 0.855167 0.995041 0.198972
O O4 0.653795 0.880741 0.155948
O O5 0.869353 0.112656 0.786085
O O6 0.761717 0.029463 0.851718
O O7 0.627648 0.951251 0.619126
O O8 0.617377 0.465725 0.877291
O O9 0.122342 0.809534 0.406128
O O10 0.102246 0.052063 0.964947
O O11 0.000000 0.500000 0.000000
O O12 0.392477 0.805811 0.007185
O O13 0.500000 0.000000 0.000000
O O14 0.728775 0.661175 0.797819
O O15 0.600905 0.260976 0.558810
O O16 0.362115 0.443624 0.431720
#
# Coordination Sequence:
#
# PCOD9020678 Si02
#       8
#     2   2   1   2   2   2   2   2
#     4  11  22  42  69  95 134 183 228 271 341 418
#     4  11  25  42  67 104 136 178 233 290 342 403
#     4  10  22  36  66 102 124 174 234 268 322 408
#     4  12  23  42  68  98 142 184 229 284 349 407
#     4  12  23  44  71 100 134 180 235 278 351 413
#     4  11  22  41  69 102 136 177 234 286 336 409
#     4   9  20  40  63  92 133 174 223 271 333 403
#     4   9  18  36  64  94 132 177 215 272 331 407
#
# _framework density 21.694687999999999
#
# number of rings (size 3 to 8) (size 9 to 14) (size 15 to 20)
#    0.000    1.333    4.000    1.600    1.867    0.533 
#    2.400    0.667    0.000    0.000    0.000    0.000 
#    0.000    0.000    0.000    0.000    0.000    0.000 
#
# Total GULP energy -83660.138350 kJ/mol
# GULP energy per Si atom -5577.342557 kJ/mol
# Density = 2.164531 g / cm^3
# Si number density = 21.694688 Si / 1000 Ang^3
#
#
#
# Elastic Constant Matrix: (Units=GPa)
#
#
# Indices 1 2 3 4 5 6 
#
# 1 76.6542 16.8725 25.3390 20.8057 7.5549 -24.4324
# 2 16.8725 72.7405 29.5825 1.5387 11.9400 -14.3686
# 3 25.3390 29.5825 112.2464 25.5817 9.6094 -21.8381
# 4 20.8057 1.5387 25.5817 32.6954 -3.0500 -8.7813
# 5 7.5549 11.9400 9.6094 -3.0500 40.0818 -3.9032
# 6 -24.4324 -14.3686 -21.8381 -8.7813 -3.9032 50.1198
#
#
#
# Elastic Compliance Matrix: (Units=1/GPa)
#
#
# Indices 1 2 3 4 5 6 
#
# 1 0.018721 -0.002490 0.000375 -0.010636 -0.003056 0.006475
# 2 -0.002490 0.016887 -0.004181 0.004412 -0.002995 0.002346
# 3 0.000375 -0.004181 0.012841 -0.009580 -0.002368 0.002716
# 4 -0.010636 0.004412 -0.009580 0.045340 0.006472 0.000354
# 5 -0.003056 -0.002995 -0.002368 0.006472 0.027467 -0.000107
# 6 0.006475 0.002346 0.002716 0.000354 -0.000107 0.025018
#
#
# Mechanical properties :
#
#
# Convention : Reuss Voigt Hill
#
# Bulk Modulus (GPa) = 27.88804 45.02546 36.45675
# Shear Modulus (GPa) = 29.27091 37.23588 33.25339
#
# Velocity S-wave (km/s) = 3.67716 4.14739 3.91933
# Velocity P-wave (km/s) = 5.55980 6.61314 6.10921
#
# Compressibility (1/GPa) = 0.03585766
#
# Stress axis : x y z
#
# Youngs Moduli (GPa) = 53.41545 59.21719 77.87625
#
# Poissons Ratio (x) = 0.14742 -0.02921
# Poissons Ratio (y) = 0.13298 0.32562
# Poissons Ratio (z) = -0.02004 0.24760
#
# Static dielectric constant tensor:
#      x y z
#    x 1.790880 0.034970 -0.003810 
#    y 0.034970 1.803270 -0.019110 
#    z -0.003810 -0.019110 1.798810 
# 
# From -- ./inp_files/179303.got.cif
#   From: 2010.05.17/outbox.cif.g08.bks.cpg/sg2_90_cif.got.tgz:179303.got - 2010.06.03 11:33:40.
