data_PCOD9020963
_publ_section_title
;
Structure prediction by ZEFSAII (Michael W. Deem and Ramdas Pophale) SiO2 
 PCOD9020963
Probable space group: P -1
;
_chemical_formula_sum "Si O2"
_cell_formula_units_Z 16
_cell_length_a 17.735759
_cell_length_b 11.458365
_cell_length_c 6.893967
_cell_angle_alpha 83.801143
_cell_angle_beta 77.180888
_cell_angle_gamma 145.805907
_cell_volume 650.107654
_symmetry_space_group_name_H-M "P -1"
_symmetry_group_IT_number 2
_symmetry_cell_setting 'triclinic'
loop_
_space_group_symop_operation_xyz
x,y,z
-x,-y,-z
loop_
_atom_site_type_symbol
_atom_site_label
_atom_site_fract_x
_atom_site_fract_y
_atom_site_fract_z
Si Si1 0.520181 0.162459 0.904638
Si Si2 0.990674 0.972232 0.736878
Si Si3 0.150390 0.480056 0.407402
Si Si4 0.618882 0.872210 0.336353
Si Si5 0.727270 0.578337 0.220778
Si Si6 0.732629 0.116372 0.622388
Si Si7 0.102013 0.403933 0.024047
Si Si8 0.880054 0.158594 0.863017
O O1 0.709203 0.428622 0.711517
O O2 0.423055 0.070881 0.785275
O O3 0.500000 0.000000 0.000000
O O4 0.445894 0.131543 0.134823
O O5 0.134913 0.219138 0.733262
O O6 0.004336 0.851129 0.806240
O O7 0.000000 0.000000 0.500000
O O8 0.809730 0.756352 0.961314
O O9 0.219982 0.684064 0.448573
O O10 0.129698 0.500360 0.196591
O O11 0.989287 0.220208 0.652556
O O12 0.727183 0.049803 0.428329
O O13 0.443983 0.606394 0.570799
O O14 0.715205 0.917789 0.121141
O O15 0.741979 0.457796 0.178537
O O16 0.842059 0.203557 0.710785
O O17 0.004698 0.348453 0.933655
#
# Coordination Sequence:
#
# PCOD9020963 Si02
#       8
#     2   2   2   2   2   2   2   2
#     4   9  21  36  57  85 117 153 208 251 295 342
#     4   9  21  39  69  94 117 143 195 258 319 366
#     4  11  22  36  59  89 120 162 209 246 297 348
#     4  11  22  39  59  85 127 165 202 247 296 358
#     4   9  21  40  66  94 113 152 197 253 313 357
#     4  10  23  39  56  85 124 172 204 245 296 349
#     4  10  22  37  63  92 116 150 201 256 298 359
#     4  11  24  38  58  84 128 164 210 239 297 360
#
# _framework density 24.61131
#
# number of rings (size 3 to 8) (size 9 to 14) (size 15 to 20)
#    0.750    1.250    0.000    2.625    3.500    7.000 
#    0.000    0.625    0.000    2.250    0.000    0.000 
#    0.000    0.000    0.000    0.000    0.000    0.000 
#
# Total GULP energy -89192.474993 kJ/mol
# GULP energy per Si atom -5574.529687 kJ/mol
# Density = 2.455529 g / cm^3
# Si number density = 24.611310 Si / 1000 Ang^3
#
#
#
# Elastic Constant Matrix: (Units=GPa)
#
#
# Indices 1 2 3 4 5 6 
#
# 1 52.0587 24.5461 42.9113 -0.0285 -8.2051 23.2406
# 2 24.5461 71.1878 60.7801 7.4176 -7.4366 13.7912
# 3 42.9113 60.7801 225.6657 -9.1708 -27.9236 16.4797
# 4 -0.0285 7.4176 -9.1708 52.6678 15.8866 -0.1837
# 5 -8.2051 -7.4366 -27.9236 15.8866 52.5554 2.0459
# 6 23.2406 13.7912 16.4797 -0.1837 2.0459 36.2143
#
#
#
# Elastic Compliance Matrix: (Units=1/GPa)
#
#
# Indices 1 2 3 4 5 6 
#
# 1 0.032622 -0.004468 -0.003268 -0.001120 0.003762 -0.017965
# 2 -0.004468 0.020539 -0.004483 -0.004037 0.001164 -0.003000
# 3 -0.003268 -0.004483 0.006491 0.001184 0.001917 0.000748
# 4 -0.001120 -0.004037 0.001184 0.021820 -0.006799 0.002212
# 5 0.003762 0.001164 0.001917 -0.006799 0.023051 -0.005067
# 6 -0.017965 -0.003000 0.000748 0.002212 -0.005067 0.040242
#
#
# Mechanical properties :
#
#
# Convention : Reuss Voigt Hill
#
# Bulk Modulus (GPa) = 28.39818 67.26526 47.83172
# Shear Modulus (GPa) = 27.63334 42.99914 35.31624
#
# Velocity S-wave (km/s) = 3.35444 4.18440 3.79220
# Velocity P-wave (km/s) = 5.15430 7.12292 6.21702
#
# Compressibility (1/GPa) = 0.03521353
#
# Stress axis : x y z
#
# Youngs Moduli (GPa) = 30.65423 48.68686 154.06127
#
# Poissons Ratio (x) = 0.21755 0.50343
# Poissons Ratio (y) = 0.13697 0.69070
# Poissons Ratio (z) = 0.10017 0.21828
#
# Static dielectric constant tensor:
#      x y z
#    x 2.037790 0.002060 -0.038390 
#    y 0.002060 2.010460 -0.046570 
#    z -0.038390 -0.046570 2.035790 
# 
# From -- ./inp_files/124549.got.cif
#   From: 2010.05.17/outbox.cif.g08.bks.cpg/sg2_63_cif.got.tgz:124549.got - 2010.06.03 11:33:40.
