data_PCOD9020052
_publ_section_title
;
Structure prediction by ZEFSAII (Michael W. Deem and Ramdas Pophale) SiO2 
 PCOD9020052
Probable space group: P -1
;
_chemical_formula_sum "Si O2"
_cell_formula_units_Z 12
_cell_length_a 7.113439
_cell_length_b 12.426107
_cell_length_c 10.977478
_cell_angle_alpha 145.857890
_cell_angle_beta 77.690021
_cell_angle_gamma 84.330793
_cell_volume 460.187404
_symmetry_space_group_name_H-M "P -1"
_symmetry_group_IT_number 2
_symmetry_cell_setting 'triclinic'
loop_
_space_group_symop_operation_xyz
x,y,z
-x,-y,-z
loop_
_atom_site_type_symbol
_atom_site_label
_atom_site_fract_x
_atom_site_fract_y
_atom_site_fract_z
Si Si1 0.026452 0.729453 0.607893
Si Si2 0.520785 0.585176 0.888242
Si Si3 0.092295 0.151404 0.993323
Si Si4 0.385645 0.799792 0.312224
Si Si5 0.429142 0.995600 0.143867
Si Si6 0.857510 0.693344 0.107909
O O1 0.810198 0.787155 0.611069
O O2 0.241697 0.534931 0.335978
O O3 0.990860 0.712451 0.741655
O O4 0.036203 0.956636 0.816573
O O5 0.566748 0.340806 0.706001
O O6 0.290505 0.721082 0.144401
O O7 0.408021 0.786325 0.990846
O O8 0.019664 0.300857 0.023784
O O9 0.362477 0.027409 0.832759
O O10 0.627760 0.685342 0.093578
O O11 0.265176 0.060144 0.585601
O O12 0.500000 0.000000 0.000000
O O13 0.000000 0.500000 0.000000
#
# Coordination Sequence:
#
# PCOD9020052 Si02
#       6
#     2   2   2   2   2   2
#     4  10  23  43  72  96 137 179 225 284 344 398
#     4  11  22  43  66 100 142 174 226 287 332 413
#     4  10  21  46  68 101 135 172 237 280 328 415
#     4  10  24  42  64  95 142 177 226 284 328 408
#     4  10  23  43  67 100 137 179 223 279 344 399
#     4  11  23  44  68  95 133 185 230 277 340 404
#
# _framework density 26.076333999999999
#
# number of rings (size 3 to 8) (size 9 to 14) (size 15 to 20)
#    0.000    1.667    3.333    0.000    2.333    4.000 
#    3.000   12.500    0.000    0.000    0.000    0.000 
#    0.000    0.000    0.000    0.000    0.000    0.000 
#
# Total GULP energy -66831.835680 kJ/mol
# GULP energy per Si atom -5569.319640 kJ/mol
# Density = 2.601698 g / cm^3
# Si number density = 26.076334 Si / 1000 Ang^3
#
#
#
# Elastic Constant Matrix: (Units=GPa)
#
#
# Indices 1 2 3 4 5 6 
#
# 1 67.2149 35.4726 34.2629 3.2621 4.2008 -8.8500
# 2 35.4726 255.4226 77.6209 10.2658 -3.6558 2.8947
# 3 34.2629 77.6209 221.3612 4.2148 9.7431 -11.8902
# 4 3.2621 10.2658 4.2148 45.5567 4.9767 -10.4724
# 5 4.2008 -3.6558 9.7431 4.9767 36.2850 5.0360
# 6 -8.8500 2.8947 -11.8902 -10.4724 5.0360 32.6969
#
#
#
# Elastic Compliance Matrix: (Units=1/GPa)
#
#
# Indices 1 2 3 4 5 6 
#
# 1 0.017585 -0.002074 -0.001626 0.000796 -0.002613 0.005010
# 2 -0.002074 0.004774 -0.001519 -0.001488 0.001648 -0.002267
# 3 -0.001626 -0.001519 0.005487 0.000652 -0.001830 0.002181
# 4 0.000796 -0.001488 0.000652 0.024876 -0.005125 0.009341
# 5 -0.002613 0.001648 -0.001830 -0.005125 0.030309 -0.007828
# 6 0.005010 -0.002267 0.002181 0.009341 -0.007828 0.037131
#
#
# Mechanical properties :
#
#
# Convention : Reuss Voigt Hill
#
# Bulk Modulus (GPa) = 57.44305 93.19015 75.31660
# Shear Modulus (GPa) = 36.65627 49.35054 43.00341
#
# Velocity S-wave (km/s) = 3.75337 4.35505 4.06536
# Velocity P-wave (km/s) = 6.39221 7.81688 7.14017
#
# Compressibility (1/GPa) = 0.01740855
#
# Stress axis : x y z
#
# Youngs Moduli (GPa) = 56.86565 209.47776 182.25037
#
# Poissons Ratio (x) = 0.43453 0.29626
# Poissons Ratio (y) = 0.11796 0.27680
# Poissons Ratio (z) = 0.09244 0.31816
#
# Static dielectric constant tensor:
#      x y z
#    x 2.354670 0.002580 0.001750 
#    y 0.002580 2.011140 -0.036260 
#    z 0.001750 -0.036260 1.984570 
# 
# From -- ./inp_files/27452.got.cif
#   From: 2010.05.17/outbox.cif.g08.bks.cpg/sg2_14_cif.got.tgz:27452.got - 2010.06.03 11:33:40.
