data_PCOD9020858
_publ_section_title
;
Structure prediction by ZEFSAII (Michael W. Deem and Ramdas Pophale) SiO2 
 PCOD9020858
Probable space group: P -1
;
_chemical_formula_sum "Si O2"
_cell_formula_units_Z 16
_cell_length_a 11.771908
_cell_length_b 13.920986
_cell_length_c 9.451729
_cell_angle_alpha 110.394417
_cell_angle_beta 58.814417
_cell_angle_gamma 149.149478
_cell_volume 663.014602
_symmetry_space_group_name_H-M "P -1"
_symmetry_group_IT_number 2
_symmetry_cell_setting 'triclinic'
loop_
_space_group_symop_operation_xyz
x,y,z
-x,-y,-z
loop_
_atom_site_type_symbol
_atom_site_label
_atom_site_fract_x
_atom_site_fract_y
_atom_site_fract_z
Si Si1 0.378832 0.201542 0.054801
Si Si2 0.065389 0.779040 0.725386
Si Si3 0.103124 0.252434 0.898618
Si Si4 0.755887 0.454177 0.182175
Si Si5 0.573792 0.230193 0.681929
Si Si6 0.676146 0.738761 0.447546
Si Si7 0.940124 0.465037 0.326659
Si Si8 0.915948 0.821167 0.614258
O O1 0.585541 0.301556 0.085813
O O2 0.284596 0.248541 0.196869
O O3 0.476757 0.257223 0.860600
O O4 0.142237 0.972726 0.094037
O O5 0.058312 0.655535 0.704865
O O6 0.976883 0.754286 0.614405
O O7 0.344621 0.005810 0.682942
O O8 0.897637 0.728384 0.924205
O O9 0.084826 0.351166 0.888682
O O10 0.326145 0.332329 0.727036
O O11 0.570391 0.389311 0.379298
O O12 0.895029 0.463130 0.193169
O O13 0.712904 0.355622 0.515065
O O14 0.795703 0.322663 0.677041
O O15 0.826672 0.770008 0.484381
O O16 0.837144 0.945909 0.420030
#
# Coordination Sequence:
#
# PCOD9020858 Si02
#       8
#     2   2   2   2   2   2   2   2
#     4   9  21  41  62  89 118 150 196 250 301 348
#     4  11  23  41  62  87 122 160 194 243 300 349
#     4  10  22  37  60  92 119 153 200 240 297 359
#     4  11  22  40  62  86 124 160 194 246 293 346
#     4  10  23  41  59  86 118 153 202 246 289 348
#     4   9  19  37  62  93 119 151 195 244 300 352
#     4  11  25  41  60  88 120 160 205 241 288 352
#     4   9  19  38  64  90 121 153 192 245 301 357
#
# _framework density 24.132197999999999
#
# number of rings (size 3 to 8) (size 9 to 14) (size 15 to 20)
#    0.000    2.000    0.000    3.000    0.000   10.500 
#    0.000   13.125    0.000    0.000    0.000    0.000 
#    0.000    0.000    0.000    0.000    0.000    0.000 
#
# Total GULP energy -89542.882202 kJ/mol
# GULP energy per Si atom -5596.430138 kJ/mol
# Density = 2.407727 g / cm^3
# Si number density = 24.132198 Si / 1000 Ang^3
#
#
#
# Elastic Constant Matrix: (Units=GPa)
#
#
# Indices 1 2 3 4 5 6 
#
# 1 114.3085 22.5168 19.4042 0.3651 39.9540 -0.6730
# 2 22.5168 53.1073 9.1099 0.3233 0.5694 0.1678
# 3 19.4042 9.1099 125.6656 -4.6901 -1.4072 -5.3729
# 4 0.3651 0.3233 -4.6901 27.8671 3.9696 -1.1021
# 5 39.9540 0.5694 -1.4072 3.9696 39.1936 -1.5008
# 6 -0.6730 0.1678 -5.3729 -1.1021 -1.5008 21.2840
#
#
#
# Elastic Compliance Matrix: (Units=1/GPa)
#
#
# Indices 1 2 3 4 5 6 
#
# 1 0.016205 -0.006320 -0.002209 0.001830 -0.016733 -0.001081
# 2 -0.006320 0.021547 -0.000565 -0.001154 0.006221 -0.000134
# 3 -0.002209 -0.000565 0.008512 0.001199 0.002534 0.002324
# 4 0.001830 -0.001154 0.001199 0.036930 -0.005474 0.001896
# 5 -0.016733 0.006221 0.002534 -0.005474 0.043236 0.002827
# 6 -0.001081 -0.000134 0.002324 0.001896 0.002827 0.047835
#
#
# Mechanical properties :
#
#
# Convention : Reuss Voigt Hill
#
# Bulk Modulus (GPa) = 35.61879 43.90479 39.76179
# Shear Modulus (GPa) = 24.77548 33.80563 29.29056
#
# Velocity S-wave (km/s) = 3.20762 3.74686 3.48768
# Velocity P-wave (km/s) = 5.33951 6.07878 5.72110
#
# Compressibility (1/GPa) = 0.02807507
#
# Stress axis : x y z
#
# Youngs Moduli (GPa) = 61.71015 46.41005 117.47771
#
# Poissons Ratio (x) = 0.29331 0.25955
# Poissons Ratio (y) = 0.39000 0.06640
# Poissons Ratio (z) = 0.13634 0.02623
#
# Static dielectric constant tensor:
#      x y z
#    x 1.925270 0.030020 -0.054200 
#    y 0.030020 1.921730 -0.004950 
#    z -0.054200 -0.004950 1.954250 
# 
# From -- ./inp_files/273358.got.cif
#   From: 2010.05.17/outbox.cif.g08.bks.cpg/sg2_137_cif.got.tgz:273358.got - 2010.06.03 11:33:40.
