data_PCOD9020082
_publ_section_title
;
Structure prediction by ZEFSAII (Michael W. Deem and Ramdas Pophale) SiO2 
 PCOD9020082
Probable space group: P -1
;
_chemical_formula_sum "Si O2"
_cell_formula_units_Z 12
_cell_length_a 11.438979
_cell_length_b 14.698722
_cell_length_c 7.050301
_cell_angle_alpha 83.372705
_cell_angle_beta 80.589472
_cell_angle_gamma 150.595623
_cell_volume 486.051787
_symmetry_space_group_name_H-M "P -1"
_symmetry_group_IT_number 2
_symmetry_cell_setting 'triclinic'
loop_
_space_group_symop_operation_xyz
x,y,z
-x,-y,-z
loop_
_atom_site_type_symbol
_atom_site_label
_atom_site_fract_x
_atom_site_fract_y
_atom_site_fract_z
Si Si1 0.095125 0.549932 0.175442
Si Si2 0.414589 0.207202 0.144180
Si Si3 0.619797 0.140739 0.673585
Si Si4 0.655344 0.649691 0.694887
Si Si5 0.881486 0.828289 0.179358
Si Si6 0.780130 0.066067 0.454949
O O1 0.284290 0.763261 0.165626
O O2 0.834137 0.346735 0.428603
O O3 0.297772 0.603994 0.090975
O O4 0.000000 0.500000 0.000000
O O5 0.342247 0.260857 0.192970
O O6 0.403359 0.148046 0.363731
O O7 0.171625 0.987097 0.137543
O O8 0.691419 0.087143 0.612380
O O9 0.317120 0.963800 0.717642
O O10 0.724296 0.735683 0.443876
O O11 0.900184 0.748136 0.658071
O O12 0.655540 0.612489 0.172391
O O13 0.000000 0.000000 0.000000
#
# Coordination Sequence:
#
# PCOD9020082 Si02
#       6
#     2   2   2   2   2   2
#     4  11  24  45  68 104 140 187 241 293 360 426
#     4  11  24  44  68 104 144 184 234 300 363 425
#     4  10  24  45  72 100 140 189 241 298 349 432
#     4  10  24  46  70 102 151 183 231 306 360 426
#     4  10  23  43  67 105 138 192 237 284 363 429
#     4  10  21  46  70 101 140 190 238 294 362 417
#
# _framework density 24.68873
#
# number of rings (size 3 to 8) (size 9 to 14) (size 15 to 20)
#    0.000    1.667    1.667    2.000    2.333    8.000 
#   12.000    0.000    0.000    0.000    0.000    0.000 
#    0.000    0.000    0.000    0.000    0.000    0.000 
#
# Total GULP energy -67077.563716 kJ/mol
# GULP energy per Si atom -5589.796976 kJ/mol
# Density = 2.463254 g / cm^3
# Si number density = 24.688730 Si / 1000 Ang^3
#
#
#
# Elastic Constant Matrix: (Units=GPa)
#
#
# Indices 1 2 3 4 5 6 
#
# 1 148.0245 75.4710 24.3670 22.8856 -4.1788 5.6184
# 2 75.4710 156.0199 43.1824 16.3674 -7.2132 7.6269
# 3 24.3670 43.1824 81.6889 20.7762 9.5216 -1.2278
# 4 22.8856 16.3674 20.7762 48.2262 -5.0684 -5.2199
# 5 -4.1788 -7.2132 9.5216 -5.0684 33.8900 -4.3366
# 6 5.6184 7.6269 -1.2278 -5.2199 -4.3366 37.5922
#
#
#
# Elastic Compliance Matrix: (Units=1/GPa)
#
#
# Indices 1 2 3 4 5 6 
#
# 1 0.009419 -0.004270 0.000333 -0.003327 -0.000473 -0.001047
# 2 -0.004270 0.009805 -0.004454 0.000796 0.002795 -0.001064
# 3 0.000333 -0.004454 0.016979 -0.006699 -0.006717 -0.000297
# 4 -0.003327 0.000796 -0.006699 0.026053 0.006106 0.004439
# 5 -0.000473 0.002795 -0.006717 0.006106 0.033353 0.003980
# 6 -0.001047 -0.001064 -0.000297 0.004439 0.003980 0.028039
#
#
# Mechanical properties :
#
#
# Convention : Reuss Voigt Hill
#
# Bulk Modulus (GPa) = 51.48847 74.64157 63.06502
# Shear Modulus (GPa) = 34.03613 40.12254 37.07934
#
# Velocity S-wave (km/s) = 3.71699 4.03567 3.87960
# Velocity P-wave (km/s) = 6.27070 7.21209 6.75781
#
# Compressibility (1/GPa) = 0.01942182
#
# Stress axis : x y z
#
# Youngs Moduli (GPa) = 106.17315 101.98557 58.89690
#
# Poissons Ratio (x) = 0.43547 -0.01962
# Poissons Ratio (y) = 0.45335 0.26231
# Poissons Ratio (z) = -0.03537 0.45422
#
# Static dielectric constant tensor:
#      x y z
#    x 1.956970 0.034340 0.070630 
#    y 0.034340 2.012110 0.008710 
#    z 0.070630 0.008710 2.039990 
# 
# From -- ./inp_files/77870.got.cif
#   From: 2010.05.17/outbox.cif.g08.bks.cpg/sg2_39_cif.got.tgz:77870.got - 2010.06.03 11:33:40.
