data_PCOD9020077
_publ_section_title
;
Structure prediction by ZEFSAII (Michael W. Deem and Ramdas Pophale) SiO2 
 PCOD9020077
Probable space group: P -1
;
_chemical_formula_sum "Si O2"
_cell_formula_units_Z 16
_cell_length_a 11.974296
_cell_length_b 10.659717
_cell_length_c 7.323894
_cell_angle_alpha 97.806599
_cell_angle_beta 91.721127
_cell_angle_gamma 119.504737
_cell_volume 800.956287
_symmetry_space_group_name_H-M "P -1"
_symmetry_group_IT_number 2
_symmetry_cell_setting 'triclinic'
loop_
_space_group_symop_operation_xyz
x,y,z
-x,-y,-z
loop_
_atom_site_type_symbol
_atom_site_label
_atom_site_fract_x
_atom_site_fract_y
_atom_site_fract_z
Si Si1 0.772867 0.084869 0.165902
Si Si2 0.859561 0.583962 0.383235
Si Si3 0.921199 0.087011 0.537125
Si Si4 0.645132 0.586196 0.593883
Si Si5 0.142548 0.617737 0.968991
Si Si6 0.444481 0.888470 0.641673
Si Si7 0.297639 0.101782 0.216551
Si Si8 0.745815 0.394036 0.654700
O O1 0.851152 0.082818 0.344146
O O2 0.846151 0.239739 0.095572
O O3 0.637614 0.069133 0.220890
O O4 0.749048 0.958734 0.999075
O O5 0.741625 0.610212 0.435264
O O6 0.822373 0.469341 0.195452
O O7 0.868437 0.506216 0.557409
O O8 0.982710 0.741253 0.381302
O O9 0.810955 0.008476 0.668761
O O10 0.000000 0.000000 0.500000
O O11 0.500000 0.500000 0.500000
O O12 0.681694 0.738977 0.714261
O O13 0.673842 0.485318 0.709873
O O14 0.224616 0.659663 0.167978
O O15 0.000000 0.500000 0.000000
O O16 0.565220 0.888253 0.740018
O O17 0.344577 0.734361 0.513075
O O18 0.500000 0.000000 0.500000
#
# Coordination Sequence:
#
# PCOD9020077 Si02
#       8
#     2   2   2   2   2   2   2   2
#     4  12  27  42  70 103 135 180 229 286 343 406
#     4  10  23  43  68  94 139 176 227 279 335 401
#     4  12  25  45  68 100 139 183 227 279 345 404
#     4  10  21  46  69  93 132 181 222 280 338 394
#     4  12  25  41  68 103 137 178 229 276 341 409
#     4  12  23  45  70  96 142 176 226 283 349 401
#     4  12  24  44  70 100 138 180 229 285 338 410
#     4  10  23  43  67  96 135 174 225 276 332 399
#
# _framework density 19.976122
#
# number of rings (size 3 to 8) (size 9 to 14) (size 15 to 20)
#    0.750    0.000    5.000    2.625    1.750    2.500 
#    0.000    0.625    0.000    0.000    0.000    0.000 
#    0.000    0.000    0.000    0.000    0.000    0.000 
#
# Total GULP energy -89394.592319 kJ/mol
# GULP energy per Si atom -5587.162020 kJ/mol
# Density = 1.993066 g / cm^3
# Si number density = 19.976122 Si / 1000 Ang^3
#
#
#
# Elastic Constant Matrix: (Units=GPa)
#
#
# Indices 1 2 3 4 5 6 
#
# 1 93.9216 16.7823 31.9407 -0.6609 -10.6408 4.1497
# 2 16.7823 104.0037 27.4172 11.4368 -18.3774 4.9115
# 3 31.9407 27.4172 74.6092 2.5104 -14.3501 15.3798
# 4 -0.6609 11.4368 2.5104 36.4460 -5.9239 4.2287
# 5 -10.6408 -18.3774 -14.3501 -5.9239 27.6309 3.8472
# 6 4.1497 4.9115 15.3798 4.2287 3.8472 22.1746
#
#
#
# Elastic Compliance Matrix: (Units=1/GPa)
#
#
# Indices 1 2 3 4 5 6 
#
# 1 0.012650 -0.000498 -0.005009 0.000987 0.002057 0.000672
# 2 -0.000498 0.011759 -0.002629 -0.002410 0.005922 -0.001256
# 3 -0.005009 -0.002629 0.021685 0.002768 0.010385 -0.015850
# 4 0.000987 -0.002410 0.002768 0.030323 0.007931 -0.008729
# 5 0.002057 0.005922 0.010385 0.007931 0.050691 -0.019207
# 6 0.000672 -0.001256 -0.015850 -0.008729 -0.019207 0.061239
#
#
# Mechanical properties :
#
#
# Convention : Reuss Voigt Hill
#
# Bulk Modulus (GPa) = 33.53064 47.20167 40.36615
# Shear Modulus (GPa) = 23.30362 30.34327 26.82345
#
# Velocity S-wave (km/s) = 3.41922 3.90163 3.66837
# Velocity P-wave (km/s) = 5.69297 6.63154 6.18010
#
# Compressibility (1/GPa) = 0.02982347
#
# Stress axis : x y z
#
# Youngs Moduli (GPa) = 79.05301 85.04003 46.11455
#
# Poissons Ratio (x) = 0.04231 0.23097
# Poissons Ratio (y) = 0.03933 0.12124
# Poissons Ratio (z) = 0.39594 0.22359
#
# Static dielectric constant tensor:
#      x y z
#    x 1.731230 0.011000 0.004900 
#    y 0.011000 1.721150 -0.002090 
#    z 0.004900 -0.002090 1.707070 
# 
# From -- ./inp_files/71288.got.cif
#   From: 2010.05.17/outbox.cif.g08.bks.cpg/sg2_36_cif.got.tgz:71288.got - 2010.06.03 11:33:40.
