data_PCOD9020048
_publ_section_title
;
Structure prediction by ZEFSAII (Michael W. Deem and Ramdas Pophale) SiO2 
 PCOD9020048
Probable space group: P -1
;
_chemical_formula_sum "Si O2"
_cell_formula_units_Z 16
_cell_length_a 11.150843
_cell_length_b 5.971829
_cell_length_c 20.698137
_cell_angle_alpha 63.864529
_cell_angle_beta 139.336377
_cell_angle_gamma 127.847422
_cell_volume 708.372968
_symmetry_space_group_name_H-M "P -1"
_symmetry_group_IT_number 2
_symmetry_cell_setting 'triclinic'
loop_
_space_group_symop_operation_xyz
x,y,z
-x,-y,-z
loop_
_atom_site_type_symbol
_atom_site_label
_atom_site_fract_x
_atom_site_fract_y
_atom_site_fract_z
Si Si1 0.662825 0.325321 0.041553
Si Si2 0.914636 0.000461 0.674592
Si Si3 0.592020 0.411278 0.635255
Si Si4 0.322316 0.497489 0.835698
Si Si5 0.706164 0.362230 0.542927
Si Si6 0.933288 0.057646 0.394979
Si Si7 0.969321 0.291027 0.952695
Si Si8 0.506962 0.994441 0.246437
O O1 0.717662 0.353614 0.136785
O O2 0.872654 0.495134 0.063761
O O3 0.520902 0.469179 0.944629
O O4 0.500000 0.000000 0.000000
O O5 0.113934 0.208589 0.771611
O O6 0.979655 0.015974 0.624254
O O7 0.725837 0.079616 0.582574
O O8 0.812486 0.688763 0.704562
O O9 0.622699 0.367402 0.579048
O O10 0.418882 0.513160 0.565441
O O11 0.525978 0.113991 0.680167
O O12 0.396362 0.682814 0.777355
O O13 0.949979 0.599995 0.604792
O O14 0.684763 0.919544 0.303831
O O15 0.000000 0.000000 0.500000
O O16 0.723635 0.167994 0.855123
O O17 0.000000 0.500000 0.000000
O O18 0.000000 0.000000 0.000000
#
# Coordination Sequence:
#
# PCOD9020048 Si02
#       8
#     2   2   2   2   2   2   2   2
#     4  11  27  49  78 101 150 193 243 311 394 457
#     4  11  25  42  74 101 143 190 254 295 371 455
#     4  10  24  43  69 102 142 187 239 306 369 437
#     4  11  26  47  72 108 139 189 246 302 374 464
#     4  10  21  46  67  97 145 188 238 301 368 441
#     4  11  24  45  68 104 148 194 239 303 372 444
#     4  12  29  51  77 115 158 197 255 326 391 461
#     4  12  25  47  72 105 145 192 247 309 375 454
#
# _framework density 22.586970000000001
#
# number of rings (size 3 to 8) (size 9 to 14) (size 15 to 20)
#    0.000    1.000    3.750    1.125    8.750    0.500 
#    2.250    0.000    0.000    0.000    0.000    0.000 
#    0.000    0.000    0.000    0.000    0.000    0.000 
#
# Total GULP energy -89139.730156 kJ/mol
# GULP energy per Si atom -5571.233135 kJ/mol
# Density = 2.253556 g / cm^3
# Si number density = 22.586970 Si / 1000 Ang^3
#
#
#
# Elastic Constant Matrix: (Units=GPa)
#
#
# Indices 1 2 3 4 5 6 
#
# 1 101.0521 43.6123 35.9825 -0.6717 15.9595 23.3440
# 2 43.6123 113.0805 25.9678 6.8858 -12.4956 30.2187
# 3 35.9825 25.9678 89.4525 3.6135 17.4001 12.4349
# 4 -0.6717 6.8858 3.6135 45.9170 9.5385 1.6186
# 5 15.9595 -12.4956 17.4001 9.5385 39.2727 -1.5693
# 6 23.3440 30.2187 12.4349 1.6186 -1.5693 38.0125
#
#
#
# Elastic Compliance Matrix: (Units=1/GPa)
#
#
# Indices 1 2 3 4 5 6 
#
# 1 0.015381 -0.004980 -0.002688 0.002931 -0.007557 -0.005044
# 2 -0.004980 0.014392 -0.002686 -0.003510 0.008366 -0.007009
# 3 -0.002688 -0.002686 0.014419 0.000589 -0.006342 -0.001218
# 4 0.002931 -0.003510 0.000589 0.024075 -0.008439 -0.000576
# 5 -0.007557 0.008366 -0.006342 -0.008439 0.036132 0.001916
# 6 -0.005044 -0.007009 -0.001218 -0.000576 0.001916 0.035479
#
#
# Mechanical properties :
#
#
# Convention : Reuss Voigt Hill
#
# Bulk Modulus (GPa) = 42.58342 57.19004 49.88673
# Shear Modulus (GPa) = 29.68861 37.84194 33.76527
#
# Velocity S-wave (km/s) = 3.62942 4.09759 3.87059
# Velocity P-wave (km/s) = 6.03801 6.91100 6.48920
#
# Compressibility (1/GPa) = 0.02348332
#
# Stress axis : x y z
#
# Youngs Moduli (GPa) = 65.01615 69.48253 69.35106
#
# Poissons Ratio (x) = 0.34605 0.18645
# Poissons Ratio (y) = 0.32381 0.18625
# Poissons Ratio (z) = 0.17479 0.18661
#
# Static dielectric constant tensor:
#      x y z
#    x 1.837810 -0.016920 0.026640 
#    y -0.016920 2.050760 -0.080070 
#    z 0.026640 -0.080070 1.904680 
# 
# From -- ./inp_files/592698.got.cif
#   From: 2010.05.17/outbox.cif.g08.bks.cpg/sg2_297_cif.got.tgz:592698.got - 2010.06.03 11:33:40.
