data_PCOD9020682
_publ_section_title
;
Structure prediction by ZEFSAII (Michael W. Deem and Ramdas Pophale) SiO2 
 PCOD9020682
Probable space group: P -1
;
_chemical_formula_sum "Si O2"
_cell_formula_units_Z 16
_cell_length_a 9.317894
_cell_length_b 10.742672
_cell_length_c 13.907310
_cell_angle_alpha 55.841359
_cell_angle_beta 104.998007
_cell_angle_gamma 60.379242
_cell_volume 667.396907
_symmetry_space_group_name_H-M "P -1"
_symmetry_group_IT_number 2
_symmetry_cell_setting 'triclinic'
loop_
_space_group_symop_operation_xyz
x,y,z
-x,-y,-z
loop_
_atom_site_type_symbol
_atom_site_label
_atom_site_fract_x
_atom_site_fract_y
_atom_site_fract_z
Si Si1 0.734965 0.690688 0.014532
Si Si2 0.216645 0.130073 0.289648
Si Si3 0.225131 0.971042 0.869122
Si Si4 0.173831 0.553330 0.677930
Si Si5 0.243459 0.794907 0.327666
Si Si6 0.463957 0.549952 0.856663
Si Si7 0.636303 0.029254 0.391806
Si Si8 0.688051 0.060236 0.891572
O O1 0.578854 0.915459 0.691156
O O2 0.734083 0.869400 0.924132
O O3 0.816932 0.590211 0.182219
O O4 0.941103 0.427516 0.106668
O O5 0.289500 0.047148 0.450150
O O6 0.234334 0.951708 0.322967
O O7 0.451043 0.859146 0.896297
O O8 0.963744 0.155274 0.696481
O O9 0.307689 0.734248 0.014930
O O10 0.207966 0.057562 0.933136
O O11 0.242456 0.642319 0.720572
O O12 0.397609 0.336528 0.738449
O O13 0.898085 0.789782 0.488644
O O14 0.500000 0.500000 0.500000
O O15 0.205213 0.888430 0.172493
O O16 0.456076 0.728230 0.749862
O O17 0.500000 0.500000 0.000000
#
# Coordination Sequence:
#
# PCOD9020682 Si02
#       8
#     2   2   2   2   2   2   2   2
#     4   9  20  42  71  98 130 170 234 277 326 410
#     4  10  25  42  69 101 133 183 223 282 342 395
#     4  10  24  42  69 100 130 182 221 281 339 402
#     4   9  20  39  67 100 132 177 223 270 342 405
#     4  12  29  43  64  98 143 176 225 280 334 413
#     4  10  22  36  66 103 132 173 228 282 328 399
#     4  10  22  43  67  99 138 179 221 284 343 403
#     4  10  22  44  69  97 132 184 221 279 338 394
#
# _framework density 23.973739999999999
#
# number of rings (size 3 to 8) (size 9 to 14) (size 15 to 20)
#    0.000    2.250    0.000    2.250   10.500    7.500 
#    0.000    1.250    0.000    0.000    0.000    0.000 
#    0.000    0.000    0.000    0.000    0.000    0.000 
#
# Total GULP energy -89347.600299 kJ/mol
# GULP energy per Si atom -5584.225019 kJ/mol
# Density = 2.391917 g / cm^3
# Si number density = 23.973740 Si / 1000 Ang^3
#
#
#
# Elastic Constant Matrix: (Units=GPa)
#
#
# Indices 1 2 3 4 5 6 
#
# 1 139.3399 64.0241 71.4090 -26.6710 16.3600 -8.8469
# 2 64.0241 124.4443 33.5686 -13.6590 17.1195 17.9178
# 3 71.4090 33.5686 81.2334 -12.6828 12.6503 8.9027
# 4 -26.6710 -13.6590 -12.6828 32.5771 -9.6338 2.1667
# 5 16.3600 17.1195 12.6503 -9.6338 46.2851 -6.4114
# 6 -8.8469 17.9178 8.9027 2.1667 -6.4114 36.4076
#
#
#
# Elastic Compliance Matrix: (Units=1/GPa)
#
#
# Indices 1 2 3 4 5 6 
#
# 1 0.020768 -0.007910 -0.015711 0.007677 0.003264 0.012899
# 2 -0.007910 0.013253 0.003214 -0.000315 -0.004434 -0.009992
# 3 -0.015711 0.003214 0.026698 -0.001773 -0.005062 -0.012714
# 4 0.007677 -0.000315 -0.001773 0.037831 0.005935 0.001248
# 5 0.003264 -0.004434 -0.005062 0.005935 0.025876 0.008417
# 6 0.012899 -0.009992 -0.012714 0.001248 0.008417 0.040036
#
#
# Mechanical properties :
#
#
# Convention : Reuss Voigt Hill
#
# Bulk Modulus (GPa) = 50.24294 75.89122 63.06708
# Shear Modulus (GPa) = 23.59468 34.78836 29.19152
#
# Velocity S-wave (km/s) = 3.14058 3.81347 3.49326
# Velocity P-wave (km/s) = 5.84414 7.14946 6.52950
#
# Compressibility (1/GPa) = 0.01990330
#
# Stress axis : x y z
#
# Youngs Moduli (GPa) = 48.15051 75.45636 37.45604
#
# Poissons Ratio (x) = 0.59689 0.58847
# Poissons Ratio (y) = 0.38089 -0.12037
# Poissons Ratio (z) = 0.75649 -0.24249
#
# Static dielectric constant tensor:
#      x y z
#    x 1.980180 0.027180 0.071420 
#    y 0.027180 1.996550 0.091830 
#    z 0.071420 0.091830 1.962870 
# 
# From -- ./inp_files/427832.got.cif
#   From: 2010.05.17/outbox.cif.g08.bks.cpg/sg2_214_cif.got.tgz:427832.got - 2010.06.03 11:33:40.
