data_PCOD9020429
_publ_section_title
;
Structure prediction by ZEFSAII (Michael W. Deem and Ramdas Pophale) SiO2 
 PCOD9020429
Probable space group: P -1
;
_chemical_formula_sum "Si O2"
_cell_formula_units_Z 16
_cell_length_a 18.886965
_cell_length_b 8.870215
_cell_length_c 12.710933
_cell_angle_alpha 140.816050
_cell_angle_beta 140.017553
_cell_angle_gamma 33.992727
_cell_volume 704.677996
_symmetry_space_group_name_H-M "P -1"
_symmetry_group_IT_number 2
_symmetry_cell_setting 'triclinic'
loop_
_space_group_symop_operation_xyz
x,y,z
-x,-y,-z
loop_
_atom_site_type_symbol
_atom_site_label
_atom_site_fract_x
_atom_site_fract_y
_atom_site_fract_z
Si Si1 0.476914 0.535403 0.365086
Si Si2 0.718973 0.885628 0.269269
Si Si3 0.858503 0.325175 0.512168
Si Si4 0.725528 0.571460 0.904721
Si Si5 0.999777 0.277818 0.458032
Si Si6 0.065487 0.677625 0.176136
Si Si7 0.529247 0.818112 0.146303
Si Si8 0.557542 0.570134 0.266207
O O1 0.500000 0.500000 0.500000
O O2 0.327026 0.623608 0.230595
O O3 0.502170 0.697458 0.389590
O O4 0.584804 0.204957 0.267750
O O5 0.839626 0.919201 0.440570
O O6 0.667570 0.775830 0.244366
O O7 0.759606 0.674173 0.102935
O O8 0.849622 0.432905 0.678237
O O9 0.721804 0.358121 0.345433
O O10 0.898943 0.456770 0.536666
O O11 0.000000 0.000000 0.500000
O O12 0.842521 0.412286 0.868975
O O13 0.598546 0.863918 0.863328
O O14 0.000000 0.500000 0.500000
O O15 0.972773 0.035397 0.263766
O O16 0.000000 0.500000 0.000000
O O17 0.527622 0.782455 0.249575
O O18 0.509351 0.592377 0.940928
#
# Coordination Sequence:
#
# PCOD9020429 Si02
#       8
#     2   2   2   2   2   2   2   2
#     4  11  20  36  62  91 126 172 220 271 326 403
#     4  11  20  41  61  93 129 177 230 268 339 412
#     4  10  22  40  66  94 129 183 228 275 332 414
#     4  11  21  39  61  93 125 173 224 274 334 405
#     4  11  24  43  69  95 130 177 226 285 343 400
#     4  11  25  43  66  98 130 178 230 281 336 406
#     4  10  22  35  64  95 133 175 217 283 335 400
#     4  11  20  38  60  99 132 169 231 274 340 392
#
# _framework density 22.705406
#
# number of rings (size 3 to 8) (size 9 to 14) (size 15 to 20)
#    0.000    1.250    2.500    5.250    3.500    0.000 
#    0.000   10.625    0.000    0.000    0.000    0.000 
#    0.000    0.000    0.000    0.000    0.000    0.000 
#
# Total GULP energy -89197.088031 kJ/mol
# GULP energy per Si atom -5574.818002 kJ/mol
# Density = 2.265373 g / cm^3
# Si number density = 22.705406 Si / 1000 Ang^3
#
#
#
# Elastic Constant Matrix: (Units=GPa)
#
#
# Indices 1 2 3 4 5 6 
#
# 1 204.4164 16.3048 44.4430 2.9758 -7.5000 16.0484
# 2 16.3048 21.5831 6.8873 -0.7223 0.4245 15.8613
# 3 44.4430 6.8873 100.8279 10.7752 7.6464 9.3681
# 4 2.9758 -0.7223 10.7752 22.9017 -5.5688 -1.3639
# 5 -7.5000 0.4245 7.6464 -5.5688 49.6274 -9.1111
# 6 16.0484 15.8613 9.3681 -1.3639 -9.1111 36.6607
#
#
#
# Elastic Compliance Matrix: (Units=1/GPa)
#
#
# Indices 1 2 3 4 5 6 
#
# 1 0.005752 -0.003579 -0.002462 0.000629 0.001353 0.000020
# 2 -0.003579 0.072262 0.000213 -0.000960 -0.007092 -0.031550
# 3 -0.002462 0.000213 0.012263 -0.006513 -0.003597 -0.003284
# 4 0.000629 -0.000960 -0.006513 0.048792 0.007593 0.005507
# 5 0.001353 -0.007092 -0.003597 0.007593 0.023572 0.009536
# 6 0.000020 -0.031550 -0.003284 0.005507 0.009536 0.044333
#
#
# Mechanical properties :
#
#
# Convention : Reuss Voigt Hill
#
# Bulk Modulus (GPa) = 12.71948 51.34418 32.03183
# Shear Modulus (GPa) = 20.42179 39.11744 29.76962
#
# Velocity S-wave (km/s) = 3.00229 4.15520 3.62487
# Velocity P-wave (km/s) = 4.19910 6.75893 5.62653
#
# Compressibility (1/GPa) = 0.07861957
#
# Stress axis : x y z
#
# Youngs Moduli (GPa) = 173.85843 13.83853 81.54830
#
# Poissons Ratio (x) = 0.04954 0.20081
# Poissons Ratio (y) = 0.62233 -0.01741
# Poissons Ratio (z) = 0.42811 -0.00295
#
# Static dielectric constant tensor:
#      x y z
#    x 1.903080 0.092210 -0.008990 
#    y 0.092210 1.958330 0.024350 
#    z -0.008990 0.024350 1.926160 
# 
# From -- ./inp_files/259579.got.cif
#   From: 2010.05.17/outbox.cif.g08.bks.cpg/sg2_130_cif.got.tgz:259579.got - 2010.06.03 11:33:40.
