data_PCOD9020218
_publ_section_title
;
Structure prediction by ZEFSAII (Michael W. Deem and Ramdas Pophale) SiO2 
 PCOD9020218
Probable space group: P -1
;
_chemical_formula_sum "Si O2"
_cell_formula_units_Z 14
_cell_length_a 12.058123
_cell_length_b 9.417532
_cell_length_c 8.738534
_cell_angle_alpha 68.240154
_cell_angle_beta 64.173115
_cell_angle_gamma 115.565840
_cell_volume 584.672253
_symmetry_space_group_name_H-M "P -1"
_symmetry_group_IT_number 2
_symmetry_cell_setting 'triclinic'
loop_
_space_group_symop_operation_xyz
x,y,z
-x,-y,-z
loop_
_atom_site_type_symbol
_atom_site_label
_atom_site_fract_x
_atom_site_fract_y
_atom_site_fract_z
Si Si1 0.595188 0.077422 0.073910
Si Si2 0.218917 0.348341 0.635027
Si Si3 0.170647 0.997056 0.939553
Si Si4 0.259145 0.716098 0.606053
Si Si5 0.284794 0.567743 0.948989
Si Si6 0.077758 0.859989 0.690562
Si Si7 0.605766 0.656060 0.731525
O O1 0.714768 0.033440 0.040947
O O2 0.694029 0.323578 0.948680
O O3 0.447799 0.938397 0.349853
O O4 0.500000 0.000000 0.000000
O O5 0.233074 0.530765 0.614991
O O6 0.342719 0.427291 0.386468
O O7 0.257383 0.240960 0.771251
O O8 0.012658 0.144712 0.805859
O O9 0.122020 0.906945 0.828081
O O10 0.239076 0.658135 0.818352
O O11 0.126710 0.736164 0.645059
O O12 0.467244 0.655881 0.748503
O O13 0.128386 0.308048 0.145113
O O14 0.213097 0.097793 0.440608
O O15 0.500000 0.500000 0.000000
#
# Coordination Sequence:
#
# PCOD9020218 Si02
#       7
#     2   2   2   2   2   2   2
#     4  12  27  44  71 109 155 198 244 305 377 444
#     4  10  23  42  74 111 138 190 248 311 364 423
#     4  10  21  47  72 108 147 184 254 308 365 437
#     4  12  22  43  75 109 142 186 254 304 356 435
#     4  12  24  46  77 106 142 198 250 307 361 434
#     4  11  22  46  82 106 138 198 250 306 364 429
#     4  11  27  48  68 107 158 194 240 295 378 456
#
# _framework density 23.945039000000001
#
# number of rings (size 3 to 8) (size 9 to 14) (size 15 to 20)
#    0.000    0.857    4.286    3.429    2.000    2.857 
#    2.571    1.429    0.000    0.000    0.000    0.000 
#    0.000    0.000    0.000    0.000    0.000    0.000 
#
# Total GULP energy -78355.551617 kJ/mol
# GULP energy per Si atom -5596.825115 kJ/mol
# Density = 2.389054 g / cm^3
# Si number density = 23.945039 Si / 1000 Ang^3
#
#
#
# Elastic Constant Matrix: (Units=GPa)
#
#
# Indices 1 2 3 4 5 6 
#
# 1 87.9820 37.3728 36.1117 10.8239 -8.0417 -8.8347
# 2 37.3728 155.3282 30.3167 1.9420 -0.0603 -7.7670
# 3 36.1117 30.3167 125.3869 -6.9089 -14.6819 9.5547
# 4 10.8239 1.9420 -6.9089 37.0376 -4.1532 -15.7972
# 5 -8.0417 -0.0603 -14.6819 -4.1532 31.2582 4.4960
# 6 -8.8347 -7.7670 9.5547 -15.7972 4.4960 36.6709
#
#
#
# Elastic Compliance Matrix: (Units=1/GPa)
#
#
# Indices 1 2 3 4 5 6 
#
# 1 0.014902 -0.002665 -0.003894 -0.003857 0.001166 0.002236
# 2 -0.002665 0.007408 -0.001284 0.000739 -0.001429 0.001755
# 3 -0.003894 -0.001284 0.010340 0.002140 0.004648 -0.003552
# 4 -0.003857 0.000739 0.002140 0.034402 0.002693 0.013159
# 5 0.001166 -0.001429 0.004648 0.002693 0.035465 -0.004421
# 6 0.002236 0.001755 -0.003552 0.013159 -0.004421 0.035316
#
#
# Mechanical properties :
#
#
# Convention : Reuss Voigt Hill
#
# Bulk Modulus (GPa) = 58.94769 64.03329 61.49049
# Shear Modulus (GPa) = 31.41239 38.65306 35.03273
#
# Velocity S-wave (km/s) = 3.62588 4.02212 3.82913
# Velocity P-wave (km/s) = 6.49621 6.95484 6.72943
#
# Compressibility (1/GPa) = 0.01696419
#
# Stress axis : x y z
#
# Youngs Moduli (GPa) = 67.10627 134.99410 96.71220
#
# Poissons Ratio (x) = 0.35976 0.37658
# Poissons Ratio (y) = 0.17884 0.12416
# Poissons Ratio (z) = 0.26130 0.17331
#
# Static dielectric constant tensor:
#      x y z
#    x 1.978950 0.008260 0.019260 
#    y 0.008260 1.991810 -0.031620 
#    z 0.019260 -0.031620 1.906320 
# 
# From -- ./inp_files/242895.got.cif
#   From: 2010.05.17/outbox.cif.g08.bks.cpg/sg2_122_cif.got.tgz:242895.got - 2010.06.03 11:33:40.
