data_PCOD9020928
_publ_section_title
;
Structure prediction by ZEFSAII (Michael W. Deem and Ramdas Pophale) SiO2 
 PCOD9020928
Probable space group: P -1
;
_chemical_formula_sum "Si O2"
_cell_formula_units_Z 14
_cell_length_a 6.283648
_cell_length_b 15.563085
_cell_length_c 13.925628
_cell_angle_alpha 26.130429
_cell_angle_beta 71.488231
_cell_angle_gamma 80.645935
_cell_volume 543.715168
_symmetry_space_group_name_H-M "P -1"
_symmetry_group_IT_number 2
_symmetry_cell_setting 'triclinic'
loop_
_space_group_symop_operation_xyz
x,y,z
-x,-y,-z
loop_
_atom_site_type_symbol
_atom_site_label
_atom_site_fract_x
_atom_site_fract_y
_atom_site_fract_z
Si Si1 0.849315 0.598547 0.491080
Si Si2 0.528392 0.250819 0.157755
Si Si3 0.882328 0.033690 0.786641
Si Si4 0.883544 0.088185 0.514186
Si Si5 0.571766 0.323791 0.290122
Si Si6 0.031697 0.641740 0.127207
Si Si7 0.441413 0.732433 0.437858
O O1 0.998907 0.813036 0.299805
O O2 0.619856 0.648820 0.434841
O O3 0.000000 0.500000 0.500000
O O4 0.797507 0.433332 0.750297
O O5 0.473443 0.208433 0.321064
O O6 0.803415 0.289288 0.058165
O O7 0.375408 0.075766 0.286893
O O8 0.449758 0.451825 0.945779
O O9 0.975325 0.099630 0.597812
O O10 0.621937 0.065278 0.788418
O O11 0.933191 0.818943 0.004824
O O12 0.833149 0.299278 0.284165
O O13 0.000000 0.000000 0.500000
O O14 0.464422 0.246482 0.487175
O O15 0.804721 0.447397 0.341771
#
# Coordination Sequence:
#
# PCOD9020928 Si02
#       7
#     2   2   2   2   2   2   2
#     4  11  26  48  71  96 130 170 220 282 342 394
#     4  11  23  36  63  96 133 179 222 264 313 390
#     4  10  25  40  70  98 131 175 217 270 329 390
#     4  11  24  38  60  97 141 176 219 263 319 387
#     4  10  22  37  62  91 136 178 217 260 320 379
#     4  11  24  42  68 100 132 171 225 270 328 396
#     4  10  23  43  66  95 135 173 216 276 329 390
#
# _framework density 25.748773
#
# number of rings (size 3 to 8) (size 9 to 14) (size 15 to 20)
#    0.000    1.429    1.429    2.143    6.000    7.429 
#    0.000    1.429    0.000    0.000    0.000    0.000 
#    0.000    0.000    0.000    0.000    0.000    0.000 
#
# Total GULP energy -78255.387915 kJ/mol
# GULP energy per Si atom -5589.670565 kJ/mol
# Density = 2.569017 g / cm^3
# Si number density = 25.748773 Si / 1000 Ang^3
#
#
#
# Elastic Constant Matrix: (Units=GPa)
#
#
# Indices 1 2 3 4 5 6 
#
# 1 82.7063 28.5704 17.8986 -23.6949 6.0675 -25.2680
# 2 28.5704 135.5036 23.7558 -40.1600 -2.9454 -30.8360
# 3 17.8986 23.7558 59.2324 -45.4092 18.4827 -9.2276
# 4 -23.6949 -40.1600 -45.4092 49.1605 -14.6153 9.6128
# 5 6.0675 -2.9454 18.4827 -14.6153 44.2251 -19.8851
# 6 -25.2680 -30.8360 -9.2276 9.6128 -19.8851 52.7814
#
#
#
# Elastic Compliance Matrix: (Units=1/GPa)
#
#
# Indices 1 2 3 4 5 6 
#
# 1 0.016713 0.001687 0.004075 0.012735 0.004386 0.009032
# 2 0.001687 0.014247 0.009135 0.021456 0.008496 0.010021
# 3 0.004075 0.009135 0.066666 0.069203 -0.002518 0.005390
# 4 0.012735 0.021456 0.069203 0.108940 0.014036 0.016178
# 5 0.004386 0.008496 -0.002518 0.014036 0.036233 0.017717
# 6 0.009032 0.010021 0.005390 0.016178 0.017717 0.033795
#
#
# Mechanical properties :
#
#
# Convention : Reuss Voigt Hill
#
# Bulk Modulus (GPa) = 7.84807 46.43244 27.14026
# Shear Modulus (GPa) = 17.28474 43.04790 30.16632
#
# Velocity S-wave (km/s) = 2.59373 4.09325 3.42652
# Velocity P-wave (km/s) = 3.46763 6.35702 5.12036
#
# Compressibility (1/GPa) = 0.12741980
#
# Stress axis : x y z
#
# Youngs Moduli (GPa) = 59.83536 70.19075 15.00012
#
# Poissons Ratio (x) = -0.11841 -0.06112
# Poissons Ratio (y) = -0.10094 -0.13703
# Poissons Ratio (z) = -0.24382 -0.64122
#
# Static dielectric constant tensor:
#      x y z
#    x 2.125040 -0.027880 0.009130 
#    y -0.027880 2.071500 0.061830 
#    z 0.009130 0.061830 2.046760 
# 
# From -- ./inp_files/484060.got.cif
#   From: 2010.05.17/outbox.cif.g08.bks.cpg/sg2_243_cif.got.tgz:484060.got - 2010.06.03 11:33:40.
