data_PCOD9020717
_publ_section_title
;
Structure prediction by ZEFSAII (Michael W. Deem and Ramdas Pophale) SiO2 
 PCOD9020717
Probable space group: P -1
;
_chemical_formula_sum "Si O2"
_cell_formula_units_Z 12
_cell_length_a 11.125322
_cell_length_b 13.759036
_cell_length_c 9.909790
_cell_angle_alpha 119.176204
_cell_angle_beta 138.131302
_cell_angle_gamma 35.814690
_cell_volume 565.532881
_symmetry_space_group_name_H-M "P -1"
_symmetry_group_IT_number 2
_symmetry_cell_setting 'triclinic'
loop_
_space_group_symop_operation_xyz
x,y,z
-x,-y,-z
loop_
_atom_site_type_symbol
_atom_site_label
_atom_site_fract_x
_atom_site_fract_y
_atom_site_fract_z
Si Si1 0.647276 0.597618 0.931293
Si Si2 0.388267 0.505774 0.599588
Si Si3 0.555388 0.045882 0.710955
Si Si4 0.684516 0.605484 0.281733
Si Si5 0.219554 0.219134 0.819982
Si Si6 0.996260 0.764986 0.098061
O O1 0.398006 0.635633 0.698465
O O2 0.924071 0.402353 0.976340
O O3 0.660821 0.578692 0.090746
O O4 0.634997 0.733689 0.985809
O O5 0.378539 0.460396 0.709960
O O6 0.112910 0.595282 0.355149
O O7 0.302937 0.672360 0.319007
O O8 0.517772 0.191819 0.736223
O O9 0.335302 0.129603 0.708400
O O10 0.500000 0.000000 0.500000
O O11 0.849059 0.882353 0.921284
O O12 0.000000 0.500000 0.500000
O O13 0.205365 0.138119 0.875481
#
# Coordination Sequence:
#
# PCOD9020717 Si02
#       6
#     2   2   2   2   2   2
#     4   9  21  35  66  91 120 156 213 244 306 358
#     4  10  22  36  68  92 121 157 214 249 305 366
#     4  11  24  38  64  93 124 168 203 253 314 356
#     4  11  19  39  64  88 121 164 205 252 303 364
#     4  11  21  43  65  88 129 165 203 250 307 369
#     4  10  23  39  62  96 126 157 205 259 306 362
#
# _framework density 21.218924999999999
#
# number of rings (size 3 to 8) (size 9 to 14) (size 15 to 20)
#    1.000    0.667    3.333    3.000    0.000    0.667 
#    0.000    1.667    0.000    6.000    0.000    0.000 
#    0.000    0.000    0.000    0.000    0.000    0.000 
#
# Total GULP energy -66880.940372 kJ/mol
# GULP energy per Si atom -5573.411698 kJ/mol
# Density = 2.117063 g / cm^3
# Si number density = 21.218925 Si / 1000 Ang^3
#
#
#
# Elastic Constant Matrix: (Units=GPa)
#
#
# Indices 1 2 3 4 5 6 
#
# 1 91.9636 11.6296 23.8396 12.4573 2.6193 1.3902
# 2 11.6296 70.7578 26.7104 7.1036 -2.3589 -2.2269
# 3 23.8396 26.7104 67.3101 7.4090 -9.1128 8.8709
# 4 12.4573 7.1036 7.4090 20.1541 1.4560 -5.8717
# 5 2.6193 -2.3589 -9.1128 1.4560 32.0197 -2.3124
# 6 1.3902 -2.2269 8.8709 -5.8717 -2.3124 28.6258
#
#
#
# Elastic Compliance Matrix: (Units=1/GPa)
#
#
# Indices 1 2 3 4 5 6 
#
# 1 0.012870 -0.000054 -0.003952 -0.006610 -0.001947 -0.000918
# 2 -0.000054 0.017089 -0.006915 -0.002571 -0.000377 0.002917
# 3 -0.003952 -0.006915 0.021390 -0.005624 0.005603 -0.007675
# 4 -0.006610 -0.002571 -0.005624 0.061012 -0.003003 0.014136
# 5 -0.001947 -0.000377 0.005603 -0.003003 0.033121 0.000389
# 6 -0.000918 0.002917 -0.007675 0.014136 0.000389 0.040514
#
#
# Mechanical properties :
#
#
# Convention : Reuss Voigt Hill
#
# Bulk Modulus (GPa) = 33.88992 39.37675 36.63333
# Shear Modulus (GPa) = 22.97019 27.35005 25.16012
#
# Velocity S-wave (km/s) = 3.29376 3.59408 3.44719
# Velocity P-wave (km/s) = 5.52008 5.98506 5.75727
#
# Compressibility (1/GPa) = 0.02950730
#
# Stress axis : x y z
#
# Youngs Moduli (GPa) = 77.70120 58.51648 46.75190
#
# Poissons Ratio (x) = 0.00314 0.18477
# Poissons Ratio (y) = 0.00417 0.32329
# Poissons Ratio (z) = 0.30708 0.40464
#
# Static dielectric constant tensor:
#      x y z
#    x 1.792190 -0.033920 -0.013270 
#    y -0.033920 1.806060 -0.025580 
#    z -0.013270 -0.025580 1.763790 
# 
# From -- ./inp_files/268697.got.cif
#   From: 2010.05.17/outbox.cif.g08.bks.cpg/sg2_135_cif.got.tgz:268697.got - 2010.06.03 11:33:40.
