data_PCOD9020572
_publ_section_title
;
Structure prediction by ZEFSAII (Michael W. Deem and Ramdas Pophale) SiO2 
 PCOD9020572
Probable space group: P -1
;
_chemical_formula_sum "Si O2"
_cell_formula_units_Z 16
_cell_length_a 7.132157
_cell_length_b 7.866445
_cell_length_c 26.627128
_cell_angle_alpha 39.107061
_cell_angle_beta 58.626771
_cell_angle_gamma 80.753027
_cell_volume 717.769831
_symmetry_space_group_name_H-M "P -1"
_symmetry_group_IT_number 2
_symmetry_cell_setting 'triclinic'
loop_
_space_group_symop_operation_xyz
x,y,z
-x,-y,-z
loop_
_atom_site_type_symbol
_atom_site_label
_atom_site_fract_x
_atom_site_fract_y
_atom_site_fract_z
Si Si1 0.708579 0.324587 0.377582
Si Si2 0.054116 0.260455 0.270575
Si Si3 0.827435 0.600362 0.881455
Si Si4 0.812239 0.546177 0.577079
Si Si5 0.783925 0.574577 0.684050
Si Si6 0.558838 0.124810 0.111589
Si Si7 0.228129 0.385948 0.544136
Si Si8 0.679169 0.960083 0.234780
O O1 0.814983 0.290744 0.316471
O O2 0.241334 0.329200 0.391522
O O3 0.944973 0.404506 0.361457
O O4 0.500000 0.000000 0.500000
O O5 0.204992 0.279072 0.296433
O O6 0.187252 0.486796 0.155181
O O7 0.950274 0.934367 0.334572
O O8 0.648615 0.760597 0.876694
O O9 0.109823 0.818122 0.808611
O O10 0.722600 0.317977 0.998580
O O11 0.770832 0.678358 0.500774
O O12 0.090547 0.591117 0.524296
O O13 0.617179 0.189521 0.680799
O O14 0.309884 0.361638 0.693648
O O15 0.585062 0.231379 0.796883
O O16 0.713146 0.136974 0.137187
O O17 0.500000 0.500000 0.500000
#
# Coordination Sequence:
#
# PCOD9020572 Si02
#       8
#     2   2   2   2   2   2   2   2
#     4  10  22  39  61  88 124 178 202 246 320 374
#     4  10  22  36  61  89 121 166 202 256 318 365
#     4  11  21  41  69  91 125 158 210 272 320 367
#     4  10  23  37  61  89 117 168 206 257 314 368
#     4   9  21  40  56  87 125 156 211 246 303 383
#     4  10  22  41  68  93 115 169 210 260 329 370
#     4  11  23  39  60  89 124 160 212 265 307 364
#     4  11  21  41  62  90 126 158 214 259 303 389
#
# _framework density 22.291269
#
# number of rings (size 3 to 8) (size 9 to 14) (size 15 to 20)
#    0.750    1.000    1.250    3.375    3.500    1.000 
#    2.250    3.125    0.000    0.000    0.000    0.000 
#    0.000    0.000    0.000    0.000    0.000    0.000 
#
# Total GULP energy -89092.419197 kJ/mol
# GULP energy per Si atom -5568.276200 kJ/mol
# Density = 2.224053 g / cm^3
# Si number density = 22.291269 Si / 1000 Ang^3
#
#
#
# Elastic Constant Matrix: (Units=GPa)
#
#
# Indices 1 2 3 4 5 6 
#
# 1 114.5092 25.5405 32.6974 8.7974 4.0164 30.5869
# 2 25.5405 57.5728 31.9381 12.8463 3.8986 14.9534
# 3 32.6974 31.9381 116.9111 18.0303 20.0169 19.8477
# 4 8.7974 12.8463 18.0303 34.2604 8.0301 6.2075
# 5 4.0164 3.8986 20.0169 8.0301 43.0842 9.2414
# 6 30.5869 14.9534 19.8477 6.2075 9.2414 39.1949
#
#
#
# Elastic Compliance Matrix: (Units=1/GPa)
#
#
# Indices 1 2 3 4 5 6 
#
# 1 0.011755 -0.002379 -0.001537 -0.000267 0.001559 -0.007813
# 2 -0.002379 0.023077 -0.004430 -0.005423 0.002135 -0.004349
# 3 -0.001537 -0.004430 0.011578 -0.002819 -0.003968 -0.001591
# 4 -0.000267 -0.005423 -0.002819 0.033911 -0.004358 -0.000638
# 5 0.001559 0.002135 -0.003968 -0.004358 0.026737 -0.005636
# 6 -0.007813 -0.004349 -0.001591 -0.000638 -0.005636 0.035505
#
#
# Mechanical properties :
#
#
# Convention : Reuss Voigt Hill
#
# Bulk Modulus (GPa) = 33.64889 52.14947 42.89918
# Shear Modulus (GPa) = 29.55764 36.56238 33.06001
#
# Velocity S-wave (km/s) = 3.64534 4.05435 3.85527
# Velocity P-wave (km/s) = 5.73113 6.73516 6.25333
#
# Compressibility (1/GPa) = 0.02971866
#
# Stress axis : x y z
#
# Youngs Moduli (GPa) = 85.06879 43.33286 86.37171
#
# Poissons Ratio (x) = 0.10308 0.13277
# Poissons Ratio (y) = 0.20236 0.38261
# Poissons Ratio (z) = 0.13076 0.19196
#
# Static dielectric constant tensor:
#      x y z
#    x 1.923750 -0.023420 -0.017180 
#    y -0.023420 1.890870 0.026420 
#    z -0.017180 0.026420 1.862230 
# 
# From -- ./inp_files/621731.got.cif
#   From: 2010.05.17/outbox.cif.g08.bks.cpg/sg2_311_cif.got.tgz:621731.got - 2010.06.03 11:33:40.
