data_PCOD9020567
_publ_section_title
;
Structure prediction by ZEFSAII (Michael W. Deem and Ramdas Pophale) SiO2 
 PCOD9020567
Probable space group: P -1
;
_chemical_formula_sum "Si O2"
_cell_formula_units_Z 16
_cell_length_a 21.717546
_cell_length_b 5.603227
_cell_length_c 13.730555
_cell_angle_alpha 93.589945
_cell_angle_beta 31.243995
_cell_angle_gamma 72.997458
_cell_volume 643.434627
_symmetry_space_group_name_H-M "P -1"
_symmetry_group_IT_number 2
_symmetry_cell_setting 'triclinic'
loop_
_space_group_symop_operation_xyz
x,y,z
-x,-y,-z
loop_
_atom_site_type_symbol
_atom_site_label
_atom_site_fract_x
_atom_site_fract_y
_atom_site_fract_z
Si Si1 0.880722 0.175490 0.757488
Si Si2 0.364849 0.369961 0.574533
Si Si3 0.099044 0.953711 0.055930
Si Si4 0.656413 0.833318 0.848403
Si Si5 0.690796 0.273737 0.730811
Si Si6 0.849612 0.743344 0.138367
Si Si7 0.200184 0.798172 0.636469
Si Si8 0.313112 0.065588 0.977368
O O1 0.796324 0.551032 0.880943
O O2 0.946380 0.062702 0.776381
O O3 0.772470 0.077517 0.898810
O O4 0.000000 0.000000 0.500000
O O5 0.293098 0.223483 0.708267
O O6 0.271438 0.490611 0.597804
O O7 0.451792 0.858763 0.704522
O O8 0.281984 0.661025 0.770699
O O9 0.988055 0.967755 0.127079
O O10 0.070288 0.262534 0.069561
O O11 0.732346 0.464761 0.736007
O O12 0.611518 0.974941 0.020483
O O13 0.753102 0.931713 0.676622
O O14 0.500000 0.000000 0.000000
O O15 0.727796 0.266298 0.567992
O O16 0.500000 0.500000 0.000000
O O17 0.758105 0.048565 0.342119
O O18 0.000000 0.500000 0.000000
#
# Coordination Sequence:
#
# PCOD9020567 Si02
#       8
#     2   2   2   2   2   2   2   2
#     4  12  32  59  77 107 151 211 267 308 372 462
#     4  11  24  45  75 118 150 189 253 324 393 451
#     4  11  26  46  75 108 153 210 255 307 380 457
#     4  10  22  41  66 107 146 184 233 300 384 439
#     4  10  22  36  61 102 147 190 237 283 372 452
#     4  11  21  42  71 112 159 189 247 309 391 458
#     4  11  23  39  70 112 153 195 240 316 389 462
#     4  12  29  51  81 109 154 196 261 329 371 445
#
# _framework density 24.866551000000001
#
# number of rings (size 3 to 8) (size 9 to 14) (size 15 to 20)
#    0.000    1.000    2.500    3.375   14.000    1.000 
#    0.000    0.000    0.000    0.000    0.000    0.000 
#    0.000    0.000    0.000    0.000    0.000    0.000 
#
# Total GULP energy -89185.604971 kJ/mol
# GULP energy per Si atom -5574.100311 kJ/mol
# Density = 2.480995 g / cm^3
# Si number density = 24.866551 Si / 1000 Ang^3
#
#
#
# Elastic Constant Matrix: (Units=GPa)
#
#
# Indices 1 2 3 4 5 6 
#
# 1 88.5067 32.2177 12.2742 -2.1998 9.4457 -2.1440
# 2 32.2177 105.0851 44.5513 -14.7294 -10.1062 20.5237
# 3 12.2742 44.5513 162.2971 -1.9955 1.8050 -9.5207
# 4 -2.1998 -14.7294 -1.9955 30.1529 -2.4514 3.2677
# 5 9.4457 -10.1062 1.8050 -2.4514 28.5677 -10.3400
# 6 -2.1440 20.5237 -9.5207 3.2677 -10.3400 45.3413
#
#
#
# Elastic Compliance Matrix: (Units=1/GPa)
#
#
# Indices 1 2 3 4 5 6 
#
# 1 0.014053 -0.006065 0.000776 -0.002646 -0.006219 0.002345
# 2 -0.006065 0.016689 -0.004554 0.008772 0.006035 -0.008053
# 3 0.000776 -0.004554 0.007549 -0.002155 -0.001243 0.003555
# 4 -0.002646 0.008772 -0.002155 0.038198 0.005177 -0.006121
# 5 -0.006219 0.006035 -0.001243 0.005177 0.041848 0.005884
# 6 0.002345 -0.008053 0.003555 -0.006121 0.005884 0.028341
#
#
# Mechanical properties :
#
#
# Convention : Reuss Voigt Hill
#
# Bulk Modulus (GPa) = 53.74652 59.33060 56.53856
# Shear Modulus (GPa) = 28.97462 38.60208 33.78835
#
# Velocity S-wave (km/s) = 3.41721 3.94429 3.69017
# Velocity P-wave (km/s) = 6.10170 6.68241 6.39864
#
# Compressibility (1/GPa) = 0.01860585
#
# Stress axis : x y z
#
# Youngs Moduli (GPa) = 71.15760 59.91998 132.47008
#
# Poissons Ratio (x) = 0.36339 -0.10281
# Poissons Ratio (y) = 0.43154 0.60330
# Poissons Ratio (z) = -0.05523 0.27289
#
# Static dielectric constant tensor:
#      x y z
#    x 2.102560 0.097690 -0.021860 
#    y 0.097690 2.856530 0.041770 
#    z -0.021860 0.041770 1.968510 
# 
# From -- ./inp_files/468107.got.cif
#   From: 2010.05.17/outbox.cif.g08.bks.cpg/sg2_235_cif.got.tgz:468107.got - 2010.06.03 11:33:40.
