data_PCOD9020225
_publ_section_title
;
Structure prediction by ZEFSAII (Michael W. Deem and Ramdas Pophale) SiO2 
 PCOD9020225
Probable space group: P -1
;
_chemical_formula_sum "Si O2"
_cell_formula_units_Z 12
_cell_length_a 5.296706
_cell_length_b 18.098297
_cell_length_c 11.083571
_cell_angle_alpha 151.367326
_cell_angle_beta 94.803905
_cell_angle_gamma 91.991763
_cell_volume 494.135674
_symmetry_space_group_name_H-M "P -1"
_symmetry_group_IT_number 2
_symmetry_cell_setting 'triclinic'
loop_
_space_group_symop_operation_xyz
x,y,z
-x,-y,-z
loop_
_atom_site_type_symbol
_atom_site_label
_atom_site_fract_x
_atom_site_fract_y
_atom_site_fract_z
Si Si1 0.257441 0.480901 0.552330
Si Si2 0.587889 0.393644 0.007153
Si Si3 0.744720 0.948750 0.495858
Si Si4 0.294638 0.665067 0.323219
Si Si5 0.025389 0.777397 0.671260
Si Si6 0.703354 0.983387 0.811926
O O1 0.500000 0.500000 0.500000
O O2 0.319733 0.596589 0.836971
O O3 0.000000 0.500000 0.500000
O O4 0.183018 0.307008 0.360311
O O5 0.487421 0.551950 0.200995
O O6 0.346240 0.241307 0.765574
O O7 0.775295 0.367171 0.866028
O O8 0.785945 0.026475 0.740792
O O9 0.500000 0.000000 0.500000
O O10 0.000000 0.000000 0.500000
O O11 0.088828 0.647361 0.396789
O O12 0.437614 0.850858 0.604666
O O13 0.908906 0.894072 0.750829
O O14 0.275662 0.867428 0.886446
#
# Coordination Sequence:
#
# PCOD9020225 Si02
#       6
#     2   2   2   2   2   2
#     4  12  28  47  70 107 147 194 238 296 369 430
#     4  10  24  47  75 105 145 186 249 301 365 441
#     4  11  28  48  73 107 148 195 242 301 372 432
#     4  10  21  47  74 107 138 187 247 308 362 425
#     4  11  24  44  76 101 149 187 249 297 366 431
#     4  10  24  45  70 109 139 194 243 302 356 441
#
# _framework density 24.284828999999998
#
# number of rings (size 3 to 8) (size 9 to 14) (size 15 to 20)
#    0.000    1.333    1.667    1.500    9.333    2.000 
#    3.000    0.000    0.000    0.000    0.000    0.000 
#    0.000    0.000    0.000    0.000    0.000    0.000 
#
# Total GULP energy -67159.854486 kJ/mol
# GULP energy per Si atom -5596.654540 kJ/mol
# Density = 2.422956 g / cm^3
# Si number density = 24.284829 Si / 1000 Ang^3
#
#
#
# Elastic Constant Matrix: (Units=GPa)
#
#
# Indices 1 2 3 4 5 6 
#
# 1 118.1000 65.7633 35.7522 -28.9806 -11.2439 14.1765
# 2 65.7633 150.4118 51.8034 -45.3779 -8.8382 19.7282
# 3 35.7522 51.8034 156.3868 -46.0989 12.5977 11.7116
# 4 -28.9806 -45.3779 -46.0989 61.5633 0.7315 2.8960
# 5 -11.2439 -8.8382 12.5977 0.7315 27.7295 -6.4894
# 6 14.1765 19.7282 11.7116 2.8960 -6.4894 45.5351
#
#
#
# Elastic Compliance Matrix: (Units=1/GPa)
#
#
# Indices 1 2 3 4 5 6 
#
# 1 0.011946 -0.003853 -0.001059 0.002012 0.003722 -0.001375
# 2 -0.003853 0.010892 -0.000902 0.005686 0.001361 -0.003455
# 3 -0.001059 -0.000902 0.009423 0.006099 -0.005843 -0.002924
# 4 0.002012 0.005686 0.006099 0.026291 -0.002398 -0.006672
# 5 0.003722 0.001361 -0.005843 -0.002398 0.042106 0.005908
# 6 -0.001375 -0.003455 -0.002924 -0.006672 0.005908 0.025905
#
#
# Mechanical properties :
#
#
# Convention : Reuss Voigt Hill
#
# Bulk Modulus (GPa) = 48.46300 81.28184 64.87242
# Shear Modulus (GPa) = 34.46672 45.07089 39.76880
#
# Velocity S-wave (km/s) = 3.77141 4.31272 4.05112
# Velocity P-wave (km/s) = 6.24212 7.63821 6.97518
#
# Compressibility (1/GPa) = 0.02063430
#
# Stress axis : x y z
#
# Youngs Moduli (GPa) = 83.70811 91.81050 106.12471
#
# Poissons Ratio (x) = 0.35370 0.11237
# Poissons Ratio (y) = 0.32249 0.09573
# Poissons Ratio (z) = 0.08863 0.08282
#
# Static dielectric constant tensor:
#      x y z
#    x 1.897700 0.047420 0.042130 
#    y 0.047420 1.946000 0.031720 
#    z 0.042130 0.031720 1.994150 
# 
# From -- ./inp_files/67767.got.cif
#   From: 2010.05.17/outbox.cif.g08.bks.cpg/sg2_34_cif.got.tgz:67767.got - 2010.06.03 11:33:40.
