data_PCOD9020888
_publ_section_title
;
Structure prediction by ZEFSAII (Michael W. Deem and Ramdas Pophale) SiO2 
 PCOD9020888
Probable space group: P -1
;
_chemical_formula_sum "Si O2"
_cell_formula_units_Z 16
_cell_length_a 8.546661
_cell_length_b 14.039740
_cell_length_c 12.741193
_cell_angle_alpha 96.683081
_cell_angle_beta 86.674959
_cell_angle_gamma 29.321980
_cell_volume 702.515155
_symmetry_space_group_name_H-M "P -1"
_symmetry_group_IT_number 2
_symmetry_cell_setting 'triclinic'
loop_
_space_group_symop_operation_xyz
x,y,z
-x,-y,-z
loop_
_atom_site_type_symbol
_atom_site_label
_atom_site_fract_x
_atom_site_fract_y
_atom_site_fract_z
Si Si1 0.143229 0.041228 0.834143
Si Si2 0.798696 0.804821 0.787638
Si Si3 0.511158 0.271887 0.945438
Si Si4 0.159453 0.660184 0.947221
Si Si5 0.611245 0.809130 0.239589
Si Si6 0.265199 0.411142 0.619554
Si Si7 0.619476 0.571624 0.816527
Si Si8 0.481049 0.267423 0.368528
O O1 0.906577 0.081357 0.887079
O O2 0.524412 0.869711 0.821318
O O3 0.218475 0.971288 0.700647
O O4 0.946376 0.233487 0.926125
O O5 0.850227 0.823389 0.900840
O O6 0.152449 0.568199 0.704571
O O7 0.655795 0.960686 0.732392
O O8 0.304827 0.475869 0.936212
O O9 0.396969 0.243608 0.877769
O O10 0.446753 0.310372 0.076978
O O11 0.418953 0.589538 0.869202
O O12 0.570251 0.752623 0.325782
O O13 0.976922 0.656708 0.228481
O O14 0.481218 0.304177 0.491747
O O15 0.895057 0.572415 0.616982
O O16 0.496603 0.667545 0.718035
#
# Coordination Sequence:
#
# PCOD9020888 Si02
#       8
#     2   2   2   2   2   2   2   2
#     4  10  22  37  61  91 124 166 201 250 311 370
#     4  11  22  39  64  92 126 162 209 251 308 366
#     4  11  22  38  60  92 133 160 201 253 311 371
#     4  11  22  38  60  92 133 160 201 253 311 371
#     4  11  22  39  64  92 126 162 209 251 308 366
#     4   9  20  44  62  91 119 165 208 263 301 356
#     4  10  22  37  61  91 124 166 201 250 311 370
#     4   9  20  39  66  86 123 160 214 256 305 359
#
# _framework density 22.775310999999999
#
# number of rings (size 3 to 8) (size 9 to 14) (size 15 to 20)
#    0.000    1.750    1.250    3.750    3.500    1.000 
#    0.000   13.750    0.000    0.000    0.000    0.000 
#    0.000    0.000    0.000    0.000    0.000    0.000 
#
# Total GULP energy -89221.197272 kJ/mol
# GULP energy per Si atom -5576.324829 kJ/mol
# Density = 2.272347 g / cm^3
# Si number density = 22.775311 Si / 1000 Ang^3
#
#
#
# Elastic Constant Matrix: (Units=GPa)
#
#
# Indices 1 2 3 4 5 6 
#
# 1 57.8733 31.2355 26.8641 -1.8584 -1.7616 14.1922
# 2 31.2355 103.5533 65.6917 -9.0096 -8.7925 21.0614
# 3 26.8641 65.6917 149.3663 -4.0841 -16.4370 26.0533
# 4 -1.8584 -9.0096 -4.0841 27.7391 1.6095 -1.1573
# 5 -1.7616 -8.7925 -16.4370 1.6095 17.1027 -4.9865
# 6 14.1922 21.0614 26.0533 -1.1573 -4.9865 36.2581
#
#
#
# Elastic Compliance Matrix: (Units=1/GPa)
#
#
# Indices 1 2 3 4 5 6 
#
# 1 0.021695 -0.005079 -0.001098 -0.000405 -0.002899 -0.005165
# 2 -0.005079 0.015492 -0.005129 0.003736 0.001277 -0.003031
# 3 -0.001098 -0.005129 0.010388 -0.000713 0.006367 -0.003202
# 4 -0.000405 0.003736 -0.000713 0.037249 -0.002503 -0.000654
# 5 -0.002899 0.001277 0.006367 -0.002503 0.066611 0.004899
# 6 -0.005165 -0.003031 -0.003202 -0.000654 0.004899 0.034316
#
#
# Mechanical properties :
#
#
# Convention : Reuss Voigt Hill
#
# Bulk Modulus (GPa) = 40.05590 62.04170 51.04880
# Shear Modulus (GPa) = 23.07510 28.68674 25.88092
#
# Velocity S-wave (km/s) = 3.18648 3.55287 3.37465
# Velocity P-wave (km/s) = 5.58245 6.64307 6.13572
#
# Compressibility (1/GPa) = 0.02496511
#
# Stress axis : x y z
#
# Youngs Moduli (GPa) = 46.09364 64.54826 96.26719
#
# Poissons Ratio (x) = 0.32782 0.10565
# Poissons Ratio (y) = 0.23409 0.49373
# Poissons Ratio (z) = 0.05059 0.33105
#
# Static dielectric constant tensor:
#      x y z
#    x 1.876480 0.025730 0.015170 
#    y 0.025730 1.960830 0.022490 
#    z 0.015170 0.022490 1.843700 
# 
# From -- ./inp_files/399109.got.cif
#   From: 2010.05.17/outbox.cif.g08.bks.cpg/sg2_200_cif.got.tgz:399109.got - 2010.06.03 11:33:40.
