data_PCOD9020911
_publ_section_title
;
Structure prediction by ZEFSAII (Michael W. Deem and Ramdas Pophale) SiO2 
 PCOD9020911
Probable space group: P -1
;
_chemical_formula_sum "Si O2"
_cell_formula_units_Z 14
_cell_length_a 5.464218
_cell_length_b 14.211301
_cell_length_c 20.950009
_cell_angle_alpha 19.901223
_cell_angle_beta 85.478972
_cell_angle_gamma 86.179513
_cell_volume 551.919809
_symmetry_space_group_name_H-M "P -1"
_symmetry_group_IT_number 2
_symmetry_cell_setting 'triclinic'
loop_
_space_group_symop_operation_xyz
x,y,z
-x,-y,-z
loop_
_atom_site_type_symbol
_atom_site_label
_atom_site_fract_x
_atom_site_fract_y
_atom_site_fract_z
Si Si1 0.261690 0.449650 0.492989
Si Si2 0.254541 0.321572 0.904729
Si Si3 0.043359 0.868459 0.860831
Si Si4 0.376462 0.361741 0.208808
Si Si5 0.517643 0.459654 0.695276
Si Si6 0.118153 0.212098 0.428196
Si Si7 0.254653 0.011961 0.330213
O O1 0.500000 0.500000 0.500000
O O2 0.324299 0.616885 0.320401
O O3 0.000000 0.500000 0.500000
O O4 0.230352 0.124778 0.682217
O O5 0.434046 0.455954 0.869053
O O6 0.385282 0.248391 0.881997
O O7 0.078460 0.566372 0.731413
O O8 0.090035 0.101383 0.087098
O O9 0.836954 0.870797 0.809020
O O10 0.187296 0.585524 0.043189
O O11 0.260685 0.149844 0.399704
O O12 0.451874 0.187841 0.255920
O O13 0.695361 0.626331 0.632952
O O14 0.328795 0.692267 0.525637
O O15 0.980957 0.988793 0.617047
#
# Coordination Sequence:
#
# PCOD9020911 Si02
#       7
#     2   2   2   2   2   2   2
#     4  12  28  49  79 103 129 176 240 300 364 420
#     4   9  22  40  66  93 147 179 227 273 346 399
#     4  11  24  43  66 100 140 177 227 296 343 404
#     4  10  22  37  62 100 143 190 222 269 336 414
#     4  10  22  43  68  98 135 183 225 287 337 416
#     4   9  19  38  62  92 142 182 232 266 329 403
#     4  11  21  36  66 100 143 186 231 267 335 410
#
# _framework density 25.366004
#
# number of rings (size 3 to 8) (size 9 to 14) (size 15 to 20)
#    0.000    1.714    1.429    1.714    6.000    8.000 
#    0.000    1.429    0.000    0.000    0.000    0.000 
#    0.000    0.000    0.000    0.000    0.000    0.000 
#
# Total GULP energy -78258.969346 kJ/mol
# GULP energy per Si atom -5589.926382 kJ/mol
# Density = 2.530827 g / cm^3
# Si number density = 25.366004 Si / 1000 Ang^3
#
#
#
# Elastic Constant Matrix: (Units=GPa)
#
#
# Indices 1 2 3 4 5 6 
#
# 1 91.7687 31.7107 33.7281 19.3404 12.9726 -2.2103
# 2 31.7107 120.9582 44.3090 34.1326 8.7072 -11.4371
# 3 33.7281 44.3090 117.0946 30.8692 -8.4556 -15.4722
# 4 19.3404 34.1326 30.8692 48.5171 -4.6699 0.8478
# 5 12.9726 8.7072 -8.4556 -4.6699 45.5956 14.9487
# 6 -2.2103 -11.4371 -15.4722 0.8478 14.9487 27.4325
#
#
#
# Elastic Compliance Matrix: (Units=1/GPa)
#
#
# Indices 1 2 3 4 5 6 
#
# 1 0.013820 -0.001015 -0.002749 -0.003596 -0.005321 0.002151
# 2 -0.001015 0.012559 -0.001775 -0.007983 -0.005721 0.007517
# 3 -0.002749 -0.001775 0.012248 -0.005448 0.001010 0.005564
# 4 -0.003596 -0.007983 -0.005448 0.032209 0.008956 -0.012567
# 5 -0.005321 -0.005721 0.001010 0.008956 0.032227 -0.020082
# 6 0.002151 0.007517 0.005564 -0.012567 -0.020082 0.054231
#
#
# Mechanical properties :
#
#
# Convention : Reuss Voigt Hill
#
# Bulk Modulus (GPa) = 36.29877 61.03523 48.66700
# Shear Modulus (GPa) = 28.16025 38.98064 33.57045
#
# Velocity S-wave (km/s) = 3.33552 3.92436 3.64186
# Velocity P-wave (km/s) = 5.40142 6.68193 6.07551
#
# Compressibility (1/GPa) = 0.02754914
#
# Stress axis : x y z
#
# Youngs Moduli (GPa) = 72.36005 79.62307 81.64538
#
# Poissons Ratio (x) = 0.08082 0.22442
# Poissons Ratio (y) = 0.07345 0.14494
# Poissons Ratio (z) = 0.19890 0.14135
#
# Static dielectric constant tensor:
#      x y z
#    x 2.101410 -0.082500 -0.030420 
#    y -0.082500 2.030000 -0.022860 
#    z -0.030420 -0.022860 1.976510 
# 
# From -- ./inp_files/26965.got.cif
#   From: 2010.05.17/outbox.cif.g08.bks.cpg/sg2_14_cif.got.tgz:26965.got - 2010.06.03 11:33:40.
