data_PCOD9020182
_publ_section_title
;
Structure prediction by ZEFSAII (Michael W. Deem and Ramdas Pophale) SiO2 
 PCOD9020182
Probable space group: P -1
;
_chemical_formula_sum "Si O2"
_cell_formula_units_Z 16
_cell_length_a 11.040715
_cell_length_b 12.872424
_cell_length_c 11.724178
_cell_angle_alpha 148.631713
_cell_angle_beta 95.542787
_cell_angle_gamma 75.439076
_cell_volume 816.106666
_symmetry_space_group_name_H-M "P -1"
_symmetry_group_IT_number 2
_symmetry_cell_setting 'triclinic'
loop_
_space_group_symop_operation_xyz
x,y,z
-x,-y,-z
loop_
_atom_site_type_symbol
_atom_site_label
_atom_site_fract_x
_atom_site_fract_y
_atom_site_fract_z
Si Si1 0.193377 0.611253 0.874471
Si Si2 0.155052 0.934437 0.972275
Si Si3 0.128358 0.824924 0.302274
Si Si4 0.170375 0.749854 0.564836
Si Si5 0.486686 0.435215 0.807871
Si Si6 0.294883 0.973412 0.597078
Si Si7 0.717398 0.570194 0.894637
Si Si8 0.073489 0.336680 0.453581
O O1 0.338423 0.498882 0.823750
O O2 0.130305 0.452052 0.661694
O O3 0.195089 0.770779 0.923970
O O4 0.116256 0.744132 0.099155
O O5 0.175714 0.148348 0.216833
O O6 0.215009 0.821427 0.754989
O O7 0.000000 0.000000 0.000000
O O8 0.232796 0.945520 0.443585
O O9 0.188728 0.609299 0.180421
O O10 0.000000 0.000000 0.500000
O O11 0.212966 0.888108 0.602866
O O12 0.022389 0.765446 0.585567
O O13 0.230313 0.509168 0.300637
O O14 0.561720 0.191333 0.554768
O O15 0.500000 0.500000 0.000000
O O16 0.574203 0.555368 0.867366
O O17 0.284920 0.205360 0.850384
O O18 0.000000 0.500000 0.500000
#
# Coordination Sequence:
#
# PCOD9020182 Si02
#       8
#     2   2   2   2   2   2   2   2
#     4  12  23  41  68  94 134 168 213 271 324 384
#     4  10  22  38  60  92 130 166 207 265 318 384
#     4  10  24  39  59 101 134 165 214 265 325 397
#     4   9  21  40  61  94 129 163 213 264 320 388
#     4  10  21  47  62  95 130 167 228 271 309 379
#     4  10  23  42  66  89 134 178 209 271 319 379
#     4  10  23  41  69  91 129 182 208 269 327 377
#     4  11  23  37  64  97 126 170 210 261 328 383
#
# _framework density 19.605278999999999
#
# number of rings (size 3 to 8) (size 9 to 14) (size 15 to 20)
#    0.000    2.000    5.000    0.000   10.500    3.000 
#    0.000    2.500    0.000    4.500    0.000    0.000 
#    0.000    0.000    0.000    0.000    0.000    0.000 
#
# Total GULP energy -89113.439607 kJ/mol
# GULP energy per Si atom -5569.589975 kJ/mol
# Density = 1.956066 g / cm^3
# Si number density = 19.605279 Si / 1000 Ang^3
#
#
#
# Elastic Constant Matrix: (Units=GPa)
#
#
# Indices 1 2 3 4 5 6 
#
# 1 65.8965 26.9699 47.9535 0.9443 -3.0897 -20.6972
# 2 26.9699 43.3921 59.5332 -15.1262 -6.0968 -6.9638
# 3 47.9535 59.5332 242.0724 -10.4698 18.8382 -5.2391
# 4 0.9443 -15.1262 -10.4698 42.8067 0.5345 1.2598
# 5 -3.0897 -6.0968 18.8382 0.5345 26.2324 -0.2574
# 6 -20.6972 -6.9638 -5.2391 1.2598 -0.2574 22.2701
#
#
#
# Elastic Compliance Matrix: (Units=1/GPa)
#
#
# Indices 1 2 3 4 5 6 
#
# 1 0.030266 -0.013150 -0.002760 -0.006725 0.002861 0.023780
# 2 -0.013150 0.057163 -0.012237 0.017184 0.020195 0.002036
# 3 -0.002760 -0.012237 0.008210 -0.002011 -0.009068 -0.004452
# 4 -0.006725 0.017184 -0.002011 0.029126 0.004024 -0.002951
# 5 0.002861 0.020195 -0.009068 0.004024 0.049651 0.007187
# 6 0.023780 0.002036 -0.004452 -0.002951 0.007187 0.066843
#
#
# Mechanical properties :
#
#
# Convention : Reuss Voigt Hill
#
# Bulk Modulus (GPa) = 25.41789 68.91935 47.16862
# Shear Modulus (GPa) = 16.09431 32.72213 24.40822
#
# Velocity S-wave (km/s) = 2.86827 4.08983 3.53226
# Velocity P-wave (km/s) = 4.89513 7.58499 6.38335
#
# Compressibility (1/GPa) = 0.03934237
#
# Stress axis : x y z
#
# Youngs Moduli (GPa) = 33.04083 17.49385 121.80748
#
# Poissons Ratio (x) = 0.23005 0.33622
# Poissons Ratio (y) = 0.43449 1.49061
# Poissons Ratio (z) = 0.09120 0.21408
#
# Static dielectric constant tensor:
#      x y z
#    x 1.773480 -0.003740 -0.060480 
#    y -0.003740 1.736640 0.013170 
#    z -0.060480 0.013170 1.781930 
# 
# From -- ./inp_files/433504.got.cif
#   From: 2010.05.17/outbox.cif.g08.bks.cpg/sg2_217_cif.got.tgz:433504.got - 2010.06.03 11:33:40.
