data_PCOD9020247
_publ_section_title
;
Structure prediction by ZEFSAII (Michael W. Deem and Ramdas Pophale) SiO2 
 PCOD9020247
Probable space group: P -1
;
_chemical_formula_sum "Si O2"
_cell_formula_units_Z 16
_cell_length_a 15.694554
_cell_length_b 14.759747
_cell_length_c 10.537477
_cell_angle_alpha 45.108138
_cell_angle_beta 118.584085
_cell_angle_gamma 152.580222
_cell_volume 709.646388
_symmetry_space_group_name_H-M "P -1"
_symmetry_group_IT_number 2
_symmetry_cell_setting 'triclinic'
loop_
_space_group_symop_operation_xyz
x,y,z
-x,-y,-z
loop_
_atom_site_type_symbol
_atom_site_label
_atom_site_fract_x
_atom_site_fract_y
_atom_site_fract_z
Si Si1 0.415531 0.733170 0.537834
Si Si2 0.099235 0.100485 0.331278
Si Si3 0.003048 0.528078 0.710490
Si Si4 0.002509 0.116616 0.787329
Si Si5 0.440344 0.026880 0.147431
Si Si6 0.119855 0.412813 0.044640
Si Si7 0.230297 0.988536 0.606464
Si Si8 0.304459 0.024295 0.270993
O O1 0.182172 0.420298 0.660249
O O2 0.441201 0.913815 0.363139
O O3 0.551508 0.828400 0.426659
O O4 0.517020 0.799076 0.674064
O O5 0.254525 0.161849 0.402026
O O6 0.960640 0.888766 0.324712
O O7 0.161645 0.316957 0.123430
O O8 0.000000 0.000000 0.500000
O O9 0.753703 0.231429 0.824764
O O10 0.085294 0.730377 0.668387
O O11 0.114208 0.707639 0.485248
O O12 0.094226 0.495445 0.842832
O O13 0.785792 0.939850 0.812373
O O14 0.000000 0.000000 0.000000
O O15 0.375875 0.078232 0.127228
O O16 0.680163 0.320124 0.988554
O O17 0.900717 0.158514 0.213231
#
# Coordination Sequence:
#
# PCOD9020247 Si02
#       8
#     2   2   2   2   2   2   2   2
#     4  11  23  43  71  94 133 186 224 273 361 396
#     4  10  23  48  69  94 144 183 220 290 345 394
#     4  11  22  41  66  96 135 170 233 274 342 403
#     4  12  27  44  72 103 136 184 235 284 335 422
#     4  12  24  37  67 102 129 181 223 278 349 405
#     4  11  25  41  67 100 134 174 232 286 332 403
#     4  10  21  48  68  91 139 181 223 286 337 409
#     4  11  24  42  65  96 142 177 220 286 345 409
#
# _framework density 22.54644
#
# number of rings (size 3 to 8) (size 9 to 14) (size 15 to 20)
#    0.000    1.000    6.250    1.125    3.500    2.000 
#    4.500    1.250    0.000    0.000    0.000    0.000 
#    0.000    0.000    0.000    0.000    0.000    0.000 
#
# Total GULP energy -89291.211856 kJ/mol
# GULP energy per Si atom -5580.700741 kJ/mol
# Density = 2.249512 g / cm^3
# Si number density = 22.546440 Si / 1000 Ang^3
#
#
#
# Elastic Constant Matrix: (Units=GPa)
#
#
# Indices 1 2 3 4 5 6 
#
# 1 85.2588 10.5887 17.7219 14.3915 17.3327 6.6163
# 2 10.5887 79.0621 -1.1047 4.2647 14.2668 13.1346
# 3 17.7219 -1.1047 49.0295 16.5276 14.1963 12.3737
# 4 14.3915 4.2647 16.5276 20.8827 7.2707 -0.7270
# 5 17.3327 14.2668 14.1963 7.2707 36.1100 3.3244
# 6 6.6163 13.1346 12.3737 -0.7270 3.3244 31.4032
#
#
#
# Elastic Compliance Matrix: (Units=1/GPa)
#
#
# Indices 1 2 3 4 5 6 
#
# 1 0.014352 -0.000258 -0.000590 -0.007792 -0.004769 -0.002359
# 2 -0.000258 0.015746 0.006670 -0.006297 -0.006660 -0.008600
# 3 -0.000590 0.006670 0.037155 -0.027516 -0.009863 -0.016898
# 4 -0.007792 -0.006297 -0.027516 0.076907 0.000005 0.016898
# 5 -0.004769 -0.006660 -0.009863 0.000005 0.036135 0.003851
# 6 -0.002359 -0.008600 -0.016898 0.016898 0.003851 0.042580
#
#
# Mechanical properties :
#
#
# Convention : Reuss Voigt Hill
#
# Bulk Modulus (GPa) = 12.67485 29.75137 21.21311
# Shear Modulus (GPa) = 21.04990 30.08881 25.56935
#
# Velocity S-wave (km/s) = 3.05884 3.65708 3.37126
# Velocity P-wave (km/s) = 4.25549 5.57284 4.95811
#
# Compressibility (1/GPa) = 0.07889640
#
# Stress axis : x y z
#
# Youngs Moduli (GPa) = 69.67885 63.50724 26.91392
#
# Poissons Ratio (x) = 0.01636 0.01589
# Poissons Ratio (y) = 0.01795 -0.17950
# Poissons Ratio (z) = 0.04114 -0.42356
#
# Static dielectric constant tensor:
#      x y z
#    x 1.866390 0.003390 -0.021510 
#    y 0.003390 1.828140 0.011830 
#    z -0.021510 0.011830 1.870230 
# 
# From -- ./inp_files/455488.got.cif
#   From: 2010.05.17/outbox.cif.g08.bks.cpg/sg2_228_cif.got.tgz:455488.got - 2010.06.03 11:33:40.
