data_PCOD9020627
_publ_section_title
;
Structure prediction by ZEFSAII (Michael W. Deem and Ramdas Pophale) SiO2 
 PCOD9020627
Probable space group: P -1
;
_chemical_formula_sum "Si O2"
_cell_formula_units_Z 12
_cell_length_a 9.609675
_cell_length_b 12.106419
_cell_length_c 13.837084
_cell_angle_alpha 33.370962
_cell_angle_beta 90.067991
_cell_angle_gamma 114.830871
_cell_volume 573.780173
_symmetry_space_group_name_H-M "P -1"
_symmetry_group_IT_number 2
_symmetry_cell_setting 'triclinic'
loop_
_space_group_symop_operation_xyz
x,y,z
-x,-y,-z
loop_
_atom_site_type_symbol
_atom_site_label
_atom_site_fract_x
_atom_site_fract_y
_atom_site_fract_z
Si Si1 0.732047 0.818190 0.230077
Si Si2 0.184918 0.155956 0.004265
Si Si3 0.433783 0.847688 0.505470
Si Si4 0.434740 0.245359 0.114838
Si Si5 0.078607 0.284097 0.237972
Si Si6 0.864038 0.215075 0.114553
O O1 0.500000 0.500000 0.500000
O O2 0.732220 0.847121 0.094067
O O3 0.798330 0.072680 0.113189
O O4 0.926732 0.874443 0.206568
O O5 0.274846 0.483890 0.770375
O O6 0.285595 0.155897 0.095151
O O7 0.500000 0.000000 0.500000
O O8 0.340368 0.944373 0.384723
O O9 0.647351 0.009369 0.328767
O O10 0.500000 0.500000 0.000000
O O11 0.670459 0.437237 0.941760
O O12 0.008893 0.212905 0.176411
O O13 0.009256 0.435655 0.151909
O O14 0.000000 0.000000 0.500000
#
# Coordination Sequence:
#
# PCOD9020627 Si02
#       6
#     2   2   2   2   2   2
#     4  11  24  45  69  89 132 182 222 263 316 391
#     4  11  24  44  68  94 130 176 214 269 328 377
#     4  11  22  39  66  96 133 167 209 272 333 385
#     4  11  22  38  62  98 128 159 214 266 328 390
#     4  10  22  36  63  96 126 160 208 269 327 380
#     4  10  22  41  62  95 132 167 217 263 324 390
#
# _framework density 20.913933
#
# number of rings (size 3 to 8) (size 9 to 14) (size 15 to 20)
#    0.000    1.333    3.333    2.000    4.667    0.000 
#    0.000    8.333    0.000    0.000    0.000    0.000 
#    0.000    0.000    0.000    0.000    0.000    0.000 
#
# Total GULP energy -66956.971659 kJ/mol
# GULP energy per Si atom -5579.747638 kJ/mol
# Density = 2.086633 g / cm^3
# Si number density = 20.913933 Si / 1000 Ang^3
#
#
#
# Elastic Constant Matrix: (Units=GPa)
#
#
# Indices 1 2 3 4 5 6 
#
# 1 92.3672 48.5864 50.8332 22.7596 1.6177 24.7002
# 2 48.5864 169.0828 36.2242 8.8827 16.0862 7.4171
# 3 50.8332 36.2242 115.4962 9.2227 15.1127 16.3726
# 4 22.7596 8.8827 9.2227 26.8075 2.6047 4.8689
# 5 1.6177 16.0862 15.1127 2.6047 52.9535 10.5679
# 6 24.7002 7.4171 16.3726 4.8689 10.5679 46.2575
#
#
#
# Elastic Compliance Matrix: (Units=1/GPa)
#
#
# Indices 1 2 3 4 5 6 
#
# 1 0.022680 -0.004386 -0.006899 -0.014355 0.005032 -0.008604
# 2 -0.004386 0.007344 -0.000411 0.001353 -0.002388 0.001713
# 3 -0.006899 -0.000411 0.012074 0.002155 -0.003213 -0.000017
# 4 -0.014355 0.001353 0.002155 0.048199 -0.003437 0.002397
# 5 0.005032 -0.002388 -0.003213 -0.003437 0.021692 -0.005761
# 6 -0.008604 0.001713 -0.000017 0.002397 -0.005761 0.027007
#
#
# Mechanical properties :
#
#
# Convention : Reuss Voigt Hill
#
# Bulk Modulus (GPa) = 53.46043 72.02599 62.74321
# Shear Modulus (GPa) = 29.65168 41.29054 35.47111
#
# Velocity S-wave (km/s) = 3.76945 4.44814 4.12278
# Velocity P-wave (km/s) = 6.67552 7.80354 7.26147
#
# Compressibility (1/GPa) = 0.01870542
#
# Stress axis : x y z
#
# Youngs Moduli (GPa) = 44.09147 136.17051 82.81995
#
# Poissons Ratio (x) = 0.59729 0.57137
# Poissons Ratio (y) = 0.19340 0.03405
# Poissons Ratio (z) = 0.30418 0.05599
#
# Static dielectric constant tensor:
#      x y z
#    x 1.861970 -0.025660 -0.040660 
#    y -0.025660 1.785870 0.006000 
#    z -0.040660 0.006000 1.806150 
# 
# From -- ./inp_files/200055.got.cif
#   From: 2010.05.17/outbox.cif.g08.bks.cpg/sg2_101_cif.got.tgz:200055.got - 2010.06.03 11:33:40.
