data_PCOD9020553
_publ_section_title
;
Structure prediction by ZEFSAII (Michael W. Deem and Ramdas Pophale) SiO2 
 PCOD9020553
Probable space group: P -1
;
_chemical_formula_sum "Si O2"
_cell_formula_units_Z 16
_cell_length_a 5.756237
_cell_length_b 10.431620
_cell_length_c 25.838967
_cell_angle_alpha 32.127188
_cell_angle_beta 54.759198
_cell_angle_gamma 67.915049
_cell_volume 650.828807
_symmetry_space_group_name_H-M "P -1"
_symmetry_group_IT_number 2
_symmetry_cell_setting 'triclinic'
loop_
_space_group_symop_operation_xyz
x,y,z
-x,-y,-z
loop_
_atom_site_type_symbol
_atom_site_label
_atom_site_fract_x
_atom_site_fract_y
_atom_site_fract_z
Si Si1 0.356842 0.223556 0.563014
Si Si2 0.986345 0.472571 0.924162
Si Si3 0.714639 0.867988 0.046076
Si Si4 0.445498 0.114163 0.273708
Si Si5 0.483610 0.587064 0.269486
Si Si6 0.124725 0.351971 0.655232
Si Si7 0.068903 0.705594 0.721457
Si Si8 0.675494 0.031549 0.174006
O O1 0.161704 0.300924 0.606910
O O2 0.563051 0.467907 0.427061
O O3 0.576429 0.112743 0.607956
O O4 0.212533 0.991647 0.623889
O O5 0.159769 0.260255 0.972631
O O6 0.216536 0.719423 0.829617
O O7 0.958021 0.538727 0.844756
O O8 0.731259 0.317418 0.046826
O O9 0.515710 0.673150 0.176790
O O10 0.500000 0.000000 0.000000
O O11 0.000000 0.000000 0.000000
O O12 0.239007 0.273928 0.268626
O O13 0.404885 0.018175 0.253251
O O14 0.704855 0.404432 0.303522
O O15 0.595258 0.837983 0.203313
O O16 0.136315 0.513530 0.350221
O O17 0.099331 0.094804 0.778678
#
# Coordination Sequence:
#
# PCOD9020553 Si02
#       8
#     2   2   2   2   2   2   2   2
#     4   9  21  44  64  87 116 164 219 270 332 387
#     4  10  22  36  60  90 127 169 215 260 328 385
#     4  11  23  39  63  92 136 183 220 271 328 401
#     4  10  22  39  64  87 125 169 209 270 323 396
#     4  11  24  37  61  95 126 168 212 267 327 398
#     4  10  22  41  66  87 120 162 216 276 324 394
#     4  10  23  39  59  89 125 165 206 260 332 396
#     4  11  22  39  61  94 124 161 217 265 329 384
#
# _framework density 24.584039000000001
#
# number of rings (size 3 to 8) (size 9 to 14) (size 15 to 20)
#    0.000    1.750    1.250    1.875    3.500    5.000 
#    0.000    5.000    0.000    0.000    0.000    0.000 
#    0.000    0.000    0.000    0.000    0.000    0.000 
#
# Total GULP energy -89117.134635 kJ/mol
# GULP energy per Si atom -5569.820915 kJ/mol
# Density = 2.452808 g / cm^3
# Si number density = 24.584039 Si / 1000 Ang^3
#
#
#
# Elastic Constant Matrix: (Units=GPa)
#
#
# Indices 1 2 3 4 5 6 
#
# 1 47.6963 31.2764 20.7818 -0.2340 -5.8204 -6.9646
# 2 31.2764 106.4366 10.8185 -1.2330 -2.8219 -8.1189
# 3 20.7818 10.8185 101.1164 -8.2863 -6.5461 3.8159
# 4 -0.2340 -1.2330 -8.2863 34.0011 1.8758 -4.7200
# 5 -5.8204 -2.8219 -6.5461 1.8758 22.0475 -9.3794
# 6 -6.9646 -8.1189 3.8159 -4.7200 -9.3794 31.9712
#
#
#
# Elastic Compliance Matrix: (Units=1/GPa)
#
#
# Indices 1 2 3 4 5 6 
#
# 1 0.030448 -0.007591 -0.005225 -0.000743 0.008911 0.007833
# 2 -0.007591 0.011713 0.000315 0.000638 0.000138 0.001418
# 3 -0.005225 0.000315 0.011262 0.002421 0.001061 -0.001734
# 4 -0.000743 0.000638 0.002421 0.030609 -0.000229 0.004163
# 5 0.008911 0.000138 0.001061 -0.000229 0.055797 0.018185
# 6 0.007833 0.001418 -0.001734 0.004163 0.018185 0.039501
#
#
# Mechanical properties :
#
#
# Convention : Reuss Voigt Hill
#
# Bulk Modulus (GPa) = 35.18614 42.33363 38.75988
# Shear Modulus (GPa) = 23.38555 30.42880 26.90718
#
# Velocity S-wave (km/s) = 3.08758 3.52198 3.31191
# Velocity P-wave (km/s) = 5.20140 5.81347 5.51593
#
# Compressibility (1/GPa) = 0.02842028
#
# Stress axis : x y z
#
# Youngs Moduli (GPa) = 32.84306 85.37476 88.79135
#
# Poissons Ratio (x) = 0.64807 0.46396
# Poissons Ratio (y) = 0.24931 -0.02794
# Poissons Ratio (z) = 0.17161 -0.02686
#
# Static dielectric constant tensor:
#      x y z
#    x 2.108090 -0.037580 -0.126710 
#    y -0.037580 1.999180 0.043380 
#    z -0.126710 0.043380 2.097160 
# 
# From -- ./inp_files/442264.got.cif
#   From: 2010.05.17/outbox.cif.g08.bks.cpg/sg2_222_cif.got.tgz:442264.got - 2010.06.03 11:33:40.
