data_PCOD9020374
_publ_section_title
;
Structure prediction by ZEFSAII (Michael W. Deem and Ramdas Pophale) SiO2 
 PCOD9020374
Probable space group: P -1
;
_chemical_formula_sum "Si O2"
_cell_formula_units_Z 16
_cell_length_a 14.176316
_cell_length_b 10.546452
_cell_length_c 14.217932
_cell_angle_alpha 41.847691
_cell_angle_beta 140.322418
_cell_angle_gamma 112.694418
_cell_volume 813.006431
_symmetry_space_group_name_H-M "P -1"
_symmetry_group_IT_number 2
_symmetry_cell_setting 'triclinic'
loop_
_space_group_symop_operation_xyz
x,y,z
-x,-y,-z
loop_
_atom_site_type_symbol
_atom_site_label
_atom_site_fract_x
_atom_site_fract_y
_atom_site_fract_z
Si Si1 0.415476 0.864492 0.457618
Si Si2 0.088514 0.774016 0.745196
Si Si3 0.633181 0.229657 0.328693
Si Si4 0.903517 0.806731 0.079850
Si Si5 0.751630 0.506612 0.155092
Si Si6 0.304500 0.535700 0.204017
Si Si7 0.094515 0.794943 0.053028
Si Si8 0.143454 0.228611 0.277420
O O1 0.358916 0.768411 0.554415
O O2 0.527725 0.661608 0.591719
O O3 0.500000 0.000000 0.500000
O O4 0.261747 0.037365 0.189210
O O5 0.177207 0.599662 0.831318
O O6 0.945668 0.744254 0.706853
O O7 0.228146 0.720540 0.963739
O O8 0.000000 0.000000 0.500000
O O9 0.749176 0.327344 0.321052
O O10 0.695249 0.991375 0.472786
O O11 0.443004 0.347894 0.087300
O O12 0.047686 0.724697 0.156201
O O13 0.856946 0.634402 0.188199
O O14 0.929724 0.967539 0.080637
O O15 0.187721 0.415899 0.182663
O O16 0.269175 0.647005 0.218181
O O17 0.961798 0.802228 0.870551
#
# Coordination Sequence:
#
# PCOD9020374 Si02
#       8
#     2   2   2   2   2   2   2   2
#     4  12  19  35  60  85 107 143 187 231 276 320
#     4  11  20  31  52  82 113 137 171 228 278 324
#     4  11  21  33  57  85 110 139 185 226 277 323
#     4  11  21  38  59  78 115 145 188 226 271 340
#     4  11  21  36  54  85 112 145 177 231 282 322
#     4  11  21  35  59  82 113 141 183 235 275 321
#     4  10  22  35  57  83 111 148 184 225 278 325
#     4  11  19  36  57  83 110 141 183 231 274 328
#
# _framework density 19.680040000000002
#
# number of rings (size 3 to 8) (size 9 to 14) (size 15 to 20)
#    0.000    1.000    6.250    3.000    0.000    0.500 
#    0.000    0.625    0.000    0.750    0.000    0.000 
#    0.000    0.000    0.000    0.000    0.000    0.000 
#
# Total GULP energy -89182.110644 kJ/mol
# GULP energy per Si atom -5573.881915 kJ/mol
# Density = 1.963525 g / cm^3
# Si number density = 19.680040 Si / 1000 Ang^3
#
#
#
# Elastic Constant Matrix: (Units=GPa)
#
#
# Indices 1 2 3 4 5 6 
#
# 1 132.5283 37.5151 8.4898 -20.4475 4.9934 -16.2716
# 2 37.5151 90.3393 1.5807 -16.6399 -6.7039 -3.8375
# 3 8.4898 1.5807 61.9761 -19.4734 4.8548 -11.4392
# 4 -20.4475 -16.6399 -19.4734 22.0045 -2.4878 2.4826
# 5 4.9934 -6.7039 4.8548 -2.4878 39.5569 -19.1957
# 6 -16.2716 -3.8375 -11.4392 2.4826 -19.1957 30.2275
#
#
#
# Elastic Compliance Matrix: (Units=1/GPa)
#
#
# Indices 1 2 3 4 5 6 
#
# 1 0.010229 -0.002036 0.002874 0.009966 0.001901 0.006724
# 2 -0.002036 0.014950 0.004646 0.013588 0.005458 0.004910
# 3 0.002874 0.004646 0.026765 0.028980 0.005434 0.013337
# 4 0.009966 0.013588 0.028980 0.089922 0.012029 0.018311
# 5 0.001901 0.005458 0.005434 0.012029 0.039614 0.027941
# 6 0.006724 0.004910 0.013337 0.018311 0.027941 0.058613
#
#
# Mechanical properties :
#
#
# Convention : Reuss Voigt Hill
#
# Bulk Modulus (GPa) = 15.89513 42.22389 29.05951
# Shear Modulus (GPa) = 19.99245 34.17498 27.08372
#
# Velocity S-wave (km/s) = 3.19074 4.17169 3.71374
# Velocity P-wave (km/s) = 4.65497 6.68624 5.76084
#
# Compressibility (1/GPa) = 0.06291233
#
# Stress axis : x y z
#
# Youngs Moduli (GPa) = 97.75795 66.89001 37.36275
#
# Poissons Ratio (x) = 0.13618 -0.10739
# Poissons Ratio (y) = 0.19902 -0.17358
# Poissons Ratio (z) = -0.28099 -0.31076
#
# Static dielectric constant tensor:
#      x y z
#    x 1.756270 0.005150 0.041990 
#    y 0.005150 1.699590 -0.009700 
#    z 0.041990 -0.009700 1.758720 
# 
# From -- ./inp_files/266779.got.cif
#   From: 2010.05.17/outbox.cif.g08.bks.cpg/sg2_134_cif.got.tgz:266779.got - 2010.06.03 11:33:40.
