data_PCOD9020719
_publ_section_title
;
Structure prediction by ZEFSAII (Michael W. Deem and Ramdas Pophale) SiO2 
 PCOD9020719
Probable space group: P -1
;
_chemical_formula_sum "Si O2"
_cell_formula_units_Z 15
_cell_length_a 13.549189
_cell_length_b 9.880085
_cell_length_c 16.885833
_cell_angle_alpha 47.401453
_cell_angle_beta 157.143037
_cell_angle_gamma 125.219364
_cell_volume 637.541725
_symmetry_space_group_name_H-M "P -1"
_symmetry_group_IT_number 2
_symmetry_cell_setting 'triclinic'
loop_
_space_group_symop_operation_xyz
x,y,z
-x,-y,-z
loop_
_atom_site_type_symbol
_atom_site_label
_atom_site_fract_x
_atom_site_fract_y
_atom_site_fract_z
Si Si1 0.500000 0.000000 0.000000
Si Si2 0.601665 0.586115 0.167301
Si Si3 0.774314 0.641282 0.958663
Si Si4 0.574251 0.333764 0.466979
Si Si5 0.978712 0.065598 0.219953
Si Si6 0.445620 0.963528 0.303972
Si Si7 0.000663 0.333649 0.675865
Si Si8 0.219067 0.660772 0.162597
O O1 0.402475 0.213821 0.874718
O O2 0.263452 0.927994 0.904265
O O3 0.327294 0.522158 0.003093
O O4 0.724156 0.608567 0.162508
O O5 0.807665 0.433488 0.425625
O O6 0.585014 0.674407 0.728277
O O7 0.711955 0.829905 0.889141
O O8 0.048318 0.612019 0.129018
O O9 0.606560 0.136945 0.612489
O O10 0.417099 0.486932 0.347142
O O11 0.846075 0.389261 0.619755
O O12 0.250714 0.035557 0.477878
O O13 0.986502 0.886260 0.240128
O O14 0.951852 0.251738 0.073025
O O15 0.360932 0.829734 0.228051
#
# Coordination Sequence:
#
# PCOD9020719 Si02
#       8
#     1   2   2   2   2   2   2   2
#     4  10  22  36  68  96 122 166 210 264 310 376
#     4   9  18  34  60  98 117 161 216 255 308 373
#     4  11  21  40  65  92 126 171 212 257 310 381
#     4  11  21  39  62  91 128 170 208 260 318 368
#     4  11  21  42  67  90 127 169 213 252 319 373
#     4  12  24  41  64  94 129 171 207 259 319 373
#     4   9  18  35  64  89 118 167 215 249 307 382
#     4  12  26  39  63 100 132 160 212 266 312 372
#
# _framework density 23.527871999999999
#
# number of rings (size 3 to 8) (size 9 to 14) (size 15 to 20)
#    0.000    1.333    4.000    4.000    1.867    0.000 
#    0.000    0.667    0.000    2.400    0.000    0.000 
#    0.000    0.000    0.000    0.000    0.000    0.000 
#
# Total GULP energy -83685.426841 kJ/mol
# GULP energy per Si atom -5579.028456 kJ/mol
# Density = 2.347432 g / cm^3
# Si number density = 23.527872 Si / 1000 Ang^3
#
#
#
# Elastic Constant Matrix: (Units=GPa)
#
#
# Indices 1 2 3 4 5 6 
#
# 1 98.2018 27.2201 48.5527 1.2429 48.0566 11.6138
# 2 27.2201 108.4037 28.5087 -2.7595 14.3901 8.6137
# 3 48.5527 28.5087 93.0526 3.1539 33.5301 4.2398
# 4 1.2429 -2.7595 3.1539 37.1563 3.9626 2.2467
# 5 48.0566 14.3901 33.5301 3.9626 54.0297 11.7814
# 6 11.6138 8.6137 4.2398 2.2467 11.7814 38.7567
#
#
#
# Elastic Compliance Matrix: (Units=1/GPa)
#
#
# Indices 1 2 3 4 5 6 
#
# 1 0.020183 -0.001801 -0.004790 0.001184 -0.014409 -0.000812
# 2 -0.001801 0.010399 -0.002437 0.001077 0.000650 -0.001765
# 3 -0.004790 -0.002437 0.015834 -0.000918 -0.005263 0.001898
# 4 0.001184 0.001077 -0.000918 0.027377 -0.002489 -0.001324
# 5 -0.014409 0.000650 -0.005263 -0.002489 0.035913 -0.006024
# 6 -0.000812 -0.001765 0.001898 -0.001324 -0.006024 0.028138
#
#
# Mechanical properties :
#
#
# Convention : Reuss Voigt Hill
#
# Bulk Modulus (GPa) = 35.26070 56.46899 45.86484
# Shear Modulus (GPa) = 30.23824 39.01365 34.62595
#
# Velocity S-wave (km/s) = 3.58887 4.07650 3.84043
# Velocity P-wave (km/s) = 5.67386 6.79781 6.26110
#
# Compressibility (1/GPa) = 0.02836019
#
# Stress axis : x y z
#
# Youngs Moduli (GPa) = 49.54644 96.16185 63.15633
#
# Poissons Ratio (x) = 0.17316 0.30254
# Poissons Ratio (y) = 0.08922 0.15390
# Poissons Ratio (z) = 0.23735 0.23432
#
# Static dielectric constant tensor:
#      x y z
#    x 1.907570 0.013550 -0.026890 
#    y 0.013550 1.847980 0.070880 
#    z -0.026890 0.070880 1.930650 
# 
# From -- ./inp_files/216006.got.cif
#   From: 2010.05.17/outbox.cif.g08.bks.cpg/sg2_109_cif.got.tgz:216006.got - 2010.06.03 11:33:40.
