data_PCOD9020444
_publ_section_title
;
Structure prediction by ZEFSAII (Michael W. Deem and Ramdas Pophale) SiO2 
 PCOD9020444
Probable space group: P -1
;
_chemical_formula_sum "Si O2"
_cell_formula_units_Z 10
_cell_length_a 15.577702
_cell_length_b 8.112938
_cell_length_c 15.418194
_cell_angle_alpha 31.910427
_cell_angle_beta 19.561729
_cell_angle_gamma 34.438331
_cell_volume 341.448260
_symmetry_space_group_name_H-M "P -1"
_symmetry_group_IT_number 2
_symmetry_cell_setting 'triclinic'
loop_
_space_group_symop_operation_xyz
x,y,z
-x,-y,-z
loop_
_atom_site_type_symbol
_atom_site_label
_atom_site_fract_x
_atom_site_fract_y
_atom_site_fract_z
Si Si1 0.218393 0.684504 0.168149
Si Si2 0.632292 0.439443 0.109263
Si Si3 0.234364 0.688559 0.783094
Si Si4 0.776225 0.271058 0.411784
Si Si5 0.815325 0.062145 0.738518
O O1 0.224543 0.707079 0.048027
O O2 0.235058 0.957522 0.100893
O O3 0.000000 0.500000 0.500000
O O4 0.500000 0.500000 0.000000
O O5 0.735097 0.757668 0.904190
O O6 0.703392 0.203950 0.227548
O O7 0.334258 0.601720 0.300379
O O8 0.497852 0.453638 0.617149
O O9 0.219731 0.884116 0.619490
O O10 0.966581 0.540522 0.107517
O O11 0.873212 0.028273 0.505455
#
# Coordination Sequence:
#
# PCOD9020444 Si02
#       5
#     2   2   2   2   2
#     4  10  22  36  51  78 111 136 169 220 265 304
#     4   9  19  35  56  80 106 139 177 215 260 312
#     4   9  18  32  51  76 105 136 171 213 259 306
#     4   9  18  32  51  76 105 136 171 213 259 306
#     4   9  19  34  56  80 104 139 177 215 260 312
#
# _framework density 29.287013000000002
#
# number of rings (size 3 to 8) (size 9 to 14) (size 15 to 20)
#    0.000    2.800    0.000    0.000    0.000   16.000 
#    0.000    1.000    0.000    0.000    0.000   36.400 
#    0.000    0.000    0.000    0.000    0.000    0.000 
#
# Total GULP energy -55801.714938 kJ/mol
# GULP energy per Si atom -5580.171494 kJ/mol
# Density = 2.922035 g / cm^3
# Si number density = 29.287013 Si / 1000 Ang^3
#
#
#
# Elastic Constant Matrix: (Units=GPa)
#
#
# Indices 1 2 3 4 5 6 
#
# 1 208.3673 13.6912 69.9265 -4.3629 9.3439 3.9973
# 2 13.6912 65.7229 39.8631 -6.5698 -8.5467 14.9754
# 3 69.9265 39.8631 160.7198 4.7217 3.7511 8.2859
# 4 -4.3629 -6.5698 4.7217 26.5951 7.5549 1.3048
# 5 9.3439 -8.5467 3.7511 7.5549 48.0837 26.8780
# 6 3.9973 14.9754 8.2859 1.3048 26.8780 77.6706
#
#
#
# Elastic Compliance Matrix: (Units=1/GPa)
#
#
# Indices 1 2 3 4 5 6 
#
# 1 0.005751 0.000322 -0.002623 0.001854 -0.001346 0.000356
# 2 0.000322 0.021064 -0.005352 0.004601 0.006670 -0.005892
# 3 -0.002623 -0.005352 0.008772 -0.003058 -0.000996 0.000627
# 4 0.001854 0.004601 -0.003058 0.041320 -0.006250 0.000812
# 5 -0.001346 0.006670 -0.000996 -0.006250 0.029590 -0.011245
# 6 0.000356 -0.005892 0.000627 0.000812 -0.011245 0.017803
#
#
# Mechanical properties :
#
#
# Convention : Reuss Voigt Hill
#
# Bulk Modulus (GPa) = 49.30823 75.75241 62.53032
# Shear Modulus (GPa) = 34.16102 51.22517 42.69309
#
# Velocity S-wave (km/s) = 3.41900 4.18673 3.82219
# Velocity P-wave (km/s) = 5.69726 7.02092 6.39344
#
# Compressibility (1/GPa) = 0.02028059
#
# Stress axis : x y z
#
# Youngs Moduli (GPa) = 173.88948 47.47400 114.00510
#
# Poissons Ratio (x) = -0.01530 0.29908
# Poissons Ratio (y) = -0.05603 0.61013
# Poissons Ratio (z) = 0.45618 0.25407
#
# Static dielectric constant tensor:
#      x y z
#    x 2.528050 -0.073230 -0.099140 
#    y -0.073230 2.791070 0.403390 
#    z -0.099140 0.403390 2.562680 
# 
# From -- ./inp_files/18548.got.cif
#   From: 2010.05.17/outbox.cif.g08.bks.cpg/sg2_10_cif.got.tgz:18548.got - 2010.06.03 11:33:40.
