data_PCOD9020651
_publ_section_title
;
Structure prediction by ZEFSAII (Michael W. Deem and Ramdas Pophale) SiO2 
 PCOD9020651
Probable space group: P -1
;
_chemical_formula_sum "Si O2"
_cell_formula_units_Z 16
_cell_length_a 22.200172
_cell_length_b 12.009883
_cell_length_c 9.873633
_cell_angle_alpha 65.728354
_cell_angle_beta 144.129993
_cell_angle_gamma 141.506257
_cell_volume 759.364254
_symmetry_space_group_name_H-M "P -1"
_symmetry_group_IT_number 2
_symmetry_cell_setting 'triclinic'
loop_
_space_group_symop_operation_xyz
x,y,z
-x,-y,-z
loop_
_atom_site_type_symbol
_atom_site_label
_atom_site_fract_x
_atom_site_fract_y
_atom_site_fract_z
Si Si1 0.437804 0.786489 0.130435
Si Si2 0.994585 0.280743 0.543187
Si Si3 0.494587 0.208431 0.329344
Si Si4 0.405629 0.028613 0.975926
Si Si5 0.474407 0.603931 0.472505
Si Si6 0.062195 0.410880 0.020882
Si Si7 0.974408 0.844884 0.102030
Si Si8 0.905627 0.282643 0.098908
O O1 0.532406 0.775391 0.397650
O O2 0.514434 0.856996 0.081866
O O3 0.208645 0.537960 0.836346
O O4 0.474914 0.959918 0.165640
O O5 0.955304 0.116231 0.637705
O O6 0.823840 0.197499 0.323738
O O7 0.973915 0.261183 0.353287
O O8 0.455309 0.294383 0.298637
O O9 0.708647 0.379334 0.665658
O O10 0.323842 0.950184 0.197395
O O11 0.473916 0.186650 0.140553
O O12 0.500000 0.500000 0.500000
O O13 0.249999 0.389002 0.180497
O O14 0.025088 0.510091 0.849361
O O15 0.967595 0.210578 0.859369
O O16 0.985563 0.328124 0.075570
O O17 0.000000 0.000000 0.000000
#
# Coordination Sequence:
#
# PCOD9020651 Si02
#       8
#     2   2   2   2   2   2   2   2
#     4  10  22  38  59  93 121 157 197 249 297 370
#     4  10  22  38  60  87 126 154 201 248 300 363
#     4  10  22  38  60  87 126 154 201 248 300 363
#     4  10  22  36  64  91 122 157 191 247 321 354
#     4  10  24  41  63  85 119 164 208 252 296 360
#     4  10  22  38  59  93 121 157 197 249 297 370
#     4  10  24  41  63  85 119 164 208 252 296 360
#     4  10  22  36  64  91 122 157 191 247 321 354
#
# _framework density 21.070253999999998
#
# number of rings (size 3 to 8) (size 9 to 14) (size 15 to 20)
#    0.000    2.000    0.000    1.500   17.500    0.000 
#    0.000    1.250    5.500    0.000    0.000    0.000 
#    0.000    0.000    0.000    0.000    0.000    0.000 
#
# Total GULP energy -89243.773051 kJ/mol
# GULP energy per Si atom -5577.735816 kJ/mol
# Density = 2.102230 g / cm^3
# Si number density = 21.070254 Si / 1000 Ang^3
#
#
#
# Elastic Constant Matrix: (Units=GPa)
#
#
# Indices 1 2 3 4 5 6 
#
# 1 143.7046 53.8896 34.4427 -12.8716 -17.7660 -1.7221
# 2 53.8896 98.1411 24.5994 -23.0102 -15.2335 20.7610
# 3 34.4427 24.5994 61.2315 -5.3483 -14.1421 9.7591
# 4 -12.8716 -23.0102 -5.3483 26.4964 12.4034 -0.7232
# 5 -17.7660 -15.2335 -14.1421 12.4034 29.2282 4.3184
# 6 -1.7221 20.7610 9.7591 -0.7232 4.3184 20.8911
#
#
#
# Elastic Compliance Matrix: (Units=1/GPa)
#
#
# Indices 1 2 3 4 5 6 
#
# 1 0.010890 -0.007455 -0.005145 -0.001617 -0.000664 0.010791
# 2 -0.007455 0.023422 0.001518 0.013264 0.006548 -0.025494
# 3 -0.005145 0.001518 0.023820 -0.002741 0.012683 -0.015777
# 4 -0.001617 0.013264 -0.002741 0.056355 -0.018383 -0.006283
# 5 -0.000664 0.006548 0.012683 -0.018383 0.054773 -0.024446
# 6 0.010791 -0.025494 -0.015777 -0.006283 -0.024446 0.086297
#
#
# Mechanical properties :
#
#
# Convention : Reuss Voigt Hill
#
# Bulk Modulus (GPa) = 27.80249 58.77117 43.28683
# Shear Modulus (GPa) = 17.25866 27.99950 22.62908
#
# Velocity S-wave (km/s) = 2.86510 3.64931 3.28072
# Velocity P-wave (km/s) = 4.91618 6.76093 5.91096
#
# Compressibility (1/GPa) = 0.03596800
#
# Stress axis : x y z
#
# Youngs Moduli (GPa) = 91.82822 42.69526 41.98140
#
# Poissons Ratio (x) = 0.31829 0.21599
# Poissons Ratio (y) = 0.68458 -0.06373
# Poissons Ratio (z) = 0.47245 -0.06481
#
# Static dielectric constant tensor:
#      x y z
#    x 1.839060 -0.049410 -0.008040 
#    y -0.049410 1.876170 -0.029860 
#    z -0.008040 -0.029860 1.810980 
# 
# From -- ./inp_files/346102.got.cif
#   From: 2010.05.17/outbox.cif.g08.bks.cpg/sg2_174_cif.got.tgz:346102.got - 2010.06.03 11:33:40.
