data_PCOD9020608
_publ_section_title
;
Structure prediction by ZEFSAII (Michael W. Deem and Ramdas Pophale) SiO2 
 PCOD9020608
Probable space group: P -1
;
_chemical_formula_sum "Si O2"
_cell_formula_units_Z 15
_cell_length_a 6.657657
_cell_length_b 27.660268
_cell_length_c 13.477348
_cell_angle_alpha 22.419719
_cell_angle_beta 112.826691
_cell_angle_gamma 126.942154
_cell_volume 631.856788
_symmetry_space_group_name_H-M "P -1"
_symmetry_group_IT_number 2
_symmetry_cell_setting 'triclinic'
loop_
_space_group_symop_operation_xyz
x,y,z
-x,-y,-z
loop_
_atom_site_type_symbol
_atom_site_label
_atom_site_fract_x
_atom_site_fract_y
_atom_site_fract_z
Si Si1 0.702083 0.035970 0.688784
Si Si2 0.820354 0.269633 0.711678
Si Si3 0.281319 0.602353 0.286254
Si Si4 0.595357 0.440539 0.273866
Si Si5 0.065941 0.381618 0.206847
Si Si6 0.116093 0.785986 0.823691
Si Si7 0.000000 0.000000 0.500000
Si Si8 0.940839 0.890248 0.931878
O O1 0.785619 0.178435 0.512947
O O2 0.737256 0.111554 0.445071
O O3 0.383880 0.847444 0.010519
O O4 0.930866 0.008657 0.776725
O O5 0.632369 0.304472 0.554977
O O6 0.141774 0.457578 0.448702
O O7 0.881199 0.154627 0.899603
O O8 0.599065 0.700625 0.209415
O O9 0.000000 0.500000 0.500000
O O10 0.330811 0.759665 0.949917
O O11 0.277759 0.384741 0.314533
O O12 0.757168 0.534790 0.021815
O O13 0.800097 0.590488 0.110982
O O14 0.000000 0.500000 0.000000
O O15 0.051619 0.874672 0.715692
O O16 0.039782 0.975301 0.678475
#
# Coordination Sequence:
#
# PCOD9020608 Si02
#       8
#     2   2   2   2   2   2   1   2
#     4  10  23  41  63  95 130 163 217 274 319 380
#     4  11  23  40  64  94 132 171 213 265 321 385
#     4  11  21  40  61  89 134 178 213 263 314 379
#     4   9  22  44  64  94 127 162 214 268 321 388
#     4  10  22  45  71  92 120 166 212 267 334 391
#     4   9  21  40  61  91 131 171 214 269 311 380
#     4  10  22  36  62  96 124 178 220 258 306 378
#     4  11  24  39  62  96 135 176 217 261 316 378
#
# _framework density 23.739554999999999
#
# number of rings (size 3 to 8) (size 9 to 14) (size 15 to 20)
#    0.000    1.867    1.333    1.200    1.867    6.933 
#    4.800    1.333    0.000    0.000    0.000    0.000 
#    0.000    0.000    0.000    0.000    0.000    0.000 
#
# Total GULP energy -83505.241922 kJ/mol
# GULP energy per Si atom -5567.016128 kJ/mol
# Density = 2.368552 g / cm^3
# Si number density = 23.739555 Si / 1000 Ang^3
#
#
#
# Elastic Constant Matrix: (Units=GPa)
#
#
# Indices 1 2 3 4 5 6 
#
# 1 96.8403 32.4686 41.7019 -5.4881 59.9989 8.7461
# 2 32.4686 58.9824 29.6619 -11.5201 20.2566 11.1942
# 3 41.7019 29.6619 114.7067 2.3744 34.5986 18.9911
# 4 -5.4881 -11.5201 2.3744 32.4321 -0.7636 13.9019
# 5 59.9989 20.2566 34.5986 -0.7636 55.9009 5.0831
# 6 8.7461 11.1942 18.9911 13.9019 5.0831 33.3988
#
#
#
# Elastic Compliance Matrix: (Units=1/GPa)
#
#
# Indices 1 2 3 4 5 6 
#
# 1 0.033631 -0.005224 -0.000190 0.004671 -0.033680 -0.003766
# 2 -0.005224 0.026463 -0.003106 0.013543 -0.000853 -0.011243
# 3 -0.000190 -0.003106 0.012135 -0.000052 -0.005735 -0.004915
# 4 0.004671 0.013543 -0.000052 0.046579 -0.007066 -0.024045
# 5 -0.033680 -0.000853 -0.005735 -0.007066 0.057199 0.006602
# 6 -0.003766 -0.011243 -0.004915 -0.024045 0.006602 0.046494
#
#
# Mechanical properties :
#
#
# Convention : Reuss Voigt Hill
#
# Bulk Modulus (GPa) = 18.11912 53.13268 35.62590
# Shear Modulus (GPa) = 19.38449 35.45950 27.42200
#
# Velocity S-wave (km/s) = 2.86063 3.86902 3.40239
# Velocity P-wave (km/s) = 4.30813 6.51070 5.52038
#
# Compressibility (1/GPa) = 0.05519031
#
# Stress axis : x y z
#
# Youngs Moduli (GPa) = 29.73405 37.78790 82.40867
#
# Poissons Ratio (x) = 0.19739 0.01569
# Poissons Ratio (y) = 0.15532 0.25593
# Poissons Ratio (z) = 0.00566 0.11735
#
# Static dielectric constant tensor:
#      x y z
#    x 1.934800 0.001410 -0.002090 
#    y 0.001410 1.972160 0.020730 
#    z -0.002090 0.020730 1.894450 
# 
# From -- ./inp_files/486279.got.cif
#   From: 2010.05.17/outbox.cif.g08.bks.cpg/sg2_244_cif.got.tgz:486279.got - 2010.06.03 11:33:40.
