data_PCOD9020431
_publ_section_title
;
Structure prediction by ZEFSAII (Michael W. Deem and Ramdas Pophale) SiO2 
 PCOD9020431
Probable space group: P -1
;
_chemical_formula_sum "Si O2"
_cell_formula_units_Z 16
_cell_length_a 5.070673
_cell_length_b 8.813828
_cell_length_c 16.400579
_cell_angle_alpha 99.129458
_cell_angle_beta 79.776155
_cell_angle_gamma 58.622571
_cell_volume 587.704328
_symmetry_space_group_name_H-M "P -1"
_symmetry_group_IT_number 2
_symmetry_cell_setting 'triclinic'
loop_
_space_group_symop_operation_xyz
x,y,z
-x,-y,-z
loop_
_atom_site_type_symbol
_atom_site_label
_atom_site_fract_x
_atom_site_fract_y
_atom_site_fract_z
Si Si1 0.813675 0.449395 0.324896
Si Si2 0.825436 0.914591 0.423210
Si Si3 0.119795 0.569654 0.086207
Si Si4 0.568513 0.257335 0.232014
Si Si5 0.211739 0.777392 0.962309
Si Si6 0.457451 0.679791 0.207359
Si Si7 0.913994 0.257580 0.448248
Si Si8 0.484933 0.021089 0.711460
O O1 0.753040 0.288171 0.295268
O O2 0.554021 0.598184 0.287034
O O3 0.756878 0.456757 0.426644
O O4 0.172558 0.393481 0.273254
O O5 0.784860 0.853310 0.331412
O O6 0.066098 0.742191 0.454798
O O7 0.500000 0.000000 0.500000
O O8 0.862913 0.087057 0.428883
O O9 0.412805 0.353505 0.039251
O O10 0.241233 0.644434 0.158383
O O11 0.798125 0.592089 0.134932
O O12 0.065762 0.693052 0.020816
O O13 0.729453 0.266452 0.141103
O O14 0.635967 0.055365 0.220105
O O15 0.000000 0.000000 0.000000
O O16 0.350627 0.888582 0.247205
O O17 0.262709 0.154404 0.373549
#
# Coordination Sequence:
#
# PCOD9020431 Si02
#       8
#     2   2   2   2   2   2   2   2
#     4  11  21  40  63  89 128 170 206 265 324 382
#     4   9  17  35  58  93 126 161 213 269 323 379
#     4  11  27  46  65  99 137 177 221 282 340 394
#     4  11  22  41  61  93 122 163 226 264 317 392
#     4  11  24  45  71  97 135 178 224 276 340 405
#     4  12  24  45  65  94 137 173 217 276 337 387
#     4   9  19  34  61  91 127 165 216 267 320 390
#     4  10  22  35  65  92 124 171 220 270 322 395
#
# _framework density 27.224575999999999
#
# number of rings (size 3 to 8) (size 9 to 14) (size 15 to 20)
#    0.000    1.500    3.750    0.750    1.750    5.000 
#    0.000    4.375    0.000    6.750    0.000    0.000 
#    0.000    0.000    0.000    0.000    0.000    0.000 
#
# Total GULP energy -89346.548524 kJ/mol
# GULP energy per Si atom -5584.159283 kJ/mol
# Density = 2.716261 g / cm^3
# Si number density = 27.224576 Si / 1000 Ang^3
#
#
#
# Elastic Constant Matrix: (Units=GPa)
#
#
# Indices 1 2 3 4 5 6 
#
# 1 115.0913 16.6017 45.1287 -3.7686 5.2943 6.6115
# 2 16.6017 109.5056 17.6804 -26.8543 -8.2124 -2.1104
# 3 45.1287 17.6804 137.0565 -41.6168 -22.7236 14.5336
# 4 -3.7686 -26.8543 -41.6168 55.5581 3.6711 -4.1580
# 5 5.2943 -8.2124 -22.7236 3.6711 52.5963 3.0476
# 6 6.6115 -2.1104 14.5336 -4.1580 3.0476 25.0141
#
#
#
# Elastic Compliance Matrix: (Units=1/GPa)
#
#
# Indices 1 2 3 4 5 6 
#
# 1 0.011005 -0.002049 -0.005026 -0.003820 -0.003310 -0.000393
# 2 -0.002049 0.010900 0.001277 0.006068 0.001950 0.001491
# 3 -0.005026 0.001277 0.013213 0.009366 0.006074 -0.005424
# 4 -0.003820 0.006068 0.009366 0.027478 0.003447 0.000227
# 5 -0.003310 0.001950 0.006074 0.003447 0.022303 -0.004634
# 6 -0.000393 0.001491 -0.005424 0.000227 -0.004634 0.043961
#
#
# Mechanical properties :
#
#
# Convention : Reuss Voigt Hill
#
# Bulk Modulus (GPa) = 42.51832 57.83058 50.17445
# Shear Modulus (GPa) = 33.71612 45.44985 39.58299
#
# Velocity S-wave (km/s) = 3.52297 4.09031 3.81720
# Velocity P-wave (km/s) = 5.67450 6.60271 6.15612
#
# Compressibility (1/GPa) = 0.02351928
#
# Stress axis : x y z
#
# Youngs Moduli (GPa) = 90.86804 91.74607 75.68435
#
# Poissons Ratio (x) = 0.18803 0.38040
# Poissons Ratio (y) = 0.18623 -0.09662
# Poissons Ratio (z) = 0.45672 -0.11712
#
# Static dielectric constant tensor:
#      x y z
#    x 2.198300 -0.138780 0.041330 
#    y -0.138780 2.375990 -0.066480 
#    z 0.041330 -0.066480 2.159540 
# 
# From -- ./inp_files/140718.got.cif
#   From: 2010.05.17/outbox.cif.g08.bks.cpg/sg2_71_cif.got.tgz:140718.got - 2010.06.03 11:33:40.
