data_PCOD9020108
_publ_section_title
;
Structure prediction by ZEFSAII (Michael W. Deem and Ramdas Pophale) SiO2 
 PCOD9020108
Probable space group: P -1
;
_chemical_formula_sum "Si O2"
_cell_formula_units_Z 16
_cell_length_a 12.985166
_cell_length_b 9.261243
_cell_length_c 21.274594
_cell_angle_alpha 98.869154
_cell_angle_beta 38.487655
_cell_angle_gamma 128.744670
_cell_volume 896.964645
_symmetry_space_group_name_H-M "P -1"
_symmetry_group_IT_number 2
_symmetry_cell_setting 'triclinic'
loop_
_space_group_symop_operation_xyz
x,y,z
-x,-y,-z
loop_
_atom_site_type_symbol
_atom_site_label
_atom_site_fract_x
_atom_site_fract_y
_atom_site_fract_z
Si Si1 0.203757 0.890987 0.479760
Si Si2 0.371898 0.496003 0.346429
Si Si3 0.592871 0.970426 0.221206
Si Si4 0.188723 0.281037 0.944950
Si Si5 0.801648 0.891960 0.396557
Si Si6 0.725116 0.525787 0.464525
Si Si7 0.401988 0.478429 0.114168
Si Si8 0.828480 0.400653 0.713878
O O1 0.465801 0.009025 0.325341
O O2 0.950756 0.754255 0.543642
O O3 0.046344 0.653740 0.582477
O O4 0.290449 0.086380 0.495908
O O5 0.486878 0.742600 0.290298
O O6 0.581651 0.540706 0.209830
O O7 0.355117 0.476635 0.427638
O O8 0.426847 0.844431 0.225445
O O9 0.939393 0.221053 0.066200
O O10 0.364160 0.382608 0.932702
O O11 0.000000 0.000000 0.000000
O O12 0.813954 0.729794 0.394625
O O13 0.564528 0.749251 0.446794
O O14 0.114560 0.179196 0.248079
O O15 0.979581 0.591094 0.350470
O O16 0.310709 0.582899 0.170838
O O17 0.500000 0.500000 0.000000
#
# Coordination Sequence:
#
# PCOD9020108 Si02
#       8
#     2   2   2   2   2   2   2   2
#     4  10  17  35  57  87 114 138 198 256 271 331
#     4  10  17  33  59  83 112 151 189 233 294 329
#     4  10  17  30  58  91 115 141 190 246 281 338
#     4  10  19  33  55  89 120 144 187 241 285 348
#     4  10  25  39  52  87 121 148 200 238 285 355
#     4  11  22  38  60  80 117 162 188 236 298 345
#     4  11  23  38  59  87 118 152 192 243 290 338
#     4  10  18  35  58  86 111 146 198 240 285 338
#
# _framework density 17.837938999999999
#
# number of rings (size 3 to 8) (size 9 to 14) (size 15 to 20)
#    0.000    1.750    7.500    0.750    3.500    3.500 
#    0.000    0.625    0.000    3.000    0.000    0.000 
#    0.000    0.000    0.000    0.000    0.000    0.000 
#
# Total GULP energy -89232.558472 kJ/mol
# GULP energy per Si atom -5577.034905 kJ/mol
# Density = 1.779734 g / cm^3
# Si number density = 17.837939 Si / 1000 Ang^3
#
#
#
# Elastic Constant Matrix: (Units=GPa)
#
#
# Indices 1 2 3 4 5 6 
#
# 1 83.0573 40.0820 49.3315 2.6947 -23.9084 22.3180
# 2 40.0820 88.4041 52.8819 3.0789 -16.3604 27.6287
# 3 49.3315 52.8819 132.5707 32.1781 -29.6134 15.3918
# 4 2.6947 3.0789 32.1781 52.9911 9.8914 -0.9898
# 5 -23.9084 -16.3604 -29.6134 9.8914 28.5207 1.5991
# 6 22.3180 27.6287 15.3918 -0.9898 1.5991 28.5171
#
#
#
# Elastic Compliance Matrix: (Units=1/GPa)
#
#
# Indices 1 2 3 4 5 6 
#
# 1 0.024828 -0.000072 0.000218 -0.006334 0.024376 -0.021065
# 2 -0.000072 0.021534 -0.003915 -0.001034 0.009666 -0.019271
# 3 0.000218 -0.003915 0.019381 -0.016230 0.024180 -0.008757
# 4 -0.006334 -0.001034 -0.016230 0.036226 -0.036328 0.018014
# 5 0.024376 0.009666 0.024180 -0.036328 0.101463 -0.048443
# 6 -0.021065 -0.019271 -0.008757 0.018014 -0.048443 0.078292
#
#
# Mechanical properties :
#
#
# Convention : Reuss Voigt Hill
#
# Bulk Modulus (GPa) = 17.18086 65.40255 41.29171
# Shear Modulus (GPa) = 16.19884 32.78822 24.49353
#
# Velocity S-wave (km/s) = 3.01676 4.29198 3.70958
# Velocity P-wave (km/s) = 4.66765 7.82981 6.44565
#
# Compressibility (1/GPa) = 0.05820431
#
# Stress axis : x y z
#
# Youngs Moduli (GPa) = 40.27788 46.43763 51.59628
#
# Poissons Ratio (x) = 0.00336 -0.01126
# Poissons Ratio (y) = 0.00291 0.20202
# Poissons Ratio (z) = -0.00879 0.18182
#
# Static dielectric constant tensor:
#      x y z
#    x 1.602780 -0.003510 -0.010780 
#    y -0.003510 1.625530 0.026460 
#    z -0.010780 0.026460 1.621330 
# 
# From -- ./inp_files/216731.got.cif
#   From: 2010.05.17/outbox.cif.g08.bks.cpg/sg2_109_cif.got.tgz:216731.got - 2010.06.03 11:33:40.
