data_PCOD9020942
_publ_section_title
;
Structure prediction by ZEFSAII (Michael W. Deem and Ramdas Pophale) SiO2 
 PCOD9020942
Probable space group: P -1
;
_chemical_formula_sum "Si O2"
_cell_formula_units_Z 16
_cell_length_a 11.243851
_cell_length_b 8.022049
_cell_length_c 14.114109
_cell_angle_alpha 45.209341
_cell_angle_beta 53.023037
_cell_angle_gamma 72.055051
_cell_volume 706.593106
_symmetry_space_group_name_H-M "P -1"
_symmetry_group_IT_number 2
_symmetry_cell_setting 'triclinic'
loop_
_space_group_symop_operation_xyz
x,y,z
-x,-y,-z
loop_
_atom_site_type_symbol
_atom_site_label
_atom_site_fract_x
_atom_site_fract_y
_atom_site_fract_z
Si Si1 0.550684 0.694880 0.479148
Si Si2 0.342527 0.027024 0.380527
Si Si3 0.860462 0.676791 0.522031
Si Si4 0.539239 0.174713 0.057638
Si Si5 0.959717 0.260762 0.411218
Si Si6 0.560683 0.354187 0.769413
Si Si7 0.124612 0.699796 0.062790
Si Si8 0.905003 0.925633 0.215391
O O1 0.500000 0.500000 0.500000
O O2 0.473097 0.920856 0.411254
O O3 0.505358 0.560905 0.653924
O O4 0.731556 0.779692 0.349121
O O5 0.219136 0.794607 0.497767
O O6 0.255381 0.179539 0.427870
O O7 0.412794 0.180976 0.194907
O O8 0.744402 0.434946 0.642696
O O9 0.941877 0.863416 0.329770
O O10 0.976392 0.620952 0.567681
O O11 0.506880 0.897755 0.148074
O O12 0.524779 0.324402 0.909852
O O13 0.704443 0.243479 0.000377
O O14 0.051048 0.420633 0.220991
O O15 0.000000 0.000000 0.500000
O O16 0.020682 0.825202 0.132434
O O17 0.105461 0.812657 0.923971
#
# Coordination Sequence:
#
# PCOD9020942 Si02
#       8
#     2   2   2   2   2   2   2   2
#     4  11  19  39  62  96 127 166 212 259 318 382
#     4  11  23  41  67  89 133 172 207 258 325 383
#     4  10  23  43  62  98 128 168 217 259 319 388
#     4  11  22  40  63  99 125 164 213 262 321 372
#     4  10  23  43  62  91 129 176 214 250 326 389
#     4  10  22  37  62  95 129 154 215 264 307 375
#     4  11  21  42  66  94 132 168 210 272 321 376
#     4  10  23  37  66  97 126 165 217 264 324 374
#
# _framework density 22.643867
#
# number of rings (size 3 to 8) (size 9 to 14) (size 15 to 20)
#    0.000    1.500    3.750    0.750    1.750    6.000 
#    0.000    2.500    0.000    0.000    0.000    0.000 
#    0.000    0.000    0.000    0.000    0.000    0.000 
#
# Total GULP energy -89419.950795 kJ/mol
# GULP energy per Si atom -5588.746925 kJ/mol
# Density = 2.259233 g / cm^3
# Si number density = 22.643867 Si / 1000 Ang^3
#
#
#
# Elastic Constant Matrix: (Units=GPa)
#
#
# Indices 1 2 3 4 5 6 
#
# 1 73.2053 3.6407 27.9699 -3.7342 0.7023 0.0345
# 2 3.6407 54.9100 23.8226 4.9010 3.2239 -8.7767
# 3 27.9699 23.8226 171.6996 -2.4527 31.3110 4.5803
# 4 -3.7342 4.9010 -2.4527 31.5924 5.2080 -7.7531
# 5 0.7023 3.2239 31.3110 5.2080 56.1381 0.3266
# 6 0.0345 -8.7767 4.5803 -7.7531 0.3266 17.4330
#
#
#
# Elastic Compliance Matrix: (Units=1/GPa)
#
#
# Indices 1 2 3 4 5 6 
#
# 1 0.014737 0.000194 -0.002647 0.001689 0.001115 0.001494
# 2 0.000194 0.021557 -0.003468 -0.000926 0.000714 0.011339
# 3 -0.002647 -0.003468 0.007571 0.000652 -0.004031 -0.003365
# 4 0.001689 -0.000926 0.000652 0.036522 -0.003811 0.015673
# 5 0.001115 0.000714 -0.004031 -0.003811 0.020364 -0.000660
# 6 0.001494 0.011339 -0.003365 0.015673 -0.000660 0.070935
#
#
# Mechanical properties :
#
#
# Convention : Reuss Voigt Hill
#
# Bulk Modulus (GPa) = 31.22922 45.63124 38.43023
# Shear Modulus (GPa) = 25.74663 37.32482 31.53572
#
# Velocity S-wave (km/s) = 3.37564 4.06438 3.73592
# Velocity P-wave (km/s) = 5.38652 6.49777 5.96807
#
# Compressibility (1/GPa) = 0.03202129
#
# Stress axis : x y z
#
# Youngs Moduli (GPa) = 67.85862 46.38968 132.08910
#
# Poissons Ratio (x) = -0.00898 0.34958
# Poissons Ratio (y) = -0.01314 0.45813
# Poissons Ratio (z) = 0.17959 0.16089
#
# Static dielectric constant tensor:
#      x y z
#    x 1.875930 0.037100 0.015420 
#    y 0.037100 1.894800 -0.005510 
#    z 0.015420 -0.005510 1.858290 
# 
# From -- ./inp_files/262301.got.cif
#   From: 2010.05.17/outbox.cif.g08.bks.cpg/sg2_132_cif.got.tgz:262301.got - 2010.06.03 11:33:40.
