data_PCOD9020908
_publ_section_title
;
Structure prediction by ZEFSAII (Michael W. Deem and Ramdas Pophale) SiO2 
 PCOD9020908
Probable space group: P -1
;
_chemical_formula_sum "Si O2"
_cell_formula_units_Z 14
_cell_length_a 8.677183
_cell_length_b 17.380077
_cell_length_c 12.466667
_cell_angle_alpha 141.214934
_cell_angle_beta 145.980640
_cell_angle_gamma 35.287990
_cell_volume 575.999043
_symmetry_space_group_name_H-M "P -1"
_symmetry_group_IT_number 2
_symmetry_cell_setting 'triclinic'
loop_
_space_group_symop_operation_xyz
x,y,z
-x,-y,-z
loop_
_atom_site_type_symbol
_atom_site_label
_atom_site_fract_x
_atom_site_fract_y
_atom_site_fract_z
Si Si1 0.838284 0.080064 0.304002
Si Si2 0.471823 0.656555 0.138497
Si Si3 0.555577 0.993215 0.851431
Si Si4 0.989850 0.719162 0.086375
Si Si5 0.553143 0.353689 0.332851
Si Si6 0.460384 0.096511 0.476487
Si Si7 0.351542 0.449365 0.102573
O O1 0.571281 0.096264 0.251451
O O2 0.809008 0.227484 0.412176
O O3 0.176254 0.976381 0.432345
O O4 0.770458 0.025267 0.092066
O O5 0.642272 0.740395 0.379854
O O6 0.124228 0.747574 0.086102
O O7 0.500000 0.500000 0.000000
O O8 0.555005 0.647931 0.052843
O O9 0.696539 0.930054 0.748317
O O10 0.240506 0.147174 0.831954
O O11 0.294419 0.603374 0.201277
O O12 0.767715 0.655557 0.850880
O O13 0.500000 0.500000 0.500000
O O14 0.596494 0.360480 0.238475
O O15 0.500000 0.000000 0.500000
O O16 0.000000 0.500000 0.000000
#
# Coordination Sequence:
#
# PCOD9020908 Si02
#       7
#     2   2   2   2   2   2   2
#     4  10  23  42  66  95 137 173 222 275 332 399
#     4  10  22  41  64  96 128 173 226 271 334 399
#     4  10  22  44  69  97 127 178 225 268 337 392
#     4   9  19  39  68  88 126 173 214 274 323 402
#     4  10  22  37  61  99 127 171 221 271 335 395
#     4  12  27  40  70 102 135 175 227 280 334 402
#     4   9  20  37  64  87 128 171 212 269 330 392
#
# _framework density 24.305596000000001
#
# number of rings (size 3 to 8) (size 9 to 14) (size 15 to 20)
#    0.000    2.000    1.429    0.429    8.000    4.000 
#    0.000    0.714    0.000    0.000    0.000    0.000 
#    0.000    0.000    0.000    0.000    0.000    0.000 
#
# Total GULP energy -77975.984269 kJ/mol
# GULP energy per Si atom -5569.713162 kJ/mol
# Density = 2.425028 g / cm^3
# Si number density = 24.305596 Si / 1000 Ang^3
#
#
#
# Elastic Constant Matrix: (Units=GPa)
#
#
# Indices 1 2 3 4 5 6 
#
# 1 94.4314 -0.9392 49.0169 14.2955 -25.9578 2.8385
# 2 -0.9392 82.7265 17.2975 26.6787 4.6205 23.7562
# 3 49.0169 17.2975 100.7707 38.6186 -25.5835 3.4971
# 4 14.2955 26.6787 38.6186 41.9300 -2.5073 5.6709
# 5 -25.9578 4.6205 -25.5835 -2.5073 41.8558 -1.9581
# 6 2.8385 23.7562 3.4971 5.6709 -1.9581 24.2009
#
#
#
# Elastic Compliance Matrix: (Units=1/GPa)
#
#
# Indices 1 2 3 4 5 6 
#
# 1 0.015480 0.001844 -0.006456 0.000125 0.005351 -0.002289
# 2 0.001844 0.021499 -0.000150 -0.011806 -0.002906 -0.018768
# 3 -0.006456 -0.000150 0.021972 -0.017782 0.008498 0.002583
# 4 0.000125 -0.011806 -0.017782 0.046951 -0.006553 0.002612
# 5 0.005351 -0.002906 0.008498 -0.006553 0.032574 0.005169
# 6 -0.002289 -0.018768 0.002583 0.002612 0.005169 0.059445
#
#
# Mechanical properties :
#
#
# Convention : Reuss Voigt Hill
#
# Bulk Modulus (GPa) = 20.23174 45.40879 32.82026
# Shear Modulus (GPa) = 22.32930 35.76756 29.04843
#
# Velocity S-wave (km/s) = 3.03428 3.84028 3.46082
# Velocity P-wave (km/s) = 4.54068 6.19569 5.43159
#
# Compressibility (1/GPa) = 0.04942729
#
# Stress axis : x y z
#
# Youngs Moduli (GPa) = 64.59890 46.51335 45.51233
#
# Poissons Ratio (x) = -0.08576 0.29385
# Poissons Ratio (y) = -0.11911 0.00680
# Poissons Ratio (z) = 0.41708 0.00695
#
# Static dielectric constant tensor:
#      x y z
#    x 2.052560 0.080160 0.048580 
#    y 0.080160 2.107240 0.013410 
#    z 0.048580 0.013410 2.059630 
# 
# From -- ./inp_files/260419.got.cif
#   From: 2010.05.17/outbox.cif.g08.bks.cpg/sg2_131_cif.got.tgz:260419.got - 2010.06.03 11:33:40.
