data_PCOD9020939
_publ_section_title
;
Structure prediction by ZEFSAII (Michael W. Deem and Ramdas Pophale) SiO2 
 PCOD9020939
Probable space group: P -1
;
_chemical_formula_sum "Si O2"
_cell_formula_units_Z 16
_cell_length_a 11.995731
_cell_length_b 23.221001
_cell_length_c 17.777620
_cell_angle_alpha 18.321264
_cell_angle_beta 136.785162
_cell_angle_gamma 148.095759
_cell_volume 728.703927
_symmetry_space_group_name_H-M "P -1"
_symmetry_group_IT_number 2
_symmetry_cell_setting 'triclinic'
loop_
_space_group_symop_operation_xyz
x,y,z
-x,-y,-z
loop_
_atom_site_type_symbol
_atom_site_label
_atom_site_fract_x
_atom_site_fract_y
_atom_site_fract_z
Si Si1 0.872668 0.029880 0.742229
Si Si2 0.613616 0.691878 0.744020
Si Si3 0.680967 0.610537 0.385630
Si Si4 0.644609 0.943464 0.873184
Si Si5 0.799102 0.557042 0.252461
Si Si6 0.867578 0.495311 0.834636
Si Si7 0.869161 0.469096 0.561340
Si Si8 0.902536 0.682504 0.780110
O O1 0.680145 0.989152 0.744368
O O2 0.801136 0.778005 0.985308
O O3 0.062926 0.136197 0.768117
O O4 0.008833 0.268745 0.455101
O O5 0.408255 0.644215 0.661134
O O6 0.720807 0.640569 0.797029
O O7 0.846998 0.002185 0.494812
O O8 0.500000 0.500000 0.000000
O O9 0.500000 0.500000 0.500000
O O10 0.695711 0.417805 0.600303
O O11 0.637245 0.719883 0.163587
O O12 0.869991 0.218938 0.684452
O O13 0.385677 0.791315 0.961726
O O14 0.055257 0.678926 0.205331
O O15 0.771312 0.444398 0.461716
O O16 0.819249 0.570342 0.793921
O O17 0.038127 0.465810 0.971637
#
# Coordination Sequence:
#
# PCOD9020939 Si02
#       8
#     2   2   2   2   2   2   2   2
#     4  11  21  37  64  92 126 167 203 255 311 380
#     4  11  24  45  68  88 127 173 207 260 322 367
#     4  11  20  37  59  91 130 160 205 247 308 373
#     4  11  20  39  62  92 129 162 201 257 313 371
#     4  11  21  39  64  89 126 165 207 255 314 372
#     4  11  23  40  67  94 123 162 213 265 315 362
#     4  10  22  37  62  94 126 165 203 251 311 385
#     4  10  25  44  62  96 124 158 220 269 303 372
#
# _framework density 21.956790000000002
#
# number of rings (size 3 to 8) (size 9 to 14) (size 15 to 20)
#    0.000    1.250    3.750    3.000    0.000    3.000 
#    0.000    3.750    2.750    0.000    0.000    0.000 
#    0.000    0.000    0.000    0.000    0.000    0.000 
#
# Total GULP energy -89291.444113 kJ/mol
# GULP energy per Si atom -5580.715257 kJ/mol
# Density = 2.190682 g / cm^3
# Si number density = 21.956790 Si / 1000 Ang^3
#
#
#
# Elastic Constant Matrix: (Units=GPa)
#
#
# Indices 1 2 3 4 5 6 
#
# 1 108.8423 18.6940 30.8417 2.4091 -16.8452 3.2025
# 2 18.6940 102.1896 34.2732 10.3990 -16.6067 -0.3581
# 3 30.8417 34.2732 84.9877 6.9437 -14.2117 -4.3792
# 4 2.4091 10.3990 6.9437 23.8843 -3.7814 0.7546
# 5 -16.8452 -16.6067 -14.2117 -3.7814 31.9768 -7.3506
# 6 3.2025 -0.3581 -4.3792 0.7546 -7.3506 16.3180
#
#
#
# Elastic Compliance Matrix: (Units=1/GPa)
#
#
# Indices 1 2 3 4 5 6 
#
# 1 0.010786 -0.000326 -0.003260 0.000651 0.003842 -0.001298
# 2 -0.000326 0.012166 -0.003679 -0.003539 0.004439 0.001507
# 3 -0.003260 -0.003679 0.015761 -0.002123 0.004740 0.007022
# 4 0.000651 -0.003539 -0.002123 0.044398 0.002411 -0.001742
# 5 0.003842 0.004439 0.004740 0.002411 0.042512 0.019654
# 6 -0.001298 0.001507 0.007022 -0.001742 0.019654 0.072388
#
#
# Mechanical properties :
#
#
# Convention : Reuss Voigt Hill
#
# Bulk Modulus (GPa) = 41.35165 51.51528 46.43346
# Shear Modulus (GPa) = 22.66525 28.58319 25.62422
#
# Velocity S-wave (km/s) = 3.21638 3.61195 3.41989
# Velocity P-wave (km/s) = 5.71555 6.39593 6.06529
#
# Compressibility (1/GPa) = 0.02418283
#
# Stress axis : x y z
#
# Youngs Moduli (GPa) = 92.71385 82.19562 63.44787
#
# Poissons Ratio (x) = 0.02680 0.20686
# Poissons Ratio (y) = 0.03023 0.23341
# Poissons Ratio (z) = 0.30227 0.30237
#
# Static dielectric constant tensor:
#      x y z
#    x 2.400010 0.294880 -0.428040 
#    y 0.294880 1.968710 -0.288150 
#    z -0.428040 -0.288150 2.247830 
# 
# From -- ./inp_files/570929.got.cif
#   From: 2010.05.17/outbox.cif.g08.bks.cpg/sg2_286_cif.got.tgz:570929.got - 2010.06.03 11:33:40.
