data_PCOD9020253
_publ_section_title
;
Structure prediction by ZEFSAII (Michael W. Deem and Ramdas Pophale) SiO2 
 PCOD9020253
Probable space group: P -1
;
_chemical_formula_sum "Si O2"
_cell_formula_units_Z 12
_cell_length_a 14.041127
_cell_length_b 11.497305
_cell_length_c 7.830689
_cell_angle_alpha 89.573225
_cell_angle_beta 90.724567
_cell_angle_gamma 18.888841
_cell_volume 408.477406
_symmetry_space_group_name_H-M "P -1"
_symmetry_group_IT_number 2
_symmetry_cell_setting 'triclinic'
loop_
_space_group_symop_operation_xyz
x,y,z
-x,-y,-z
loop_
_atom_site_type_symbol
_atom_site_label
_atom_site_fract_x
_atom_site_fract_y
_atom_site_fract_z
Si Si1 0.097433 0.800559 0.211917
Si Si2 0.266057 0.159431 0.888851
Si Si3 0.517041 0.894985 0.335969
Si Si4 0.393373 0.769928 0.012151
Si Si5 0.067981 0.082830 0.338405
Si Si6 0.681021 0.045309 0.422840
O O1 0.296832 0.621397 0.060129
O O2 0.349126 0.443809 0.336195
O O3 0.985838 0.043709 0.306633
O O4 0.861775 0.985413 0.121347
O O5 0.459704 0.040868 0.819997
O O6 0.420028 0.878569 0.999124
O O7 0.154986 0.218900 0.715052
O O8 0.000000 0.500000 0.000000
O O9 0.287567 0.064746 0.400353
O O10 0.796208 0.486421 0.320574
O O11 0.500000 0.000000 0.500000
O O12 0.300570 0.842277 0.196871
O O13 0.217876 0.943024 0.522950
#
# Coordination Sequence:
#
# PCOD9020253 Si02
#       6
#     2   2   2   2   2   2
#     4  11  27  49  75 111 155 197 256 309 379 451
#     4  10  21  48  70 106 146 198 246 310 373 447
#     4  10  24  45  71 110 150 195 248 313 378 452
#     4  11  26  48  75 112 150 201 253 313 374 452
#     4  12  25  45  78 109 150 200 247 317 378 447
#     4  10  26  45  72 113 146 196 252 312 376 449
#
# _framework density 29.377392
#
# number of rings (size 3 to 8) (size 9 to 14) (size 15 to 20)
#    0.000    1.333    1.667    1.500    9.333    3.333 
#    6.000    4.167    0.000    0.000    0.000    0.000 
#    0.000    0.000    0.000    0.000    0.000    0.000 
#
# Total GULP energy -67244.533200 kJ/mol
# GULP energy per Si atom -5603.711100 kJ/mol
# Density = 2.931053 g / cm^3
# Si number density = 29.377392 Si / 1000 Ang^3
#
#
#
# Elastic Constant Matrix: (Units=GPa)
#
#
# Indices 1 2 3 4 5 6 
#
# 1 195.0469 56.6911 80.7765 15.3165 14.4327 9.2392
# 2 56.6911 153.5590 64.3480 24.6688 24.9719 3.7793
# 3 80.7765 64.3480 193.3355 18.1655 -0.7807 -15.7880
# 4 15.3165 24.6688 18.1655 59.1824 -2.6927 12.7105
# 5 14.4327 24.9719 -0.7807 -2.6927 82.6332 -0.5652
# 6 9.2392 3.7793 -15.7880 12.7105 -0.5652 62.9544
#
#
#
# Elastic Compliance Matrix: (Units=1/GPa)
#
#
# Indices 1 2 3 4 5 6 
#
# 1 0.006656 -0.001216 -0.002486 -0.000168 -0.000834 -0.001501
# 2 -0.001216 0.008731 -0.002186 -0.002689 -0.002537 -0.000374
# 3 -0.002486 -0.002186 0.007263 -0.001173 0.001143 0.002565
# 4 -0.000168 -0.002689 -0.001173 0.019346 0.001434 -0.004001
# 5 -0.000834 -0.002537 0.001143 0.001434 0.013074 0.000389
# 6 -0.001501 -0.000374 0.002565 -0.004001 0.000389 0.017582
#
#
# Mechanical properties :
#
#
# Convention : Reuss Voigt Hill
#
# Bulk Modulus (GPa) = 91.96686 105.06360 98.51523
# Shear Modulus (GPa) = 56.78403 63.62906 60.20654
#
# Velocity S-wave (km/s) = 4.40126 4.65899 4.53196
# Velocity P-wave (km/s) = 7.56316 8.04877 7.80974
#
# Compressibility (1/GPa) = 0.01087348
#
# Stress axis : x y z
#
# Youngs Moduli (GPa) = 150.23765 114.53808 137.68184
#
# Poissons Ratio (x) = 0.13925 0.34234
# Poissons Ratio (y) = 0.18265 0.30098
# Poissons Ratio (z) = 0.37356 0.25039
#
# Static dielectric constant tensor:
#      x y z
#    x 2.330040 0.028310 -0.038120 
#    y 0.028310 2.290250 -0.019200 
#    z -0.038120 -0.019200 2.406880 
# 
# From -- ./inp_files/228227.got.cif
#   From: 2010.05.17/outbox.cif.g08.bks.cpg/sg2_115_cif.got.tgz:228227.got - 2010.06.03 11:33:40.
