data_PCOD9020740
_publ_section_title
;
Structure prediction by ZEFSAII (Michael W. Deem and Ramdas Pophale) SiO2 
 PCOD9020740
Probable space group: P -1
;
_chemical_formula_sum "Si O2"
_cell_formula_units_Z 12
_cell_length_a 9.284243
_cell_length_b 10.107390
_cell_length_c 10.555036
_cell_angle_alpha 114.316837
_cell_angle_beta 46.351126
_cell_angle_gamma 136.733594
_cell_volume 482.907106
_symmetry_space_group_name_H-M "P -1"
_symmetry_group_IT_number 2
_symmetry_cell_setting 'triclinic'
loop_
_space_group_symop_operation_xyz
x,y,z
-x,-y,-z
loop_
_atom_site_type_symbol
_atom_site_label
_atom_site_fract_x
_atom_site_fract_y
_atom_site_fract_z
Si Si1 0.703344 0.938169 0.923204
Si Si2 0.752729 0.986579 0.642485
Si Si3 0.460486 0.048236 0.696774
Si Si4 0.548678 0.623189 0.206431
Si Si5 0.065673 0.233583 0.216017
Si Si6 0.702431 0.415611 0.139367
O O1 0.752745 0.054826 0.812173
O O2 0.934992 0.931634 0.796015
O O3 0.441339 0.712313 0.954241
O O4 0.663514 0.995680 0.102377
O O5 0.726230 0.089308 0.588211
O O6 0.482758 0.220785 0.697669
O O7 0.000000 0.000000 0.500000
O O8 0.486542 0.754875 0.709781
O O9 0.229410 0.857806 0.680048
O O10 0.254346 0.422991 0.264032
O O11 0.660875 0.568501 0.223703
O O12 0.759474 0.701380 0.994070
O O13 0.000000 0.500000 0.000000
#
# Coordination Sequence:
#
# PCOD9020740 Si02
#       6
#     2   2   2   2   2   2
#     4   8  18  33  56  84 111 144 190 234 275 338
#     4  10  22  37  54  81 121 155 182 235 295 335
#     4  11  19  34  61  86 106 153 194 232 282 346
#     4   9  17  31  53  88 115 137 189 246 277 327
#     4   9  17  31  56  87 116 136 183 248 287 320
#     4   9  18  33  57  84 113 149 185 235 284 331
#
# _framework density 24.849499000000002
#
# number of rings (size 3 to 8) (size 9 to 14) (size 15 to 20)
#    1.000    1.667    0.000    4.500    0.000    0.000 
#    0.000    1.667    0.000    4.000    0.000    0.000 
#    0.000    0.167    0.000    0.000    0.000    0.000 
#
# Total GULP energy -67021.447543 kJ/mol
# GULP energy per Si atom -5585.120629 kJ/mol
# Density = 2.479294 g / cm^3
# Si number density = 24.849499 Si / 1000 Ang^3
#
#
#
# Elastic Constant Matrix: (Units=GPa)
#
#
# Indices 1 2 3 4 5 6 
#
# 1 188.1788 75.4969 24.1398 2.0057 -29.9196 -9.1595
# 2 75.4969 82.2041 20.5522 -9.1401 -20.8939 -8.9369
# 3 24.1398 20.5522 53.5321 8.7679 -12.7561 -3.2787
# 4 2.0057 -9.1401 8.7679 26.9196 6.9246 -3.4537
# 5 -29.9196 -20.8939 -12.7561 6.9246 56.4711 -4.5417
# 6 -9.1595 -8.9369 -3.2787 -3.4537 -4.5417 45.8461
#
#
#
# Elastic Compliance Matrix: (Units=1/GPa)
#
#
# Indices 1 2 3 4 5 6 
#
# 1 0.008972 -0.008177 0.000332 -0.004132 0.002321 0.000141
# 2 -0.008177 0.023265 -0.006325 0.010537 0.001830 0.003424
# 3 0.000332 -0.006325 0.023887 -0.011117 0.004608 0.000161
# 4 -0.004132 0.010537 -0.011117 0.046692 -0.006259 0.003331
# 5 0.002321 0.001830 0.004608 -0.006259 0.021651 0.002823
# 6 0.000141 0.003424 0.000161 0.003331 0.002823 0.023050
#
#
# Mechanical properties :
#
#
# Convention : Reuss Voigt Hill
#
# Bulk Modulus (GPa) = 35.99038 62.69922 49.34480
# Shear Modulus (GPa) = 27.00980 39.42910 33.21945
#
# Velocity S-wave (km/s) = 3.30045 3.98768 3.66023
# Velocity P-wave (km/s) = 5.38876 6.81825 6.14521
#
# Compressibility (1/GPa) = 0.02778520
#
# Stress axis : x y z
#
# Youngs Moduli (GPa) = 111.45609 42.98278 41.86291
#
# Poissons Ratio (x) = 0.35148 -0.01390
# Poissons Ratio (y) = 0.91140 0.26476
# Poissons Ratio (z) = -0.03701 0.27185
#
# Static dielectric constant tensor:
#      x y z
#    x 2.082150 0.113540 -0.037370 
#    y 0.113540 2.145520 -0.037780 
#    z -0.037370 -0.037780 2.121020 
# 
# From -- ./inp_files/276512.got.cif
#   From: 2010.05.17/outbox.cif.g08.bks.cpg/sg2_139_cif.got.tgz:276512.got - 2010.06.03 11:33:40.
