data_PCOD9020306
_publ_section_title
;
Structure prediction by ZEFSAII (Michael W. Deem and Ramdas Pophale) SiO2 
 PCOD9020306
Probable space group: P -1
;
_chemical_formula_sum "Si O2"
_cell_formula_units_Z 16
_cell_length_a 11.611297
_cell_length_b 12.176138
_cell_length_c 14.579748
_cell_angle_alpha 29.728941
_cell_angle_beta 125.537767
_cell_angle_gamma 114.386373
_cell_volume 809.956456
_symmetry_space_group_name_H-M "P -1"
_symmetry_group_IT_number 2
_symmetry_cell_setting 'triclinic'
loop_
_space_group_symop_operation_xyz
x,y,z
-x,-y,-z
loop_
_atom_site_type_symbol
_atom_site_label
_atom_site_fract_x
_atom_site_fract_y
_atom_site_fract_z
Si Si1 0.009222 0.220686 0.961749
Si Si2 0.051732 0.714475 0.328597
Si Si3 0.326460 0.117224 0.267240
Si Si4 0.816235 0.184395 0.206312
Si Si5 0.321212 0.383839 0.261449
Si Si6 0.904723 0.706153 0.643039
Si Si7 0.505736 0.297940 0.077700
Si Si8 0.368149 0.618048 0.624944
O O1 0.989191 0.254768 0.819140
O O2 0.919765 0.455171 0.792938
O O3 0.172994 0.205493 0.082748
O O4 0.986496 0.967208 0.157689
O O5 0.225170 0.650403 0.473908
O O6 0.000000 0.500000 0.500000
O O7 0.333666 0.273973 0.244636
O O8 0.444462 0.121092 0.239358
O O9 0.342040 0.857788 0.494010
O O10 0.668683 0.220021 0.171976
O O11 0.946672 0.264872 0.260725
O O12 0.868353 0.917608 0.402706
O O13 0.771716 0.357827 0.977215
O O14 0.226943 0.257229 0.372061
O O15 0.484191 0.395099 0.354475
O O16 0.500000 0.500000 0.000000
O O17 0.403064 0.407981 0.864726
#
# Coordination Sequence:
#
# PCOD9020306 Si02
#       8
#     2   2   2   2   2   2   2   2
#     4  10  22  40  60  87 114 150 200 240 287 340
#     4  10  22  42  64  84 109 148 202 253 289 328
#     4  11  20  34  57  88 120 151 186 238 294 344
#     4  10  22  34  53  85 122 161 188 223 285 354
#     4  11  21  35  55  85 124 154 186 227 291 357
#     4  11  22  38  55  83 124 160 189 227 283 357
#     4  11  19  33  54  84 122 149 191 237 282 339
#     4  10  22  35  58  87 113 150 194 241 296 336
#
# _framework density 19.754149000000002
#
# number of rings (size 3 to 8) (size 9 to 14) (size 15 to 20)
#    0.000    1.500    3.750    2.250    1.750    1.000 
#    4.500    0.625    0.000    3.750    0.000    0.000 
#    0.000    0.000    0.000    0.000    0.000    0.000 
#
# Total GULP energy -89196.287392 kJ/mol
# GULP energy per Si atom -5574.767962 kJ/mol
# Density = 1.970919 g / cm^3
# Si number density = 19.754149 Si / 1000 Ang^3
#
#
#
# Elastic Constant Matrix: (Units=GPa)
#
#
# Indices 1 2 3 4 5 6 
#
# 1 40.5840 26.6002 23.9470 -6.8754 -8.2619 0.8818
# 2 26.6002 69.8828 44.9284 -4.3639 4.1007 8.5642
# 3 23.9470 44.9284 125.1016 -11.4953 -2.5277 13.2809
# 4 -6.8754 -4.3639 -11.4953 35.8152 7.9674 1.2128
# 5 -8.2619 4.1007 -2.5277 7.9674 30.8395 -1.8118
# 6 0.8818 8.5642 13.2809 1.2128 -1.8118 15.2419
#
#
#
# Elastic Compliance Matrix: (Units=1/GPa)
#
#
# Indices 1 2 3 4 5 6 
#
# 1 0.038405 -0.014671 -0.002712 0.001683 0.012152 0.009695
# 2 -0.014671 0.024994 -0.005240 0.000755 -0.008448 -0.009693
# 3 -0.002712 -0.005240 0.011398 0.002791 -0.000232 -0.007080
# 4 0.001683 0.000755 0.002791 0.031195 -0.007854 -0.006369
# 5 0.012152 -0.008448 -0.000232 -0.007854 0.039376 0.009552
# 6 0.009695 -0.009693 -0.007080 -0.006369 0.009552 0.078305
#
#
# Mechanical properties :
#
#
# Convention : Reuss Voigt Hill
#
# Bulk Modulus (GPa) = 33.84032 47.39107 40.61570
# Shear Modulus (GPa) = 17.93608 25.71884 21.82746
#
# Velocity S-wave (km/s) = 3.01652 3.61216 3.32769
# Velocity P-wave (km/s) = 5.41299 6.43735 5.94726
#
# Compressibility (1/GPa) = 0.02955055
#
# Stress axis : x y z
#
# Youngs Moduli (GPa) = 26.03857 40.00991 87.73634
#
# Poissons Ratio (x) = 0.58699 0.23790
# Poissons Ratio (y) = 0.38202 0.45975
# Poissons Ratio (z) = 0.07060 0.20966
#
# Static dielectric constant tensor:
#      x y z
#    x 1.710440 0.018410 0.002750 
#    y 0.018410 1.678800 -0.032190 
#    z 0.002750 -0.032190 1.754750 
# 
# From -- ./inp_files/518600.got.cif
#   From: 2010.05.17/outbox.cif.g08.bks.cpg/sg2_260_cif.got.tgz:518600.got - 2010.06.03 11:33:40.
