data_PCOD9020356
_publ_section_title
;
Structure prediction by ZEFSAII (Michael W. Deem and Ramdas Pophale) SiO2 
 PCOD9020356
Probable space group: P -1
;
_chemical_formula_sum "Si O2"
_cell_formula_units_Z 15
_cell_length_a 12.351114
_cell_length_b 10.900107
_cell_length_c 11.229028
_cell_angle_alpha 90.582758
_cell_angle_beta 47.448968
_cell_angle_gamma 55.549717
_cell_volume 700.640742
_symmetry_space_group_name_H-M "P -1"
_symmetry_group_IT_number 2
_symmetry_cell_setting 'triclinic'
loop_
_space_group_symop_operation_xyz
x,y,z
-x,-y,-z
loop_
_atom_site_type_symbol
_atom_site_label
_atom_site_fract_x
_atom_site_fract_y
_atom_site_fract_z
Si Si1 0.118479 0.533597 0.527127
Si Si2 0.184949 0.208968 0.441698
Si Si3 0.497702 0.448659 0.366365
Si Si4 0.068110 0.188624 0.008414
Si Si5 0.000000 0.000000 0.000000
Si Si6 0.357856 0.396994 0.783518
Si Si7 0.328801 0.004089 0.578598
Si Si8 0.668716 0.800808 0.023025
O O1 0.226245 0.328666 0.426734
O O2 0.277504 0.509276 0.496384
O O3 0.057298 0.639066 0.449035
O O4 0.861296 0.682668 0.777010
O O5 0.192760 0.144282 0.566744
O O6 0.395411 0.005415 0.211187
O O7 0.500000 0.500000 0.500000
O O8 0.733362 0.220744 0.165266
O O9 0.510312 0.564554 0.280674
O O10 0.159642 0.071076 0.812289
O O11 0.257997 0.141455 0.936114
O O12 0.996584 0.106952 0.116601
O O13 0.872169 0.410815 0.114465
O O14 0.298984 0.350164 0.937930
O O15 0.514032 0.210571 0.580942
O O16 0.500000 0.000000 0.500000
#
# Coordination Sequence:
#
# PCOD9020356 Si02
#       8
#     2   2   2   2   1   2   2   2
#     4  11  23  40  63  87 121 159 202 245 295 363
#     4  10  23  39  59  90 120 160 200 244 299 351
#     4  11  23  38  61  87 122 158 199 247 303 353
#     4  11  20  33  58  86 118 152 195 251 296 346
#     4  10  22  36  54  88 122 150 194 246 302 354
#     4  10  22  35  54  90 117 154 196 247 303 346
#     4  11  21  35  60  86 119 151 198 247 291 348
#     4  11  21  36  60  86 119 155 201 244 298 348
#
# _framework density 21.408975999999999
#
# number of rings (size 3 to 8) (size 9 to 14) (size 15 to 20)
#    0.000    1.333    2.667    4.800    3.733    0.000 
#    0.000    2.667    0.000   14.400    0.000    0.000 
#    0.000    0.000    0.000    0.000    0.000    0.000 
#
# Total GULP energy -83548.806735 kJ/mol
# GULP energy per Si atom -5569.920449 kJ/mol
# Density = 2.136025 g / cm^3
# Si number density = 21.408976 Si / 1000 Ang^3
#
#
#
# Elastic Constant Matrix: (Units=GPa)
#
#
# Indices 1 2 3 4 5 6 
#
# 1 78.5158 35.3749 1.0313 11.5458 1.6018 5.6632
# 2 35.3749 92.1040 16.3145 33.6557 15.7225 7.4315
# 3 1.0313 16.3145 62.6211 20.8757 17.6147 -5.2292
# 4 11.5458 33.6557 20.8757 39.6653 5.0114 5.1443
# 5 1.6018 15.7225 17.6147 5.0114 21.1160 0.6914
# 6 5.6632 7.4315 -5.2292 5.1443 0.6914 27.7453
#
#
#
# Elastic Compliance Matrix: (Units=1/GPa)
#
#
# Indices 1 2 3 4 5 6 
#
# 1 0.015753 -0.006944 0.000002 0.001040 0.003780 -0.001642
# 2 -0.006944 0.021335 0.004237 -0.016406 -0.014997 -0.000083
# 3 0.000002 0.004237 0.027066 -0.016009 -0.022179 0.007487
# 4 0.001040 -0.016406 -0.016009 0.046405 0.014734 -0.007807
# 5 0.003780 -0.014997 -0.022179 0.014734 0.073422 -0.005496
# 6 -0.001642 -0.000083 0.007487 -0.007807 -0.005496 0.039395
#
#
# Mechanical properties :
#
#
# Convention : Reuss Voigt Hill
#
# Bulk Modulus (GPa) = 17.02276 37.63137 27.32706
# Shear Modulus (GPa) = 20.13146 29.73997 24.93571
#
# Velocity S-wave (km/s) = 3.06980 3.73115 3.41652
# Velocity P-wave (km/s) = 4.53138 6.01478 5.32499
#
# Compressibility (1/GPa) = 0.05874490
#
# Stress axis : x y z
#
# Youngs Moduli (GPa) = 63.47972 46.87034 36.94675
#
# Poissons Ratio (x) = 0.32546 -0.00008
# Poissons Ratio (y) = 0.44079 -0.15653
# Poissons Ratio (z) = -0.00015 -0.19857
#
# Static dielectric constant tensor:
#      x y z
#    x 1.708450 -0.109370 0.025700 
#    y -0.109370 1.628890 0.005730 
#    z 0.025700 0.005730 1.863230 
# 
# From -- ./inp_files/428362.got.cif
#   From: 2010.05.17/outbox.cif.g08.bks.cpg/sg2_215_cif.got.tgz:428362.got - 2010.06.03 11:33:40.
