data_PCOD9020315
_publ_section_title
;
Structure prediction by ZEFSAII (Michael W. Deem and Ramdas Pophale) SiO2 
 PCOD9020315
Probable space group: P -1
;
_chemical_formula_sum "Si O2"
_cell_formula_units_Z 14
_cell_length_a 5.146929
_cell_length_b 16.362035
_cell_length_c 9.813351
_cell_angle_alpha 124.067622
_cell_angle_beta 76.110921
_cell_angle_gamma 106.256466
_cell_volume 653.610101
_symmetry_space_group_name_H-M "P -1"
_symmetry_group_IT_number 2
_symmetry_cell_setting 'triclinic'
loop_
_space_group_symop_operation_xyz
x,y,z
-x,-y,-z
loop_
_atom_site_type_symbol
_atom_site_label
_atom_site_fract_x
_atom_site_fract_y
_atom_site_fract_z
Si Si1 0.377228 0.392367 0.979568
Si Si2 0.731333 0.923748 0.011332
Si Si3 0.215301 0.615171 0.837351
Si Si4 0.568760 0.110860 0.272348
Si Si5 0.017164 0.250541 0.200639
Si Si6 0.472616 0.296091 0.608332
Si Si7 0.092400 0.394076 0.550773
O O1 0.060366 0.390275 0.044301
O O2 0.534272 0.380358 0.088368
O O3 0.500000 0.500000 0.000000
O O4 0.431235 0.310902 0.786794
O O5 0.567286 0.895226 0.865792
O O6 0.812980 0.822792 0.965118
O O7 0.584724 0.995115 0.192143
O O8 0.000000 0.000000 0.000000
O O9 0.199485 0.708622 0.828640
O O10 0.175265 0.513296 0.659372
O O11 0.864770 0.178237 0.270120
O O12 0.440751 0.180484 0.456770
O O13 0.168986 0.346253 0.354320
O O14 0.252511 0.347286 0.604796
O O15 0.769651 0.358061 0.584372
#
# Coordination Sequence:
#
# PCOD9020315 Si02
#       7
#     2   2   2   2   2   2   2
#     4  12  23  40  57  78 114 162 205 231 263 325
#     4   9  17  35  58  86 111 143 180 231 300 343
#     4  12  24  37  58  83 120 159 189 233 280 332
#     4   9  19  35  59  87 111 144 184 239 290 338
#     4  10  22  34  56  88 121 145 184 232 299 346
#     4  11  21  36  60  81 114 148 201 235 269 325
#     4  11  20  36  56  85 116 153 182 239 281 334
#
# _framework density 21.419498000000001
#
# number of rings (size 3 to 8) (size 9 to 14) (size 15 to 20)
#    0.000    1.429    4.286    1.714    2.000    0.000 
#    0.000    3.571    0.000    1.714    0.000    0.000 
#    0.000    0.000    0.000    0.000    0.000    0.000 
#
# Total GULP energy -78182.891780 kJ/mol
# GULP energy per Si atom -5584.492270 kJ/mol
# Density = 2.137075 g / cm^3
# Si number density = 21.419498 Si / 1000 Ang^3
#
#
#
# Elastic Constant Matrix: (Units=GPa)
#
#
# Indices 1 2 3 4 5 6 
#
# 1 48.0357 11.6002 4.2983 6.3492 7.0973 -2.9378
# 2 11.6002 83.0498 60.2695 27.4373 -3.1217 -22.7251
# 3 4.2983 60.2695 137.7463 44.4263 -0.7439 -9.6638
# 4 6.3492 27.4373 44.4263 41.0697 -8.2386 -8.4639
# 5 7.0973 -3.1217 -0.7439 -8.2386 30.1995 -1.2173
# 6 -2.9378 -22.7251 -9.6638 -8.4639 -1.2173 36.9753
#
#
#
# Elastic Compliance Matrix: (Units=1/GPa)
#
#
# Indices 1 2 3 4 5 6 
#
# 1 0.023302 -0.004043 0.002714 -0.005626 -0.007421 -0.001456
# 2 -0.004043 0.022409 -0.007943 -0.002993 0.002689 0.010779
# 3 0.002714 -0.007943 0.014336 -0.012354 -0.004633 -0.003900
# 4 -0.005626 -0.002993 -0.012354 0.044223 0.012976 0.005035
# 5 -0.007421 0.002689 -0.004633 0.012976 0.038726 0.004097
# 6 -0.001456 0.010779 -0.003900 0.005035 0.004097 0.033822
#
#
# Mechanical properties :
#
#
# Convention : Reuss Voigt Hill
#
# Bulk Modulus (GPa) = 24.09382 46.79643 35.44513
# Shear Modulus (GPa) = 23.90093 34.49315 29.19704
#
# Velocity S-wave (km/s) = 3.34406 4.01729 3.69603
# Velocity P-wave (km/s) = 5.11696 6.58886 5.89900
#
# Compressibility (1/GPa) = 0.04150442
#
# Stress axis : x y z
#
# Youngs Moduli (GPa) = 42.91399 44.62480 69.75341
#
# Poissons Ratio (x) = 0.18043 -0.18933
# Poissons Ratio (y) = 0.17351 0.55403
# Poissons Ratio (z) = -0.11648 0.35444
#
# Static dielectric constant tensor:
#      x y z
#    x 1.861690 0.007820 -0.031260 
#    y 0.007820 1.791900 0.051260 
#    z -0.031260 0.051260 1.804280 
# 
# From -- ./inp_files/32517.got.cif
#   From: 2010.05.17/outbox.cif.g08.bks.cpg/sg2_17_cif.got.tgz:32517.got - 2010.06.03 11:33:40.
