data_PCOD9020661
_publ_section_title
;
Structure prediction by ZEFSAII (Michael W. Deem and Ramdas Pophale) SiO2 
 PCOD9020661
Probable space group: P -1
;
_chemical_formula_sum "Si O2"
_cell_formula_units_Z 13
_cell_length_a 5.020330
_cell_length_b 17.843394
_cell_length_c 12.627288
_cell_angle_alpha 153.967141
_cell_angle_beta 75.678306
_cell_angle_gamma 104.463072
_cell_volume 480.011659
_symmetry_space_group_name_H-M "P -1"
_symmetry_group_IT_number 2
_symmetry_cell_setting 'triclinic'
loop_
_space_group_symop_operation_xyz
x,y,z
-x,-y,-z
loop_
_atom_site_type_symbol
_atom_site_label
_atom_site_fract_x
_atom_site_fract_y
_atom_site_fract_z
Si Si1 0.591599 0.747427 0.239993
Si Si2 0.318740 0.321053 0.314856
Si Si3 0.876076 0.233730 0.555367
Si Si4 0.527530 0.714023 0.967389
Si Si5 0.123912 0.963696 0.324933
Si Si6 0.698755 0.329247 0.468277
Si Si7 0.000000 0.500000 0.000000
O O1 0.283190 0.672807 0.207686
O O2 0.600756 0.909416 0.523326
O O3 0.820524 0.625350 0.094135
O O4 0.606563 0.794438 0.175931
O O5 0.500000 0.500000 0.500000
O O6 0.326152 0.229481 0.084550
O O7 0.484837 0.239532 0.291084
O O8 0.006691 0.345398 0.408884
O O9 0.736901 0.241733 0.466666
O O10 0.976310 0.058131 0.366016
O O11 0.116940 0.383395 0.733087
O O12 0.594153 0.519164 0.731425
O O13 0.218147 0.774910 0.058688
O O14 0.000000 0.000000 0.500000
#
# Coordination Sequence:
#
# PCOD9020661 Si02
#       7
#     2   2   2   2   2   2   1
#     4  11  23  39  63 101 130 174 219 277 349 411
#     4  10  24  45  69 103 129 179 238 287 331 395
#     4  11  24  41  64  97 141 170 223 282 346 407
#     4  11  22  42  68  94 132 179 224 281 339 400
#     4  11  25  41  62 101 139 177 222 275 348 422
#     4  11  25  44  72 100 134 177 235 288 335 400
#     4  10  22  36  64  96 130 172 220 270 354 398
#
# _framework density 27.082671999999999
#
# number of rings (size 3 to 8) (size 9 to 14) (size 15 to 20)
#    0.000    1.231    3.077    2.769    4.308    4.923 
#    0.000    1.538    0.000    0.000    0.000    0.000 
#    0.000    0.000    0.000    0.000    0.000    0.000 
#
# Total GULP energy -72550.275572 kJ/mol
# GULP energy per Si atom -5580.790429 kJ/mol
# Density = 2.702103 g / cm^3
# Si number density = 27.082672 Si / 1000 Ang^3
#
#
#
# Elastic Constant Matrix: (Units=GPa)
#
#
# Indices 1 2 3 4 5 6 
#
# 1 162.5618 99.7243 68.2468 1.5713 -30.2579 -35.0191
# 2 99.7243 202.4563 91.3251 -19.3770 -26.8387 -64.7988
# 3 68.2468 91.3251 105.6519 -13.1130 -24.6206 -14.4387
# 4 1.5713 -19.3770 -13.1130 41.2381 -12.3147 -2.8383
# 5 -30.2579 -26.8387 -24.6206 -12.3147 64.5617 -4.3627
# 6 -35.0191 -64.7988 -14.4387 -2.8383 -4.3627 66.0570
#
#
#
# Elastic Compliance Matrix: (Units=1/GPa)
#
#
# Indices 1 2 3 4 5 6 
#
# 1 0.010178 -0.002499 -0.003916 -0.002067 0.001987 0.002130
# 2 -0.002499 0.014532 -0.007585 0.006526 0.004021 0.011818
# 3 -0.003916 -0.007585 0.018764 0.002908 0.002375 -0.005134
# 4 -0.002067 0.006526 0.002908 0.031681 0.009431 0.007925
# 5 0.001987 0.004021 0.002375 0.009431 0.021291 0.007328
# 6 0.002130 0.011818 -0.005134 0.007925 0.007328 0.027563
#
#
# Mechanical properties :
#
#
# Convention : Reuss Voigt Hill
#
# Bulk Modulus (GPa) = 64.63145 109.91805 87.27475
# Shear Modulus (GPa) = 31.81300 48.46294 40.13797
#
# Velocity S-wave (km/s) = 3.43105 4.23477 3.85392
# Velocity P-wave (km/s) = 6.29384 8.03650 7.21796
#
# Compressibility (1/GPa) = 0.01547234
#
# Stress axis : x y z
#
# Youngs Moduli (GPa) = 98.25517 68.81322 53.29319
#
# Poissons Ratio (x) = 0.17198 0.20872
# Poissons Ratio (y) = 0.24556 0.40423
# Poissons Ratio (z) = 0.38481 0.52195
#
# Static dielectric constant tensor:
#      x y z
#    x 2.646820 0.309810 0.198970 
#    y 0.309810 2.269770 0.022070 
#    z 0.198970 0.022070 2.195300 
# 
# From -- ./inp_files/63533.got.cif
#   From: 2010.05.17/outbox.cif.g08.bks.cpg/sg2_32_cif.got.tgz:63533.got - 2010.06.03 11:33:40.
