data_PCOD9020467
_publ_section_title
;
Structure prediction by ZEFSAII (Michael W. Deem and Ramdas Pophale) SiO2 
 PCOD9020467
Probable space group: P -1
;
_chemical_formula_sum "Si O2"
_cell_formula_units_Z 16
_cell_length_a 19.303522
_cell_length_b 8.876986
_cell_length_c 9.595930
_cell_angle_alpha 42.481954
_cell_angle_beta 131.006183
_cell_angle_gamma 141.382078
_cell_volume 680.524330
_symmetry_space_group_name_H-M "P -1"
_symmetry_group_IT_number 2
_symmetry_cell_setting 'triclinic'
loop_
_space_group_symop_operation_xyz
x,y,z
-x,-y,-z
loop_
_atom_site_type_symbol
_atom_site_label
_atom_site_fract_x
_atom_site_fract_y
_atom_site_fract_z
Si Si1 0.338002 0.973523 0.074697
Si Si2 0.241176 0.856203 0.308233
Si Si3 0.949523 0.042133 0.042176
Si Si4 0.347364 0.473107 0.353783
Si Si5 0.873496 0.359284 0.147883
Si Si6 0.716511 0.089765 0.355761
Si Si7 0.058230 0.259185 0.499186
Si Si8 0.511644 0.668535 0.209826
O O1 0.334088 0.022106 0.198812
O O2 0.326411 0.692682 0.221974
O O3 0.219897 0.888999 0.905334
O O4 0.445657 0.220655 0.964025
O O5 0.167252 0.533839 0.391233
O O6 0.283526 0.869091 0.510281
O O7 0.155118 0.942638 0.137917
O O8 0.915849 0.819570 0.266872
O O9 0.053582 0.343849 0.029903
O O10 0.000000 0.000000 0.000000
O O11 0.258751 0.143572 0.473394
O O12 0.389422 0.525810 0.212283
O O13 0.446454 0.515072 0.556631
O O14 0.966624 0.323391 0.352714
O O15 0.804009 0.343023 0.202111
O O16 0.593483 0.943306 0.224773
O O17 0.000000 0.000000 0.500000
#
# Coordination Sequence:
#
# PCOD9020467 Si02
#       8
#     2   2   2   2   2   2   2   2
#     4  11  21  34  61  84 113 142 190 237 275 335
#     4  11  24  37  51  93 118 139 194 242 277 327
#     4  11  23  37  58  76 116 156 188 231 282 327
#     4   9  19  37  65  81 107 152 188 223 286 339
#     4  10  22  36  55  85 104 150 202 225 262 345
#     4   9  19  38  58  78 118 142 183 239 269 336
#     4  11  23  38  56  75 119 154 184 232 285 325
#     4   8  19  39  62  83 110 144 194 224 271 353
#
# _framework density 23.511279999999999
#
# number of rings (size 3 to 8) (size 9 to 14) (size 15 to 20)
#    0.750    1.250    0.000    3.375    5.250    5.000 
#    0.000    1.250    0.000    0.000    0.000    0.000 
#    0.000    0.000    0.000    0.000    0.000    0.000 
#
# Total GULP energy -89333.934812 kJ/mol
# GULP energy per Si atom -5583.370926 kJ/mol
# Density = 2.345777 g / cm^3
# Si number density = 23.511280 Si / 1000 Ang^3
#
#
#
# Elastic Constant Matrix: (Units=GPa)
#
#
# Indices 1 2 3 4 5 6 
#
# 1 72.7169 -0.0134 34.7636 -5.3149 -27.9434 1.4655
# 2 -0.0134 26.4584 0.2701 -6.4494 3.4645 0.2909
# 3 34.7636 0.2701 97.5557 -6.8781 -18.3729 -1.7514
# 4 -5.3149 -6.4494 -6.8781 34.5990 -5.1392 -10.8739
# 5 -27.9434 3.4645 -18.3729 -5.1392 37.1828 0.3697
# 6 1.4655 0.2909 -1.7514 -10.8739 0.3697 23.9450
#
#
#
# Elastic Compliance Matrix: (Units=1/GPa)
#
#
# Indices 1 2 3 4 5 6 
#
# 1 0.022098 -0.000786 -0.004726 0.004584 0.014977 0.000162
# 2 -0.000786 0.040107 0.000190 0.007937 -0.003169 0.003228
# 3 -0.004726 0.000190 0.012798 0.003141 0.003163 0.002600
# 4 0.004584 0.007937 0.003141 0.038513 0.009409 0.017197
# 5 0.014977 -0.003169 0.003163 0.009409 0.041279 0.002989
# 6 0.000162 0.003228 0.002600 0.017197 0.002989 0.049667
#
#
# Mechanical properties :
#
#
# Convention : Reuss Voigt Hill
#
# Bulk Modulus (GPa) = 15.53779 29.64126 22.58953
# Shear Modulus (GPa) = 21.13642 29.92607 25.53124
#
# Velocity S-wave (km/s) = 3.00157 3.57156 3.29890
# Velocity P-wave (km/s) = 4.31689 5.44451 4.91316
#
# Compressibility (1/GPa) = 0.06435921
#
# Stress axis : x y z
#
# Youngs Moduli (GPa) = 45.25257 24.93327 78.13868
#
# Poissons Ratio (x) = 0.01960 0.36925
# Poissons Ratio (y) = 0.03557 -0.01483
# Poissons Ratio (z) = 0.21385 -0.00473
#
# Static dielectric constant tensor:
#      x y z
#    x 1.989740 0.013810 0.063250 
#    y 0.013810 1.935980 0.005530 
#    z 0.063250 0.005530 1.913530 
# 
# From -- ./inp_files/343333.got.cif
#   From: 2010.05.17/outbox.cif.g08.bks.cpg/sg2_172_cif.got.tgz:343333.got - 2010.06.03 11:33:40.
