data_PCOD9020148
_publ_section_title
;
Structure prediction by ZEFSAII (Michael W. Deem and Ramdas Pophale) SiO2 
 PCOD9020148
Probable space group: P -1
;
_chemical_formula_sum "Si O2"
_cell_formula_units_Z 16
_cell_length_a 9.231239
_cell_length_b 11.244986
_cell_length_c 14.439277
_cell_angle_alpha 56.304063
_cell_angle_beta 108.743626
_cell_angle_gamma 61.218170
_cell_volume 645.510519
_symmetry_space_group_name_H-M "P -1"
_symmetry_group_IT_number 2
_symmetry_cell_setting 'triclinic'
loop_
_space_group_symop_operation_xyz
x,y,z
-x,-y,-z
loop_
_atom_site_type_symbol
_atom_site_label
_atom_site_fract_x
_atom_site_fract_y
_atom_site_fract_z
Si Si1 0.514223 0.787247 0.287470
Si Si2 0.617358 0.012138 0.247027
Si Si3 0.787052 0.360815 0.645352
Si Si4 0.213552 0.632660 0.613381
Si Si5 0.610565 0.546101 0.728855
Si Si6 0.944445 0.129359 0.127422
Si Si7 0.831078 0.398427 0.166177
Si Si8 0.249462 0.271677 0.224253
O O1 0.572453 0.905484 0.221752
O O2 0.754869 0.537503 0.513263
O O3 0.554762 0.651734 0.265539
O O4 0.224306 0.984562 0.200074
O O5 0.923198 0.823443 0.420767
O O6 0.499464 0.040196 0.307901
O O7 0.418787 0.296213 0.047305
O O8 0.500000 0.500000 0.500000
O O9 0.792279 0.380151 0.746837
O O10 0.018959 0.068416 0.787719
O O11 0.302633 0.726456 0.567850
O O12 0.188706 0.629628 0.719265
O O13 0.658372 0.664256 0.726377
O O14 0.708103 0.366044 0.907550
O O15 0.854552 0.257911 0.153319
O O16 0.122696 0.254123 0.272714
O O17 0.000000 0.500000 0.000000
#
# Coordination Sequence:
#
# PCOD9020148 Si02
#       8
#     2   2   2   2   2   2   2   2
#     4  11  24  50  71 107 147 196 252 303 362 444
#     4  11  24  49  75 101 156 196 241 309 362 452
#     4  10  23  41  72 107 140 193 247 303 360 430
#     4  12  29  44  70 118 153 190 241 304 393 431
#     4  12  23  45  74 109 147 192 249 304 369 439
#     4  11  21  47  77 102 146 190 255 305 350 451
#     4  11  25  51  77 108 143 200 249 305 372 432
#     4  10  21  46  74 103 138 196 252 294 354 443
#
# _framework density 24.786584000000001
#
# number of rings (size 3 to 8) (size 9 to 14) (size 15 to 20)
#    0.000    1.000    6.250    1.500    1.750    5.000 
#    2.250    0.000    0.000    0.000    0.000    0.000 
#    0.000    0.000    0.000    0.000    0.000    0.000 
#
# Total GULP energy -89507.204044 kJ/mol
# GULP energy per Si atom -5594.200253 kJ/mol
# Density = 2.473017 g / cm^3
# Si number density = 24.786584 Si / 1000 Ang^3
#
#
#
# Elastic Constant Matrix: (Units=GPa)
#
#
# Indices 1 2 3 4 5 6 
#
# 1 73.9516 43.4051 24.1527 5.2698 15.8097 -4.7569
# 2 43.4051 159.5478 30.0203 29.8128 -5.5831 -5.2933
# 3 24.1527 30.0203 69.7192 -2.1893 -6.0599 5.3855
# 4 5.2698 29.8128 -2.1893 32.9633 -3.9779 -2.2079
# 5 15.8097 -5.5831 -6.0599 -3.9779 46.6936 1.3857
# 6 -4.7569 -5.2933 5.3855 -2.2079 1.3857 52.9052
#
#
#
# Elastic Compliance Matrix: (Units=1/GPa)
#
#
# Indices 1 2 3 4 5 6 
#
# 1 0.019977 -0.004471 -0.005882 -0.000381 -0.008158 0.002145
# 2 -0.004471 0.009532 -0.002697 -0.007859 0.001620 0.000456
# 3 -0.005882 -0.002697 0.018292 0.004970 0.004543 -0.002572
# 4 -0.000381 -0.007859 0.004970 0.038221 0.003085 0.000188
# 5 -0.008158 0.001620 0.004543 0.003085 0.025271 -0.001567
# 6 0.002145 0.000456 -0.002572 0.000188 -0.001567 0.019451
#
#
# Mechanical properties :
#
#
# Convention : Reuss Voigt Hill
#
# Bulk Modulus (GPa) = 46.08083 55.37497 50.72790
# Shear Modulus (GPa) = 30.47366 40.22179 35.34773
#
# Velocity S-wave (km/s) = 3.51014 4.03268 3.78045
# Velocity P-wave (km/s) = 5.92111 6.63871 6.29015
#
# Compressibility (1/GPa) = 0.02170100
#
# Stress axis : x y z
#
# Youngs Moduli (GPa) = 50.05776 104.91237 54.66947
#
# Poissons Ratio (x) = 0.46906 0.32158
# Poissons Ratio (y) = 0.22381 0.14742
# Poissons Ratio (z) = 0.29445 0.28290
#
# Static dielectric constant tensor:
#      x y z
#    x 2.043560 -0.000030 0.079380 
#    y -0.000030 1.964540 -0.037590 
#    z 0.079380 -0.037590 2.045580 
# 
# From -- ./inp_files/500198.got.cif
#   From: 2010.05.17/outbox.cif.g08.bks.cpg/sg2_251_cif.got.tgz:500198.got - 2010.06.03 11:33:40.
