data_PCOD9020727
_publ_section_title
;
Structure prediction by ZEFSAII (Michael W. Deem and Ramdas Pophale) SiO2 
 PCOD9020727
Probable space group: P -1
;
_chemical_formula_sum "Si O2"
_cell_formula_units_Z 16
_cell_length_a 11.027301
_cell_length_b 8.434724
_cell_length_c 15.789739
_cell_angle_alpha 66.706802
_cell_angle_beta 119.226526
_cell_angle_gamma 64.308277
_cell_volume 734.131543
_symmetry_space_group_name_H-M "P -1"
_symmetry_group_IT_number 2
_symmetry_cell_setting 'triclinic'
loop_
_space_group_symop_operation_xyz
x,y,z
-x,-y,-z
loop_
_atom_site_type_symbol
_atom_site_label
_atom_site_fract_x
_atom_site_fract_y
_atom_site_fract_z
Si Si1 0.577599 0.221436 0.259717
Si Si2 0.785904 0.741757 0.314801
Si Si3 0.756443 0.218865 0.908377
Si Si4 0.762050 0.916803 0.566182
Si Si5 0.088994 0.878223 0.700420
Si Si6 0.353759 0.459798 0.623870
Si Si7 0.362234 0.350390 0.457006
Si Si8 0.895026 0.916938 0.179367
O O1 0.329054 0.522539 0.130899
O O2 0.718800 0.251003 0.270819
O O3 0.619759 0.033301 0.244873
O O4 0.684145 0.050765 0.418669
O O5 0.685336 0.650008 0.296216
O O6 0.856196 0.776765 0.247463
O O7 0.000000 0.500000 0.500000
O O8 0.569209 0.355968 0.746822
O O9 0.766022 0.065697 0.017450
O O10 0.000000 0.000000 0.000000
O O11 0.728978 0.743977 0.589422
O O12 0.003364 0.766367 0.694253
O O13 0.592858 0.156864 0.528250
O O14 0.162288 0.875633 0.817772
O O15 0.869539 0.207631 0.532041
O O16 0.390902 0.332124 0.572126
O O17 0.158768 0.676482 0.300980
#
# Coordination Sequence:
#
# PCOD9020727 Si02
#       8
#     2   2   2   2   2   2   2   2
#     4  11  21  40  66  94 130 159 212 266 321 370
#     4  11  19  41  71  99 126 155 215 282 324 364
#     4  12  28  43  60  90 138 179 214 249 315 394
#     4  11  20  35  63 101 119 153 214 275 317 373
#     4  10  22  36  70  97 118 158 215 278 319 362
#     4  11  22  41  66  94 123 172 209 265 324 370
#     4  10  22  37  65  91 126 163 212 270 318 370
#     4  10  23  41  60  93 129 171 207 256 319 383
#
# _framework density 21.794459
#
# number of rings (size 3 to 8) (size 9 to 14) (size 15 to 20)
#    0.000    1.250    6.250    1.125    1.750    3.500 
#    0.000    1.875    0.000    0.000    0.000    0.000 
#    0.000    0.000    0.000    0.000    0.000    0.000 
#
# Total GULP energy -89402.039593 kJ/mol
# GULP energy per Si atom -5587.627475 kJ/mol
# Density = 2.174485 g / cm^3
# Si number density = 21.794459 Si / 1000 Ang^3
#
#
#
# Elastic Constant Matrix: (Units=GPa)
#
#
# Indices 1 2 3 4 5 6 
#
# 1 77.0092 15.4790 10.5803 0.4228 3.6815 -2.6024
# 2 15.4790 76.1287 15.5628 -14.7866 7.6431 -18.5953
# 3 10.5803 15.5628 52.9515 6.5423 3.3510 -8.1108
# 4 0.4228 -14.7866 6.5423 24.1799 -11.8758 5.4335
# 5 3.6815 7.6431 3.3510 -11.8758 27.2826 -2.8535
# 6 -2.6024 -18.5953 -8.1108 5.4335 -2.8535 36.8673
#
#
#
# Elastic Compliance Matrix: (Units=1/GPa)
#
#
# Indices 1 2 3 4 5 6 
#
# 1 0.013878 -0.002928 -0.001584 -0.002436 -0.001985 -0.000640
# 2 -0.002928 0.018644 -0.005607 0.012528 0.001970 0.006270
# 3 -0.001584 -0.005607 0.023585 -0.013971 -0.006798 0.003782
# 4 -0.002436 0.012528 -0.013971 0.067338 0.027351 -0.004734
# 5 -0.001985 0.001970 -0.006798 0.027351 0.049018 -0.000879
# 6 -0.000640 0.006270 0.003782 -0.004734 -0.000879 0.031703
#
#
# Mechanical properties :
#
#
# Convention : Reuss Voigt Hill
#
# Bulk Modulus (GPa) = 27.87853 32.14817 30.01335
# Shear Modulus (GPa) = 21.15403 28.63043 24.89223
#
# Velocity S-wave (km/s) = 3.11885 3.62837 3.38322
# Velocity P-wave (km/s) = 5.07828 5.68648 5.39097
#
# Compressibility (1/GPa) = 0.03586990
#
# Stress axis : x y z
#
# Youngs Moduli (GPa) = 72.05490 53.63563 42.39939
#
# Poissons Ratio (x) = 0.15706 0.06716
# Poissons Ratio (y) = 0.21100 0.23772
# Poissons Ratio (z) = 0.11413 0.30072
#
# Static dielectric constant tensor:
#      x y z
#    x 1.842750 0.005040 -0.009960 
#    y 0.005040 1.847300 -0.004480 
#    z -0.009960 -0.004480 1.763370 
# 
# From -- ./inp_files/495133.got.cif
#   From: 2010.05.17/outbox.cif.g08.bks.cpg/sg2_248_cif.got.tgz:495133.got - 2010.06.03 11:33:40.
