data_PCOD9020528
_publ_section_title
;
Structure prediction by ZEFSAII (Michael W. Deem and Ramdas Pophale) SiO2 
 PCOD9020528
Probable space group: P -1
;
_chemical_formula_sum "Si O2"
_cell_formula_units_Z 14
_cell_length_a 11.447350
_cell_length_b 14.412463
_cell_length_c 20.927917
_cell_angle_alpha 157.141936
_cell_angle_beta 27.565289
_cell_angle_gamma 139.800957
_cell_volume 593.010754
_symmetry_space_group_name_H-M "P -1"
_symmetry_group_IT_number 2
_symmetry_cell_setting 'triclinic'
loop_
_space_group_symop_operation_xyz
x,y,z
-x,-y,-z
loop_
_atom_site_type_symbol
_atom_site_label
_atom_site_fract_x
_atom_site_fract_y
_atom_site_fract_z
Si Si1 0.635903 0.034381 0.022470
Si Si2 0.550191 0.665105 0.138617
Si Si3 0.836978 0.302907 0.435175
Si Si4 0.054822 0.998658 0.549718
Si Si5 0.443994 0.618811 0.917358
Si Si6 0.106166 0.459034 0.688642
Si Si7 0.379886 0.615071 0.545459
O O1 0.569838 0.845437 0.986407
O O2 0.951729 0.952533 0.807324
O O3 0.500000 0.000000 0.000000
O O4 0.510661 0.317916 0.282785
O O5 0.473242 0.547013 0.164819
O O6 0.354851 0.936473 0.389250
O O7 0.500000 0.500000 0.000000
O O8 0.864136 0.610443 0.946028
O O9 0.556237 0.422333 0.681541
O O10 0.777914 0.284022 0.377539
O O11 0.000000 0.500000 0.500000
O O12 0.973926 0.747735 0.446288
O O13 0.000000 0.000000 0.500000
O O14 0.862462 0.235126 0.828561
O O15 0.190091 0.642815 0.715916
O O16 0.362002 0.310409 0.511515
#
# Coordination Sequence:
#
# PCOD9020528 Si02
#       7
#     2   2   2   2   2   2   2
#     4  11  22  37  62  91 121 160 208 249 296 363
#     4  10  22  36  59  88 124 154 206 249 288 363
#     4  10  23  36  62  89 118 158 207 254 292 349
#     4  11  21  38  64  89 117 162 204 248 298 359
#     4  11  21  35  64  94 114 156 209 254 300 337
#     4  10  23  40  60  90 130 158 194 252 314 357
#     4  11  22  42  59  90 130 159 194 256 306 367
#
# _framework density 23.608339999999998
#
# number of rings (size 3 to 8) (size 9 to 14) (size 15 to 20)
#    0.000    1.429    7.143    0.000   10.000    0.000 
#    2.571    2.143    0.000    1.714    0.000    0.000 
#    0.000    0.000    0.000    0.000    0.000    0.000 
#
# Total GULP energy -78123.651338 kJ/mol
# GULP energy per Si atom -5580.260810 kJ/mol
# Density = 2.355461 g / cm^3
# Si number density = 23.608340 Si / 1000 Ang^3
#
#
#
# Elastic Constant Matrix: (Units=GPa)
#
#
# Indices 1 2 3 4 5 6 
#
# 1 111.2848 28.5932 16.7425 -8.9298 -17.1765 -15.7156
# 2 28.5932 58.2867 20.2309 -5.5664 -3.3321 -9.7489
# 3 16.7425 20.2309 135.6722 -12.2969 -24.1014 -15.8372
# 4 -8.9298 -5.5664 -12.2969 25.0563 -0.6066 2.6440
# 5 -17.1765 -3.3321 -24.1014 -0.6066 38.0536 3.5501
# 6 -15.7156 -9.7489 -15.8372 2.6440 3.5501 32.3643
#
#
#
# Elastic Compliance Matrix: (Units=1/GPa)
#
#
# Indices 1 2 3 4 5 6 
#
# 1 0.011678 -0.004803 0.000933 0.003271 0.005135 0.003850
# 2 -0.004803 0.020848 -0.002435 0.001370 -0.002131 0.002878
# 3 0.000933 -0.002435 0.009448 0.004219 0.005947 0.003346
# 4 0.003271 0.001370 0.004219 0.043575 0.004967 -0.000039
# 5 0.005135 -0.002131 0.005947 0.004967 0.032179 0.000826
# 6 0.003850 0.002878 0.003346 -0.000039 0.000826 0.035185
#
#
# Mechanical properties :
#
#
# Convention : Reuss Voigt Hill
#
# Bulk Modulus (GPa) = 34.05313 48.48632 41.26973
# Shear Modulus (GPa) = 28.52085 35.07332 31.79708
#
# Velocity S-wave (km/s) = 3.47952 3.85857 3.67394
# Velocity P-wave (km/s) = 5.53157 6.35876 5.95953
#
# Compressibility (1/GPa) = 0.02936587
#
# Stress axis : x y z
#
# Youngs Moduli (GPa) = 85.62863 47.96604 105.84171
#
# Poissons Ratio (x) = 0.23038 -0.09876
# Poissons Ratio (y) = 0.41127 0.25767
# Poissons Ratio (z) = -0.07990 0.11677
#
# Static dielectric constant tensor:
#      x y z
#    x 1.958660 0.025800 -0.059390 
#    y 0.025800 2.039440 -0.035240 
#    z -0.059390 -0.035240 1.976860 
# 
# From -- ./inp_files/595508.got.cif
#   From: 2010.05.17/outbox.cif.g08.bks.cpg/sg2_298_cif.got.tgz:595508.got - 2010.06.03 11:33:40.
