data_PCOD9020039
_publ_section_title
;
Structure prediction by ZEFSAII (Michael W. Deem and Ramdas Pophale) SiO2 
 PCOD9020039
Probable space group: P -1
;
_chemical_formula_sum "Si O2"
_cell_formula_units_Z 14
_cell_length_a 6.266873
_cell_length_b 11.879542
_cell_length_c 13.443410
_cell_angle_alpha 39.905535
_cell_angle_beta 74.341454
_cell_angle_gamma 93.888180
_cell_volume 553.656220
_symmetry_space_group_name_H-M "P -1"
_symmetry_group_IT_number 2
_symmetry_cell_setting 'triclinic'
loop_
_space_group_symop_operation_xyz
x,y,z
-x,-y,-z
loop_
_atom_site_type_symbol
_atom_site_label
_atom_site_fract_x
_atom_site_fract_y
_atom_site_fract_z
Si Si1 0.767865 0.537317 0.902490
Si Si2 0.454526 0.729492 0.062375
Si Si3 0.639610 0.128222 0.221883
Si Si4 0.054399 0.684252 0.296878
Si Si5 0.161591 0.825343 0.556193
Si Si6 0.336950 0.497682 0.704524
Si Si7 0.877706 0.835149 0.385438
O O1 0.728703 0.470168 0.837054
O O2 0.972354 0.759029 0.717251
O O3 0.500000 0.500000 0.000000
O O4 0.802211 0.357221 0.067269
O O5 0.311640 0.756281 0.156677
O O6 0.670161 0.673329 0.106197
O O7 0.479232 0.877364 0.869698
O O8 0.408164 0.028528 0.392513
O O9 0.790005 0.003717 0.283402
O O10 0.000000 0.500000 0.500000
O O11 0.838719 0.606898 0.294536
O O12 0.037163 0.845158 0.261310
O O13 0.252961 0.654413 0.654228
O O14 0.024334 0.834728 0.466278
O O15 0.622533 0.631859 0.547653
#
# Coordination Sequence:
#
# PCOD9020039 Si02
#       7
#     2   2   2   2   2   2   2
#     4  10  21  46  67  89 123 159 208 259 312 375
#     4  10  22  40  57  94 125 157 212 254 296 367
#     4   9  24  40  61  95 125 160 205 256 309 367
#     4  12  20  34  62  95 123 174 209 242 307 363
#     4  11  21  40  67  88 130 163 200 257 314 358
#     4  11  18  36  64  87 128 164 213 245 304 364
#     4  11  21  36  61  92 129 166 205 251 304 366
#
# _framework density 25.286448
#
# number of rings (size 3 to 8) (size 9 to 14) (size 15 to 20)
#    0.857    0.571    5.714    0.429    0.000    3.429 
#    0.000    2.857    0.000    0.000    0.000    0.000 
#    0.000    0.000    0.000    0.000    0.000    0.000 
#
# Total GULP energy -78284.507352 kJ/mol
# GULP energy per Si atom -5591.750525 kJ/mol
# Density = 2.522890 g / cm^3
# Si number density = 25.286448 Si / 1000 Ang^3
#
#
#
# Elastic Constant Matrix: (Units=GPa)
#
#
# Indices 1 2 3 4 5 6 
#
# 1 125.7191 34.3107 58.3402 -1.2506 35.2889 -7.9760
# 2 34.3107 73.9415 38.9122 -10.1847 3.6202 -11.3818
# 3 58.3402 38.9122 166.9567 0.7399 -4.2397 -12.5461
# 4 -1.2506 -10.1847 0.7399 27.3370 -2.7739 -0.2744
# 5 35.2889 3.6202 -4.2397 -2.7739 49.0987 8.5827
# 6 -7.9760 -11.3818 -12.5461 -0.2744 8.5827 49.6435
#
#
#
# Elastic Compliance Matrix: (Units=1/GPa)
#
#
# Indices 1 2 3 4 5 6 
#
# 1 0.013970 -0.003691 -0.004119 -0.001678 -0.010601 0.002181
# 2 -0.003691 0.017948 -0.002694 0.006720 0.001004 0.002704
# 3 -0.004119 -0.002694 0.008167 -0.001028 0.003785 0.000124
# 4 -0.001678 0.006720 -0.001028 0.039318 0.002711 0.000760
# 5 -0.010601 0.001004 0.003785 0.002711 0.029367 -0.005579
# 6 0.002181 0.002704 0.000124 0.000760 -0.005579 0.022114
#
#
# Mechanical properties :
#
#
# Convention : Reuss Voigt Hill
#
# Bulk Modulus (GPa) = 52.42368 69.97149 61.19758
# Shear Modulus (GPa) = 31.59516 40.88612 36.24064
#
# Velocity S-wave (km/s) = 3.53865 4.02545 3.78988
# Velocity P-wave (km/s) = 6.12152 7.02405 6.58826
#
# Compressibility (1/GPa) = 0.01907535
#
# Stress axis : x y z
#
# Youngs Moduli (GPa) = 71.57991 55.71766 122.44507
#
# Poissons Ratio (x) = 0.20567 0.50438
# Poissons Ratio (y) = 0.26423 0.32989
# Poissons Ratio (z) = 0.29486 0.15011
#
# Static dielectric constant tensor:
#      x y z
#    x 2.049760 -0.007890 -0.061360 
#    y -0.007890 1.969820 -0.006090 
#    z -0.061360 -0.006090 2.060520 
# 
# From -- ./inp_files/50519.got.cif
#   From: 2010.05.17/outbox.cif.g08.bks.cpg/sg2_26_cif.got.tgz:50519.got - 2010.06.03 11:33:40.
