data_PCOD9020640
_publ_section_title
;
Structure prediction by ZEFSAII (Michael W. Deem and Ramdas Pophale) SiO2 
 PCOD9020640
Probable space group: P -1
;
_chemical_formula_sum "Si O2"
_cell_formula_units_Z 12
_cell_length_a 12.565850
_cell_length_b 6.217329
_cell_length_c 14.321729
_cell_angle_alpha 80.392656
_cell_angle_beta 41.435509
_cell_angle_gamma 106.500455
_cell_volume 568.716535
_symmetry_space_group_name_H-M "P -1"
_symmetry_group_IT_number 2
_symmetry_cell_setting 'triclinic'
loop_
_space_group_symop_operation_xyz
x,y,z
-x,-y,-z
loop_
_atom_site_type_symbol
_atom_site_label
_atom_site_fract_x
_atom_site_fract_y
_atom_site_fract_z
Si Si1 0.078965 0.222368 0.515181
Si Si2 0.935776 0.168646 0.977632
Si Si3 0.276692 0.838817 0.709936
Si Si4 0.702731 0.227708 0.748269
Si Si5 0.397935 0.621151 0.006341
Si Si6 0.015392 0.068516 0.208485
O O1 0.281710 0.536675 0.337981
O O2 0.908006 0.263622 0.626391
O O3 0.078975 0.099228 0.621087
O O4 0.000000 0.000000 0.500000
O O5 0.903248 0.059366 0.901118
O O6 0.130565 0.500047 0.823657
O O7 0.750095 0.115314 0.165602
O O8 0.000000 0.000000 0.000000
O O9 0.500000 0.000000 0.500000
O O10 0.154620 0.928120 0.730460
O O11 0.666278 0.284889 0.871694
O O12 0.550417 0.914175 0.831325
O O13 0.210634 0.381638 0.084899
O O14 0.500000 0.500000 0.000000
#
# Coordination Sequence:
#
# PCOD9020640 Si02
#       6
#     2   2   2   2   2   2
#     4  11  21  40  59  94 136 176 226 272 318 399
#     4   9  22  45  70  99 130 170 224 292 341 408
#     4  10  23  47  74  98 132 169 228 291 348 407
#     4  10  22  36  64  85 138 180 222 270 320 377
#     4  11  21  40  60  93 132 180 222 274 323 398
#     4  11  23  39  70  94 139 180 219 275 345 398
#
# _framework density 21.100144
#
# number of rings (size 3 to 8) (size 9 to 14) (size 15 to 20)
#    0.000    1.667    3.333    0.000    2.333    2.667 
#    0.000   21.667    0.000    0.000    0.000    0.000 
#    0.000    0.000    0.000    0.000    0.000    0.000 
#
# Total GULP energy -66871.537568 kJ/mol
# GULP energy per Si atom -5572.628131 kJ/mol
# Density = 2.105212 g / cm^3
# Si number density = 21.100144 Si / 1000 Ang^3
#
#
#
# Elastic Constant Matrix: (Units=GPa)
#
#
# Indices 1 2 3 4 5 6 
#
# 1 73.3141 31.5271 37.2626 -0.8947 15.1521 4.7713
# 2 31.5271 128.8183 51.6808 -3.0364 7.5104 10.0233
# 3 37.2626 51.6808 115.5072 -3.4305 4.9004 8.7122
# 4 -0.8947 -3.0364 -3.4305 55.3638 -8.9728 5.0617
# 5 15.1521 7.5104 4.9004 -8.9728 34.5852 -1.5028
# 6 4.7713 10.0233 8.7122 5.0617 -1.5028 33.0408
#
#
#
# Elastic Compliance Matrix: (Units=1/GPa)
#
#
# Indices 1 2 3 4 5 6 
#
# 1 0.018503 -0.002195 -0.004642 -0.001211 -0.007327 -0.000930
# 2 -0.002195 0.009915 -0.003550 0.000346 -0.000678 -0.001839
# 3 -0.004642 -0.003550 0.011821 0.000801 0.001275 -0.001434
# 4 -0.001211 0.000346 0.000801 0.019215 0.005203 -0.002848
# 5 -0.007327 -0.000678 0.001275 0.005203 0.033513 0.001655
# 6 -0.000930 -0.001839 -0.001434 -0.002848 0.001655 0.031847
#
#
# Mechanical properties :
#
#
# Convention : Reuss Voigt Hill
#
# Bulk Modulus (GPa) = 51.37508 62.06451 56.71979
# Shear Modulus (GPa) = 32.87778 37.74258 35.31018
#
# Velocity S-wave (km/s) = 3.95166 4.23393 4.09523
# Velocity P-wave (km/s) = 6.72472 7.30614 7.02145
#
# Compressibility (1/GPa) = 0.01946469
#
# Stress axis : x y z
#
# Youngs Moduli (GPa) = 54.04467 100.85395 84.59250
#
# Poissons Ratio (x) = 0.22140 0.39267
# Poissons Ratio (y) = 0.11864 0.30034
# Poissons Ratio (z) = 0.25087 0.35808
#
# Static dielectric constant tensor:
#      x y z
#    x 1.747040 0.007740 0.012530 
#    y 0.007740 1.787230 -0.064670 
#    z 0.012530 -0.064670 1.984930 
# 
# From -- ./inp_files/510241.got.cif
#   From: 2010.05.17/outbox.cif.g08.bks.cpg/sg2_256_cif.got.tgz:510241.got - 2010.06.03 11:33:40.
