data_PCOD9020683
_publ_section_title
;
Structure prediction by ZEFSAII (Michael W. Deem and Ramdas Pophale) SiO2 
 PCOD9020683
Probable space group: P -1
;
_chemical_formula_sum "Si O2"
_cell_formula_units_Z 16
_cell_length_a 24.163734
_cell_length_b 6.599677
_cell_length_c 11.783965
_cell_angle_alpha 127.553265
_cell_angle_beta 29.422770
_cell_angle_gamma 129.983967
_cell_volume 701.134128
_symmetry_space_group_name_H-M "P -1"
_symmetry_group_IT_number 2
_symmetry_cell_setting 'triclinic'
loop_
_space_group_symop_operation_xyz
x,y,z
-x,-y,-z
loop_
_atom_site_type_symbol
_atom_site_label
_atom_site_fract_x
_atom_site_fract_y
_atom_site_fract_z
Si Si1 0.237598 0.786596 0.823974
Si Si2 0.096538 0.283440 0.452837
Si Si3 0.647864 0.644705 0.910674
Si Si4 0.367615 0.658659 0.732637
Si Si5 0.581973 0.206929 0.696433
Si Si6 0.972904 0.701358 0.893382
Si Si7 0.502196 0.325051 0.261581
Si Si8 0.140813 0.274807 0.124057
O O1 0.317077 0.864268 0.822797
O O2 0.326916 0.817333 0.571097
O O3 0.148323 0.491890 0.902069
O O4 0.161582 0.989811 0.012237
O O5 0.213524 0.225262 0.273378
O O6 0.057766 0.503470 0.673419
O O7 0.123740 0.399616 0.316750
O O8 0.000000 0.000000 0.500000
O O9 0.636611 0.479883 0.758233
O O10 0.545623 0.788291 0.122103
O O11 0.601080 0.455291 0.039101
O O12 0.420995 0.517430 0.489800
O O13 0.457266 0.714976 0.695702
O O14 0.257772 0.453525 0.917381
O O15 0.568690 0.978227 0.738031
O O16 0.956176 0.744499 0.804216
O O17 0.000000 0.000000 0.000000
#
# Coordination Sequence:
#
# PCOD9020683 Si02
#       8
#     2   2   2   2   2   2   2   2
#     4  11  23  43  71 103 145 185 250 299 366 439
#     4  12  26  50  77 105 147 194 253 309 358 434
#     4  11  26  45  66 104 147 191 241 293 377 434
#     4  10  22  36  66 103 134 184 233 295 363 429
#     4  11  25  43  68 105 148 190 233 302 369 452
#     4  11  28  48  73 107 142 196 250 305 370 434
#     4  11  21  39  65  96 145 185 233 292 365 435
#     4  11  23  45  72 100 147 189 242 307 369 426
#
# _framework density 22.820171999999999
#
# number of rings (size 3 to 8) (size 9 to 14) (size 15 to 20)
#    0.000    1.000    5.000    0.750    3.500    2.000 
#    6.750    0.000    0.000    0.000    0.000    0.000 
#    0.000    0.000    0.000    0.000    0.000    0.000 
#
# Total GULP energy -89243.425557 kJ/mol
# GULP energy per Si atom -5577.714097 kJ/mol
# Density = 2.276823 g / cm^3
# Si number density = 22.820172 Si / 1000 Ang^3
#
#
#
# Elastic Constant Matrix: (Units=GPa)
#
#
# Indices 1 2 3 4 5 6 
#
# 1 48.7914 -0.0223 39.6274 8.1932 -14.6014 -2.4556
# 2 -0.0223 63.0237 52.1323 11.9809 -3.7576 -8.4934
# 3 39.6274 52.1323 125.5396 11.4856 -9.4988 16.5683
# 4 8.1932 11.9809 11.4856 36.2968 -5.7908 -0.2226
# 5 -14.6014 -3.7576 -9.4988 -5.7908 31.7369 1.9141
# 6 -2.4556 -8.4934 16.5683 -0.2226 1.9141 32.2190
#
#
#
# Elastic Compliance Matrix: (Units=1/GPa)
#
#
# Indices 1 2 3 4 5 6 
#
# 1 0.056863 0.035831 -0.034635 -0.010931 0.016200 0.030552
# 2 0.035831 0.053699 -0.036505 -0.012857 0.007452 0.035128
# 3 -0.034635 -0.036505 0.037040 0.006995 -0.006031 -0.030904
# 4 -0.010931 -0.012857 0.006995 0.032304 0.001902 -0.007709
# 5 0.016200 0.007452 -0.006031 0.001902 0.038143 0.004048
# 6 0.030552 0.035128 -0.030904 -0.007709 0.004048 0.058225
#
#
# Mechanical properties :
#
#
# Convention : Reuss Voigt Hill
#
# Bulk Modulus (GPa) = 12.98991 46.75884 29.87438
# Shear Modulus (GPa) = 13.42089 29.75834 21.58962
#
# Velocity S-wave (km/s) = 2.42774 3.61506 3.07917
# Velocity P-wave (km/s) = 3.68283 6.16113 5.07557
#
# Compressibility (1/GPa) = 0.07698282
#
# Stress axis : x y z
#
# Youngs Moduli (GPa) = 17.58622 18.62234 26.99780
#
# Poissons Ratio (x) = -0.66725 0.93506
# Poissons Ratio (y) = -0.63013 0.98557
# Poissons Ratio (z) = 0.60909 0.67982
#
# Static dielectric constant tensor:
#      x y z
#    x 1.899050 0.049650 -0.019460 
#    y 0.049650 1.937120 0.035980 
#    z -0.019460 0.035980 1.844880 
# 
# From -- ./inp_files/333371.got.cif
#   From: 2010.05.17/outbox.cif.g08.bks.cpg/sg2_167_cif.got.tgz:333371.got - 2010.06.03 11:33:40.
