data_PCOD9020686
_publ_section_title
;
Structure prediction by ZEFSAII (Michael W. Deem and Ramdas Pophale) SiO2 
 PCOD9020686
Probable space group: P -1
;
_chemical_formula_sum "Si O2"
_cell_formula_units_Z 14
_cell_length_a 20.931399
_cell_length_b 15.588135
_cell_length_c 6.145526
_cell_angle_alpha 111.323924
_cell_angle_beta 89.029969
_cell_angle_gamma 151.778736
_cell_volume 640.216479
_symmetry_space_group_name_H-M "P -1"
_symmetry_group_IT_number 2
_symmetry_cell_setting 'triclinic'
loop_
_space_group_symop_operation_xyz
x,y,z
-x,-y,-z
loop_
_atom_site_type_symbol
_atom_site_label
_atom_site_fract_x
_atom_site_fract_y
_atom_site_fract_z
Si Si1 0.992028 0.564019 0.365954
Si Si2 0.116523 0.205824 0.376482
Si Si3 0.502465 0.231789 0.342535
Si Si4 0.706111 0.115674 0.594121
Si Si5 0.670131 0.174214 0.245579
Si Si6 0.213461 0.175724 0.683114
Si Si7 0.444539 0.355802 0.564420
O O1 0.868123 0.474134 0.409184
O O2 0.000000 0.500000 0.500000
O O3 0.194904 0.835544 0.494392
O O4 0.854654 0.345258 0.980634
O O5 0.292192 0.488495 0.508341
O O6 0.192198 0.231304 0.565329
O O7 0.977255 0.082777 0.406411
O O8 0.000000 0.000000 0.000000
O O9 0.415583 0.216029 0.336618
O O10 0.480398 0.166485 0.531647
O O11 0.385590 0.003787 0.994657
O O12 0.682057 0.172888 0.499032
O O13 0.500000 0.000000 0.000000
O O14 0.271913 0.165541 0.530797
O O15 0.382315 0.418988 0.069115
O O16 0.500000 0.500000 0.500000
#
# Coordination Sequence:
#
# PCOD9020686 Si02
#       7
#     2   2   2   2   2   2   2
#     4   8  16  36  61  84 113 154 198 253 308 362
#     4  11  21  40  61  90 127 165 204 258 308 370
#     4  11  23  36  63  92 123 163 208 256 307 367
#     4   9  19  36  64  84 114 157 203 249 310 363
#     4  10  22  39  62  89 123 159 205 257 310 372
#     4  10  22  36  66  83 122 172 201 249 317 359
#     4  11  21  40  61  91 123 161 209 255 302 374
#
# _framework density 21.867601000000001
#
# number of rings (size 3 to 8) (size 9 to 14) (size 15 to 20)
#    0.000    2.000    2.857    0.000    2.000    2.286 
#    2.571    0.000   25.143    0.000    0.000    0.000 
#    0.000    0.000    0.000    0.000    0.000    0.000 
#
# Total GULP energy -78007.356626 kJ/mol
# GULP energy per Si atom -5571.954045 kJ/mol
# Density = 2.181783 g / cm^3
# Si number density = 21.867601 Si / 1000 Ang^3
#
#
#
# Elastic Constant Matrix: (Units=GPa)
#
#
# Indices 1 2 3 4 5 6 
#
# 1 108.0330 38.2489 35.4073 -7.7646 14.3665 21.7281
# 2 38.2489 177.0535 23.4559 -8.8480 22.7275 37.3587
# 3 35.4073 23.4559 77.2876 -19.1305 20.9232 -8.1122
# 4 -7.7646 -8.8480 -19.1305 30.4960 -5.1071 10.5881
# 5 14.3665 22.7275 20.9232 -5.1071 42.5231 1.1885
# 6 21.7281 37.3587 -8.1122 10.5881 1.1885 40.8354
#
#
#
# Elastic Compliance Matrix: (Units=1/GPa)
#
#
# Indices 1 2 3 4 5 6 
#
# 1 0.013403 0.000097 -0.006242 0.002520 -0.000952 -0.009086
# 2 0.000097 0.008316 -0.001742 0.003967 -0.002894 -0.008950
# 3 -0.006242 -0.001742 0.020629 0.007222 -0.006448 0.007328
# 4 0.002520 0.003967 0.007222 0.044177 -0.000802 -0.014967
# 5 -0.000952 -0.002894 -0.006448 -0.000802 0.028426 0.001253
# 6 -0.009086 -0.008950 0.007328 -0.014967 0.001253 0.042811
#
#
# Mechanical properties :
#
#
# Convention : Reuss Voigt Hill
#
# Bulk Modulus (GPa) = 37.63064 61.84428 49.73746
# Shear Modulus (GPa) = 27.41305 40.45503 33.93404
#
# Velocity S-wave (km/s) = 3.54445 4.30583 3.94356
# Velocity P-wave (km/s) = 5.83066 7.28442 6.59771
#
# Compressibility (1/GPa) = 0.02657409
#
# Stress axis : x y z
#
# Youngs Moduli (GPa) = 74.61019 120.24853 48.47462
#
# Poissons Ratio (x) = -0.01163 0.30256
# Poissons Ratio (y) = -0.00722 0.08445
# Poissons Ratio (z) = 0.46569 0.20950
#
# Static dielectric constant tensor:
#      x y z
#    x 1.842570 0.067750 -0.031330 
#    y 0.067750 1.912520 -0.023150 
#    z -0.031330 -0.023150 1.784880 
# 
# From -- ./inp_files/119339.got.cif
#   From: 2010.05.17/outbox.cif.g08.bks.cpg/sg2_60_cif.got.tgz:119339.got - 2010.06.03 11:33:40.
