data_PCOD9020741
_publ_section_title
;
Structure prediction by ZEFSAII (Michael W. Deem and Ramdas Pophale) SiO2 
 PCOD9020741
Probable space group: P -1
;
_chemical_formula_sum "Si O2"
_cell_formula_units_Z 16
_cell_length_a 24.105087
_cell_length_b 15.068931
_cell_length_c 24.223501
_cell_angle_alpha 28.522769
_cell_angle_beta 168.673928
_cell_angle_gamma 152.614436
_cell_volume 791.741112
_symmetry_space_group_name_H-M "P -1"
_symmetry_group_IT_number 2
_symmetry_cell_setting 'triclinic'
loop_
_space_group_symop_operation_xyz
x,y,z
-x,-y,-z
loop_
_atom_site_type_symbol
_atom_site_label
_atom_site_fract_x
_atom_site_fract_y
_atom_site_fract_z
Si Si1 0.504752 0.718110 0.752553
Si Si2 0.799943 0.460286 0.951390
Si Si3 0.762318 0.577007 0.257017
Si Si4 0.711153 0.048217 0.859925
Si Si5 0.072542 0.804951 0.199195
Si Si6 0.871801 0.984460 0.627470
Si Si7 0.298525 0.618633 0.418301
Si Si8 0.304431 0.368487 0.428682
O O1 0.317858 0.527775 0.705322
O O2 0.297942 0.825629 0.459223
O O3 0.753686 0.678777 0.977736
O O4 0.674497 0.862025 0.887531
O O5 0.618008 0.585979 0.739725
O O6 0.517572 0.352580 0.696364
O O7 0.018851 0.435775 0.228832
O O8 0.053250 0.467890 0.147518
O O9 0.000000 0.500000 0.500000
O O10 0.500000 0.500000 0.000000
O O11 0.898699 0.806372 0.271255
O O12 0.008976 0.104173 0.154502
O O13 0.445582 0.002943 0.669280
O O14 0.709136 0.220530 0.722973
O O15 0.224145 0.706270 0.354782
O O16 0.000000 0.000000 0.000000
O O17 0.840652 0.841015 0.624593
O O18 0.500000 0.500000 0.500000
#
# Coordination Sequence:
#
# PCOD9020741 Si02
#       8
#     2   2   2   2   2   2   2   2
#     4  12  24  39  58  89 126 166 203 255 296 361
#     4  10  22  37  54  82 118 159 196 250 305 369
#     4  12  23  42  61  88 126 168 210 249 293 370
#     4  12  22  34  58  87 124 162 208 230 304 366
#     4  12  25  39  61  90 124 160 211 258 308 373
#     4  12  23  38  61  90 120 173 202 248 303 364
#     4  11  22  37  58  85 122 163 197 247 318 370
#     4  11  21  37  58  88 125 154 210 258 303 368
#
# _framework density 20.208625999999999
#
# number of rings (size 3 to 8) (size 9 to 14) (size 15 to 20)
#    0.000    0.500    3.750    6.750    1.750    0.000 
#    0.000    0.000    0.000    0.000    0.000   17.500 
#    0.000    0.000    0.000    0.000    0.000    0.000 
#
# Total GULP energy -89122.556692 kJ/mol
# GULP energy per Si atom -5570.159793 kJ/mol
# Density = 2.016263 g / cm^3
# Si number density = 20.208626 Si / 1000 Ang^3
#
#
#
# Elastic Constant Matrix: (Units=GPa)
#
#
# Indices 1 2 3 4 5 6 
#
# 1 111.1088 40.0783 45.6989 -4.0360 30.5010 -9.7991
# 2 40.0783 82.7687 15.1758 7.0979 14.7312 -11.3059
# 3 45.6989 15.1758 147.3244 5.5878 27.4005 -5.9494
# 4 -4.0360 7.0979 5.5878 19.8081 -9.0068 1.2864
# 5 30.5010 14.7312 27.4005 -9.0068 45.2894 0.6029
# 6 -9.7991 -11.3059 -5.9494 1.2864 0.6029 30.7340
#
#
#
# Elastic Compliance Matrix: (Units=1/GPa)
#
#
# Indices 1 2 3 4 5 6 
#
# 1 0.013752 -0.005182 -0.002768 0.002880 -0.005355 0.001927
# 2 -0.005182 0.016789 0.001378 -0.010018 -0.004867 0.005305
# 3 -0.002768 0.001378 0.008741 -0.005939 -0.005076 0.001665
# 4 0.002880 -0.010018 -0.005939 0.064938 0.017920 -0.006986
# 5 -0.005355 -0.004867 -0.005076 0.017920 0.033983 -0.005897
# 6 0.001927 0.005305 0.001665 -0.006986 -0.005897 0.035833
#
#
# Mechanical properties :
#
#
# Convention : Reuss Voigt Hill
#
# Bulk Modulus (GPa) = 38.25991 60.34532 49.30262
# Shear Modulus (GPa) = 25.52406 35.18291 30.35348
#
# Velocity S-wave (km/s) = 3.55777 4.17704 3.87978
# Velocity P-wave (km/s) = 5.98753 7.29311 6.67233
#
# Compressibility (1/GPa) = 0.02613702
#
# Stress axis : x y z
#
# Youngs Moduli (GPa) = 72.71483 59.56384 114.40528
#
# Poissons Ratio (x) = 0.30869 0.31662
# Poissons Ratio (y) = 0.37684 -0.15760
# Poissons Ratio (z) = 0.20124 -0.08205
#
# Static dielectric constant tensor:
#      x y z
#    x 1.760230 0.010390 -0.014070 
#    y 0.010390 1.814160 0.042040 
#    z -0.014070 0.042040 1.740140 
# 
# From -- ./inp_files/614213.got.cif
#   From: 2010.05.17/outbox.cif.g08.bks.cpg/sg2_308_cif.got.tgz:614213.got - 2010.06.03 11:33:40.
