data_PCOD9020454
_publ_section_title
;
Structure prediction by ZEFSAII (Michael W. Deem and Ramdas Pophale) SiO2 
 PCOD9020454
Probable space group: P -1
;
_chemical_formula_sum "Si O2"
_cell_formula_units_Z 16
_cell_length_a 6.928564
_cell_length_b 8.601228
_cell_length_c 20.159633
_cell_angle_alpha 140.599730
_cell_angle_beta 97.407541
_cell_angle_gamma 96.564856
_cell_volume 711.176728
_symmetry_space_group_name_H-M "P -1"
_symmetry_group_IT_number 2
_symmetry_cell_setting 'triclinic'
loop_
_space_group_symop_operation_xyz
x,y,z
-x,-y,-z
loop_
_atom_site_type_symbol
_atom_site_label
_atom_site_fract_x
_atom_site_fract_y
_atom_site_fract_z
Si Si1 0.997973 0.289933 0.588653
Si Si2 0.550895 0.730912 0.909846
Si Si3 0.128428 0.526617 0.947969
Si Si4 0.174008 0.761221 0.567611
Si Si5 0.251782 0.135223 0.898868
Si Si6 0.784962 0.882985 0.841457
Si Si7 0.095678 0.308466 0.742769
Si Si8 0.397160 0.725553 0.692403
O O1 0.988696 0.361745 0.688713
O O2 0.215484 0.465698 0.623200
O O3 0.819237 0.282479 0.525712
O O4 0.000000 0.000000 0.500000
O O5 0.706275 0.734698 0.857904
O O6 0.334617 0.500073 0.813457
O O7 0.652830 0.722813 0.982435
O O8 0.500000 0.000000 0.000000
O O9 0.262821 0.348550 0.913801
O O10 0.008076 0.398235 0.834414
O O11 0.000000 0.500000 0.000000
O O12 0.229557 0.832983 0.047209
O O13 0.363211 0.785185 0.633695
O O14 0.000000 0.500000 0.500000
O O15 0.101975 0.015387 0.654161
O O16 0.354848 0.944476 0.808235
O O17 0.017670 0.954456 0.848882
O O18 0.625156 0.744323 0.730603
#
# Coordination Sequence:
#
# PCOD9020454 Si02
#       8
#     2   2   2   2   2   2   2   2
#     4   9  19  35  59  91 110 148 209 254 298 353
#     4  12  21  35  57  89 122 162 199 236 292 369
#     4  10  22  36  53  89 126 158 196 237 288 367
#     4   9  20  34  58  91 111 148 209 260 298 349
#     4  11  23  37  57  87 125 162 195 238 296 361
#     4  11  23  38  56  89 127 156 200 239 287 378
#     4  11  18  34  61  85 119 162 196 242 305 355
#     4  11  19  37  63  86 115 158 198 243 310 348
#
# _framework density 22.497924999999999
#
# number of rings (size 3 to 8) (size 9 to 14) (size 15 to 20)
#    0.000    1.500    5.000    0.375    1.750    1.000 
#    0.000    0.000    0.000    7.500    0.000    0.000 
#    0.000    0.000    0.000    0.000    0.000    0.000 
#
# Total GULP energy -89292.159965 kJ/mol
# GULP energy per Si atom -5580.759998 kJ/mol
# Density = 2.244672 g / cm^3
# Si number density = 22.497925 Si / 1000 Ang^3
#
#
#
# Elastic Constant Matrix: (Units=GPa)
#
#
# Indices 1 2 3 4 5 6 
#
# 1 47.3079 5.4094 17.8841 -17.4807 -2.0143 11.6876
# 2 5.4094 124.0117 52.0082 -43.6317 -3.1506 -4.0804
# 3 17.8841 52.0082 112.7909 -27.8509 9.4441 -8.0276
# 4 -17.4807 -43.6317 -27.8509 75.2648 -19.5962 4.4144
# 5 -2.0143 -3.1506 9.4441 -19.5962 9.4185 -2.1567
# 6 11.6876 -4.0804 -8.0276 4.4144 -2.1567 22.7798
#
#
#
# Elastic Compliance Matrix: (Units=1/GPa)
#
#
# Indices 1 2 3 4 5 6 
#
# 1 -0.128101 -0.130306 0.077466 -0.251543 -0.659197 0.056018
# 2 -0.130306 -0.100533 0.065348 -0.212480 -0.555260 0.060482
# 3 0.077466 0.065348 -0.031176 0.136271 0.345726 -0.032702
# 4 -0.251543 -0.212480 0.136271 -0.405563 -1.078893 0.115467
# 5 -0.659197 -0.555260 0.345726 -1.078893 -2.740945 0.310158
# 6 0.056018 0.060482 -0.032702 0.115467 0.310158 0.021456
#
#
# Mechanical properties :
#
#
# Convention : Reuss Voigt Hill
#
# Bulk Modulus (GPa) = -4.25906 48.30153 22.02124
# Shear Modulus (GPa) = -1.43343 35.41319 16.98988
#
# Velocity S-wave (km/s) = -0.79908 3.97175 2.75103
# Velocity P-wave (km/s) = 1.65788 6.52296 4.46097
#
# Compressibility (1/GPa) = -0.23479385
#
# Stress axis : x y z
#
# Youngs Moduli (GPa) = -7.80631 -9.94702 -32.07601
#
# Poissons Ratio (x) = -1.29616 2.48481
# Poissons Ratio (y) = -1.01721 2.09610
# Poissons Ratio (z) = 0.60473 0.65002
#
# Static dielectric constant tensor:
#      x y z
#    x 1.870870 -0.012350 0.000820 
#    y -0.012350 1.910050 -0.033240 
#    z 0.000820 -0.033240 1.887700 
# 
# From -- ./inp_files/284777.got.cif
#   From: 2010.05.17/outbox.cif.g08.bks.cpg/sg2_143_cif.got.tgz:284777.got - 2010.06.03 11:33:40.
