data_PCOD9020250
_publ_section_title
;
Structure prediction by ZEFSAII (Michael W. Deem and Ramdas Pophale) SiO2 
 PCOD9020250
Probable space group: P -1
;
_chemical_formula_sum "Si O2"
_cell_formula_units_Z 12
_cell_length_a 8.185383
_cell_length_b 4.997922
_cell_length_c 12.586020
_cell_angle_alpha 90.829812
_cell_angle_beta 64.523533
_cell_angle_gamma 112.511154
_cell_volume 422.386488
_symmetry_space_group_name_H-M "P -1"
_symmetry_group_IT_number 2
_symmetry_cell_setting 'triclinic'
loop_
_space_group_symop_operation_xyz
x,y,z
-x,-y,-z
loop_
_atom_site_type_symbol
_atom_site_label
_atom_site_fract_x
_atom_site_fract_y
_atom_site_fract_z
Si Si1 0.314518 0.635262 0.271859
Si Si2 0.469718 0.312719 0.402131
Si Si3 0.175913 0.664041 0.837148
Si Si4 0.706566 0.755265 0.058889
Si Si5 0.080029 0.894583 0.579657
Si Si6 0.118252 0.887440 0.196829
O O1 0.403725 0.506761 0.339644
O O2 0.468866 0.641035 0.136006
O O3 0.283537 0.922434 0.241457
O O4 0.078359 0.432834 0.355080
O O5 0.500000 0.500000 0.500000
O O6 0.653465 0.272439 0.298667
O O7 0.304517 0.989499 0.480834
O O8 0.225883 0.487887 0.916934
O O9 0.977535 0.430253 0.835202
O O10 0.198150 0.969496 0.883137
O O11 0.783931 0.883455 0.922916
O O12 0.000000 0.000000 0.500000
O O13 0.055757 0.062861 0.692007
#
# Coordination Sequence:
#
# PCOD9020250 Si02
#       6
#     2   2   2   2   2   2
#     4  10  26  42  70 103 142 185 239 295 358 424
#     4  10  21  48  70 103 142 190 239 295 356 426
#     4  11  26  48  74 107 144 188 246 296 356 425
#     4  11  27  48  74 105 146 190 243 296 358 426
#     4  10  24  44  69 102 147 179 243 288 367 419
#     4  12  25  44  74 104 142 190 238 299 362 422
#
# _framework density 28.409998999999999
#
# number of rings (size 3 to 8) (size 9 to 14) (size 15 to 20)
#    0.000    1.333    1.667    1.500   11.667    3.333 
#    3.000    4.167    0.000    0.000    0.000    0.000 
#    0.000    0.000    0.000    0.000    0.000    0.000 
#
# Total GULP energy -67203.948402 kJ/mol
# GULP energy per Si atom -5600.329034 kJ/mol
# Density = 2.834534 g / cm^3
# Si number density = 28.409999 Si / 1000 Ang^3
#
#
#
# Elastic Constant Matrix: (Units=GPa)
#
#
# Indices 1 2 3 4 5 6 
#
# 1 86.7140 22.6909 57.9757 -14.3761 4.8493 -13.6192
# 2 22.6909 121.5157 51.4642 -0.7530 0.8744 3.7678
# 3 57.9757 51.4642 261.5923 -27.9002 -4.6116 -0.7717
# 4 -14.3761 -0.7530 -27.9002 56.4049 -3.3935 -3.6430
# 5 4.8493 0.8744 -4.6116 -3.3935 41.2521 -7.9320
# 6 -13.6192 3.7678 -0.7717 -3.6430 -7.9320 41.2579
#
#
#
# Elastic Compliance Matrix: (Units=1/GPa)
#
#
# Indices 1 2 3 4 5 6 
#
# 1 0.015137 -0.001822 -0.002698 0.002786 -0.000813 0.005203
# 2 -0.001822 0.009285 -0.001573 -0.001264 -0.000590 -0.001704
# 3 -0.002698 -0.001573 0.004936 0.001772 0.000989 -0.000308
# 4 0.002786 -0.001264 0.001772 0.019634 0.002130 0.003212
# 5 -0.000813 -0.000590 0.000989 0.002130 0.025579 0.004910
# 6 0.005203 -0.001704 -0.000308 0.003212 0.004910 0.027332
#
#
# Mechanical properties :
#
#
# Convention : Reuss Voigt Hill
#
# Bulk Modulus (GPa) = 58.23619 81.56485 69.90052
# Shear Modulus (GPa) = 41.73098 50.29573 46.01336
#
# Velocity S-wave (km/s) = 3.83676 4.21212 4.02881
# Velocity P-wave (km/s) = 6.33803 7.24073 6.80437
#
# Compressibility (1/GPa) = 0.01717145
#
# Stress axis : x y z
#
# Youngs Moduli (GPa) = 66.06145 107.69902 202.60246
#
# Poissons Ratio (x) = 0.19624 0.54666
# Poissons Ratio (y) = 0.12037 0.31872
# Poissons Ratio (z) = 0.17825 0.16942
#
# Static dielectric constant tensor:
#      x y z
#    x 2.259360 0.126950 0.002740 
#    y 0.126950 2.311010 0.020470 
#    z 0.002740 0.020470 2.124750 
# 
# From -- ./inp_files/22147.got.cif
#   From: 2010.05.17/outbox.cif.g08.bks.cpg/sg2_12_cif.got.tgz:22147.got - 2010.06.03 11:33:40.
