data_PCOD9020602
_publ_section_title
;
Structure prediction by ZEFSAII (Michael W. Deem and Ramdas Pophale) SiO2 
 PCOD9020602
Probable space group: P -1
;
_chemical_formula_sum "Si O2"
_cell_formula_units_Z 12
_cell_length_a 10.697464
_cell_length_b 10.864859
_cell_length_c 5.130933
_cell_angle_alpha 90.079038
_cell_angle_beta 90.040127
_cell_angle_gamma 59.480701
_cell_volume 513.730140
_symmetry_space_group_name_H-M "P -1"
_symmetry_group_IT_number 2
_symmetry_cell_setting 'triclinic'
loop_
_space_group_symop_operation_xyz
x,y,z
-x,-y,-z
loop_
_atom_site_type_symbol
_atom_site_label
_atom_site_fract_x
_atom_site_fract_y
_atom_site_fract_z
Si Si1 0.597939 0.595717 0.277226
Si Si2 0.113631 0.193184 0.249990
Si Si3 0.172444 0.415554 0.054238
Si Si4 0.597939 0.306344 0.222773
Si Si5 0.906336 0.296832 0.749991
Si Si6 0.172444 0.912001 0.445761
O O1 0.639104 0.430448 0.249999
O O2 0.517581 0.659370 0.546213
O O3 0.735682 0.610205 0.206232
O O4 0.482419 0.676952 0.046213
O O5 0.203637 0.271493 0.192955
O O6 0.009315 0.265110 0.499834
O O7 0.203635 0.024870 0.307040
O O8 0.009325 0.225570 0.000136
O O9 0.189631 0.533600 0.213616
O O10 0.000000 0.500000 0.000000
O O11 0.735682 0.154112 0.293768
O O12 0.810368 0.223233 0.713614
O O13 0.000000 0.000000 0.500000
#
# Coordination Sequence:
#
# PCOD9020602 Si02
#       6
#     2   2   2   2   2   2
#     4  10  24  42  64  94 128 170 216 266 317 377
#     4  10  22  40  56  98 128 168 204 266 328 374
#     4  10  23  40  68  95 132 167 219 265 320 379
#     4  10  24  42  64  94 128 170 216 266 317 377
#     4  10  22  36  62  94 132 162 214 266 314 370
#     4  10  23  40  68  95 132 167 219 265 320 379
#
# _framework density 23.358567000000001
#
# number of rings (size 3 to 8) (size 9 to 14) (size 15 to 20)
#    0.000    2.000    0.000    1.000   16.333    5.333 
#    0.000    1.667    0.000    0.000    0.000    0.000 
#    0.000    0.000    0.000    0.000    0.000    0.000 
#
# Total GULP energy -67191.350679 kJ/mol
# GULP energy per Si atom -5599.279223 kJ/mol
# Density = 2.330540 g / cm^3
# Si number density = 23.358567 Si / 1000 Ang^3
#
#
#
# Elastic Constant Matrix: (Units=GPa)
#
#
# Indices 1 2 3 4 5 6 
#
# 1 103.3147 53.7345 39.2585 -13.2304 -37.4506 -0.3482
# 2 53.7345 105.0787 39.7898 -38.9607 -3.7225 26.4973
# 3 39.2585 39.7898 149.2104 -21.0304 -14.4128 -3.4680
# 4 -13.2304 -38.9607 -21.0304 50.0627 -4.4050 -2.7156
# 5 -37.4506 -3.7225 -14.4128 -4.4050 49.7630 -10.3996
# 6 -0.3482 26.4973 -3.4680 -2.7156 -10.3996 52.7710
#
#
#
# Elastic Compliance Matrix: (Units=1/GPa)
#
#
# Indices 1 2 3 4 5 6 
#
# 1 0.025118 -0.016455 -0.000612 -0.004041 0.019657 0.012054
# 2 -0.016455 0.027794 -0.002749 0.014089 -0.013223 -0.016126
# 3 -0.000612 -0.002749 0.008077 0.001427 0.002309 0.002435
# 4 -0.004041 0.014089 0.001427 0.030171 -0.000045 -0.005463
# 5 0.019657 -0.013223 0.002309 -0.000045 0.037557 0.014320
# 6 0.012054 -0.016126 0.002435 -0.005463 0.014320 0.029827
#
#
# Mechanical properties :
#
#
# Convention : Reuss Voigt Hill
#
# Bulk Modulus (GPa) = 46.81953 69.24105 58.03029
# Shear Modulus (GPa) = 24.35546 45.50740 34.93143
#
# Velocity S-wave (km/s) = 3.23256 4.41864 3.87129
# Velocity P-wave (km/s) = 5.83266 7.46589 6.69923
#
# Compressibility (1/GPa) = 0.02135861
#
# Stress axis : x y z
#
# Youngs Moduli (GPa) = 39.81175 35.97932 123.81397
#
# Poissons Ratio (x) = 0.59203 0.07572
# Poissons Ratio (y) = 0.65509 0.34034
# Poissons Ratio (z) = 0.02435 0.09890
#
# Static dielectric constant tensor:
#      x y z
#    x 1.911870 0.008490 0.014390 
#    y 0.008490 1.922670 0.023790 
#    z 0.014390 0.023790 1.930500 
# 
# From -- ./inp_files/63807.got.cif
#   From: 2010.05.17/outbox.cif.g08.bks.cpg/sg2_32_cif.got.tgz:63807.got - 2010.06.03 11:33:40.
