data_PCOD9020656
_publ_section_title
;
Structure prediction by ZEFSAII (Michael W. Deem and Ramdas Pophale) SiO2 
 PCOD9020656
Probable space group: P -1
;
_chemical_formula_sum "Si O2"
_cell_formula_units_Z 15
_cell_length_a 13.555972
_cell_length_b 14.351281
_cell_length_c 9.378870
_cell_angle_alpha 47.389135
_cell_angle_beta 100.956196
_cell_angle_gamma 137.439047
_cell_volume 712.674602
_symmetry_space_group_name_H-M "P -1"
_symmetry_group_IT_number 2
_symmetry_cell_setting 'triclinic'
loop_
_space_group_symop_operation_xyz
x,y,z
-x,-y,-z
loop_
_atom_site_type_symbol
_atom_site_label
_atom_site_fract_x
_atom_site_fract_y
_atom_site_fract_z
Si Si1 0.180402 0.189861 0.653464
Si Si2 0.339936 0.632729 0.181826
Si Si3 0.500000 0.500000 0.000000
Si Si4 0.753644 0.948604 0.421682
Si Si5 0.411492 0.726394 0.432651
Si Si6 0.245408 0.276166 0.895714
Si Si7 0.390387 0.943957 0.392603
Si Si8 0.975596 0.354606 0.245510
O O1 0.275239 0.418123 0.385903
O O2 0.200454 0.099628 0.640746
O O3 0.270297 0.252996 0.765976
O O4 0.961661 0.976406 0.847425
O O5 0.415393 0.743634 0.245371
O O6 0.155268 0.518081 0.218909
O O7 0.482458 0.822104 0.900914
O O8 0.641789 0.757011 0.710538
O O9 0.394173 0.384867 0.934426
O O10 0.615575 0.908242 0.361545
O O11 0.935020 0.197281 0.288249
O O12 0.279472 0.464857 0.699971
O O13 0.347242 0.783020 0.439195
O O14 0.205359 0.813173 0.535056
O O15 0.500000 0.000000 0.500000
O O16 0.000000 0.500000 0.000000
#
# Coordination Sequence:
#
# PCOD9020656 Si02
#       8
#     2   2   1   2   2   2   2   2
#     4  10  23  43  66  95 136 173 211 272 328 398
#     4  11  25  45  68 100 134 171 225 273 334 397
#     4  10  22  36  64  94 128 164 216 256 326 386
#     4  11  24  42  67  97 131 175 217 268 329 395
#     4  10  23  45  67  97 133 173 221 272 328 398
#     4   9  21  42  63  96 131 169 215 265 329 392
#     4  12  24  45  71  94 134 175 220 285 328 382
#     4  12  26  44  69  99 130 174 228 273 332 391
#
# _framework density 21.047473
#
# number of rings (size 3 to 8) (size 9 to 14) (size 15 to 20)
#    0.000    1.333    2.667    1.200    3.733    7.467 
#    7.200    0.000    0.000    0.000    0.000    0.000 
#    0.000    0.000    0.000    0.000    0.000    0.000 
#
# Total GULP energy -83659.171171 kJ/mol
# GULP energy per Si atom -5577.278078 kJ/mol
# Density = 2.099957 g / cm^3
# Si number density = 21.047473 Si / 1000 Ang^3
#
#
#
# Elastic Constant Matrix: (Units=GPa)
#
#
# Indices 1 2 3 4 5 6 
#
# 1 38.0142 -47.3775 35.1934 19.8703 -14.8266 -30.2705
# 2 -47.3775 -62.2418 61.6261 22.1864 8.5992 -31.6531
# 3 35.1934 61.6261 145.0483 19.0762 -5.2516 7.0036
# 4 19.8703 22.1864 19.0762 28.8426 4.8856 5.5492
# 5 -14.8266 8.5992 -5.2516 4.8856 21.5556 -2.7243
# 6 -30.2705 -31.6531 7.0036 5.5492 -2.7243 29.5900
#
#
#
# Elastic Compliance Matrix: (Units=1/GPa)
#
#
# Indices 1 2 3 4 5 6 
#
# 1 0.023299 -0.018027 0.004084 -0.011178 0.027787 0.008239
# 2 -0.018027 0.007048 -0.000416 0.013648 -0.020331 -0.015235
# 3 0.004084 -0.000416 0.007386 -0.009506 0.007492 0.004458
# 4 -0.011178 0.013648 -0.009506 0.043549 -0.025970 -0.005144
# 5 0.027787 -0.020331 0.007492 -0.025970 0.083534 0.017465
# 6 0.008239 -0.015235 0.004458 -0.005144 0.017465 0.027444
#
#
# Mechanical properties :
#
#
# Convention : Reuss Voigt Hill
#
# Bulk Modulus (GPa) = 110.91257 24.41161 67.66209
# Shear Modulus (GPa) = 22.32316 20.75621 21.53968
#
# Velocity S-wave (km/s) = 3.26023 3.14373 3.20251
# Velocity P-wave (km/s) = 8.18431 4.98005 6.77436
#
# Compressibility (1/GPa) = 0.00901611
#
# Stress axis : x y z
#
# Youngs Moduli (GPa) = 42.91963 141.89135 135.38838
#
# Poissons Ratio (x) = 2.55786 -0.55295
# Poissons Ratio (y) = 0.77371 0.05630
# Poissons Ratio (z) = -0.17529 0.05900
#
# Static dielectric constant tensor:
#      x y z
#    x 1.768520 0.000670 0.014330 
#    y 0.000670 1.742560 -0.029570 
#    z 0.014330 -0.029570 1.763290 
# 
# From -- ./inp_files/314694.got.cif
#   From: 2010.05.17/outbox.cif.g08.bks.cpg/sg2_158_cif.got.tgz:314694.got - 2010.06.03 11:33:40.
