data_PCOD9020130
_publ_section_title
;
Structure prediction by ZEFSAII (Michael W. Deem and Ramdas Pophale) SiO2 
 PCOD9020130
Probable space group: P -1
;
_chemical_formula_sum "Si O2"
_cell_formula_units_Z 12
_cell_length_a 13.552878
_cell_length_b 8.414498
_cell_length_c 11.102319
_cell_angle_alpha 59.435726
_cell_angle_beta 31.877269
_cell_angle_gamma 47.873746
_cell_volume 489.836901
_symmetry_space_group_name_H-M "P -1"
_symmetry_group_IT_number 2
_symmetry_cell_setting 'triclinic'
loop_
_space_group_symop_operation_xyz
x,y,z
-x,-y,-z
loop_
_atom_site_type_symbol
_atom_site_label
_atom_site_fract_x
_atom_site_fract_y
_atom_site_fract_z
Si Si1 0.042804 0.554945 0.567852
Si Si2 0.752175 0.869445 0.333459
Si Si3 0.548634 0.363256 0.653891
Si Si4 0.648775 0.882486 0.007925
Si Si5 0.663718 0.283098 0.841840
Si Si6 0.856734 0.211805 0.194839
O O1 0.214261 0.330601 0.542670
O O2 0.108571 0.730207 0.402292
O O3 0.000000 0.500000 0.500000
O O4 0.851821 0.671738 0.818772
O O5 0.500000 0.000000 0.500000
O O6 0.847419 0.997364 0.260793
O O7 0.922986 0.799232 0.070653
O O8 0.574581 0.332144 0.779988
O O9 0.777248 0.294428 0.380807
O O10 0.353232 0.602880 0.733669
O O11 0.472836 0.200006 0.749493
O O12 0.687023 0.065115 0.951181
O O13 0.500000 0.000000 0.000000
O O14 0.500000 0.500000 0.000000
#
# Coordination Sequence:
#
# PCOD9020130 Si02
#       6
#     2   2   2   2   2   2
#     4  12  25  45  72 107 147 195 246 310 373 442
#     4  11  25  47  73 112 149 196 250 302 374 449
#     4  10  21  46  72 106 143 193 247 306 376 441
#     4  10  22  43  68 103 143 187 240 303 378 440
#     4  11  25  42  71 107 144 191 248 308 375 451
#     4  10  23  45  74 103 150 196 244 308 368 452
#
# _framework density 24.497949999999999
#
# number of rings (size 3 to 8) (size 9 to 14) (size 15 to 20)
#    0.000    1.333    1.667    3.500    7.000    0.000 
#    3.000    2.500    0.000    0.000    0.000    0.000 
#    0.000    0.000    0.000    0.000    0.000    0.000 
#
# Total GULP energy -67071.711366 kJ/mol
# GULP energy per Si atom -5589.309280 kJ/mol
# Density = 2.444219 g / cm^3
# Si number density = 24.497950 Si / 1000 Ang^3
#
#
#
# Elastic Constant Matrix: (Units=GPa)
#
#
# Indices 1 2 3 4 5 6 
#
# 1 63.1006 27.3543 21.6562 5.9709 6.1443 -3.3312
# 2 27.3543 100.5400 13.1690 -5.0661 2.0177 -3.6231
# 3 21.6562 13.1690 153.7007 14.8464 8.8491 7.4876
# 4 5.9709 -5.0661 14.8464 38.9671 5.3461 -11.7294
# 5 6.1443 2.0177 8.8491 5.3461 36.5622 -0.7818
# 6 -3.3312 -3.6231 7.4876 -11.7294 -0.7818 32.5471
#
#
#
# Elastic Compliance Matrix: (Units=1/GPa)
#
#
# Indices 1 2 3 4 5 6 
#
# 1 0.019161 -0.004987 -0.001984 -0.002236 -0.002116 0.001006
# 2 -0.004987 0.011631 -0.000700 0.003180 -0.000055 0.002090
# 3 -0.001984 -0.000700 0.007393 -0.003446 -0.000983 -0.003247
# 4 -0.002236 0.003180 -0.003446 0.031907 -0.003367 0.012336
# 5 -0.002116 -0.000055 -0.000983 -0.003367 0.028428 -0.000527
# 6 0.001006 0.002090 -0.003247 0.012336 -0.000527 0.036240
#
#
# Mechanical properties :
#
#
# Convention : Reuss Voigt Hill
#
# Bulk Modulus (GPa) = 43.77399 49.07781 46.42590
# Shear Modulus (GPa) = 31.70219 38.62608 35.16413
#
# Velocity S-wave (km/s) = 3.60123 3.97508 3.79277
# Velocity P-wave (km/s) = 5.93288 6.41446 6.17836
#
# Compressibility (1/GPa) = 0.02284462
#
# Stress axis : x y z
#
# Youngs Moduli (GPa) = 52.18856 85.97352 135.25786
#
# Poissons Ratio (x) = 0.42878 0.26831
# Poissons Ratio (y) = 0.26028 0.09463
# Poissons Ratio (z) = 0.10353 0.06015
#
# Static dielectric constant tensor:
#      x y z
#    x 2.054250 0.175280 0.070630 
#    y 0.175280 1.922850 0.074060 
#    z 0.070630 0.074060 2.337260 
# 
# From -- ./inp_files/446887.got.cif
#   From: 2010.05.17/outbox.cif.g08.bks.cpg/sg2_224_cif.got.tgz:446887.got - 2010.06.03 11:33:40.
