data_PCOD9020893
_publ_section_title
;
Structure prediction by ZEFSAII (Michael W. Deem and Ramdas Pophale) SiO2 
 PCOD9020893
Probable space group: P -1
;
_chemical_formula_sum "Si O2"
_cell_formula_units_Z 14
_cell_length_a 11.950859
_cell_length_b 15.063668
_cell_length_c 15.156860
_cell_angle_alpha 152.614828
_cell_angle_beta 57.229470
_cell_angle_gamma 140.766023
_cell_volume 685.839744
_symmetry_space_group_name_H-M "P -1"
_symmetry_group_IT_number 2
_symmetry_cell_setting 'triclinic'
loop_
_space_group_symop_operation_xyz
x,y,z
-x,-y,-z
loop_
_atom_site_type_symbol
_atom_site_label
_atom_site_fract_x
_atom_site_fract_y
_atom_site_fract_z
Si Si1 0.476157 0.396954 0.291480
Si Si2 0.293868 0.889184 0.467877
Si Si3 0.054922 0.353597 0.307518
Si Si4 0.870856 0.277880 0.141771
Si Si5 0.545184 0.415496 0.713860
Si Si6 0.790786 0.644663 0.509559
Si Si7 0.180282 0.091102 0.829407
O O1 0.477321 0.446919 0.230843
O O2 0.699995 0.605381 0.419701
O O3 0.372520 0.463623 0.444174
O O4 0.335963 0.064550 0.094257
O O5 0.088729 0.538952 0.228752
O O6 0.500000 0.000000 0.500000
O O7 0.341590 0.079236 0.532316
O O8 0.252306 0.974930 0.648079
O O9 0.287848 0.553432 0.366407
O O10 0.000000 0.500000 0.500000
O O11 0.940630 0.233560 0.158052
O O12 0.956649 0.099253 0.193602
O O13 0.814839 0.440258 0.325816
O O14 0.633129 0.590244 0.924717
O O15 0.011010 0.982959 0.737415
#
# Coordination Sequence:
#
# PCOD9020893 Si02
#       7
#     2   2   2   2   2   2   2
#     4  11  22  39  63  89 121 160 206 247 300 357
#     4  11  23  37  57  92 129 154 194 255 314 357
#     4  12  18  33  61  87 116 151 202 253 297 341
#     4  11  21  38  61  86 121 160 199 247 302 356
#     4  12  22  37  60  95 121 157 201 255 304 360
#     4  10  22  37  61  93 118 157 207 253 291 361
#     4  11  21  37  59  90 118 157 199 252 298 354
#
# _framework density 20.412929999999999
#
# number of rings (size 3 to 8) (size 9 to 14) (size 15 to 20)
#    0.000    0.857    7.143    2.143    0.000    0.000 
#    0.000    2.857    0.000    3.429    0.000    0.000 
#    0.000    0.000    0.000    0.000    0.000    0.000 
#
# Total GULP energy -78014.941463 kJ/mol
# GULP energy per Si atom -5572.495819 kJ/mol
# Density = 2.036647 g / cm^3
# Si number density = 20.412930 Si / 1000 Ang^3
#
#
#
# Elastic Constant Matrix: (Units=GPa)
#
#
# Indices 1 2 3 4 5 6 
#
# 1 107.9280 25.5015 43.7142 1.4133 10.7287 3.7951
# 2 25.5015 84.0498 25.6424 9.3173 -2.9508 -2.4181
# 3 43.7142 25.6424 84.8755 13.3705 6.3110 -2.7524
# 4 1.4133 9.3173 13.3705 28.1046 3.9079 -8.6979
# 5 10.7287 -2.9508 6.3110 3.9079 34.9302 -3.6390
# 6 3.7951 -2.4181 -2.7524 -8.6979 -3.6390 23.1338
#
#
#
# Elastic Compliance Matrix: (Units=1/GPa)
#
#
# Indices 1 2 3 4 5 6 
#
# 1 0.012723 -0.002526 -0.006042 0.002770 -0.003610 -0.002596
# 2 -0.002526 0.013950 -0.002560 -0.003457 0.002879 0.000721
# 3 -0.006042 -0.002560 0.016774 -0.006710 -0.000630 0.000097
# 4 0.002770 -0.003457 -0.006710 0.044802 -0.003412 0.014694
# 5 -0.003610 0.002879 -0.000630 -0.003412 0.030935 0.004401
# 6 -0.002596 0.000721 0.000097 0.014694 0.004401 0.049957
#
#
# Mechanical properties :
#
#
# Convention : Reuss Voigt Hill
#
# Bulk Modulus (GPa) = 47.18653 51.84106 49.51379
# Shear Modulus (GPa) = 25.19393 29.36675 27.28034
#
# Velocity S-wave (km/s) = 3.51695 3.79705 3.65968
# Velocity P-wave (km/s) = 6.29747 6.68392 6.49357
#
# Compressibility (1/GPa) = 0.02119249
#
# Stress axis : x y z
#
# Youngs Moduli (GPa) = 78.59569 71.68465 59.61482
#
# Poissons Ratio (x) = 0.18104 0.36020
# Poissons Ratio (y) = 0.19850 0.15260
# Poissons Ratio (z) = 0.47489 0.18350
#
# Static dielectric constant tensor:
#      x y z
#    x 1.762180 0.002310 0.009170 
#    y 0.002310 1.733920 0.007790 
#    z 0.009170 0.007790 1.855370 
# 
# From -- ./inp_files/269073.got.cif
#   From: 2010.05.17/outbox.cif.g08.bks.cpg/sg2_135_cif.got.tgz:269073.got - 2010.06.03 11:33:40.
