data_PCOD9020349
_publ_section_title
;
Structure prediction by ZEFSAII (Michael W. Deem and Ramdas Pophale) SiO2 
 PCOD9020349
Probable space group: P -1
;
_chemical_formula_sum "Si O2"
_cell_formula_units_Z 11
_cell_length_a 4.930996
_cell_length_b 16.138969
_cell_length_c 7.633141
_cell_angle_alpha 141.656071
_cell_angle_beta 90.284757
_cell_angle_gamma 94.709295
_cell_volume 373.209872
_symmetry_space_group_name_H-M "P -1"
_symmetry_group_IT_number 2
_symmetry_cell_setting 'triclinic'
loop_
_space_group_symop_operation_xyz
x,y,z
-x,-y,-z
loop_
_atom_site_type_symbol
_atom_site_label
_atom_site_fract_x
_atom_site_fract_y
_atom_site_fract_z
Si Si1 0.138591 0.770163 0.608451
Si Si2 0.682846 0.023456 0.314833
Si Si3 0.607502 0.663019 0.578392
Si Si4 0.684511 0.396949 0.986631
Si Si5 0.000000 0.500000 0.500000
Si Si6 0.768430 0.842627 0.301061
O O1 0.263597 0.915116 0.776059
O O2 0.308881 0.709739 0.667031
O O3 0.829354 0.771106 0.663348
O O4 0.169140 0.661294 0.275669
O O5 0.380449 0.045495 0.407848
O O6 0.916482 0.124014 0.589226
O O7 0.727146 0.879817 0.158821
O O8 0.584344 0.542802 0.234496
O O9 0.750712 0.595000 0.623745
O O10 0.900156 0.417875 0.183188
O O11 0.422472 0.288839 0.853152
#
# Coordination Sequence:
#
# PCOD9020349 Si02
#       6
#     2   2   2   2   1   2
#     4  11  19  34  57  77 109 128 184 211 272 288
#     4   9  18  30  51  81  99 138 160 231 247 312
#     4  10  22  35  52  80 105 143 166 225 251 324
#     4   9  19  36  54  81 103 147 167 223 248 324
#     4   8  22  38  50  78 108 146 174 202 274 306
#     4   9  17  32  51  74 110 127 180 200 272 293
#
# _framework density 29.474032999999999
#
# number of rings (size 3 to 8) (size 9 to 14) (size 15 to 20)
#    1.091    1.455    0.000    3.273    0.000    3.636 
#    0.000    0.000    0.000    2.182    0.000    0.000 
#    0.000    0.000    0.000    0.000    0.000    0.000 
#
# Total GULP energy -61359.699688 kJ/mol
# GULP energy per Si atom -5578.154517 kJ/mol
# Density = 2.940695 g / cm^3
# Si number density = 29.474033 Si / 1000 Ang^3
#
#
#
# Elastic Constant Matrix: (Units=GPa)
#
#
# Indices 1 2 3 4 5 6 
#
# 1 119.8400 23.1960 33.8207 4.0132 12.1099 5.7442
# 2 23.1960 81.2938 7.9657 12.7776 -3.3334 -20.9172
# 3 33.8207 7.9657 92.9230 -23.6049 9.7088 7.5073
# 4 4.0132 12.7776 -23.6049 41.2576 -2.1183 11.1059
# 5 12.1099 -3.3334 9.7088 -2.1183 42.4746 -5.7240
# 6 5.7442 -20.9172 7.5073 11.1059 -5.7240 66.1602
#
#
#
# Elastic Compliance Matrix: (Units=1/GPa)
#
#
# Indices 1 2 3 4 5 6 
#
# 1 0.010284 -0.002652 -0.003686 -0.002101 -0.002562 -0.001182
# 2 -0.002652 0.017055 -0.003837 -0.009164 0.003580 0.007906
# 3 -0.003686 -0.003837 0.016205 0.012012 -0.003030 -0.005010
# 4 -0.002101 -0.009164 0.012012 0.036847 -0.002439 -0.010474
# 5 -0.002562 0.003580 -0.003030 -0.002439 0.025710 0.004332
# 6 -0.001182 0.007906 -0.005010 -0.010474 0.004332 0.020419
#
#
# Mechanical properties :
#
#
# Convention : Reuss Voigt Hill
#
# Bulk Modulus (GPa) = 43.11749 47.11353 45.11551
# Shear Modulus (GPa) = 32.34116 45.25011 38.79563
#
# Velocity S-wave (km/s) = 3.31611 3.92248 3.63197
# Velocity P-wave (km/s) = 5.41506 6.04433 5.73833
#
# Compressibility (1/GPa) = 0.02319245
#
# Stress axis : x y z
#
# Youngs Moduli (GPa) = 97.23834 58.63323 61.70952
#
# Poissons Ratio (x) = 0.15550 0.22748
# Poissons Ratio (y) = 0.25788 0.23681
# Poissons Ratio (z) = 0.35846 0.22500
#
# Static dielectric constant tensor:
#      x y z
#    x 2.002820 -0.130450 -0.044760 
#    y -0.130450 2.440540 0.099460 
#    z -0.044760 0.099460 2.426910 
# 
# From -- ./inp_files/136371.got.cif
#   From: 2010.05.17/outbox.cif.g08.bks.cpg/sg2_69_cif.got.tgz:136371.got - 2010.06.03 11:33:40.
