data_PCOD9020779
_publ_section_title
;
Structure prediction by ZEFSAII (Michael W. Deem and Ramdas Pophale) SiO2 
 PCOD9020779
Probable space group: P -1
;
_chemical_formula_sum "Si O2"
_cell_formula_units_Z 16
_cell_length_a 18.200004
_cell_length_b 15.523211
_cell_length_c 5.244162
_cell_angle_alpha 96.329470
_cell_angle_beta 109.151839
_cell_angle_gamma 31.893076
_cell_volume 696.143569
_symmetry_space_group_name_H-M "P -1"
_symmetry_group_IT_number 2
_symmetry_cell_setting 'triclinic'
loop_
_space_group_symop_operation_xyz
x,y,z
-x,-y,-z
loop_
_atom_site_type_symbol
_atom_site_label
_atom_site_fract_x
_atom_site_fract_y
_atom_site_fract_z
Si Si1 0.673647 0.142683 0.480812
Si Si2 0.081742 0.204576 0.062586
Si Si3 0.502827 0.561795 0.273302
Si Si4 0.841033 0.538310 0.245102
Si Si5 0.104850 0.345836 0.868692
Si Si6 0.880241 0.079135 0.588691
Si Si7 0.884801 0.244878 0.875888
Si Si8 0.358557 0.429115 0.917357
O O1 0.635490 0.240955 0.712529
O O2 0.757919 0.126943 0.375594
O O3 0.795106 0.953473 0.649556
O O4 0.516394 0.264539 0.206073
O O5 0.937811 0.392669 0.094215
O O6 0.170942 0.192844 0.005108
O O7 0.985112 0.219006 0.823804
O O8 0.500000 0.500000 0.500000
O O9 0.611005 0.537343 0.276611
O O10 0.500000 0.500000 0.000000
O O11 0.783119 0.687852 0.126501
O O12 0.716442 0.592081 0.234633
O O13 0.977574 0.433351 0.556255
O O14 0.000000 0.500000 0.000000
O O15 0.803675 0.242078 0.647762
O O16 0.000000 0.000000 0.500000
O O17 0.981423 0.931600 0.865197
O O18 0.762818 0.405126 0.980459
#
# Coordination Sequence:
#
# PCOD9020779 Si02
#       8
#     2   2   2   2   2   2   2   2
#     4  11  25  41  62  98 137 181 227 282 346 400
#     4   9  20  39  63  97 132 170 218 280 340 403
#     4  12  26  45  64  92 136 192 236 283 333 398
#     4   9  20  40  70  99 126 173 217 277 343 411
#     4   9  18  38  68  99 130 162 218 276 339 413
#     4  10  22  37  58  82 122 170 223 276 329 386
#     4   9  21  37  55  90 122 168 225 274 327 390
#     4  11  24  41  65  94 136 176 231 275 342 414
#
# _framework density 22.983763
#
# number of rings (size 3 to 8) (size 9 to 14) (size 15 to 20)
#    0.000    2.000    1.250    0.750    1.750   10.000 
#    0.000    0.625    0.000    7.500    0.000    0.000 
#    0.000    0.000    0.000    0.000    0.000    0.000 
#
# Total GULP energy -89129.388205 kJ/mol
# GULP energy per Si atom -5570.586763 kJ/mol
# Density = 2.293145 g / cm^3
# Si number density = 22.983763 Si / 1000 Ang^3
#
#
#
# Elastic Constant Matrix: (Units=GPa)
#
#
# Indices 1 2 3 4 5 6 
#
# 1 251.5982 63.4864 60.7389 -14.7451 2.6290 21.4002
# 2 63.4864 42.9474 2.0458 -10.0000 -4.4359 0.3043
# 3 60.7389 2.0458 53.5280 -3.4643 -4.7163 9.9856
# 4 -14.7451 -10.0000 -3.4643 38.2079 2.7774 -9.1790
# 5 2.6290 -4.4359 -4.7163 2.7774 35.3745 -3.5629
# 6 21.4002 0.3043 9.9856 -9.1790 -3.5629 32.9326
#
#
#
# Elastic Compliance Matrix: (Units=1/GPa)
#
#
# Indices 1 2 3 4 5 6 
#
# 1 0.011823 -0.017852 -0.012405 -0.002035 -0.005102 -0.004876
# 2 -0.017852 0.052137 0.018047 0.009926 0.010453 0.009544
# 3 -0.012405 0.018047 0.032988 0.002227 0.007338 -0.000694
# 4 -0.002035 0.009926 0.002227 0.030342 0.000221 0.009036
# 5 -0.005102 0.010453 0.007338 0.000221 0.031368 0.004449
# 6 -0.004876 0.009544 -0.000694 0.009036 0.004449 0.036655
#
#
# Mechanical properties :
#
#
# Convention : Reuss Voigt Hill
#
# Bulk Modulus (GPa) = 13.78761 66.73509 40.26135
# Shear Modulus (GPa) = 20.49946 36.08982 28.29464
#
# Velocity S-wave (km/s) = 2.98973 3.96691 3.51247
# Velocity P-wave (km/s) = 4.23436 7.07677 5.83140
#
# Compressibility (1/GPa) = 0.07252889
#
# Stress axis : x y z
#
# Youngs Moduli (GPa) = 84.58309 19.18011 30.31400
#
# Poissons Ratio (x) = 0.34241 0.37604
# Poissons Ratio (y) = 1.50999 -0.54709
# Poissons Ratio (z) = 1.04924 -0.34615
#
# Static dielectric constant tensor:
#      x y z
#    x 1.551720 -0.919190 -0.123520 
#    y -0.919190 0.265840 -0.473870 
#    z -0.123520 -0.473870 2.058010 
# 
# From -- ./inp_files/110910.got.cif
#   From: 2010.05.17/outbox.cif.g08.bks.cpg/sg2_56_cif.got.tgz:110910.got - 2010.06.03 11:33:40.
