data_PCOD9020303
_publ_section_title
;
Structure prediction by ZEFSAII (Michael W. Deem and Ramdas Pophale) SiO2 
 PCOD9020303
Probable space group: P -1
;
_chemical_formula_sum "Si O2"
_cell_formula_units_Z 16
_cell_length_a 10.254081
_cell_length_b 13.573798
_cell_length_c 12.789007
_cell_angle_alpha 146.194843
_cell_angle_beta 100.159813
_cell_angle_gamma 54.877802
_cell_volume 606.501826
_symmetry_space_group_name_H-M "P -1"
_symmetry_group_IT_number 2
_symmetry_cell_setting 'triclinic'
loop_
_space_group_symop_operation_xyz
x,y,z
-x,-y,-z
loop_
_atom_site_type_symbol
_atom_site_label
_atom_site_fract_x
_atom_site_fract_y
_atom_site_fract_z
Si Si1 0.593255 0.361993 0.132756
Si Si2 0.301288 0.016818 0.351290
Si Si3 0.094269 0.103705 0.604540
Si Si4 0.908717 0.884607 0.927008
Si Si5 0.260609 0.426367 0.712380
Si Si6 0.816299 0.618290 0.742583
Si Si7 0.694981 0.354184 0.467713
Si Si8 0.865235 0.696337 0.031070
O O1 0.636321 0.492722 0.188012
O O2 0.385426 0.583048 0.370694
O O3 0.574292 0.227682 0.928826
O O4 0.798529 0.107028 0.013787
O O5 0.248063 0.968490 0.407062
O O6 0.405791 0.100447 0.449341
O O7 0.063775 0.306078 0.525283
O O8 0.201460 0.081537 0.702606
O O9 0.000000 0.000000 0.500000
O O10 0.919248 0.445763 0.864370
O O11 0.796173 0.810691 0.837663
O O12 0.149583 0.569527 0.707510
O O13 0.867631 0.042753 0.167084
O O14 0.082175 0.555814 0.886619
O O15 0.728748 0.526434 0.609454
O O16 0.728920 0.787714 0.989846
O O17 0.500000 0.500000 0.500000
#
# Coordination Sequence:
#
# PCOD9020303 Si02
#       8
#     2   2   2   2   2   2   2   2
#     4  11  20  30  48  73 102 133 165 205 250 292
#     4   9  20  32  51  78 100 127 161 206 258 292
#     4   9  15  28  51  79 104 122 154 205 254 300
#     4   9  20  34  51  69  95 137 174 204 245 292
#     4   9  18  32  49  74 100 125 165 209 245 294
#     4   9  19  36  52  72 102 130 173 211 238 297
#     4  10  22  34  48  70  98 138 177 207 244 289
#     4   8  17  30  50  78 100 127 160 202 253 293
#
# _framework density 26.380796
#
# number of rings (size 3 to 8) (size 9 to 14) (size 15 to 20)
#    0.000    3.250    0.000    1.875    0.000   11.000 
#    0.000    0.000    0.000    0.750    0.000   42.000 
#    0.000    4.000    0.000    0.000    0.000    0.000 
#
# Total GULP energy -89247.364676 kJ/mol
# GULP energy per Si atom -5577.960292 kJ/mol
# Density = 2.632075 g / cm^3
# Si number density = 26.380796 Si / 1000 Ang^3
#
#
#
# Elastic Constant Matrix: (Units=GPa)
#
#
# Indices 1 2 3 4 5 6 
#
# 1 135.9042 41.9376 71.0434 6.6045 54.1836 37.3094
# 2 41.9376 78.8972 61.7813 8.9456 20.8578 23.5495
# 3 71.0434 61.7813 144.8755 -25.5173 42.0615 20.9606
# 4 6.6045 8.9456 -25.5173 46.4964 2.6802 7.0172
# 5 54.1836 20.8578 42.0615 2.6802 54.1897 15.7772
# 6 37.3094 23.5495 20.9606 7.0172 15.7772 39.9424
#
#
#
# Elastic Compliance Matrix: (Units=1/GPa)
#
#
# Indices 1 2 3 4 5 6 
#
# 1 0.016027 0.000450 -0.004388 -0.002917 -0.010205 -0.008389
# 2 0.000450 0.024929 -0.012235 -0.010537 0.002221 -0.007724
# 3 -0.004388 -0.012235 0.018039 0.012929 -0.006125 0.001994
# 4 -0.002917 -0.010537 0.012929 0.031547 -0.004109 -0.001767
# 5 -0.010205 0.002221 -0.006125 -0.004109 0.033017 -0.000883
# 6 -0.008389 -0.007724 0.001994 -0.001767 -0.000883 0.037039
#
#
# Mechanical properties :
#
#
# Convention : Reuss Voigt Hill
#
# Bulk Modulus (GPa) = 37.52566 78.80017 58.16291
# Shear Modulus (GPa) = 24.77378 40.45335 32.61356
#
# Velocity S-wave (km/s) = 3.06777 3.92016 3.51987
# Velocity P-wave (km/s) = 5.17724 7.10108 6.21406
#
# Compressibility (1/GPa) = 0.02664843
#
# Stress axis : x y z
#
# Youngs Moduli (GPa) = 62.39580 40.11390 55.43690
#
# Poissons Ratio (x) = -0.01805 0.24326
# Poissons Ratio (y) = -0.02807 0.67826
# Poissons Ratio (z) = 0.27379 0.49078
#
# Static dielectric constant tensor:
#      x y z
#    x 2.186420 0.003890 -0.037650 
#    y 0.003890 2.201130 0.100790 
#    z -0.037650 0.100790 2.391470 
# 
# From -- ./inp_files/521116.got.cif
#   From: 2010.05.17/outbox.cif.g08.bks.cpg/sg2_261_cif.got.tgz:521116.got - 2010.06.03 11:33:40.
