data_PCOD9020754
_publ_section_title
;
Structure prediction by ZEFSAII (Michael W. Deem and Ramdas Pophale) SiO2 
 PCOD9020754
Probable space group: P -1
;
_chemical_formula_sum "Si O2"
_cell_formula_units_Z 16
_cell_length_a 11.232543
_cell_length_b 12.677511
_cell_length_c 5.216915
_cell_angle_alpha 78.039289
_cell_angle_beta 84.444720
_cell_angle_gamma 80.290716
_cell_volume 714.878650
_symmetry_space_group_name_H-M "P -1"
_symmetry_group_IT_number 2
_symmetry_cell_setting 'triclinic'
loop_
_space_group_symop_operation_xyz
x,y,z
-x,-y,-z
loop_
_atom_site_type_symbol
_atom_site_label
_atom_site_fract_x
_atom_site_fract_y
_atom_site_fract_z
Si Si1 0.016463 0.669669 0.375609
Si Si2 0.646631 0.580632 0.603863
Si Si3 0.680650 0.895311 0.091676
Si Si4 0.853133 0.533602 0.219052
Si Si5 0.410259 0.854412 0.038383
Si Si6 0.387314 0.719149 0.601582
Si Si7 0.223047 0.616868 0.052436
Si Si8 0.212531 0.224842 0.363819
O O1 0.921380 0.634549 0.206875
O O2 0.929069 0.742260 0.553878
O O3 0.082912 0.563034 0.563350
O O4 0.129643 0.703992 0.182766
O O5 0.715226 0.568696 0.322773
O O6 0.507303 0.630018 0.597233
O O7 0.718465 0.668294 0.690757
O O8 0.670698 0.458979 0.778957
O O9 0.762159 0.836377 0.877581
O O10 0.666612 0.025704 0.011729
O O11 0.546578 0.865745 0.087750
O O12 0.727600 0.851724 0.379763
O O13 0.855111 0.476393 0.975914
O O14 0.364889 0.779152 0.305239
O O15 0.412399 0.801608 0.783077
O O16 0.276857 0.666496 0.767867
#
# Coordination Sequence:
#
# PCOD9020754 Si02
#       8
#     2   2   2   2   2   2   2   2
#     4   9  21  37  57  91 120 165 210 256 291 357
#     4  10  22  37  55  96 125 164 203 249 296 369
#     4  11  22  42  68  95 120 154 200 273 322 354
#     4   9  20  37  57  84 125 164 213 252 294 342
#     4  11  24  43  65  93 125 155 207 259 317 371
#     4  12  25  40  63  92 129 169 204 243 305 384
#     4  11  24  37  61  84 135 175 201 241 300 364
#     4  11  22  37  68  97 122 153 207 259 317 358
#
# _framework density 22.381422000000001
#
# number of rings (size 3 to 8) (size 9 to 14) (size 15 to 20)
#    0.000    1.500    2.500    2.250   10.500    2.500 
#    0.000    0.000    0.000    4.500    0.000    0.000 
#    0.000    0.000    0.000    0.000    0.000    0.000 
#
# Total GULP energy -89481.139027 kJ/mol
# GULP energy per Si atom -5592.571189 kJ/mol
# Density = 2.233048 g / cm^3
# Si number density = 22.381422 Si / 1000 Ang^3
#
#
#
# Elastic Constant Matrix: (Units=GPa)
#
#
# Indices 1 2 3 4 5 6 
#
# 1 80.8092 35.3539 30.1882 -0.1117 -18.7333 -19.0476
# 2 35.3539 89.6681 40.9030 1.6444 -13.4672 -22.6999
# 3 30.1882 40.9030 85.3345 -1.2758 -10.9589 -18.0326
# 4 -0.1117 1.6444 -1.2758 31.8063 -0.1510 -1.9167
# 5 -18.7333 -13.4672 -10.9589 -0.1510 33.2512 13.5657
# 6 -19.0476 -22.6999 -18.0326 -1.9167 13.5657 31.3763
#
#
#
# Elastic Compliance Matrix: (Units=1/GPa)
#
#
# Indices 1 2 3 4 5 6 
#
# 1 0.017265 -0.003739 -0.002785 0.000392 0.005788 0.003697
# 2 -0.003739 0.016778 -0.005288 -0.000688 0.000211 0.006697
# 3 -0.002785 -0.005288 0.016056 0.001134 0.000053 0.003758
# 4 0.000392 -0.000688 0.001134 0.031676 -0.000594 0.002584
# 5 0.005788 0.000211 0.000053 -0.000594 0.038783 -0.013107
# 6 0.003697 0.006697 0.003758 0.002584 -0.013107 0.046945
#
#
# Mechanical properties :
#
#
# Convention : Reuss Voigt Hill
#
# Bulk Modulus (GPa) = 37.76990 52.07802 44.92396
# Shear Modulus (GPa) = 25.00626 29.24453 27.12540
#
# Velocity S-wave (km/s) = 3.34620 3.61867 3.48510
# Velocity P-wave (km/s) = 5.64283 6.38582 6.02579
#
# Compressibility (1/GPa) = 0.02647611
#
# Stress axis : x y z
#
# Youngs Moduli (GPa) = 57.92183 59.60248 62.28103
#
# Poissons Ratio (x) = 0.22283 0.17347
# Poissons Ratio (y) = 0.21654 0.32931
# Poissons Ratio (z) = 0.16133 0.31515
#
# Static dielectric constant tensor:
#      x y z
#    x 1.868420 0.030530 0.006940 
#    y 0.030530 1.822410 0.005860 
#    z 0.006940 0.005860 1.844500 
# 
# From -- ./inp_files/66463.got.cif
#   From: 2010.05.17/outbox.cif.g08.bks.cpg/sg2_34_cif.got.tgz:66463.got - 2010.06.03 11:33:40.
