data_PCOD9020174
_publ_section_title
;
Structure prediction by ZEFSAII (Michael W. Deem and Ramdas Pophale) SiO2 
 PCOD9020174
Probable space group: P -1
;
_chemical_formula_sum "Si O2"
_cell_formula_units_Z 11
_cell_length_a 6.979078
_cell_length_b 5.045290
_cell_length_c 10.879862
_cell_angle_alpha 68.093883
_cell_angle_beta 82.082297
_cell_angle_gamma 78.869577
_cell_volume 347.839210
_symmetry_space_group_name_H-M "P -1"
_symmetry_group_IT_number 2
_symmetry_cell_setting 'triclinic'
loop_
_space_group_symop_operation_xyz
x,y,z
-x,-y,-z
loop_
_atom_site_type_symbol
_atom_site_label
_atom_site_fract_x
_atom_site_fract_y
_atom_site_fract_z
Si Si1 0.619640 0.976310 0.320019
Si Si2 0.273395 0.037185 0.932390
Si Si3 0.373863 0.594842 0.168802
Si Si4 0.000000 0.500000 0.000000
Si Si5 0.251141 0.817188 0.463921
Si Si6 0.994379 0.583730 0.693923
O O1 0.495849 0.279193 0.226275
O O2 0.690842 0.048603 0.433706
O O3 0.784703 0.910299 0.213212
O O4 0.457575 0.764217 0.383427
O O5 0.475898 0.175592 0.882355
O O6 0.140011 0.183600 0.027203
O O7 0.277127 0.691509 0.024514
O O8 0.188673 0.591294 0.273069
O O9 0.945327 0.444901 0.163472
O O10 0.147370 0.559282 0.571197
O O11 0.109949 0.080781 0.369732
#
# Coordination Sequence:
#
# PCOD9020174 Si02
#       6
#     2   2   2   1   2   2
#     4  10  21  46  78 103 143 192 237 299 356 436
#     4  11  26  44  73 109 144 190 242 302 357 428
#     4  10  24  43  73 108 142 184 242 297 363 420
#     4  12  28  46  70 106 148 184 248 296 358 418
#     4   9  21  44  76 104 148 185 239 293 361 436
#     4  10  23  45  69 105 148 188 231 303 352 430
#
# _framework density 31.623805000000001
#
# number of rings (size 3 to 8) (size 9 to 14) (size 15 to 20)
#    0.000    1.818    0.000    1.636   15.273    0.727 
#    0.000   16.364    0.000    0.000    0.000    0.000 
#    0.000    0.000    0.000    0.000    0.000    0.000 
#
# Total GULP energy -61493.349491 kJ/mol
# GULP energy per Si atom -5590.304499 kJ/mol
# Density = 3.155183 g / cm^3
# Si number density = 31.623805 Si / 1000 Ang^3
#
#
#
# Elastic Constant Matrix: (Units=GPa)
#
#
# Indices 1 2 3 4 5 6 
#
# 1 135.2625 20.9157 58.0894 9.5988 -48.2526 5.3227
# 2 20.9157 120.2257 48.7949 8.8345 -18.0689 2.0711
# 3 58.0894 48.7949 243.5624 -19.0501 -31.1894 -12.6886
# 4 9.5988 8.8345 -19.0501 70.6044 -12.2096 -22.4780
# 5 -48.2526 -18.0689 -31.1894 -12.2096 78.2626 -7.1216
# 6 5.3227 2.0711 -12.6886 -22.4780 -7.1216 54.3177
#
#
#
# Elastic Compliance Matrix: (Units=1/GPa)
#
#
# Indices 1 2 3 4 5 6 
#
# 1 0.010244 -0.000083 -0.001951 -0.001455 0.005167 -0.001381
# 2 -0.000083 0.009455 -0.002005 -0.002059 0.000869 -0.001559
# 3 -0.001951 -0.002005 0.005555 0.003224 0.001331 0.003074
# 4 -0.001455 -0.002059 0.003224 0.019123 0.003749 0.009379
# 5 0.005167 0.000869 0.001331 0.003749 0.017610 0.003632
# 6 -0.001381 -0.001559 0.003074 0.009379 0.003632 0.023681
#
#
# Mechanical properties :
#
#
# Convention : Reuss Voigt Hill
#
# Bulk Modulus (GPa) = 58.21953 83.85007 71.03480
# Shear Modulus (GPa) = 50.26554 65.38698 57.82626
#
# Velocity S-wave (km/s) = 3.99116 4.55208 4.28081
# Velocity P-wave (km/s) = 6.29993 7.36213 6.85164
#
# Compressibility (1/GPa) = 0.01717637
#
# Stress axis : x y z
#
# Youngs Moduli (GPa) = 97.61382 105.76650 180.00486
#
# Poissons Ratio (x) = 0.00881 0.35113
# Poissons Ratio (y) = 0.00813 0.36094
# Poissons Ratio (z) = 0.19041 0.21208
#
# Static dielectric constant tensor:
#      x y z
#    x 2.390420 -0.179430 0.154470 
#    y -0.179430 2.343380 0.001120 
#    z 0.154470 0.001120 2.452930 
# 
# From -- ./inp_files/372017.got.cif
#   From: 2010.05.17/outbox.cif.g08.bks.cpg/sg2_187_cif.got.tgz:372017.got - 2010.06.03 11:33:40.
