data_PCOD9020189
_publ_section_title
;
Structure prediction by ZEFSAII (Michael W. Deem and Ramdas Pophale) SiO2 
 PCOD9020189
Probable space group: P -1
;
_chemical_formula_sum "Si O2"
_cell_formula_units_Z 16
_cell_length_a 24.237170
_cell_length_b 11.593818
_cell_length_c 6.854227
_cell_angle_alpha 67.503276
_cell_angle_beta 125.536601
_cell_angle_gamma 149.304020
_cell_volume 767.605395
_symmetry_space_group_name_H-M "P -1"
_symmetry_group_IT_number 2
_symmetry_cell_setting 'triclinic'
loop_
_space_group_symop_operation_xyz
x,y,z
-x,-y,-z
loop_
_atom_site_type_symbol
_atom_site_label
_atom_site_fract_x
_atom_site_fract_y
_atom_site_fract_z
Si Si1 0.640273 0.474129 0.749240
Si Si2 0.443509 0.546907 0.810287
Si Si3 0.240252 0.593438 0.932070
Si Si4 0.593675 0.931004 0.171433
Si Si5 0.193931 0.858922 0.269340
Si Si6 0.084445 0.461743 0.043002
Si Si7 0.767880 0.847313 0.071902
Si Si8 0.041946 0.208728 0.442991
O O1 0.587431 0.470561 0.463059
O O2 0.522948 0.261333 0.791576
O O3 0.701250 0.439003 0.829334
O O4 0.744507 0.717666 0.925659
O O5 0.314133 0.340124 0.803801
O O6 0.500000 0.500000 0.000000
O O7 0.540110 0.795130 0.945972
O O8 0.145938 0.400036 0.694320
O O9 0.351992 0.847360 0.897174
O O10 0.161531 0.558007 0.941383
O O11 0.710350 0.031566 0.433678
O O12 0.152074 0.671359 0.182570
O O13 0.062743 0.720744 0.163812
O O14 0.264418 0.066784 0.135146
O O15 0.086042 0.332668 0.246066
O O16 0.911712 0.081727 0.291445
O O17 0.000000 0.000000 0.500000
#
# Coordination Sequence:
#
# PCOD9020189 Si02
#       8
#     2   2   2   2   2   2   2   2
#     4  11  25  45  65  99 137 174 224 277 327 396
#     4  11  25  42  68  99 128 181 227 270 327 393
#     4  12  26  42  70 102 133 177 225 268 341 407
#     4  11  25  43  68  96 136 179 218 279 329 391
#     4  10  21  47  66  95 142 169 222 281 330 386
#     4  10  25  42  68 101 133 177 218 276 335 396
#     4  10  23  42  68  96 131 175 218 277 334 386
#     4  11  23  44  68  96 137 172 212 279 336 395
#
# _framework density 20.844044
#
# number of rings (size 3 to 8) (size 9 to 14) (size 15 to 20)
#    0.000    1.250    2.500    1.875    5.250    6.500 
#    0.000    0.000    0.000    0.000    0.000    0.000 
#    0.000    0.000    0.000    0.000    0.000    0.000 
#
# Total GULP energy -89404.361213 kJ/mol
# GULP energy per Si atom -5587.772576 kJ/mol
# Density = 2.079660 g / cm^3
# Si number density = 20.844044 Si / 1000 Ang^3
#
#
#
# Elastic Constant Matrix: (Units=GPa)
#
#
# Indices 1 2 3 4 5 6 
#
# 1 46.4987 5.6434 2.4650 -3.3828 2.9606 -0.1233
# 2 5.6434 100.0453 16.5817 -0.0722 -4.9170 -19.0830
# 3 2.4650 16.5817 52.7685 -0.1701 9.4073 2.7230
# 4 -3.3828 -0.0722 -0.1701 34.0095 -3.8374 9.0106
# 5 2.9606 -4.9170 9.4073 -3.8374 27.7039 -4.6471
# 6 -0.1233 -19.0830 2.7230 9.0106 -4.6471 28.7382
#
#
#
# Elastic Compliance Matrix: (Units=1/GPa)
#
#
# Indices 1 2 3 4 5 6 
#
# 1 0.022079 -0.001873 0.000191 0.002514 -0.002813 -0.002411
# 2 -0.001873 0.013526 -0.005848 -0.002488 0.006137 0.011300
# 3 0.000191 -0.005848 0.022991 0.001116 -0.010059 -0.008037
# 4 0.002514 -0.002488 0.001116 0.032959 0.001490 -0.011840
# 5 -0.002813 0.006137 -0.010059 0.001490 0.043038 0.011509
# 6 -0.002411 0.011300 -0.008037 -0.011840 0.011509 0.048625
#
#
# Mechanical properties :
#
#
# Convention : Reuss Voigt Hill
#
# Bulk Modulus (GPa) = 22.96985 27.63252 25.30119
# Shear Modulus (GPa) = 23.49734 29.73183 26.61458
#
# Velocity S-wave (km/s) = 3.36116 3.78086 3.57717
# Velocity P-wave (km/s) = 5.10950 5.68731 5.40613
#
# Compressibility (1/GPa) = 0.04353533
#
# Stress axis : x y z
#
# Youngs Moduli (GPa) = 45.29222 73.93351 43.49526
#
# Poissons Ratio (x) = 0.13851 -0.00832
# Poissons Ratio (y) = 0.08485 0.25436
# Poissons Ratio (z) = -0.00866 0.43236
#
# Static dielectric constant tensor:
#      x y z
#    x 1.848160 0.089230 0.039220 
#    y 0.089230 1.839250 -0.017030 
#    z 0.039220 -0.017030 1.726790 
# 
# From -- ./inp_files/78770.got.cif
#   From: 2010.05.17/outbox.cif.g08.bks.cpg/sg2_40_cif.got.tgz:78770.got - 2010.06.03 11:33:40.
