data_PCOD9020574
_publ_section_title
;
Structure prediction by ZEFSAII (Michael W. Deem and Ramdas Pophale) SiO2 
 PCOD9020574
Probable space group: P -1
;
_chemical_formula_sum "Si O2"
_cell_formula_units_Z 14
_cell_length_a 22.001817
_cell_length_b 13.760369
_cell_length_c 4.872333
_cell_angle_alpha 91.709136
_cell_angle_beta 76.411402
_cell_angle_gamma 155.562666
_cell_volume 527.370927
_symmetry_space_group_name_H-M "P -1"
_symmetry_group_IT_number 2
_symmetry_cell_setting 'triclinic'
loop_
_space_group_symop_operation_xyz
x,y,z
-x,-y,-z
loop_
_atom_site_type_symbol
_atom_site_label
_atom_site_fract_x
_atom_site_fract_y
_atom_site_fract_z
Si Si1 0.695574 0.751052 0.387264
Si Si2 0.311723 0.715820 0.807756
Si Si3 0.733022 0.476811 0.631484
Si Si4 0.257282 0.314649 0.142699
Si Si5 0.128208 0.814098 0.477576
Si Si6 0.152563 0.642587 0.665228
Si Si7 0.573714 0.870707 0.920447
O O1 0.500000 0.500000 0.500000
O O2 0.791675 0.835567 0.041886
O O3 0.805596 0.000608 0.403368
O O4 0.696423 0.676718 0.631700
O O5 0.211323 0.495115 0.697504
O O6 0.207258 0.664960 0.880143
O O7 0.500000 0.000000 0.500000
O O8 0.304106 0.655962 0.106308
O O9 0.831691 0.711941 0.676112
O O10 0.549254 0.259754 0.740678
O O11 0.436314 0.615608 0.859705
O O12 0.097776 0.677077 0.700909
O O13 0.977369 0.605217 0.405415
O O14 0.285507 0.003094 0.137868
O O15 0.329681 0.908342 0.332875
#
# Coordination Sequence:
#
# PCOD9020574 Si02
#       7
#     2   2   2   2   2   2   2
#     4  12  20  36  63  87 117 157 197 244 289 348
#     4  12  20  36  63  87 117 157 197 244 289 348
#     4  10  22  36  61  91 116 147 201 250 291 334
#     4  10  22  36  61  91 116 147 201 250 291 334
#     4   9  19  37  58  88 127 158 191 238 300 364
#     4   9  19  37  58  88 127 158 191 238 300 364
#     4   8  17  36  60  87 122 157 185 247 306 334
#
# _framework density 26.546779999999998
#
# number of rings (size 3 to 8) (size 9 to 14) (size 15 to 20)
#    1.714    0.286    2.857    1.714    0.000    1.143 
#    0.000    2.857    0.000   10.286    0.000    0.000 
#    0.000    0.000    0.000    0.000    0.000    0.000 
#
# Total GULP energy -78183.902880 kJ/mol
# GULP energy per Si atom -5584.564491 kJ/mol
# Density = 2.648636 g / cm^3
# Si number density = 26.546780 Si / 1000 Ang^3
#
#
#
# Elastic Constant Matrix: (Units=GPa)
#
#
# Indices 1 2 3 4 5 6 
#
# 1 135.8628 34.5890 31.9515 16.2621 3.3836 -26.3073
# 2 34.5890 119.5367 12.1933 13.0594 9.7324 -28.2206
# 3 31.9515 12.1933 93.6944 29.3512 26.1472 -9.4893
# 4 16.2621 13.0594 29.3512 32.6137 -1.3642 -9.5508
# 5 3.3836 9.7324 26.1472 -1.3642 40.0184 4.3337
# 6 -26.3073 -28.2206 -9.4893 -9.5508 4.3337 35.9926
#
#
#
# Elastic Compliance Matrix: (Units=1/GPa)
#
#
# Indices 1 2 3 4 5 6 
#
# 1 0.009268 -0.001275 -0.002584 -0.000313 0.000670 0.004929
# 2 -0.001275 0.011267 0.002517 -0.003976 -0.005295 0.008148
# 3 -0.002584 0.002517 0.021917 -0.019332 -0.015656 0.002618
# 4 -0.000313 -0.003976 -0.019332 0.051431 0.015010 0.003397
# 5 0.000670 -0.005295 -0.015656 0.015010 0.037867 -0.008366
# 6 0.004929 0.008148 0.002618 0.003397 -0.008366 0.040374
#
#
# Mechanical properties :
#
#
# Convention : Reuss Voigt Hill
#
# Bulk Modulus (GPa) = 25.14589 56.28462 40.71526
# Shear Modulus (GPa) = 26.58665 39.74894 33.16779
#
# Velocity S-wave (km/s) = 3.16808 3.87372 3.53853
# Velocity P-wave (km/s) = 4.78280 6.42306 5.66263
#
# Compressibility (1/GPa) = 0.03976793
#
# Stress axis : x y z
#
# Youngs Moduli (GPa) = 107.89869 88.75527 45.62620
#
# Poissons Ratio (x) = 0.11314 0.11791
# Poissons Ratio (y) = 0.13755 -0.11484
# Poissons Ratio (z) = 0.27884 -0.22340
#
# Static dielectric constant tensor:
#      x y z
#    x 2.141780 -0.024260 -0.083650 
#    y -0.024260 2.140080 -0.053250 
#    z -0.083650 -0.053250 2.073780 
# 
# From -- ./inp_files/124200.got.cif
#   From: 2010.05.17/outbox.cif.g08.bks.cpg/sg2_63_cif.got.tgz:124200.got - 2010.06.03 11:33:40.
