data_PCOD9020002
_publ_section_title
;
Structure prediction by ZEFSAII (Michael W. Deem and Ramdas Pophale) SiO2 
 PCOD9020002
Probable space group: P -1
;
_chemical_formula_sum "Si O2"
_cell_formula_units_Z 12
_cell_length_a 11.282728
_cell_length_b 9.682921
_cell_length_c 10.056075
_cell_angle_alpha 41.036292
_cell_angle_beta 123.864989
_cell_angle_gamma 141.503727
_cell_volume 447.499164
_symmetry_space_group_name_H-M "P -1"
_symmetry_group_IT_number 2
_symmetry_cell_setting 'triclinic'
loop_
_space_group_symop_operation_xyz
x,y,z
-x,-y,-z
loop_
_atom_site_type_symbol
_atom_site_label
_atom_site_fract_x
_atom_site_fract_y
_atom_site_fract_z
Si Si1 0.716517 0.140603 0.724628
Si Si2 0.349445 0.962208 0.765803
Si Si3 0.024404 0.246359 0.463326
Si Si4 0.528254 0.663324 0.764627
Si Si5 0.345886 0.534125 0.235442
Si Si6 0.860750 0.868372 0.135342
O O1 0.518995 0.057962 0.703005
O O2 0.893867 0.467210 0.617956
O O3 0.667925 0.984991 0.666308
O O4 0.758667 0.993868 0.964005
O O5 0.167580 0.872434 0.642870
O O6 0.179782 0.340869 0.379119
O O7 0.299428 0.705455 0.005011
O O8 0.456158 0.231399 0.732409
O O9 0.028388 0.066257 0.706926
O O10 0.615901 0.609769 0.742041
O O11 0.500000 0.500000 0.000000
O O12 0.305233 0.472429 0.728325
O O13 0.000000 0.000000 0.000000
#
# Coordination Sequence:
#
# PCOD9020002 Si02
#       6
#     2   2   2   2   2   2
#     4  10  24  49  79 109 154 206 251 318 393 453
#     4  10  21  46  76 115 156 202 253 322 381 466
#     4  11  26  47  79 120 149 200 267 315 386 464
#     4  10  21  47  74 107 151 207 251 312 384 458
#     4  10  21  45  79 109 158 203 255 312 392 457
#     4  11  26  49  74 114 159 203 257 323 387 458
#
# _framework density 26.815691999999999
#
# number of rings (size 3 to 8) (size 9 to 14) (size 15 to 20)
#    0.000    1.667    3.333    0.500    2.333    2.000 
#   24.000    0.833    0.000    0.000    0.000    0.000 
#    0.000    0.000    0.000    0.000    0.000    0.000 
#
# Total GULP energy -67364.808586 kJ/mol
# GULP energy per Si atom -5613.734049 kJ/mol
# Density = 2.675466 g / cm^3
# Si number density = 26.815692 Si / 1000 Ang^3
#
#
#
# Elastic Constant Matrix: (Units=GPa)
#
#
# Indices 1 2 3 4 5 6 
#
# 1 185.9648 114.8405 58.4866 4.6806 -11.5331 -11.5906
# 2 114.8405 252.5805 94.6026 31.0176 21.8138 6.4553
# 3 58.4866 94.6026 142.9260 18.4243 -5.1120 7.2568
# 4 4.6806 31.0176 18.4243 56.2092 -4.6488 13.2787
# 5 -11.5331 21.8138 -5.1120 -4.6488 48.5722 -1.7947
# 6 -11.5906 6.4553 7.2568 13.2787 -1.7947 63.3414
#
#
#
# Elastic Compliance Matrix: (Units=1/GPa)
#
#
# Indices 1 2 3 4 5 6 
#
# 1 0.008557 -0.004158 -0.000928 0.001787 0.004041 0.001836
# 2 -0.004158 0.007952 -0.003298 -0.003238 -0.005240 -0.000663
# 3 -0.000928 -0.003298 0.009798 -0.000971 0.002174 -0.000691
# 4 0.001787 -0.003238 -0.000971 0.020876 0.003645 -0.003505
# 5 0.004041 -0.005240 0.002174 0.003645 0.024514 0.000955
# 6 0.001836 -0.000663 -0.000691 -0.003505 0.000955 0.017032
#
#
# Mechanical properties :
#
#
# Convention : Reuss Voigt Hill
#
# Bulk Modulus (GPa) = 104.85320 124.14785 114.50052
# Shear Modulus (GPa) = 46.00732 54.52733 50.26733
#
# Velocity S-wave (km/s) = 4.14658 4.51423 4.33430
# Velocity P-wave (km/s) = 7.88110 8.57719 8.23650
#
# Compressibility (1/GPa) = 0.00953714
#
# Stress axis : x y z
#
# Youngs Moduli (GPa) = 116.85917 125.74982 102.06447
#
# Poissons Ratio (x) = 0.52291 0.09475
# Poissons Ratio (y) = 0.48594 0.33665
# Poissons Ratio (z) = 0.10849 0.41477
#
# Static dielectric constant tensor:
#      x y z
#    x 2.068520 0.003330 0.019730 
#    y 0.003330 2.148890 -0.025490 
#    z 0.019730 -0.025490 2.165670 
# 
# From -- ./inp_files/517514.got.cif
#   From: 2010.05.17/outbox.cif.g08.bks.cpg/sg2_259_cif.got.tgz:517514.got - 2010.06.03 11:33:40.
