data_PCOD9020722
_publ_section_title
;
Structure prediction by ZEFSAII (Michael W. Deem and Ramdas Pophale) SiO2 
 PCOD9020722
Probable space group: P -1
;
_chemical_formula_sum "Si O2"
_cell_formula_units_Z 14
_cell_length_a 8.497327
_cell_length_b 15.418167
_cell_length_c 12.198288
_cell_angle_alpha 35.521838
_cell_angle_beta 50.982559
_cell_angle_gamma 62.145213
_cell_volume 717.812949
_symmetry_space_group_name_H-M "P -1"
_symmetry_group_IT_number 2
_symmetry_cell_setting 'triclinic'
loop_
_space_group_symop_operation_xyz
x,y,z
-x,-y,-z
loop_
_atom_site_type_symbol
_atom_site_label
_atom_site_fract_x
_atom_site_fract_y
_atom_site_fract_z
Si Si1 0.441698 0.894809 0.802273
Si Si2 0.541327 0.579439 0.016486
Si Si3 0.009377 0.266993 0.354190
Si Si4 0.831419 0.122018 0.369588
Si Si5 0.608331 0.326604 0.387680
Si Si6 0.613119 0.966837 0.097114
Si Si7 0.959046 0.998880 0.229008
O O1 0.658893 0.981567 0.585249
O O2 0.427539 0.905543 0.928463
O O3 0.257551 0.983326 0.748608
O O4 0.430207 0.728953 0.929448
O O5 0.495781 0.465161 0.255327
O O6 0.500000 0.500000 0.000000
O O7 0.782354 0.633624 0.860419
O O8 0.959613 0.147300 0.399471
O O9 0.812235 0.359670 0.337932
O O10 0.024126 0.166611 0.558692
O O11 0.695487 0.261066 0.303017
O O12 0.966020 0.111935 0.213879
O O13 0.479927 0.189019 0.646147
O O14 0.500000 0.000000 0.000000
O O15 0.850516 0.963675 0.971705
#
# Coordination Sequence:
#
# PCOD9020722 Si02
#       7
#     2   2   2   2   2   2   2
#     4  11  24  39  64  98 129 163 211 271 315 374
#     4  12  25  41  64  97 134 168 206 261 326 382
#     4  10  22  36  69  95 124 160 221 267 311 365
#     4   9  20  38  66  99 115 162 220 269 310 358
#     4   9  22  42  62  94 126 166 211 260 314 381
#     4  11  23  42  68  93 127 165 221 264 315 372
#     4  12  20  37  66 101 122 161 212 271 320 361
#
# _framework density 19.503686999999999
#
# number of rings (size 3 to 8) (size 9 to 14) (size 15 to 20)
#    0.857    0.571    2.857    2.571    6.000    0.000 
#    0.000    1.429    3.143    0.000    0.000    0.000 
#    0.000    0.000    0.000    0.000    0.000    0.000 
#
# Total GULP energy -78047.501353 kJ/mol
# GULP energy per Si atom -5574.821525 kJ/mol
# Density = 1.945930 g / cm^3
# Si number density = 19.503687 Si / 1000 Ang^3
#
#
#
# Elastic Constant Matrix: (Units=GPa)
#
#
# Indices 1 2 3 4 5 6 
#
# 1 112.6640 26.7201 31.6405 -7.7743 6.1033 3.5899
# 2 26.7201 73.9047 23.5817 5.3677 -2.2440 9.5002
# 3 31.6405 23.5817 80.2485 3.5069 -0.5941 -0.4891
# 4 -7.7743 5.3677 3.5069 31.6830 -6.6859 -0.9785
# 5 6.1033 -2.2440 -0.5941 -6.6859 31.2685 2.8107
# 6 3.5899 9.5002 -0.4891 -0.9785 2.8107 28.5597
#
#
#
# Elastic Compliance Matrix: (Units=1/GPa)
#
#
# Indices 1 2 3 4 5 6 
#
# 1 0.010927 -0.003086 -0.003556 0.003231 -0.001720 -0.000128
# 2 -0.003086 0.016773 -0.003601 -0.003036 0.001584 -0.005513
# 3 -0.003556 -0.003601 0.015014 -0.001833 0.000165 0.001823
# 4 0.003231 -0.003036 -0.001833 0.034454 0.006383 0.001125
# 5 -0.001720 0.001584 0.000165 0.006383 0.034108 -0.003446
# 6 -0.000128 -0.005513 0.001823 0.001125 -0.003446 0.037273
#
#
# Mechanical properties :
#
#
# Convention : Reuss Voigt Hill
#
# Bulk Modulus (GPa) = 44.99051 47.85576 46.42314
# Shear Modulus (GPa) = 28.33731 30.62723 29.48227
#
# Velocity S-wave (km/s) = 3.81585 3.96704 3.89218
# Velocity P-wave (km/s) = 6.52166 6.75079 6.63722
#
# Compressibility (1/GPa) = 0.02222691
#
# Stress axis : x y z
#
# Youngs Moduli (GPa) = 91.51856 59.61881 66.60435
#
# Poissons Ratio (x) = 0.18400 0.23684
# Poissons Ratio (y) = 0.28246 0.23986
# Poissons Ratio (z) = 0.32544 0.21470
#
# Static dielectric constant tensor:
#      x y z
#    x 1.750230 -0.019390 0.025860 
#    y -0.019390 1.716660 -0.020200 
#    z 0.025860 -0.020200 1.682120 
# 
# From -- ./inp_files/398357.got.cif
#   From: 2010.05.17/outbox.cif.g08.bks.cpg/sg2_200_cif.got.tgz:398357.got - 2010.06.03 11:33:40.
