data_PCOD9020737
_publ_section_title
;
Structure prediction by ZEFSAII (Michael W. Deem and Ramdas Pophale) SiO2 
 PCOD9020737
Probable space group: P -1
;
_chemical_formula_sum "Si O2"
_cell_formula_units_Z 16
_cell_length_a 7.853418
_cell_length_b 13.446112
_cell_length_c 15.713532
_cell_angle_alpha 144.812727
_cell_angle_beta 70.358423
_cell_angle_gamma 86.002774
_cell_volume 695.962764
_symmetry_space_group_name_H-M "P -1"
_symmetry_group_IT_number 2
_symmetry_cell_setting 'triclinic'
loop_
_space_group_symop_operation_xyz
x,y,z
-x,-y,-z
loop_
_atom_site_type_symbol
_atom_site_label
_atom_site_fract_x
_atom_site_fract_y
_atom_site_fract_z
Si Si1 0.550721 0.198661 0.124033
Si Si2 0.756042 0.207175 0.723733
Si Si3 0.594217 0.123433 0.532027
Si Si4 0.082659 0.486915 0.294167
Si Si5 0.264720 0.539579 0.767941
Si Si6 0.952167 0.702555 0.094482
Si Si7 0.646261 0.639582 0.007768
Si Si8 0.795038 0.751722 0.676131
O O1 0.313393 0.306884 0.185414
O O2 0.623165 0.353193 0.211567
O O3 0.453181 0.198479 0.233148
O O4 0.749021 0.955956 0.879121
O O5 0.592858 0.255035 0.702987
O O6 0.736697 0.420905 0.893017
O O7 0.631792 0.194519 0.816797
O O8 0.000000 0.000000 0.500000
O O9 0.453398 0.282368 0.586447
O O10 0.500000 0.000000 0.500000
O O11 0.854702 0.919719 0.316064
O O12 0.215716 0.482567 0.187418
O O13 0.923757 0.426670 0.242382
O O14 0.898835 0.713287 0.537114
O O15 0.141513 0.644045 0.953054
O O16 0.738108 0.763465 0.114286
O O17 0.000000 0.500000 0.000000
O O18 0.000000 0.500000 0.500000
#
# Coordination Sequence:
#
# PCOD9020737 Si02
#       8
#     2   2   2   2   2   2   2   2
#     4  10  22  45  69  97 133 164 213 263 326 403
#     4  11  23  36  58  84 116 171 216 268 317 363
#     4  12  23  40  60  84 126 174 219 264 312 369
#     4  10  23  40  66  95 132 169 211 267 326 384
#     4  11  25  40  63  98 129 173 220 266 319 382
#     4  11  21  38  59  80 124 171 211 265 314 361
#     4  10  22  37  53  86 122 155 216 260 306 373
#     4   9  21  45  73  97 131 169 200 269 336 389
#
# _framework density 22.989736000000001
#
# number of rings (size 3 to 8) (size 9 to 14) (size 15 to 20)
#    0.000    1.500    2.500    1.500    1.750    9.500 
#    0.000    5.625    0.000    0.000    0.000    0.000 
#    0.000    0.000    0.000    0.000    0.000    0.000 
#
# Total GULP energy -89123.169898 kJ/mol
# GULP energy per Si atom -5570.198119 kJ/mol
# Density = 2.293741 g / cm^3
# Si number density = 22.989736 Si / 1000 Ang^3
#
#
#
# Elastic Constant Matrix: (Units=GPa)
#
#
# Indices 1 2 3 4 5 6 
#
# 1 85.2832 15.7553 26.6971 7.6857 -3.4642 9.5799
# 2 15.7553 51.0848 28.2145 -13.8726 -14.2023 27.9746
# 3 26.6971 28.2145 180.3875 -29.4147 -16.3997 12.5987
# 4 7.6857 -13.8726 -29.4147 48.9292 9.2065 -4.5070
# 5 -3.4642 -14.2023 -16.3997 9.2065 33.4156 -4.8220
# 6 9.5799 27.9746 12.5987 -4.5070 -4.8220 29.7393
#
#
#
# Elastic Compliance Matrix: (Units=1/GPa)
#
#
# Indices 1 2 3 4 5 6 
#
# 1 0.013590 -0.004157 -0.002101 -0.004572 -0.000173 -0.000298
# 2 -0.004157 0.050410 -0.002006 0.007632 0.011824 -0.042156
# 3 -0.002101 -0.002006 0.006859 0.003671 0.001347 0.000433
# 4 -0.004572 0.007632 0.003671 0.025751 -0.003080 -0.003859
# 5 -0.000173 0.011824 0.001347 -0.003080 0.035528 -0.006343
# 6 -0.000298 -0.042156 0.000433 -0.003859 -0.006343 0.071580
#
#
# Mechanical properties :
#
#
# Convention : Reuss Voigt Hill
#
# Bulk Modulus (GPa) = 18.40572 50.89881 34.65226
# Shear Modulus (GPa) = 20.97699 38.82271 29.89985
#
# Velocity S-wave (km/s) = 3.02396 4.11383 3.61026
# Velocity P-wave (km/s) = 4.49620 6.68975 5.69950
#
# Compressibility (1/GPa) = 0.05433092
#
# Stress axis : x y z
#
# Youngs Moduli (GPa) = 73.58414 19.83730 145.78825
#
# Poissons Ratio (x) = 0.08246 0.30636
# Poissons Ratio (y) = 0.30589 0.29241
# Poissons Ratio (z) = 0.15463 0.03979
#
# Static dielectric constant tensor:
#      x y z
#    x 1.926370 -0.066450 -0.045090 
#    y -0.066450 2.096650 -0.056190 
#    z -0.045090 -0.056190 1.908860 
# 
# From -- ./inp_files/561414.got.cif
#   From: 2010.05.17/outbox.cif.g08.bks.cpg/sg2_281_cif.got.tgz:561414.got - 2010.06.03 11:33:40.
