data_PCOD9020822
_publ_section_title
;
Structure prediction by ZEFSAII (Michael W. Deem and Ramdas Pophale) SiO2 
 PCOD9020822
Probable space group: P -1
;
_chemical_formula_sum "Si O2"
_cell_formula_units_Z 14
_cell_length_a 14.190292
_cell_length_b 8.003925
_cell_length_c 9.737795
_cell_angle_alpha 91.210095
_cell_angle_beta 137.040451
_cell_angle_gamma 60.503724
_cell_volume 538.163583
_symmetry_space_group_name_H-M "P -1"
_symmetry_group_IT_number 2
_symmetry_cell_setting 'triclinic'
loop_
_space_group_symop_operation_xyz
x,y,z
-x,-y,-z
loop_
_atom_site_type_symbol
_atom_site_label
_atom_site_fract_x
_atom_site_fract_y
_atom_site_fract_z
Si Si1 0.226070 0.901570 0.645792
Si Si2 0.080991 0.619727 0.812816
Si Si3 0.041299 0.782852 0.259207
Si Si4 0.764066 0.709521 0.612601
Si Si5 0.685150 0.244452 0.948772
Si Si6 0.352497 0.501237 0.413566
Si Si7 0.543073 0.864765 0.900148
O O1 0.118104 0.837898 0.460943
O O2 0.278081 0.812350 0.853484
O O3 0.428078 0.786188 0.791165
O O4 0.075199 0.182038 0.463765
O O5 0.219264 0.661476 0.995878
O O6 0.937904 0.697122 0.790325
O O7 0.234963 0.358787 0.907738
O O8 0.120210 0.530062 0.355917
O O9 0.149216 0.754382 0.237013
O O10 0.813695 0.992592 0.009150
O O11 0.691900 0.657602 0.664405
O O12 0.577493 0.940382 0.343396
O O13 0.466084 0.398844 0.679538
O O14 0.500000 0.500000 0.500000
O O15 0.500000 0.000000 0.000000
#
# Coordination Sequence:
#
# PCOD9020822 Si02
#       7
#     2   2   2   2   2   2   2
#     4  10  22  37  59  91 122 160 194 236 284 357
#     4  10  22  38  55  87 126 156 190 236 295 355
#     4   9  21  38  62  86 120 149 198 242 287 351
#     4   9  23  37  57  85 122 148 195 245 290 344
#     4  11  22  38  65  85 119 162 198 236 292 347
#     4  10  23  41  63  88 113 152 204 251 291 343
#     4  11  23  32  54  85 126 162 191 228 294 352
#
# _framework density 26.014396999999999
#
# number of rings (size 3 to 8) (size 9 to 14) (size 15 to 20)
#    0.857    1.143    0.000    3.429    8.000    2.857 
#    0.000    0.714    0.000   12.000    0.000    0.000 
#    0.000    0.000    0.000    0.000    0.000    0.000 
#
# Total GULP energy -78105.696735 kJ/mol
# GULP energy per Si atom -5578.978338 kJ/mol
# Density = 2.595519 g / cm^3
# Si number density = 26.014397 Si / 1000 Ang^3
#
#
#
# Elastic Constant Matrix: (Units=GPa)
#
#
# Indices 1 2 3 4 5 6 
#
# 1 130.0259 2.4978 19.8508 -8.8493 16.1142 26.6075
# 2 2.4978 50.0693 25.7412 -10.6198 5.5748 -0.3677
# 3 19.8508 25.7412 100.3812 -8.4957 25.0286 -7.3764
# 4 -8.8493 -10.6198 -8.4957 35.2384 -2.8620 11.6105
# 5 16.1142 5.5748 25.0286 -2.8620 34.9946 -3.7094
# 6 26.6075 -0.3677 -7.3764 11.6105 -3.7094 40.7961
#
#
#
# Elastic Compliance Matrix: (Units=1/GPa)
#
#
# Indices 1 2 3 4 5 6 
#
# 1 0.010768 0.001964 -0.001702 0.005584 -0.004585 -0.009319
# 2 0.001964 0.024810 -0.006380 0.007895 -0.000122 -0.004469
# 3 -0.001702 -0.006380 0.014106 -0.000604 -0.008015 0.003046
# 4 0.005584 0.007895 -0.000604 0.036556 -0.001918 -0.014258
# 5 -0.004585 -0.000122 -0.008015 -0.001918 0.036859 0.005438
# 6 -0.009319 -0.004469 0.003046 -0.014258 0.005438 0.035653
#
#
# Mechanical properties :
#
#
# Convention : Reuss Voigt Hill
#
# Bulk Modulus (GPa) = 26.70414 41.85065 34.27739
# Shear Modulus (GPa) = 27.25234 37.69827 32.47531
#
# Velocity S-wave (km/s) = 3.24016 3.81088 3.53705
# Velocity P-wave (km/s) = 4.92804 5.95702 5.46679
#
# Compressibility (1/GPa) = 0.03744738
#
# Stress axis : x y z
#
# Youngs Moduli (GPa) = 92.86604 40.30670 70.89195
#
# Poissons Ratio (x) = -0.07918 0.12067
# Poissons Ratio (y) = -0.18242 0.45233
# Poissons Ratio (z) = 0.15807 0.25718
#
# Static dielectric constant tensor:
#      x y z
#    x 2.280110 -0.186200 -0.273700 
#    y -0.186200 2.473160 0.290140 
#    z -0.273700 0.290140 2.274280 
# 
# From -- ./inp_files/447202.got.cif
#   From: 2010.05.17/outbox.cif.g08.bks.cpg/sg2_224_cif.got.tgz:447202.got - 2010.06.03 11:33:40.
