data_PCOD9020797
_publ_section_title
;
Structure prediction by ZEFSAII (Michael W. Deem and Ramdas Pophale) SiO2 
 PCOD9020797
Probable space group: P -1
;
_chemical_formula_sum "Si O2"
_cell_formula_units_Z 12
_cell_length_a 18.849243
_cell_length_b 12.933846
_cell_length_c 13.977310
_cell_angle_alpha 28.801668
_cell_angle_beta 160.695717
_cell_angle_gamma 151.994503
_cell_volume 508.222219
_symmetry_space_group_name_H-M "P -1"
_symmetry_group_IT_number 2
_symmetry_cell_setting 'triclinic'
loop_
_space_group_symop_operation_xyz
x,y,z
-x,-y,-z
loop_
_atom_site_type_symbol
_atom_site_label
_atom_site_fract_x
_atom_site_fract_y
_atom_site_fract_z
Si Si1 0.480262 0.094923 0.179352
Si Si2 0.452376 0.234481 0.232757
Si Si3 0.036570 0.739046 0.404224
Si Si4 0.819440 0.283721 0.176626
Si Si5 0.787956 0.407065 0.688183
Si Si6 0.330493 0.205191 0.692480
O O1 0.295895 0.847918 0.170443
O O2 0.411597 0.173882 0.927964
O O3 0.501026 0.269290 0.152736
O O4 0.731957 0.081677 0.492062
O O5 0.615070 0.394771 0.389317
O O6 0.500000 0.000000 0.500000
O O7 0.189019 0.198950 0.944298
O O8 0.080578 0.702125 0.601201
O O9 0.000000 0.500000 0.500000
O O10 0.965293 0.494371 0.126604
O O11 0.556569 0.266363 0.864585
O O12 0.830911 0.046407 0.341435
O O13 0.767769 0.591055 0.590154
#
# Coordination Sequence:
#
# PCOD9020797 Si02
#       6
#     2   2   2   2   2   2
#     4  10  23  39  62  93 122 161 209 253 306 370
#     4  10  22  37  58  91 126 157 201 256 306 361
#     4  11  22  40  66  91 123 166 206 252 313 372
#     4  10  22  39  61  88 120 159 203 255 306 362
#     4  11  22  37  61  89 119 161 205 252 305 361
#     4  10  22  42  60  85 125 161 203 253 306 367
#
# _framework density 23.611719000000001
#
# number of rings (size 3 to 8) (size 9 to 14) (size 15 to 20)
#    0.000    1.667    0.000    4.500    0.000    8.000 
#    0.000    9.167    0.000    0.000    0.000    0.000 
#    0.000    0.000    0.000    0.000    0.000    0.000 
#
# Total GULP energy -67180.322321 kJ/mol
# GULP energy per Si atom -5598.360193 kJ/mol
# Density = 2.355798 g / cm^3
# Si number density = 23.611719 Si / 1000 Ang^3
#
#
#
# Elastic Constant Matrix: (Units=GPa)
#
#
# Indices 1 2 3 4 5 6 
#
# 1 97.1801 49.0367 27.6503 2.1590 19.1779 -7.6279
# 2 49.0367 99.4576 9.4609 7.9543 22.9121 12.2764
# 3 27.6503 9.4609 76.9306 5.4312 20.4185 11.9947
# 4 2.1590 7.9543 5.4312 30.9256 -0.4889 10.1515
# 5 19.1779 22.9121 20.4185 -0.4889 35.7349 8.5138
# 6 -7.6279 12.2764 11.9947 10.1515 8.5138 61.8073
#
#
#
# Elastic Compliance Matrix: (Units=1/GPa)
#
#
# Indices 1 2 3 4 5 6 
#
# 1 0.016461 -0.007759 -0.005182 0.000136 -0.002049 0.004838
# 2 -0.007759 0.015885 0.003505 -0.003204 -0.007290 -0.003262
# 3 -0.005182 0.003505 0.017417 -0.002730 -0.008725 -0.003066
# 4 0.000136 -0.003204 -0.002730 0.035478 0.005307 -0.005375
# 5 -0.002049 -0.007290 -0.008725 0.005307 0.039636 -0.003443
# 6 0.004838 -0.003262 -0.003066 -0.005375 -0.003443 0.019376
#
#
# Mechanical properties :
#
#
# Convention : Reuss Voigt Hill
#
# Bulk Modulus (GPa) = 32.37286 49.54043 40.95664
# Shear Modulus (GPa) = 28.83135 38.18826 33.50981
#
# Velocity S-wave (km/s) = 3.49816 4.02598 3.77132
# Velocity P-wave (km/s) = 5.48237 6.52980 6.02887
#
# Compressibility (1/GPa) = 0.03089008
#
# Stress axis : x y z
#
# Youngs Moduli (GPa) = 60.74986 62.95240 57.41616
#
# Poissons Ratio (x) = 0.48845 0.29755
# Poissons Ratio (y) = 0.47136 -0.20124
# Poissons Ratio (z) = 0.31482 -0.22065
#
# Static dielectric constant tensor:
#      x y z
#    x 1.933980 0.039640 -0.043800 
#    y 0.039640 1.938790 -0.036450 
#    z -0.043800 -0.036450 1.939450 
# 
# From -- ./inp_files/398060.got.cif
#   From: 2010.05.17/outbox.cif.g08.bks.cpg/sg2_200_cif.got.tgz:398060.got - 2010.06.03 11:33:40.
