data_PCOD9020505
_publ_section_title
;
Structure prediction by ZEFSAII (Michael W. Deem and Ramdas Pophale) SiO2 
 PCOD9020505
Probable space group: P -1
;
_chemical_formula_sum "Si O2"
_cell_formula_units_Z 16
_cell_length_a 16.419359
_cell_length_b 9.098819
_cell_length_c 12.542904
_cell_angle_alpha 36.681200
_cell_angle_beta 100.595415
_cell_angle_gamma 76.309646
_cell_volume 832.168892
_symmetry_space_group_name_H-M "P -1"
_symmetry_group_IT_number 2
_symmetry_cell_setting 'triclinic'
loop_
_space_group_symop_operation_xyz
x,y,z
-x,-y,-z
loop_
_atom_site_type_symbol
_atom_site_label
_atom_site_fract_x
_atom_site_fract_y
_atom_site_fract_z
Si Si1 0.477856 0.900698 0.944589
Si Si2 0.126705 0.833955 0.130873
Si Si3 0.241237 0.491780 0.561460
Si Si4 0.722417 0.823771 0.585526
Si Si5 0.125690 0.194110 0.729684
Si Si6 0.720086 0.413697 0.241828
Si Si7 0.520844 0.617643 0.829015
Si Si8 0.247275 0.557422 0.992636
O O1 0.591074 0.725771 0.012887
O O2 0.467744 0.624755 0.113811
O O3 0.500000 0.000000 0.000000
O O4 0.361637 0.231915 0.687978
O O5 0.165853 0.786557 0.289478
O O6 0.202310 0.474171 0.304730
O O7 0.140622 0.044044 0.936926
O O8 0.000000 0.000000 0.000000
O O9 0.194169 0.308616 0.665886
O O10 0.249186 0.577401 0.634662
O O11 0.733821 0.093630 0.417066
O O12 0.592621 0.018347 0.427293
O O13 0.755394 0.676784 0.797766
O O14 0.000000 0.500000 0.500000
O O15 0.166084 0.913046 0.818519
O O16 0.777468 0.429216 0.145848
O O17 0.500000 0.500000 0.000000
O O18 0.631428 0.557208 0.897141
#
# Coordination Sequence:
#
# PCOD9020505 Si02
#       8
#     2   2   2   2   2   2   2   2
#     4   9  18  33  57  87 119 156 188 225 291 351
#     4  11  23  39  64  85 110 154 201 248 291 340
#     4  11  21  40  62  86 122 154 195 242 290 346
#     4  10  22  36  58  87 119 147 199 242 290 346
#     4  11  23  39  64  86 111 151 204 249 289 343
#     4  10  22  38  60  88 124 161 182 236 299 352
#     4  11  17  32  58  85 113 157 188 241 290 340
#     4  11  21  36  59  87 118 150 199 239 292 348
#
# _framework density 19.226866999999999
#
# number of rings (size 3 to 8) (size 9 to 14) (size 15 to 20)
#    0.000    1.500    5.000    1.875    0.000    1.000 
#    0.000    1.250    0.000    6.000    0.000    0.000 
#    0.000    0.000    0.000    0.000    0.000    0.000 
#
# Total GULP energy -89210.113135 kJ/mol
# GULP energy per Si atom -5575.632071 kJ/mol
# Density = 1.918311 g / cm^3
# Si number density = 19.226867 Si / 1000 Ang^3
#
#
#
# Elastic Constant Matrix: (Units=GPa)
#
#
# Indices 1 2 3 4 5 6 
#
# 1 26.1651 11.7496 24.2052 7.2821 4.0578 -8.2739
# 2 11.7496 92.8741 50.4051 17.2456 3.6444 -10.9843
# 3 24.2052 50.4051 117.0855 9.4904 14.9643 -13.2100
# 4 7.2821 17.2456 9.4904 36.2897 -8.2330 -2.7719
# 5 4.0578 3.6444 14.9643 -8.2330 34.4611 3.1290
# 6 -8.2739 -10.9843 -13.2100 -2.7719 3.1290 23.0464
#
#
#
# Elastic Compliance Matrix: (Units=1/GPa)
#
#
# Indices 1 2 3 4 5 6 
#
# 1 0.053786 0.001639 -0.008532 -0.009668 -0.006466 0.014915
# 2 0.001639 0.015389 -0.005891 -0.006041 -0.001066 0.003965
# 3 -0.008532 -0.005891 0.013708 0.000097 -0.004539 0.002614
# 4 -0.009668 -0.006041 0.000097 0.034402 0.010277 -0.003552
# 5 -0.006466 -0.001066 -0.004539 0.010277 0.035132 -0.008965
# 6 0.014915 0.003965 0.002614 -0.003552 -0.008965 0.052924
#
#
# Mechanical properties :
#
#
# Convention : Reuss Voigt Hill
#
# Bulk Modulus (GPa) = 17.44722 45.42717 31.43720
# Shear Modulus (GPa) = 19.99891 28.74375 24.37133
#
# Velocity S-wave (km/s) = 3.22864 3.87069 3.56415
# Velocity P-wave (km/s) = 4.79509 6.60716 5.77267
#
# Compressibility (1/GPa) = 0.05731571
#
# Stress axis : x y z
#
# Youngs Moduli (GPa) = 18.59224 64.97973 72.95101
#
# Poissons Ratio (x) = -0.10650 0.62242
# Poissons Ratio (y) = -0.03047 0.42974
# Poissons Ratio (z) = 0.15863 0.38278
#
# Static dielectric constant tensor:
#      x y z
#    x 1.671910 -0.008410 -0.002420 
#    y -0.008410 1.725880 -0.012790 
#    z -0.002420 -0.012790 1.746690 
# 
# From -- ./inp_files/273342.got.cif
#   From: 2010.05.17/outbox.cif.g08.bks.cpg/sg2_137_cif.got.tgz:273342.got - 2010.06.03 11:33:40.
