data_PCOD9020849
_publ_section_title
;
Structure prediction by ZEFSAII (Michael W. Deem and Ramdas Pophale) SiO2 
 PCOD9020849
Probable space group: P -1
;
_chemical_formula_sum "Si O2"
_cell_formula_units_Z 14
_cell_length_a 21.823053
_cell_length_b 19.409392
_cell_length_c 7.656880
_cell_angle_alpha 38.687527
_cell_angle_beta 37.799592
_cell_angle_gamma 18.147657
_cell_volume 611.584904
_symmetry_space_group_name_H-M "P -1"
_symmetry_group_IT_number 2
_symmetry_cell_setting 'triclinic'
loop_
_space_group_symop_operation_xyz
x,y,z
-x,-y,-z
loop_
_atom_site_type_symbol
_atom_site_label
_atom_site_fract_x
_atom_site_fract_y
_atom_site_fract_z
Si Si1 0.015042 0.541682 0.667440
Si Si2 0.956175 0.251469 0.707369
Si Si3 0.558264 0.923687 0.220854
Si Si4 0.170894 0.885974 0.214880
Si Si5 0.714541 0.446652 0.535236
Si Si6 0.499641 0.731479 0.786063
Si Si7 0.763224 0.612614 0.883238
O O1 0.937794 0.730776 0.550372
O O2 0.203175 0.317834 0.801954
O O3 0.107464 0.493641 0.369608
O O4 0.872027 0.579071 0.857948
O O5 0.910170 0.263900 0.586179
O O6 0.724759 0.490304 0.828833
O O7 0.065591 0.053882 0.962644
O O8 0.465145 0.894800 0.543067
O O9 0.455533 0.119799 0.173028
O O10 0.500000 0.000000 0.000000
O O11 0.301937 0.658872 0.294495
O O12 0.322465 0.829085 0.073078
O O13 0.000000 0.000000 0.500000
O O14 0.533147 0.661441 0.646090
O O15 0.743123 0.507964 0.198535
#
# Coordination Sequence:
#
# PCOD9020849 Si02
#       7
#     2   2   2   2   2   2   2
#     4  10  22  37  60  90 125 158 196 255 304 357
#     4   9  21  41  60  85 118 155 203 251 295 365
#     4  11  20  39  62  91 119 162 202 242 303 367
#     4  12  23  39  64  87 117 159 201 252 310 352
#     4  10  22  41  59  87 121 159 206 246 298 365
#     4   9  22  40  61  85 121 154 202 249 293 361
#     4  11  21  38  59  89 126 156 199 252 306 356
#
# _framework density 22.891342000000002
#
# number of rings (size 3 to 8) (size 9 to 14) (size 15 to 20)
#    0.857    0.857    1.429    3.000    0.000    5.143 
#    0.000    0.000    0.000    0.000    0.000    0.000 
#    0.000    0.000    0.000    0.000    0.000    0.000 
#
# Total GULP energy -78241.123798 kJ/mol
# GULP energy per Si atom -5588.651700 kJ/mol
# Density = 2.283924 g / cm^3
# Si number density = 22.891342 Si / 1000 Ang^3
#
#
#
# Elastic Constant Matrix: (Units=GPa)
#
#
# Indices 1 2 3 4 5 6 
#
# 1 59.9944 3.0001 20.3977 -3.9275 -1.9153 -6.2759
# 2 3.0001 40.1879 37.6529 -13.7969 -3.6805 -19.3336
# 3 20.3977 37.6529 138.2744 -28.4060 -8.4752 -4.2365
# 4 -3.9275 -13.7969 -28.4060 39.1337 3.5117 -1.4416
# 5 -1.9153 -3.6805 -8.4752 3.5117 24.4605 -2.3140
# 6 -6.2759 -19.3336 -4.2365 -1.4416 -2.3140 22.6358
#
#
#
# Elastic Compliance Matrix: (Units=1/GPa)
#
#
# Indices 1 2 3 4 5 6 
#
# 1 0.019493 0.011093 -0.004738 0.002733 0.002526 0.014425
# 2 0.011093 0.083578 -0.017398 0.019625 0.011565 0.073636
# 3 -0.004738 -0.017398 0.012669 0.002100 -0.000196 -0.013689
# 4 0.002733 0.019625 0.002100 0.034945 0.000790 0.020219
# 5 0.002526 0.011565 -0.000196 0.000790 0.044067 0.015096
# 6 0.014425 0.073636 -0.013689 0.020219 0.015096 0.111340
#
#
# Mechanical properties :
#
#
# Convention : Reuss Voigt Hill
#
# Bulk Modulus (GPa) = 10.67786 40.06201 25.36994
# Shear Modulus (GPa) = 13.91227 29.07307 21.49267
#
# Velocity S-wave (km/s) = 2.46794 3.56764 3.06747
# Velocity P-wave (km/s) = 3.57710 5.87449 4.86340
#
# Compressibility (1/GPa) = 0.09365169
#
# Stress axis : x y z
#
# Youngs Moduli (GPa) = 51.30081 11.96494 78.93588
#
# Poissons Ratio (x) = -0.13273 0.37400
# Poissons Ratio (y) = -0.56907 1.37336
# Poissons Ratio (z) = 0.24306 0.20817
#
# Static dielectric constant tensor:
#      x y z
#    x 1.906790 0.008760 -0.002960 
#    y 0.008760 1.895030 0.041770 
#    z -0.002960 0.041770 1.826830 
# 
# From -- ./inp_files/355232.got.cif
#   From: 2010.05.17/outbox.cif.g08.bks.cpg/sg2_178_cif.got.tgz:355232.got - 2010.06.03 11:33:40.
