data_PCOD9020937
_publ_section_title
;
Structure prediction by ZEFSAII (Michael W. Deem and Ramdas Pophale) SiO2 
 PCOD9020937
Probable space group: P -1
;
_chemical_formula_sum "Si O2"
_cell_formula_units_Z 16
_cell_length_a 14.738272
_cell_length_b 11.580235
_cell_length_c 9.373024
_cell_angle_alpha 117.222040
_cell_angle_beta 123.575758
_cell_angle_gamma 28.058757
_cell_volume 625.011111
_symmetry_space_group_name_H-M "P -1"
_symmetry_group_IT_number 2
_symmetry_cell_setting 'triclinic'
loop_
_space_group_symop_operation_xyz
x,y,z
-x,-y,-z
loop_
_atom_site_type_symbol
_atom_site_label
_atom_site_fract_x
_atom_site_fract_y
_atom_site_fract_z
Si Si1 0.695655 0.079984 0.105836
Si Si2 0.618950 0.014730 0.596455
Si Si3 0.928607 0.488267 0.294015
Si Si4 0.774015 0.714184 0.989289
Si Si5 0.973933 0.130691 0.424925
Si Si6 0.393515 0.798038 0.568852
Si Si7 0.355037 0.460881 0.818460
Si Si8 0.831706 0.395138 0.709777
O O1 0.654992 0.143099 0.272944
O O2 0.516838 0.334350 0.008791
O O3 0.941790 0.855609 0.162971
O O4 0.656983 0.963397 0.984179
O O5 0.626227 0.053172 0.461095
O O6 0.496930 0.249363 0.704416
O O7 0.500000 0.000000 0.500000
O O8 0.847727 0.774631 0.722990
O O9 0.803062 0.489089 0.233678
O O10 0.000000 0.500000 0.500000
O O11 0.799155 0.684547 0.164983
O O12 0.724943 0.624420 0.828276
O O13 0.000000 0.500000 0.000000
O O14 0.791342 0.288675 0.246050
O O15 0.902073 0.331871 0.568419
O O16 0.000000 0.000000 0.500000
O O17 0.187730 0.929731 0.414818
O O18 0.628080 0.509621 0.591100
#
# Coordination Sequence:
#
# PCOD9020937 Si02
#       8
#     2   2   2   2   2   2   2   2
#     4  10  24  39  65  97 145 183 215 265 334 418
#     4  12  24  35  62 100 140 179 215 266 323 404
#     4  12  24  38  60  99 147 184 223 264 320 404
#     4  10  22  37  62  93 142 190 217 250 328 411
#     4  11  26  49  74  96 126 174 238 307 350 387
#     4  11  23  43  69  99 135 180 226 271 342 406
#     4  12  25  42  62 100 135 174 229 280 337 403
#     4  10  22  43  66  96 132 175 226 274 334 410
#
# _framework density 25.599544999999999
#
# number of rings (size 3 to 8) (size 9 to 14) (size 15 to 20)
#    0.000    1.000    3.750    3.000    8.750    1.500 
#    0.000    2.500    0.000    3.750    0.000    0.000 
#    0.000    0.000    0.000    0.000    0.000    0.000 
#
# Total GULP energy -89384.492852 kJ/mol
# GULP energy per Si atom -5586.530803 kJ/mol
# Density = 2.554128 g / cm^3
# Si number density = 25.599545 Si / 1000 Ang^3
#
#
#
# Elastic Constant Matrix: (Units=GPa)
#
#
# Indices 1 2 3 4 5 6 
#
# 1 115.0864 47.4979 42.2139 -31.4597 3.4858 -26.6541
# 2 47.4979 116.7934 30.1025 -39.7680 6.1233 -24.4569
# 3 42.2139 30.1025 112.4710 -37.9618 -5.0523 4.1193
# 4 -31.4597 -39.7680 -37.9618 58.3089 -3.9277 6.0986
# 5 3.4858 6.1233 -5.0523 -3.9277 39.9874 -14.0757
# 6 -26.6541 -24.4569 4.1193 6.0986 -14.0757 52.2517
#
#
#
# Elastic Compliance Matrix: (Units=1/GPa)
#
#
# Indices 1 2 3 4 5 6 
#
# 1 0.012957 -0.002328 -0.003538 0.002567 0.001069 0.005787
# 2 -0.002328 0.012764 -0.000388 0.006788 0.000313 0.004110
# 3 -0.003538 -0.000388 0.012725 0.006560 0.001434 -0.003369
# 4 0.002567 0.006788 0.006560 0.027465 0.002797 0.001517
# 5 0.001069 0.000313 0.001434 0.002797 0.028074 0.007815
# 6 0.005787 0.004110 -0.003369 0.001517 0.007815 0.026207
#
#
# Mechanical properties :
#
#
# Convention : Reuss Voigt Hill
#
# Bulk Modulus (GPa) = 38.55152 64.88662 51.71907
# Shear Modulus (GPa) = 35.37418 45.07869 40.22644
#
# Velocity S-wave (km/s) = 3.72133 4.20088 3.96836
# Velocity P-wave (km/s) = 5.79280 6.99512 6.42216
#
# Compressibility (1/GPa) = 0.02593931
#
# Stress axis : x y z
#
# Youngs Moduli (GPa) = 77.17777 78.34309 78.58651
#
# Poissons Ratio (x) = 0.18237 0.27802
# Poissons Ratio (y) = 0.17966 0.03048
# Poissons Ratio (z) = 0.27304 0.03039
#
# Static dielectric constant tensor:
#      x y z
#    x 2.197750 0.193730 0.332200 
#    y 0.193730 2.289000 0.349000 
#    z 0.332200 0.349000 2.705190 
# 
# From -- ./inp_files/307790.got.cif
#   From: 2010.05.17/outbox.cif.g08.bks.cpg/sg2_154_cif.got.tgz:307790.got - 2010.06.03 11:33:40.
