data_PCOD9020589
_publ_section_title
;
Structure prediction by ZEFSAII (Michael W. Deem and Ramdas Pophale) SiO2 
 PCOD9020589
Probable space group: P -1
;
_chemical_formula_sum "Si O2"
_cell_formula_units_Z 16
_cell_length_a 8.556820
_cell_length_b 17.008094
_cell_length_c 8.423078
_cell_angle_alpha 87.425424
_cell_angle_beta 48.301253
_cell_angle_gamma 59.399527
_cell_volume 700.738593
_symmetry_space_group_name_H-M "P -1"
_symmetry_group_IT_number 2
_symmetry_cell_setting 'triclinic'
loop_
_space_group_symop_operation_xyz
x,y,z
-x,-y,-z
loop_
_atom_site_type_symbol
_atom_site_label
_atom_site_fract_x
_atom_site_fract_y
_atom_site_fract_z
Si Si1 0.075473 0.815147 0.451716
Si Si2 0.530686 0.588289 0.840903
Si Si3 0.271354 0.498323 0.724494
Si Si4 0.689136 0.630188 0.028780
Si Si5 0.065566 0.900207 0.771981
Si Si6 0.177141 0.058120 0.716983
Si Si7 0.916780 0.359530 0.613772
Si Si8 0.579515 0.688371 0.548665
O O1 0.405843 0.744504 0.229854
O O2 0.961181 0.890974 0.673662
O O3 0.040000 0.729540 0.509161
O O4 0.956733 0.863900 0.352069
O O5 0.747254 0.472379 0.642730
O O6 0.409718 0.672439 0.780593
O O7 0.700877 0.603908 0.840256
O O8 0.284185 0.614176 0.106955
O O9 0.500000 0.500000 0.500000
O O10 0.330358 0.451070 0.864695
O O11 0.271882 0.412705 0.647805
O O12 0.965759 0.604586 0.901345
O O13 0.372757 0.793042 0.588855
O O14 0.091499 0.988131 0.746346
O O15 0.917596 0.908905 0.036154
O O16 0.500000 0.000000 0.500000
O O17 0.199756 0.316909 0.502727
#
# Coordination Sequence:
#
# PCOD9020589 Si02
#       8
#     2   2   2   2   2   2   2   2
#     4  11  23  46  74 107 140 182 234 289 351 416
#     4  10  22  36  62  88 137 190 229 272 324 387
#     4  11  25  38  60  95 145 190 231 272 327 401
#     4  10  22  43  58  96 144 183 231 276 329 395
#     4  11  25  47  73 103 138 174 231 297 348 425
#     4  11  26  52  77 102 134 176 228 296 374 424
#     4  10  22  38  63  93 140 182 229 277 331 401
#     4  12  23  40  65  98 135 183 230 278 335 404
#
# _framework density 22.83305
#
# number of rings (size 3 to 8) (size 9 to 14) (size 15 to 20)
#    0.000    1.250    2.500    3.000    5.250    0.500 
#    2.250    5.000    0.000    0.000    0.000    0.000 
#    0.000    0.000    0.000    0.000    0.000    0.000 
#
# Total GULP energy -89309.004328 kJ/mol
# GULP energy per Si atom -5581.812770 kJ/mol
# Density = 2.278108 g / cm^3
# Si number density = 22.833050 Si / 1000 Ang^3
#
#
#
# Elastic Constant Matrix: (Units=GPa)
#
#
# Indices 1 2 3 4 5 6 
#
# 1 101.9500 19.7400 59.4326 2.8331 10.2657 -2.8602
# 2 19.7400 64.8537 26.9257 5.6575 9.6963 -13.4822
# 3 59.4326 26.9257 114.4231 -9.2245 -2.6539 -2.0581
# 4 2.8331 5.6575 -9.2245 22.2262 0.1816 1.9851
# 5 10.2657 9.6963 -2.6539 0.1816 49.4102 9.4406
# 6 -2.8602 -13.4822 -2.0581 1.9851 9.4406 41.5160
#
#
#
# Elastic Compliance Matrix: (Units=1/GPa)
#
#
# Indices 1 2 3 4 5 6 
#
# 1 0.015376 0.000424 -0.008612 -0.005785 -0.004097 0.001978
# 2 0.000424 0.021143 -0.005878 -0.008576 -0.006128 0.008407
# 3 -0.008612 -0.005878 0.015383 0.009226 0.004340 -0.003168
# 4 -0.005785 -0.008576 0.009226 0.052261 0.004377 -0.006220
# 5 -0.004097 -0.006128 0.004340 0.004377 0.023985 -0.007720
# 6 0.001978 0.008407 -0.003168 -0.006220 -0.007720 0.028850
#
#
# Mechanical properties :
#
#
# Convention : Reuss Voigt Hill
#
# Bulk Modulus (GPa) = 42.06947 54.82482 48.44714
# Shear Modulus (GPa) = 25.89977 34.30571 30.10274
#
# Velocity S-wave (km/s) = 3.37161 3.88036 3.63490
# Velocity P-wave (km/s) = 5.79843 6.64376 6.23544
#
# Compressibility (1/GPa) = 0.02377021
#
# Stress axis : x y z
#
# Youngs Moduli (GPa) = 65.03686 47.29792 65.00590
#
# Poissons Ratio (x) = -0.02005 0.55983
# Poissons Ratio (y) = -0.02757 0.38208
# Poissons Ratio (z) = 0.56010 0.27800
#
# Static dielectric constant tensor:
#      x y z
#    x 1.913900 -0.007320 0.065440 
#    y -0.007320 1.842790 -0.028730 
#    z 0.065440 -0.028730 1.922010 
# 
# From -- ./inp_files/215057.got.cif
#   From: 2010.05.17/outbox.cif.g08.bks.cpg/sg2_108_cif.got.tgz:215057.got - 2010.06.03 11:33:40.
