data_PCOD9020918
_publ_section_title
;
Structure prediction by ZEFSAII (Michael W. Deem and Ramdas Pophale) SiO2 
 PCOD9020918
Probable space group: P -1
;
_chemical_formula_sum "Si O2"
_cell_formula_units_Z 16
_cell_length_a 13.227696
_cell_length_b 7.633398
_cell_length_c 8.900847
_cell_angle_alpha 95.935877
_cell_angle_beta 125.960710
_cell_angle_gamma 109.175657
_cell_volume 633.391975
_symmetry_space_group_name_H-M "P -1"
_symmetry_group_IT_number 2
_symmetry_cell_setting 'triclinic'
loop_
_space_group_symop_operation_xyz
x,y,z
-x,-y,-z
loop_
_atom_site_type_symbol
_atom_site_label
_atom_site_fract_x
_atom_site_fract_y
_atom_site_fract_z
Si Si1 0.632486 0.184537 0.919995
Si Si2 0.574091 0.736314 0.045108
Si Si3 0.155419 0.214581 0.564122
Si Si4 0.470590 0.216065 0.342395
Si Si5 0.896344 0.169256 0.189557
Si Si6 0.988948 0.279277 0.964915
Si Si7 0.282426 0.369832 0.364171
Si Si8 0.909316 0.561504 0.215449
O O1 0.517457 0.187303 0.930728
O O2 0.560258 0.013292 0.715765
O O3 0.740041 0.125452 0.098153
O O4 0.752704 0.407518 0.991352
O O5 0.736162 0.836712 0.256272
O O6 0.500000 0.500000 0.000000
O O7 0.554486 0.738928 0.848640
O O8 0.239972 0.308590 0.493123
O O9 0.136000 0.364909 0.672414
O O10 0.991077 0.089536 0.347974
O O11 0.370993 0.266572 0.366780
O O12 0.627025 0.388434 0.539539
O O13 0.976008 0.414584 0.291739
O O14 0.887529 0.140050 0.996939
O O15 0.137428 0.293672 0.140910
O O16 0.981638 0.254119 0.777070
O O17 0.000000 0.500000 0.000000
#
# Coordination Sequence:
#
# PCOD9020918 Si02
#       8
#     2   2   2   2   2   2   2   2
#     4  10  22  37  62  88 123 157 192 249 303 347
#     4  12  21  37  65  89 119 155 202 242 292 357
#     4  11  19  36  60  93 112 154 204 244 281 353
#     4  11  23  41  59  86 120 161 196 246 299 355
#     4   8  19  35  59  88 120 152 198 240 300 348
#     4   9  17  35  60  89 114 154 201 247 283 358
#     4  10  22  37  63  84 117 158 208 239 295 356
#     4   9  17  32  63  87 118 152 201 238 294 349
#
# _framework density 25.260818
#
# number of rings (size 3 to 8) (size 9 to 14) (size 15 to 20)
#    0.750    1.250    2.500    1.500    0.000    0.000 
#    0.000    5.625    2.750    0.000    0.000    0.000 
#    0.000    0.000    0.000    0.000    0.000    0.000 
#
# Total GULP energy -89216.371119 kJ/mol
# GULP energy per Si atom -5576.023195 kJ/mol
# Density = 2.520332 g / cm^3
# Si number density = 25.260818 Si / 1000 Ang^3
#
#
#
# Elastic Constant Matrix: (Units=GPa)
#
#
# Indices 1 2 3 4 5 6 
#
# 1 179.2025 30.5374 47.5742 4.2204 -7.5097 -17.2068
# 2 30.5374 71.1858 28.7999 9.9345 -12.4780 -16.0466
# 3 47.5742 28.7999 75.8802 -15.3619 -2.1301 -4.2874
# 4 4.2204 9.9345 -15.3619 37.3324 -4.1463 -2.1108
# 5 -7.5097 -12.4780 -2.1301 -4.1463 48.6304 3.7160
# 6 -17.2068 -16.0466 -4.2874 -2.1108 3.7160 27.8723
#
#
#
# Elastic Compliance Matrix: (Units=1/GPa)
#
#
# Indices 1 2 3 4 5 6 
#
# 1 0.007293 0.000115 -0.004937 -0.002636 0.000443 0.003550
# 2 0.000115 0.022021 -0.009537 -0.008812 0.003726 0.010117
# 3 -0.004937 -0.009537 0.022028 0.011824 -0.000921 -0.004132
# 4 -0.002636 -0.008812 0.011824 0.034265 0.000956 -0.002414
# 5 0.000443 0.003726 -0.000921 0.000956 0.021670 -0.000540
# 6 0.003550 0.010117 -0.004132 -0.002414 -0.000540 0.043148
#
#
# Mechanical properties :
#
#
# Convention : Reuss Voigt Hill
#
# Bulk Modulus (GPa) = 44.20270 60.01017 52.10643
# Shear Modulus (GPa) = 26.78332 37.39081 32.08707
#
# Velocity S-wave (km/s) = 3.25971 3.85150 3.56790
# Velocity P-wave (km/s) = 5.63064 6.60201 6.13558
#
# Compressibility (1/GPa) = 0.02262305
#
# Stress axis : x y z
#
# Youngs Moduli (GPa) = 137.12110 45.41209 45.39660
#
# Poissons Ratio (x) = -0.00520 0.22410
# Poissons Ratio (y) = -0.01571 0.43296
# Poissons Ratio (z) = 0.67690 0.43311
#
# Static dielectric constant tensor:
#      x y z
#    x 2.008210 0.072270 -0.035930 
#    y 0.072270 2.093530 0.014140 
#    z -0.035930 0.014140 2.043020 
# 
# From -- ./inp_files/295867.got.cif
#   From: 2010.05.17/outbox.cif.g08.bks.cpg/sg2_148_cif.got.tgz:295867.got - 2010.06.03 11:33:40.
