data_PCOD9020943
_publ_section_title
;
Structure prediction by ZEFSAII (Michael W. Deem and Ramdas Pophale) SiO2 
 PCOD9020943
Probable space group: P -1
;
_chemical_formula_sum "Si O2"
_cell_formula_units_Z 14
_cell_length_a 5.610487
_cell_length_b 23.506974
_cell_length_c 10.857530
_cell_angle_alpha 155.090425
_cell_angle_beta 65.764486
_cell_angle_gamma 115.393522
_cell_volume 543.974355
_symmetry_space_group_name_H-M "P -1"
_symmetry_group_IT_number 2
_symmetry_cell_setting 'triclinic'
loop_
_space_group_symop_operation_xyz
x,y,z
-x,-y,-z
loop_
_atom_site_type_symbol
_atom_site_label
_atom_site_fract_x
_atom_site_fract_y
_atom_site_fract_z
Si Si1 0.438073 0.795047 0.631989
Si Si2 0.546449 0.437659 0.676116
Si Si3 0.155595 0.639155 0.179923
Si Si4 0.736909 0.126530 0.576471
Si Si5 0.273467 0.015451 0.261663
Si Si6 0.903750 0.541627 0.471009
Si Si7 0.502988 0.698386 0.850018
O O1 0.568811 0.665898 0.396608
O O2 0.199451 0.742173 0.488002
O O3 0.636970 0.895051 0.703808
O O4 0.329532 0.867751 0.914859
O O5 0.513979 0.352403 0.387549
O O6 0.861289 0.462846 0.681290
O O7 0.430465 0.577604 0.973030
O O8 0.123298 0.740463 0.271037
O O9 0.000000 0.500000 0.000000
O O10 0.486704 0.065087 0.421835
O O11 0.967651 0.036196 0.382346
O O12 0.613562 0.173042 0.822126
O O13 0.806555 0.686930 0.790762
O O14 0.660925 0.422584 0.270413
O O15 0.000000 0.500000 0.500000
#
# Coordination Sequence:
#
# PCOD9020943 Si02
#       7
#     2   2   2   2   2   2   2
#     4  10  24  44  68  92 136 177 224 284 323 402
#     4  11  23  39  63 100 134 168 213 278 348 406
#     4  11  24  38  66 105 133 170 217 280 352 400
#     4  11  24  43  72  95 134 176 230 277 325 409
#     4  10  25  47  69  96 126 188 237 269 328 383
#     4   9  19  35  57  88 133 167 211 252 343 400
#     4  10  22  37  62  95 129 177 208 277 334 413
#
# _framework density 25.736508000000001
#
# number of rings (size 3 to 8) (size 9 to 14) (size 15 to 20)
#    0.000    1.714    0.000    3.857   12.000    6.286 
#    0.000    1.429    0.000    0.000    0.000    0.000 
#    0.000    0.000    0.000    0.000    0.000    0.000 
#
# Total GULP energy -78105.369066 kJ/mol
# GULP energy per Si atom -5578.954933 kJ/mol
# Density = 2.567793 g / cm^3
# Si number density = 25.736508 Si / 1000 Ang^3
#
#
#
# Elastic Constant Matrix: (Units=GPa)
#
#
# Indices 1 2 3 4 5 6 
#
# 1 102.2326 7.5445 34.7531 -10.1364 -25.7914 7.3169
# 2 7.5445 74.4143 -2.0044 5.2947 6.8527 -7.8388
# 3 34.7531 -2.0044 107.9481 -15.8125 -8.0018 1.3349
# 4 -10.1364 5.2947 -15.8125 42.4774 -13.5368 -6.5503
# 5 -25.7914 6.8527 -8.0018 -13.5368 39.4169 -8.6042
# 6 7.3169 -7.8388 1.3349 -6.5503 -8.6042 31.4446
#
#
#
# Elastic Compliance Matrix: (Units=1/GPa)
#
#
# Indices 1 2 3 4 5 6 
#
# 1 0.014633 -0.003074 -0.002909 0.006697 0.011953 0.000618
# 2 -0.003074 0.014750 0.000272 -0.003864 -0.005389 0.002101
# 3 -0.002909 0.000272 0.010974 0.004312 0.002143 0.001763
# 4 0.006697 -0.003864 0.004312 0.035253 0.020258 0.010182
# 5 0.011953 -0.005389 0.002143 0.020258 0.044159 0.012088
# 6 0.000618 0.002101 0.001763 0.010182 0.012088 0.037536
#
#
# Mechanical properties :
#
#
# Convention : Reuss Voigt Hill
#
# Bulk Modulus (GPa) = 34.56000 40.57572 37.56786
# Shear Modulus (GPa) = 28.03165 38.95453 33.49309
#
# Velocity S-wave (km/s) = 3.30385 3.89471 3.61138
# Velocity P-wave (km/s) = 5.29258 6.00209 5.65847
#
# Compressibility (1/GPa) = 0.02893519
#
# Stress axis : x y z
#
# Youngs Moduli (GPa) = 68.34090 67.79755 91.12587
#
# Poissons Ratio (x) = 0.20841 0.26504
# Poissons Ratio (y) = 0.21008 -0.02479
# Poissons Ratio (z) = 0.19877 -0.01845
#
# Static dielectric constant tensor:
#      x y z
#    x 2.215270 0.083420 0.056890 
#    y 0.083420 2.025040 0.010090 
#    z 0.056890 0.010090 2.070700 
# 
# From -- ./inp_files/77808.got.cif
#   From: 2010.05.17/outbox.cif.g08.bks.cpg/sg2_39_cif.got.tgz:77808.got - 2010.06.03 11:33:40.
