data_PCOD9020046
_publ_section_title
;
Structure prediction by ZEFSAII (Michael W. Deem and Ramdas Pophale) SiO2 
 PCOD9020046
Probable space group: P -1
;
_chemical_formula_sum "Si O2"
_cell_formula_units_Z 12
_cell_length_a 14.544143
_cell_length_b 11.666685
_cell_length_c 11.129432
_cell_angle_alpha 66.198924
_cell_angle_beta 28.870451
_cell_angle_gamma 47.181340
_cell_volume 562.441163
_symmetry_space_group_name_H-M "P -1"
_symmetry_group_IT_number 2
_symmetry_cell_setting 'triclinic'
loop_
_space_group_symop_operation_xyz
x,y,z
-x,-y,-z
loop_
_atom_site_type_symbol
_atom_site_label
_atom_site_fract_x
_atom_site_fract_y
_atom_site_fract_z
Si Si1 0.268480 0.994843 0.422160
Si Si2 0.033835 0.597379 0.011221
Si Si3 0.580574 0.118745 0.441177
Si Si4 0.860074 0.182965 0.227709
Si Si5 0.210059 0.569518 0.276669
Si Si6 0.224049 0.373653 0.121746
O O1 0.032854 0.211413 0.571675
O O2 0.399034 0.961466 0.419233
O O3 0.130721 0.923716 0.631966
O O4 0.519360 0.847199 0.103446
O O5 0.702979 0.777435 0.346094
O O6 0.201389 0.471736 0.989097
O O7 0.157970 0.663676 0.785781
O O8 0.000000 0.500000 0.000000
O O9 0.616059 0.246020 0.392922
O O10 0.853708 0.966258 0.113004
O O11 0.261342 0.444958 0.163600
O O12 0.067227 0.560502 0.552309
O O13 0.500000 0.500000 0.000000
#
# Coordination Sequence:
#
# PCOD9020046 Si02
#       6
#     2   2   2   2   2   2
#     4  10  21  46  67  96 137 170 221 279 327 394
#     4  12  22  38  65 104 134 170 213 267 347 402
#     4   9  20  38  62  97 132 174 207 272 332 396
#     4   9  21  37  60  97 135 175 211 265 329 401
#     4  11  27  48  69  93 128 185 231 277 328 383
#     4  11  26  44  68 100 136 171 227 279 322 409
#
# _framework density 21.335567000000001
#
# number of rings (size 3 to 8) (size 9 to 14) (size 15 to 20)
#    1.000    0.667    1.667    2.000    2.333    4.667 
#    3.000    0.000    0.000    0.000    0.000    0.000 
#    0.000    0.000    0.000    0.000    0.000    0.000 
#
# Total GULP energy -66914.765958 kJ/mol
# GULP energy per Si atom -5576.230496 kJ/mol
# Density = 2.128701 g / cm^3
# Si number density = 21.335567 Si / 1000 Ang^3
#
#
#
# Elastic Constant Matrix: (Units=GPa)
#
#
# Indices 1 2 3 4 5 6 
#
# 1 34.5070 2.0319 24.6761 -2.8917 7.9370 10.8706
# 2 2.0319 68.4282 8.7120 -2.3811 4.2856 4.9529
# 3 24.6761 8.7120 105.2752 8.4871 5.2219 10.2609
# 4 -2.8917 -2.3811 8.4871 43.7798 3.5501 -10.4369
# 5 7.9370 4.2856 5.2219 3.5501 38.7724 -3.3442
# 6 10.8706 4.9529 10.2609 -10.4369 -3.3442 23.0807
#
#
#
# Elastic Compliance Matrix: (Units=1/GPa)
#
#
# Indices 1 2 3 4 5 6 
#
# 1 0.042399 0.001659 -0.007962 0.000976 -0.009407 -0.017708
# 2 0.001659 0.015135 -0.001223 0.000495 -0.002202 -0.003581
# 3 -0.007962 -0.001223 0.012038 -0.003649 0.000223 -0.002957
# 4 0.000976 0.000495 -0.003649 0.026836 -0.001096 0.013033
# 5 -0.009407 -0.002202 0.000223 -0.001096 0.028762 0.008476
# 6 -0.017708 -0.003581 -0.002957 0.013033 0.008476 0.060871
#
#
# Mechanical properties :
#
#
# Convention : Reuss Voigt Hill
#
# Bulk Modulus (GPa) = 18.34151 31.00560 24.67356
# Shear Modulus (GPa) = 22.80346 32.64594 27.72470
#
# Velocity S-wave (km/s) = 3.27280 3.91592 3.60871
# Velocity P-wave (km/s) = 4.78508 5.91691 5.38083
#
# Compressibility (1/GPa) = 0.05452114
#
# Stress axis : x y z
#
# Youngs Moduli (GPa) = 23.58527 66.07368 83.07271
#
# Poissons Ratio (x) = -0.10965 0.66140
# Poissons Ratio (y) = -0.03914 0.10160
# Poissons Ratio (z) = 0.18778 0.08081
#
# Static dielectric constant tensor:
#      x y z
#    x 1.750080 0.029410 0.014100 
#    y 0.029410 1.865600 0.063750 
#    z 0.014100 0.063750 1.828370 
# 
# From -- ./inp_files/448692.got.cif
#   From: 2010.05.17/outbox.cif.g08.bks.cpg/sg2_225_cif.got.tgz:448692.got - 2010.06.03 11:33:40.
