data_PCOD9020777
_publ_section_title
;
Structure prediction by ZEFSAII (Michael W. Deem and Ramdas Pophale) SiO2 
 PCOD9020777
Probable space group: P -1
;
_chemical_formula_sum "Si O2"
_cell_formula_units_Z 14
_cell_length_a 23.702467
_cell_length_b 5.145686
_cell_length_c 11.711375
_cell_angle_alpha 75.024654
_cell_angle_beta 29.132582
_cell_angle_gamma 74.979186
_cell_volume 670.063778
_symmetry_space_group_name_H-M "P -1"
_symmetry_group_IT_number 2
_symmetry_cell_setting 'triclinic'
loop_
_space_group_symop_operation_xyz
x,y,z
-x,-y,-z
loop_
_atom_site_type_symbol
_atom_site_label
_atom_site_fract_x
_atom_site_fract_y
_atom_site_fract_z
Si Si1 0.165436 0.466126 0.390226
Si Si2 0.981305 0.987645 0.398752
Si Si3 0.662111 0.618355 0.107115
Si Si4 0.432686 0.869677 0.530047
Si Si5 0.217467 0.212104 0.908765
Si Si6 0.868873 0.310444 0.141882
Si Si7 0.853963 0.736025 0.319413
O O1 0.208715 0.309554 0.445285
O O2 0.108809 0.756460 0.496128
O O3 0.263882 0.488170 0.118805
O O4 0.068972 0.288013 0.522012
O O5 0.103737 0.045475 0.118315
O O6 0.000000 0.000000 0.500000
O O7 0.539415 0.773417 0.270677
O O8 0.625084 0.383902 0.283557
O O9 0.742240 0.787109 0.029726
O O10 0.500000 0.000000 0.500000
O O11 0.327819 0.081705 0.659182
O O12 0.182632 0.511448 0.891610
O O13 0.842277 0.496071 0.278849
O O14 0.824640 0.019728 0.277804
O O15 0.008728 0.272248 0.889255
#
# Coordination Sequence:
#
# PCOD9020777 Si02
#       7
#     2   2   2   2   2   2   2
#     4  12  24  39  60  88 129 161 193 242 306 365
#     4  12  24  35  55  96 129 156 189 239 312 368
#     4  10  22  39  62  89 119 159 197 249 305 363
#     4   9  21  40  59  89 116 156 205 242 304 357
#     4  11  22  36  62  88 121 158 199 252 295 358
#     4  10  22  37  58  81 120 160 207 240 285 351
#     4  10  22  39  54  84 119 165 202 238 289 352
#
# _framework density 20.893535
#
# number of rings (size 3 to 8) (size 9 to 14) (size 15 to 20)
#    0.000    1.429    2.857    2.143   10.000    0.000 
#    0.000    0.000    0.000    1.714    0.000    0.000 
#    0.000    0.000    0.000    0.000    0.000    0.000 
#
# Total GULP energy -78255.392974 kJ/mol
# GULP energy per Si atom -5589.670927 kJ/mol
# Density = 2.084598 g / cm^3
# Si number density = 20.893535 Si / 1000 Ang^3
#
#
#
# Elastic Constant Matrix: (Units=GPa)
#
#
# Indices 1 2 3 4 5 6 
#
# 1 44.3528 6.6500 29.2718 -0.2429 3.4667 -5.6656
# 2 6.6500 81.3724 19.6683 13.2095 -15.2163 -12.6440
# 3 29.2718 19.6683 97.2695 9.3704 -17.8587 -11.4119
# 4 -0.2429 13.2095 9.3704 26.5409 -7.5208 -3.1121
# 5 3.4667 -15.2163 -17.8587 -7.5208 26.0000 -0.3481
# 6 -5.6656 -12.6440 -11.4119 -3.1121 -0.3481 35.5099
#
#
#
# Elastic Compliance Matrix: (Units=1/GPa)
#
#
# Indices 1 2 3 4 5 6 
#
# 1 0.031622 -0.002469 -0.011536 0.001964 -0.013010 0.000503
# 2 -0.002469 0.015532 0.000141 -0.004925 0.008156 0.004830
# 3 -0.011536 0.000141 0.016627 -0.002100 0.012481 0.003491
# 4 0.001964 -0.004925 -0.002100 0.043356 0.007978 0.001762
# 5 -0.013010 0.008156 0.012481 0.007978 0.055931 0.006087
# 6 0.000503 0.004830 0.003491 0.001762 0.006087 0.031297
#
#
# Mechanical properties :
#
#
# Convention : Reuss Voigt Hill
#
# Bulk Modulus (GPa) = 27.73673 37.13053 32.43363
# Shear Modulus (GPa) = 21.35739 28.77049 25.06394
#
# Velocity S-wave (km/s) = 3.20066 3.71483 3.46729
# Velocity P-wave (km/s) = 5.19259 6.01746 5.62018
#
# Compressibility (1/GPa) = 0.03605328
#
# Stress axis : x y z
#
# Youngs Moduli (GPa) = 31.62362 64.38277 60.14302
#
# Poissons Ratio (x) = 0.15899 0.69379
# Poissons Ratio (y) = 0.07809 -0.00849
# Poissons Ratio (z) = 0.36480 -0.00908
#
# Static dielectric constant tensor:
#      x y z
#    x 1.790880 0.018090 -0.010630 
#    y 0.018090 1.810090 0.011590 
#    z -0.010630 0.011590 1.776770 
# 
# From -- ./inp_files/475837.got.cif
#   From: 2010.05.17/outbox.cif.g08.bks.cpg/sg2_238_cif.got.tgz:475837.got - 2010.06.03 11:33:40.
