data_PCOD9020896
_publ_section_title
;
Structure prediction by ZEFSAII (Michael W. Deem and Ramdas Pophale) SiO2 
 PCOD9020896
Probable space group: P -1
;
_chemical_formula_sum "Si O2"
_cell_formula_units_Z 16
_cell_length_a 18.719080
_cell_length_b 9.673303
_cell_length_c 21.608487
_cell_angle_alpha 40.923168
_cell_angle_beta 16.983021
_cell_angle_gamma 37.675605
_cell_volume 698.491552
_symmetry_space_group_name_H-M "P -1"
_symmetry_group_IT_number 2
_symmetry_cell_setting 'triclinic'
loop_
_space_group_symop_operation_xyz
x,y,z
-x,-y,-z
loop_
_atom_site_type_symbol
_atom_site_label
_atom_site_fract_x
_atom_site_fract_y
_atom_site_fract_z
Si Si1 0.149963 0.788035 0.697429
Si Si2 0.195309 0.917418 0.024177
Si Si3 0.216658 0.061220 0.339162
Si Si4 0.388083 0.433983 0.523406
Si Si5 0.054428 0.195535 0.922768
Si Si6 0.221457 0.186018 0.434585
Si Si7 0.974036 0.553121 0.372759
Si Si8 0.489936 0.569597 0.258817
O O1 0.173906 0.620824 0.678587
O O2 0.331838 0.633477 0.652690
O O3 0.275377 0.963397 0.507753
O O4 0.875075 0.937336 0.903549
O O5 0.027973 0.751762 0.222565
O O6 0.503349 0.778659 0.812804
O O7 0.115723 0.103147 0.972960
O O8 0.154893 0.107467 0.448607
O O9 0.198260 0.312895 0.250719
O O10 0.457067 0.833599 0.199735
O O11 0.000000 0.000000 0.500000
O O12 0.392379 0.521646 0.422700
O O13 0.299539 0.222932 0.675691
O O14 0.789813 0.410161 0.060164
O O15 0.000000 0.000000 0.000000
O O16 0.029519 0.377873 0.574690
O O17 0.702347 0.508430 0.600401
#
# Coordination Sequence:
#
# PCOD9020896 Si02
#       8
#     2   2   2   2   2   2   2   2
#     4  10  22  37  61  93 131 169 209 256 321 384
#     4  11  23  38  64  98 133 166 213 263 314 395
#     4  10  23  45  69  93 123 171 222 269 322 374
#     4  11  22  38  61  93 131 174 207 255 322 380
#     4  12  25  37  62  98 135 170 211 257 321 392
#     4  11  21  42  69  94 129 169 212 269 324 377
#     4  10  24  43  66  94 128 175 221 263 321 372
#     4  11  23  42  66  92 136 174 210 270 317 376
#
# _framework density 22.906504999999999
#
# number of rings (size 3 to 8) (size 9 to 14) (size 15 to 20)
#    0.000    1.250    3.750    1.875    3.500    2.000 
#    0.000    1.250    0.000   11.250    0.000    0.000 
#    0.000    0.000    0.000    0.000    0.000    0.000 
#
# Total GULP energy -89211.152235 kJ/mol
# GULP energy per Si atom -5575.697015 kJ/mol
# Density = 2.285437 g / cm^3
# Si number density = 22.906505 Si / 1000 Ang^3
#
#
#
# Elastic Constant Matrix: (Units=GPa)
#
#
# Indices 1 2 3 4 5 6 
#
# 1 60.9860 -9.5096 -14.9649 14.5480 -24.1887 8.2399
# 2 -9.5096 95.0032 -6.0446 20.0247 -28.6888 6.3013
# 3 -14.9649 -6.0446 42.8991 12.4143 -22.2069 2.9224
# 4 14.5480 20.0247 12.4143 24.4418 11.3436 3.3561
# 5 -24.1887 -28.6888 -22.2069 11.3436 4.9727 -6.0494
# 6 8.2399 6.3013 2.9224 3.3561 -6.0494 33.4382
#
#
#
# Elastic Compliance Matrix: (Units=1/GPa)
#
#
# Indices 1 2 3 4 5 6 
#
# 1 0.009485 -0.003639 -0.004381 0.005370 -0.011372 -0.003865
# 2 -0.003639 0.007029 -0.004983 0.002770 -0.007760 -0.001674
# 3 -0.004381 -0.004983 0.012341 0.006897 -0.013311 -0.002160
# 4 0.005370 0.002770 0.006897 0.022197 0.021250 -0.000831
# 5 -0.011372 -0.007760 -0.013311 0.021250 -0.003713 0.002623
# 6 -0.003865 -0.001674 -0.002160 -0.000831 0.002623 0.031921
#
#
# Mechanical properties :
#
#
# Convention : Reuss Voigt Hill
#
# Bulk Modulus (GPa) = 351.17675 15.31666 183.24671
# Shear Modulus (GPa) = 47.07360 27.86437 37.46898
#
# Velocity S-wave (km/s) = 4.53816 3.49153 4.04881
# Velocity P-wave (km/s) = 13.45739 4.79119 10.10092
#
# Compressibility (1/GPa) = 0.00284757
#
# Stress axis : x y z
#
# Youngs Moduli (GPa) = 105.42593 142.27422 81.03070
#
# Poissons Ratio (x) = 0.51773 0.35503
# Poissons Ratio (y) = 0.38364 0.40380
# Poissons Ratio (z) = 0.46192 0.70899
#
# Static dielectric constant tensor:
#      x y z
#    x 6.468650 -3.268390 4.096120 
#    y -3.268390 4.222530 -2.898080 
#    z 4.096120 -2.898080 5.529540 
# 
# From -- ./inp_files/77092.got.cif
#   From: 2010.05.17/outbox.cif.g08.bks.cpg/sg2_39_cif.got.tgz:77092.got - 2010.06.03 11:33:40.
