data_PCOD9020964
_publ_section_title
;
Structure prediction by ZEFSAII (Michael W. Deem and Ramdas Pophale) SiO2 
 PCOD9020964
Probable space group: P -1
;
_chemical_formula_sum "Si O2"
_cell_formula_units_Z 16
_cell_length_a 8.762355
_cell_length_b 11.446472
_cell_length_c 14.092987
_cell_angle_alpha 146.495413
_cell_angle_beta 85.210466
_cell_angle_gamma 80.987453
_cell_volume 708.703649
_symmetry_space_group_name_H-M "P -1"
_symmetry_group_IT_number 2
_symmetry_cell_setting 'triclinic'
loop_
_space_group_symop_operation_xyz
x,y,z
-x,-y,-z
loop_
_atom_site_type_symbol
_atom_site_label
_atom_site_fract_x
_atom_site_fract_y
_atom_site_fract_z
Si Si1 0.819483 0.307333 0.912361
Si Si2 0.003255 0.327715 0.086419
Si Si3 0.354219 0.630438 0.801245
Si Si4 0.321967 0.793651 0.521030
Si Si5 0.598893 0.824289 0.291734
Si Si6 0.345750 0.899920 0.793834
Si Si7 0.597020 0.097069 0.840375
Si Si8 0.900707 0.270731 0.669176
O O1 0.778747 0.084982 0.787933
O O2 0.817512 0.356100 0.834224
O O3 0.982311 0.272788 0.940419
O O4 0.687691 0.554152 0.129902
O O5 0.842881 0.314135 0.137563
O O6 0.990528 0.587511 0.266468
O O7 0.188089 0.148430 0.987800
O O8 0.478735 0.361035 0.606190
O O9 0.374377 0.748418 0.782898
O O10 0.421777 0.738657 0.956731
O O11 0.290009 0.790762 0.632343
O O12 0.225465 0.697277 0.388989
O O13 0.281150 0.054839 0.666784
O O14 0.495680 0.824783 0.202728
O O15 0.500000 0.000000 0.500000
O O16 0.514364 0.928474 0.770824
O O17 0.000000 0.000000 0.500000
#
# Coordination Sequence:
#
# PCOD9020964 Si02
#       8
#     2   2   2   2   2   2   2   2
#     4  11  22  39  61  93 129 165 201 250 311 381
#     4  11  24  41  62  91 124 165 212 253 312 381
#     4  11  23  43  65  89 122 165 214 267 310 358
#     4  11  23  39  62  93 123 162 214 258 306 374
#     4  11  20  35  60  92 126 158 192 248 309 369
#     4  11  23  43  64  89 123 164 211 270 315 354
#     4  10  22  37  63  92 118 157 210 250 303 373
#     4  12  24  41  63  93 132 170 202 252 314 380
#
# _framework density 22.576432
#
# number of rings (size 3 to 8) (size 9 to 14) (size 15 to 20)
#    0.000    1.000    0.000    8.625    0.000    2.000 
#    0.000    0.625    0.000    0.000    0.000    0.000 
#    0.000    0.000    0.000    0.000    0.000    0.000 
#
# Total GULP energy -89223.096623 kJ/mol
# GULP energy per Si atom -5576.443539 kJ/mol
# Density = 2.252505 g / cm^3
# Si number density = 22.576432 Si / 1000 Ang^3
#
#
#
# Elastic Constant Matrix: (Units=GPa)
#
#
# Indices 1 2 3 4 5 6 
#
# 1 84.3198 31.1109 36.9266 3.6135 26.8158 11.8955
# 2 31.1109 126.0392 42.6329 -8.4754 9.5059 4.2889
# 3 36.9266 42.6329 77.1023 -9.8674 -4.1534 3.7686
# 4 3.6135 -8.4754 -9.8674 32.2582 1.1798 1.9393
# 5 26.8158 9.5059 -4.1534 1.1798 36.1202 -1.2084
# 6 11.8955 4.2889 3.7686 1.9393 -1.2084 22.2414
#
#
#
# Elastic Compliance Matrix: (Units=1/GPa)
#
#
# Indices 1 2 3 4 5 6 
#
# 1 0.027248 -0.000202 -0.014254 -0.005889 -0.022051 -0.012804
# 2 -0.000202 0.010217 -0.005514 0.001212 -0.003253 -0.001211
# 3 -0.014254 -0.005514 0.024270 0.006744 0.014764 0.004789
# 4 -0.005889 0.001212 0.006744 0.033965 0.003686 -0.000988
# 5 -0.022051 -0.003253 0.014764 0.003686 0.046896 0.012146
# 6 -0.012804 -0.001211 0.004789 -0.000988 0.012146 0.051977
#
#
# Mechanical properties :
#
#
# Convention : Reuss Voigt Hill
#
# Bulk Modulus (GPa) = 45.88102 56.53357 51.20729
# Shear Modulus (GPa) = 20.68030 29.91002 25.29516
#
# Velocity S-wave (km/s) = 3.02985 3.64378 3.35090
# Velocity P-wave (km/s) = 5.71022 6.54203 6.14023
#
# Compressibility (1/GPa) = 0.02179551
#
# Stress axis : x y z
#
# Youngs Moduli (GPa) = 36.70045 97.87728 41.20385
#
# Poissons Ratio (x) = 0.01972 0.58732
# Poissons Ratio (y) = 0.00740 0.22719
# Poissons Ratio (z) = 0.52313 0.53967
#
# Static dielectric constant tensor:
#      x y z
#    x 1.892800 0.024360 -0.035680 
#    y 0.024360 1.834080 -0.047440 
#    z -0.035680 -0.047440 1.913090 
# 
# From -- ./inp_files/494657.got.cif
#   From: 2010.05.17/outbox.cif.g08.bks.cpg/sg2_248_cif.got.tgz:494657.got - 2010.06.03 11:33:40.
