data_PCOD9020343
_publ_section_title
;
Structure prediction by ZEFSAII (Michael W. Deem and Ramdas Pophale) SiO2 
 PCOD9020343
Probable space group: P -1
;
_chemical_formula_sum "Si O2"
_cell_formula_units_Z 15
_cell_length_a 11.743913
_cell_length_b 9.850457
_cell_length_c 9.063915
_cell_angle_alpha 124.323641
_cell_angle_beta 59.083700
_cell_angle_gamma 98.610164
_cell_volume 728.271153
_symmetry_space_group_name_H-M "P -1"
_symmetry_group_IT_number 2
_symmetry_cell_setting 'triclinic'
loop_
_space_group_symop_operation_xyz
x,y,z
-x,-y,-z
loop_
_atom_site_type_symbol
_atom_site_label
_atom_site_fract_x
_atom_site_fract_y
_atom_site_fract_z
Si Si1 0.925742 0.455600 0.875413
Si Si2 0.160513 0.378473 0.423154
Si Si3 0.217418 0.739209 0.547739
Si Si4 0.000000 0.000000 0.000000
Si Si5 0.810194 0.778439 0.996929
Si Si6 0.433802 0.923944 0.631830
Si Si7 0.852533 0.121599 0.651116
Si Si8 0.624029 0.911464 0.760783
O O1 0.813925 0.613757 0.989744
O O2 0.861931 0.291296 0.836412
O O3 0.038826 0.415149 0.644381
O O4 0.000000 0.500000 0.000000
O O5 0.205274 0.546145 0.439863
O O6 0.124670 0.279264 0.241560
O O7 0.287608 0.255746 0.333430
O O8 0.177065 0.818771 0.462079
O O9 0.359001 0.780989 0.533155
O O10 0.113100 0.831635 0.794588
O O11 0.097048 0.110262 0.917051
O O12 0.674449 0.913751 0.137444
O O13 0.500000 0.000000 0.500000
O O14 0.550247 0.865894 0.635902
O O15 0.732343 0.030935 0.729056
O O16 0.000000 0.000000 0.500000
O O17 0.500000 0.000000 0.000000
#
# Coordination Sequence:
#
# PCOD9020343 Si02
#       8
#     2   2   2   1   2   2   2   2
#     4  12  27  41  68 110 145 174 237 305 358 412
#     4  12  24  46  72 102 145 185 236 296 360 424
#     4  11  24  44  72 102 138 192 232 291 357 428
#     4  10  22  34  68 100 132 170 238 276 348 408
#     4  11  23  43  69  98 141 188 229 289 355 426
#     4  11  25  46  71  99 141 190 240 282 354 431
#     4  12  26  44  74 102 142 186 238 291 359 420
#     4  12  27  48  72 105 144 191 237 297 356 426
#
# _framework density 20.596722
#
# number of rings (size 3 to 8) (size 9 to 14) (size 15 to 20)
#    0.000    0.533    6.667    1.200    5.600    1.600 
#    2.400    2.000    0.000    0.000    0.000    0.000 
#    0.000    0.000    0.000    0.000    0.000    0.000 
#
# Total GULP energy -83522.185953 kJ/mol
# GULP energy per Si atom -5568.145730 kJ/mol
# Density = 2.054984 g / cm^3
# Si number density = 20.596722 Si / 1000 Ang^3
#
#
#
# Elastic Constant Matrix: (Units=GPa)
#
#
# Indices 1 2 3 4 5 6 
#
# 1 126.4064 55.6990 11.4884 -2.2947 2.5506 2.9303
# 2 55.6990 125.8424 18.8008 15.3536 -16.0626 0.0425
# 3 11.4884 18.8008 49.4286 -5.7574 -1.4094 7.2565
# 4 -2.2947 15.3536 -5.7574 33.0110 -1.5419 -0.8034
# 5 2.5506 -16.0626 -1.4094 -1.5419 35.0893 -2.3688
# 6 2.9303 0.0425 7.2565 -0.8034 -2.3688 44.3444
#
#
#
# Elastic Compliance Matrix: (Units=1/GPa)
#
#
# Indices 1 2 3 4 5 6 
#
# 1 0.010423 -0.005390 0.000013 0.003067 -0.003144 -0.000798
# 2 -0.005390 0.012518 -0.004301 -0.006649 0.005741 0.001234
# 3 0.000013 -0.004301 0.023066 0.005885 -0.001036 -0.003720
# 4 0.003067 -0.006649 0.005885 0.034537 -0.001554 -0.000617
# 5 -0.003144 0.005741 -0.001036 -0.001554 0.031382 0.002020
# 6 -0.000798 0.001234 -0.003720 -0.000617 0.002020 0.023308
#
#
# Mechanical properties :
#
#
# Convention : Reuss Voigt Hill
#
# Bulk Modulus (GPa) = 37.52279 52.62820 45.07550
# Shear Modulus (GPa) = 30.58597 36.86822 33.72710
#
# Velocity S-wave (km/s) = 3.85774 4.23543 4.05099
# Velocity P-wave (km/s) = 6.17254 7.03745 6.61914
#
# Compressibility (1/GPa) = 0.02665047
#
# Stress axis : x y z
#
# Youngs Moduli (GPa) = 95.94546 79.88339 43.35360
#
# Poissons Ratio (x) = 0.43059 -0.00055
# Poissons Ratio (y) = 0.51717 0.18645
# Poissons Ratio (z) = -0.00121 0.34355
#
# Static dielectric constant tensor:
#      x y z
#    x 1.719630 0.008050 0.051310 
#    y 0.008050 1.722080 0.048080 
#    z 0.051310 0.048080 1.783960 
# 
# From -- ./inp_files/177346.got.cif
#   From: 2010.05.17/outbox.cif.g08.bks.cpg/sg2_89_cif.got.tgz:177346.got - 2010.06.03 11:33:40.
