data_PCOD9020056
_publ_section_title
;
Structure prediction by ZEFSAII (Michael W. Deem and Ramdas Pophale) SiO2 
 PCOD9020056
Probable space group: P -1
;
_chemical_formula_sum "Si O2"
_cell_formula_units_Z 14
_cell_length_a 6.645008
_cell_length_b 5.355046
_cell_length_c 22.335836
_cell_angle_alpha 79.910750
_cell_angle_beta 52.031107
_cell_angle_gamma 102.859121
_cell_volume 558.231696
_symmetry_space_group_name_H-M "P -1"
_symmetry_group_IT_number 2
_symmetry_cell_setting 'triclinic'
loop_
_space_group_symop_operation_xyz
x,y,z
-x,-y,-z
loop_
_atom_site_type_symbol
_atom_site_label
_atom_site_fract_x
_atom_site_fract_y
_atom_site_fract_z
Si Si1 0.923243 0.671547 0.225864
Si Si2 0.581095 0.778785 0.182336
Si Si3 0.345702 0.668340 0.059987
Si Si4 0.956639 0.316423 0.665691
Si Si5 0.362652 0.113324 0.363279
Si Si6 0.803252 0.407769 0.096550
Si Si7 0.140995 0.716909 0.518318
O O1 0.809784 0.830957 0.192177
O O2 0.664514 0.362770 0.285747
O O3 0.226677 0.688865 0.148464
O O4 0.939194 0.768897 0.288520
O O5 0.273358 0.580982 0.271340
O O6 0.663059 0.618944 0.122073
O O7 0.606988 0.082606 0.146841
O O8 0.030276 0.487346 0.103017
O O9 0.500000 0.500000 0.000000
O O10 0.500000 0.000000 0.000000
O O11 0.191463 0.554542 0.572284
O O12 0.759578 0.081972 0.664494
O O13 0.106377 0.196483 0.420872
O O14 0.387033 0.960621 0.426940
O O15 0.000000 0.500000 0.000000
O O16 0.000000 0.500000 0.500000
#
# Coordination Sequence:
#
# PCOD9020056 Si02
#       7
#     2   2   2   2   2   2   2
#     4  11  25  45  72 104 142 193 238 299 363 429
#     4  11  24  46  66 108 142 180 247 300 350 434
#     4  11  25  45  64 100 141 179 240 300 349 418
#     4  11  23  42  73 103 142 193 237 290 367 429
#     4  10  21  46  68 104 147 181 237 300 354 433
#     4  11  25  44  73  93 136 192 233 302 373 416
#     4   9  20  42  73 100 144 184 228 303 353 428
#
# _framework density 25.079191000000002
#
# number of rings (size 3 to 8) (size 9 to 14) (size 15 to 20)
#    0.000    1.429    1.429    3.857    4.000    0.571 
#   10.286    6.429    0.000    0.000    0.000    0.000 
#    0.000    0.000    0.000    0.000    0.000    0.000 
#
# Total GULP energy -78004.582685 kJ/mol
# GULP energy per Si atom -5571.755906 kJ/mol
# Density = 2.502211 g / cm^3
# Si number density = 25.079191 Si / 1000 Ang^3
#
#
#
# Elastic Constant Matrix: (Units=GPa)
#
#
# Indices 1 2 3 4 5 6 
#
# 1 38.7722 5.9486 9.0947 -3.0097 -0.2280 11.3197
# 2 5.9486 113.5694 51.4395 -4.8700 9.3619 18.2857
# 3 9.0947 51.4395 161.6358 -2.4897 25.9032 10.8338
# 4 -3.0097 -4.8700 -2.4897 54.2460 2.7192 -5.6113
# 5 -0.2280 9.3619 25.9032 2.7192 42.7076 7.4645
# 6 11.3197 18.2857 10.8338 -5.6113 7.4645 26.1193
#
#
#
# Elastic Compliance Matrix: (Units=1/GPa)
#
#
# Indices 1 2 3 4 5 6 
#
# 1 0.030160 0.001177 -0.001664 0.000069 0.003382 -0.014157
# 2 0.001177 0.011360 -0.003318 0.000140 0.000793 -0.007283
# 3 -0.001664 -0.003318 0.007962 0.000299 -0.004311 0.001038
# 4 0.000069 0.000140 0.000299 0.019037 -0.002205 0.004468
# 5 0.003382 0.000793 -0.004311 -0.002205 0.027512 -0.008569
# 6 -0.014157 -0.007283 0.001038 0.004468 -0.008569 0.052498
#
#
# Mechanical properties :
#
#
# Convention : Reuss Voigt Hill
#
# Bulk Modulus (GPa) = 23.88194 49.66034 36.77114
# Shear Modulus (GPa) = 29.39514 41.11421 35.25467
#
# Velocity S-wave (km/s) = 3.42730 4.05331 3.75338
# Velocity P-wave (km/s) = 5.02047 6.46144 5.78599
#
# Compressibility (1/GPa) = 0.04187264
#
# Stress axis : x y z
#
# Youngs Moduli (GPa) = 33.15691 88.03032 125.59216
#
# Poissons Ratio (x) = -0.10364 0.20895
# Poissons Ratio (y) = -0.03904 0.41673
# Poissons Ratio (z) = 0.05516 0.29209
#
# Static dielectric constant tensor:
#      x y z
#    x 1.977700 -0.080390 0.191460 
#    y -0.080390 2.224570 0.305210 
#    z 0.191460 0.305210 2.420820 
# 
# From -- ./inp_files/605650.got.cif
#   From: 2010.05.17/outbox.cif.g08.bks.cpg/sg2_303_cif.got.tgz:605650.got - 2010.06.03 11:33:40.
