data_PCOD9020326
_publ_section_title
;
Structure prediction by ZEFSAII (Michael W. Deem and Ramdas Pophale) SiO2 
 PCOD9020326
Probable space group: P -1
;
_chemical_formula_sum "Si O2"
_cell_formula_units_Z 16
_cell_length_a 16.682409
_cell_length_b 11.863912
_cell_length_c 13.582593
_cell_angle_alpha 134.790870
_cell_angle_beta 25.214396
_cell_angle_gamma 138.235376
_cell_volume 758.602945
_symmetry_space_group_name_H-M "P -1"
_symmetry_group_IT_number 2
_symmetry_cell_setting 'triclinic'
loop_
_space_group_symop_operation_xyz
x,y,z
-x,-y,-z
loop_
_atom_site_type_symbol
_atom_site_label
_atom_site_fract_x
_atom_site_fract_y
_atom_site_fract_z
Si Si1 0.055651 0.684577 0.602518
Si Si2 0.920441 0.795252 0.633011
Si Si3 0.261691 0.584707 0.476963
Si Si4 0.825873 0.489385 0.262953
Si Si5 0.873675 0.850573 0.385569
Si Si6 0.714822 0.785704 0.144439
Si Si7 0.275916 0.004712 0.919971
Si Si8 0.567310 0.810605 0.531729
O O1 0.231846 0.699454 0.492220
O O2 0.000000 0.500000 0.500000
O O3 0.066813 0.801661 0.567745
O O4 0.882193 0.712160 0.878456
O O5 0.843007 0.610884 0.559348
O O6 0.727528 0.828458 0.914356
O O7 0.045629 0.964611 0.538062
O O8 0.158525 0.595712 0.702296
O O9 0.496609 0.643974 0.276320
O O10 0.834554 0.681893 0.387785
O O11 0.610073 0.374093 0.388650
O O12 0.000000 0.500000 0.000000
O O13 0.682157 0.830368 0.518480
O O14 0.061988 0.872375 0.115468
O O15 0.728060 0.946751 0.159894
O O16 0.715246 0.827421 0.284666
O O17 0.450486 0.939485 0.718506
#
# Coordination Sequence:
#
# PCOD9020326 Si02
#       8
#     2   2   2   2   2   2   2   2
#     4   9  19  37  57  89 118 152 186 234 299 337
#     4   8  19  40  57  89 114 153 189 237 298 340
#     4  10  22  38  62  86 121 155 192 248 283 347
#     4  11  22  41  61  83 116 159 199 241 295 338
#     4  10  22  39  57  82 119 152 201 235 285 352
#     4  10  22  34  58  95 116 151 201 229 300 357
#     4   9  20  37  55  89 117 153 188 241 299 339
#     4  11  22  37  61  84 116 160 191 248 292 339
#
# _framework density 21.091404000000001
#
# number of rings (size 3 to 8) (size 9 to 14) (size 15 to 20)
#    0.750    1.500    1.250    0.750    3.500    5.500 
#    2.250    0.000    0.000    1.500    0.000    0.000 
#    0.000    0.000    0.000    0.000    0.000    0.000 
#
# Total GULP energy -89174.428912 kJ/mol
# GULP energy per Si atom -5573.401807 kJ/mol
# Density = 2.104340 g / cm^3
# Si number density = 21.091404 Si / 1000 Ang^3
#
#
#
# Elastic Constant Matrix: (Units=GPa)
#
#
# Indices 1 2 3 4 5 6 
#
# 1 55.5565 12.0199 3.3457 0.3982 -8.6414 -6.7153
# 2 12.0199 85.7222 2.1425 -1.5504 -5.6820 -7.0593
# 3 3.3457 2.1425 48.7632 11.4378 -1.9630 -2.3126
# 4 0.3982 -1.5504 11.4378 30.0913 -8.3254 -0.5297
# 5 -8.6414 -5.6820 -1.9630 -8.3254 17.5448 0.1448
# 6 -6.7153 -7.0593 -2.3126 -0.5297 0.1448 22.1494
#
#
#
# Elastic Compliance Matrix: (Units=1/GPa)
#
#
# Indices 1 2 3 4 5 6 
#
# 1 0.020826 -0.001621 -0.001430 0.003361 0.011121 0.005656
# 2 -0.001621 0.012506 -0.000601 0.002104 0.004155 0.003455
# 3 -0.001430 -0.000601 0.022805 -0.009438 -0.002839 0.001549
# 4 0.003361 0.002104 -0.009438 0.042894 0.021622 0.001589
# 5 0.011121 0.004155 -0.002839 0.021622 0.073726 0.004434
# 6 0.005656 0.003455 0.001549 0.001589 0.004434 0.048135
#
#
# Mechanical properties :
#
#
# Convention : Reuss Voigt Hill
#
# Bulk Modulus (GPa) = 20.47785 25.00643 22.74214
# Shear Modulus (GPa) = 20.45230 25.45934 22.95582
#
# Velocity S-wave (km/s) = 3.11738 3.47810 3.30267
# Velocity P-wave (km/s) = 4.76315 5.29259 5.03483
#
# Compressibility (1/GPa) = 0.04883326
#
# Stress axis : x y z
#
# Youngs Moduli (GPa) = 48.01748 79.96267 43.85038
#
# Poissons Ratio (x) = 0.12960 0.06271
# Poissons Ratio (y) = 0.07783 0.02634
# Poissons Ratio (z) = 0.06867 0.04804
#
# Static dielectric constant tensor:
#      x y z
#    x 1.753920 0.000440 0.006140 
#    y 0.000440 1.811200 0.018100 
#    z 0.006140 0.018100 1.740060 
# 
# From -- ./inp_files/538448.got.cif
#   From: 2010.05.17/outbox.cif.g08.bks.cpg/sg2_270_cif.got.tgz:538448.got - 2010.06.03 11:33:40.
