data_PCOD9020698
_publ_section_title
;
Structure prediction by ZEFSAII (Michael W. Deem and Ramdas Pophale) SiO2 
 PCOD9020698
Probable space group: P -1
;
_chemical_formula_sum "Si O2"
_cell_formula_units_Z 16
_cell_length_a 5.240004
_cell_length_b 15.298242
_cell_length_c 11.949296
_cell_angle_alpha 136.716463
_cell_angle_beta 103.231436
_cell_angle_gamma 70.442601
_cell_volume 618.686020
_symmetry_space_group_name_H-M "P -1"
_symmetry_group_IT_number 2
_symmetry_cell_setting 'triclinic'
loop_
_space_group_symop_operation_xyz
x,y,z
-x,-y,-z
loop_
_atom_site_type_symbol
_atom_site_label
_atom_site_fract_x
_atom_site_fract_y
_atom_site_fract_z
Si Si1 0.955545 0.193054 0.237670
Si Si2 0.597658 0.662216 0.613736
Si Si3 0.712895 0.705197 0.913187
Si Si4 0.432899 0.629679 0.340450
Si Si5 0.434485 0.860608 0.225314
Si Si6 0.716371 0.085087 0.497083
Si Si7 0.956618 0.915535 0.081239
Si Si8 0.933885 0.507642 0.132528
O O1 0.725584 0.303349 0.373837
O O2 0.245497 0.225440 0.298089
O O3 0.926561 0.059316 0.165178
O O4 0.880100 0.180477 0.088662
O O5 0.685062 0.632661 0.724953
O O6 0.624061 0.583644 0.426462
O O7 0.001982 0.632477 0.927969
O O8 0.547754 0.734179 0.040615
O O9 0.702252 0.854985 0.013201
O O10 0.305072 0.788578 0.466607
O O11 0.634747 0.582312 0.211801
O O12 0.174392 0.569619 0.259513
O O13 0.453602 0.848459 0.348640
O O14 0.123776 0.907916 0.202656
O O15 0.572080 0.981337 0.330718
O O16 0.000000 0.000000 0.500000
O O17 0.000000 0.500000 0.000000
#
# Coordination Sequence:
#
# PCOD9020698 Si02
#       8
#     2   2   2   2   2   2   2   2
#     4  10  22  38  64 107 146 186 224 286 363 432
#     4  11  24  45  72 107 149 186 236 296 369 431
#     4  11  26  44  74 108 140 194 246 293 361 426
#     4  12  29  50  74 107 147 191 241 302 364 425
#     4  11  23  42  69 104 142 188 240 295 360 437
#     4  11  27  43  70 104 147 191 237 303 367 433
#     4  10  22  36  66  98 147 181 235 289 351 431
#     4  12  30  52  79 102 143 194 252 304 347 426
#
# _framework density 25.861262
#
# number of rings (size 3 to 8) (size 9 to 14) (size 15 to 20)
#    0.000    1.000    1.250    3.375   14.000    2.500 
#    0.000    0.000    0.000    0.000    0.000    0.000 
#    0.000    0.000    0.000    0.000    0.000    0.000 
#
# Total GULP energy -89213.287185 kJ/mol
# GULP energy per Si atom -5575.830449 kJ/mol
# Density = 2.580240 g / cm^3
# Si number density = 25.861262 Si / 1000 Ang^3
#
#
#
# Elastic Constant Matrix: (Units=GPa)
#
#
# Indices 1 2 3 4 5 6 
#
# 1 111.6965 12.2724 23.2866 6.9963 11.5678 10.6778
# 2 12.2724 78.4634 27.9142 -4.4459 4.5058 20.0403
# 3 23.2866 27.9142 93.1649 -18.0400 -3.1475 7.0807
# 4 6.9963 -4.4459 -18.0400 16.1436 -1.1108 -2.5156
# 5 11.5678 4.5058 -3.1475 -1.1108 57.3748 3.4470
# 6 10.6778 20.0403 7.0807 -2.5156 3.4470 29.7492
#
#
#
# Elastic Compliance Matrix: (Units=1/GPa)
#
#
# Indices 1 2 3 4 5 6 
#
# 1 0.011230 0.000477 -0.004864 -0.010942 -0.002551 -0.003824
# 2 0.000477 0.017060 -0.005015 -0.002839 -0.001130 -0.010579
# 3 -0.004864 -0.005015 0.017358 0.020683 0.002580 0.002442
# 4 -0.010942 -0.002839 0.020683 0.090599 0.004836 0.008018
# 5 -0.002551 -0.001130 0.002580 0.004836 0.018306 -0.000649
# 6 -0.003824 -0.010579 0.002442 0.008018 -0.000649 0.042285
#
#
# Mechanical properties :
#
#
# Convention : Reuss Voigt Hill
#
# Bulk Modulus (GPa) = 37.25080 45.58568 41.41824
# Shear Modulus (GPa) = 22.26274 35.31030 28.78652
#
# Velocity S-wave (km/s) = 2.93721 3.69911 3.33996
# Velocity P-wave (km/s) = 5.09297 5.99248 5.56094
#
# Compressibility (1/GPa) = 0.02684506
#
# Stress axis : x y z
#
# Youngs Moduli (GPa) = 89.05068 58.61554 57.60897
#
# Poissons Ratio (x) = -0.02797 0.28022
# Poissons Ratio (y) = -0.04250 0.28889
# Poissons Ratio (z) = 0.43315 0.29394
#
# Static dielectric constant tensor:
#      x y z
#    x 2.065060 0.018690 -0.054720 
#    y 0.018690 2.124340 0.053980 
#    z -0.054720 0.053980 2.086140 
# 
# From -- ./inp_files/369523.got.cif
#   From: 2010.05.17/outbox.cif.g08.bks.cpg/sg2_185_cif.got.tgz:369523.got - 2010.06.03 11:33:40.
