data_PCOD9020733
_publ_section_title
;
Structure prediction by ZEFSAII (Michael W. Deem and Ramdas Pophale) SiO2 
 PCOD9020733
Probable space group: P -1
;
_chemical_formula_sum "Si O2"
_cell_formula_units_Z 16
_cell_length_a 8.712391
_cell_length_b 14.655826
_cell_length_c 12.606873
_cell_angle_alpha 69.868940
_cell_angle_beta 88.930734
_cell_angle_gamma 138.673495
_cell_volume 892.808669
_symmetry_space_group_name_H-M "P -1"
_symmetry_group_IT_number 2
_symmetry_cell_setting 'triclinic'
loop_
_space_group_symop_operation_xyz
x,y,z
-x,-y,-z
loop_
_atom_site_type_symbol
_atom_site_label
_atom_site_fract_x
_atom_site_fract_y
_atom_site_fract_z
Si Si1 0.892495 0.245592 0.368771
Si Si2 0.564631 0.076568 0.634333
Si Si3 0.303907 0.635047 0.468007
Si Si4 0.115716 0.525842 0.728823
Si Si5 0.477244 0.742251 0.202215
Si Si6 0.823499 0.585746 0.039239
Si Si7 0.376157 0.971360 0.903080
Si Si8 0.412428 0.536357 0.136490
O O1 0.806859 0.171949 0.518093
O O2 0.850410 0.340461 0.321208
O O3 0.188354 0.379425 0.279061
O O4 0.692719 0.093223 0.352197
O O5 0.563707 0.192801 0.586852
O O6 0.561009 0.044972 0.769617
O O7 0.283059 0.573063 0.607032
O O8 0.437891 0.666738 0.345923
O O9 0.000000 0.500000 0.500000
O O10 0.184584 0.508587 0.842988
O O11 0.808011 0.356871 0.778286
O O12 0.528570 0.690223 0.131397
O O13 0.660231 0.929803 0.131657
O O14 0.625787 0.566316 0.092447
O O15 0.736207 0.512898 0.951108
O O16 0.108631 0.778799 0.961558
O O17 0.500000 0.000000 0.000000
#
# Coordination Sequence:
#
# PCOD9020733 Si02
#       8
#     2   2   2   2   2   2   2   2
#     4   9  17  33  57  79  99 136 182 224 252 303
#     4   9  17  30  54  82 102 131 176 225 258 297
#     4   8  15  29  51  77 103 131 170 217 264 301
#     4   9  17  31  53  79 104 134 175 222 258 306
#     4   9  18  33  55  78 101 138 181 219 255 309
#     4  11  22  36  53  77 112 144 173 211 273 320
#     4  11  20  33  54  84 109 134 172 227 264 305
#     4  10  22  37  52  77 107 150 175 208 266 325
#
# _framework density 17.920971999999999
#
# number of rings (size 3 to 8) (size 9 to 14) (size 15 to 20)
#    0.000    2.500    2.500    0.750    0.000    3.500 
#    0.000    0.625    0.000    6.750    0.000    0.000 
#    0.000    0.000    0.000    0.000    0.000    0.000 
#
# Total GULP energy -89079.519808 kJ/mol
# GULP energy per Si atom -5567.469988 kJ/mol
# Density = 1.788018 g / cm^3
# Si number density = 17.920972 Si / 1000 Ang^3
#
#
#
# Elastic Constant Matrix: (Units=GPa)
#
#
# Indices 1 2 3 4 5 6 
#
# 1 17.1209 4.0123 22.1437 3.4165 -5.3541 -2.5172
# 2 4.0123 74.4371 24.5825 0.6628 1.1934 -20.1282
# 3 22.1437 24.5825 119.5897 11.0140 -8.4753 -1.4792
# 4 3.4165 0.6628 11.0140 27.5872 -10.5274 -1.3326
# 5 -5.3541 1.1934 -8.4753 -10.5274 14.6256 5.0545
# 6 -2.5172 -20.1282 -1.4792 -1.3326 5.0545 19.9456
#
#
#
# Elastic Compliance Matrix: (Units=1/GPa)
#
#
# Indices 1 2 3 4 5 6 
#
# 1 0.084183 0.001162 -0.014500 0.004741 0.024022 0.004951
# 2 0.001162 0.022554 -0.005351 -0.003413 -0.016081 0.026358
# 3 -0.014500 -0.005351 0.012491 -0.002137 0.003350 -0.007295
# 4 0.004741 -0.003413 -0.002137 0.052028 0.041716 -0.010100
# 5 0.024022 -0.016081 0.003350 0.041716 0.124897 -0.041812
# 6 0.004951 0.026358 -0.007295 -0.010100 -0.041812 0.086740
#
#
# Mechanical properties :
#
#
# Convention : Reuss Voigt Hill
#
# Bulk Modulus (GPa) = 12.21720 34.73606 23.47663
# Shear Modulus (GPa) = 11.17187 23.12563 17.14875
#
# Velocity S-wave (km/s) = 2.49950 3.59614 3.09675
# Velocity P-wave (km/s) = 3.89385 6.05541 5.09068
#
# Compressibility (1/GPa) = 0.08185180
#
# Stress axis : x y z
#
# Youngs Moduli (GPa) = 11.87884 44.33806 80.06062
#
# Poissons Ratio (x) = -0.05153 1.16085
# Poissons Ratio (y) = -0.01381 0.42838
# Poissons Ratio (z) = 0.17224 0.23724
#
# Static dielectric constant tensor:
#      x y z
#    x 1.579740 -0.016820 -0.020250 
#    y -0.016820 1.649880 0.010910 
#    z -0.020250 0.010910 1.678710 
# 
# From -- ./inp_files/254192.got.cif
#   From: 2010.05.17/outbox.cif.g08.bks.cpg/sg2_128_cif.got.tgz:254192.got - 2010.06.03 11:33:40.
