data_PCOD9020391
_publ_section_title
;
Structure prediction by ZEFSAII (Michael W. Deem and Ramdas Pophale) SiO2 
 PCOD9020391
Probable space group: P -1
;
_chemical_formula_sum "Si O2"
_cell_formula_units_Z 16
_cell_length_a 11.974201
_cell_length_b 14.413995
_cell_length_c 5.106689
_cell_angle_alpha 66.439699
_cell_angle_beta 54.952342
_cell_angle_gamma 61.242681
_cell_volume 623.153724
_symmetry_space_group_name_H-M "P -1"
_symmetry_group_IT_number 2
_symmetry_cell_setting 'triclinic'
loop_
_space_group_symop_operation_xyz
x,y,z
-x,-y,-z
loop_
_atom_site_type_symbol
_atom_site_label
_atom_site_fract_x
_atom_site_fract_y
_atom_site_fract_z
Si Si1 0.533726 0.397456 0.263716
Si Si2 0.190325 0.117920 0.663292
Si Si3 0.463452 0.765526 0.949782
Si Si4 0.062572 0.910700 0.739974
Si Si5 0.799138 0.653937 0.648768
Si Si6 0.783023 0.316706 0.383085
Si Si7 0.692895 0.014267 0.819422
Si Si8 0.211552 0.471297 0.722419
O O1 0.695497 0.373703 0.178651
O O2 0.385814 0.439750 0.581932
O O3 0.500000 0.500000 0.000000
O O4 0.531806 0.280419 0.299830
O O5 0.145874 0.245579 0.564465
O O6 0.308401 0.062273 0.340957
O O7 0.042958 0.086377 0.878213
O O8 0.242934 0.071474 0.934984
O O9 0.346803 0.713564 0.271967
O O10 0.411924 0.888215 0.975151
O O11 0.628566 0.713798 0.867721
O O12 0.090426 0.793114 0.715474
O O13 0.221326 0.918635 0.534891
O O14 0.000000 0.000000 0.500000
O O15 0.807179 0.587398 0.448766
O O16 0.858881 0.572570 0.896435
O O17 0.837365 0.400874 0.365650
#
# Coordination Sequence:
#
# PCOD9020391 Si02
#       8
#     2   2   2   2   2   2   2   2
#     4  11  20  35  60  95 139 159 202 255 331 381
#     4  11  23  45  60  88 123 176 208 268 311 375
#     4  10  22  35  58  98 123 165 203 266 316 393
#     4   9  22  44  67  95 121 164 219 271 316 372
#     4  11  24  39  62  86 135 168 209 250 325 386
#     4  11  20  38  65  93 130 164 210 270 319 369
#     4  10  23  39  67  88 124 155 222 265 322 368
#     4  11  22  38  60  97 126 170 206 259 317 388
#
# _framework density 25.675846
#
# number of rings (size 3 to 8) (size 9 to 14) (size 15 to 20)
#    0.000    1.500    2.500    3.000    3.500    1.000 
#    4.500    1.250    0.000    0.000    0.000    0.000 
#    0.000    0.000    0.000    0.000    0.000    0.000 
#
# Total GULP energy -89198.042903 kJ/mol
# GULP energy per Si atom -5574.877681 kJ/mol
# Density = 2.561741 g / cm^3
# Si number density = 25.675846 Si / 1000 Ang^3
#
#
#
# Elastic Constant Matrix: (Units=GPa)
#
#
# Indices 1 2 3 4 5 6 
#
# 1 40.2817 33.5453 29.8885 -7.6412 -0.4257 12.8922
# 2 33.5453 187.5792 42.1964 -0.6303 8.9635 17.3941
# 3 29.8885 42.1964 84.7346 -21.6845 17.5890 11.6351
# 4 -7.6412 -0.6303 -21.6845 42.1328 6.0278 -6.1161
# 5 -0.4257 8.9635 17.5890 6.0278 31.3358 -4.2954
# 6 12.8922 17.3941 11.6351 -6.1161 -4.2954 39.2819
#
#
#
# Elastic Compliance Matrix: (Units=1/GPa)
#
#
# Indices 1 2 3 4 5 6 
#
# 1 0.040016 -0.003901 -0.013579 -0.002019 0.008746 -0.006742
# 2 -0.003901 0.006648 -0.002064 -0.001781 -0.000645 -0.001400
# 3 -0.013579 -0.002064 0.024154 0.011942 -0.015673 -0.001638
# 4 -0.002019 -0.001781 0.011942 0.031430 -0.012063 0.001489
# 5 0.008746 -0.000645 -0.015673 -0.012063 0.044018 0.004993
# 6 -0.006742 -0.001400 -0.001638 0.001489 0.004993 0.029552
#
#
# Mechanical properties :
#
#
# Convention : Reuss Voigt Hill
#
# Bulk Modulus (GPa) = 31.51637 58.20621 44.86129
# Shear Modulus (GPa) = 22.17470 36.34780 29.26125
#
# Velocity S-wave (km/s) = 2.94196 3.76658 3.37952
# Velocity P-wave (km/s) = 4.88278 6.45252 5.72174
#
# Compressibility (1/GPa) = 0.03172954
#
# Stress axis : x y z
#
# Youngs Moduli (GPa) = 24.98986 150.42772 41.40179
#
# Poissons Ratio (x) = 0.58684 0.56218
# Poissons Ratio (y) = 0.09749 0.08546
# Poissons Ratio (z) = 0.33933 0.31050
#
# Static dielectric constant tensor:
#      x y z
#    x 2.307430 0.088960 0.027250 
#    y 0.088960 2.118180 0.093130 
#    z 0.027250 0.093130 2.125270 
# 
# From -- ./inp_files/93600.got.cif
#   From: 2010.05.17/outbox.cif.g08.bks.cpg/sg2_47_cif.got.tgz:93600.got - 2010.06.03 11:33:40.
