data_PCOD9020688
_publ_section_title
;
Structure prediction by ZEFSAII (Michael W. Deem and Ramdas Pophale) SiO2 
 PCOD9020688
Probable space group: P -1
;
_chemical_formula_sum "Si O2"
_cell_formula_units_Z 13
_cell_length_a 8.131680
_cell_length_b 4.999342
_cell_length_c 18.609063
_cell_angle_alpha 55.500631
_cell_angle_beta 57.810153
_cell_angle_gamma 90.766757
_cell_volume 470.709420
_symmetry_space_group_name_H-M "P -1"
_symmetry_group_IT_number 2
_symmetry_cell_setting 'triclinic'
loop_
_space_group_symop_operation_xyz
x,y,z
-x,-y,-z
loop_
_atom_site_type_symbol
_atom_site_label
_atom_site_fract_x
_atom_site_fract_y
_atom_site_fract_z
Si Si1 0.617366 0.109764 0.063343
Si Si2 0.027228 0.272554 0.851680
Si Si3 0.089737 0.103684 0.362939
Si Si4 0.424435 0.318955 0.466419
Si Si5 0.000000 0.500000 0.000000
Si Si6 0.848263 0.119834 0.767600
Si Si7 0.525201 0.388222 0.274279
O O1 0.741759 0.371966 0.059976
O O2 0.385382 0.096872 0.107290
O O3 0.547801 0.695079 0.165524
O O4 0.808490 0.259378 0.937270
O O5 0.019318 0.236636 0.773905
O O6 0.045315 0.921942 0.929070
O O7 0.241304 0.621038 0.778536
O O8 0.116712 0.487605 0.329601
O O9 0.288067 0.055814 0.362380
O O10 0.136051 0.113731 0.265675
O O11 0.834741 0.831585 0.463733
O O12 0.500000 0.500000 0.500000
O O13 0.518631 0.516466 0.338226
O O14 0.500000 0.000000 0.500000
#
# Coordination Sequence:
#
# PCOD9020688 Si02
#       7
#     2   2   2   2   1   2   2
#     4  10  24  41  66  99 143 183 241 277 349 405
#     4  11  23  44  65 103 141 188 239 281 345 408
#     4  11  25  47  70 107 139 179 237 282 357 414
#     4  12  26  48  75 104 137 178 232 290 354 417
#     4  10  22  36  66  88 138 178 240 274 338 398
#     4  11  26  44  73 103 144 184 232 293 342 408
#     4  10  23  45  70  99 141 183 226 290 347 415
#
# _framework density 27.617889000000002
#
# number of rings (size 3 to 8) (size 9 to 14) (size 15 to 20)
#    0.000    1.231    0.000    5.538    8.615    3.077 
#    8.308    5.385    0.000    0.000    0.000    0.000 
#    0.000    0.000    0.000    0.000    0.000    0.000 
#
# Total GULP energy -72473.655101 kJ/mol
# GULP energy per Si atom -5574.896546 kJ/mol
# Density = 2.755503 g / cm^3
# Si number density = 27.617889 Si / 1000 Ang^3
#
#
#
# Elastic Constant Matrix: (Units=GPa)
#
#
# Indices 1 2 3 4 5 6 
#
# 1 131.8335 24.3505 56.0410 4.6149 -42.7313 43.2954
# 2 24.3505 103.6792 34.1796 10.9021 8.7904 14.2930
# 3 56.0410 34.1796 108.4573 17.9063 -30.2967 10.2319
# 4 4.6149 10.9021 17.9063 38.9334 15.0415 1.6112
# 5 -42.7313 8.7904 -30.2967 15.0415 70.3509 -9.0468
# 6 43.2954 14.2930 10.2319 1.6112 -9.0468 46.3129
#
#
#
# Elastic Compliance Matrix: (Units=1/GPa)
#
#
# Indices 1 2 3 4 5 6 
#
# 1 0.015954 -0.000884 -0.004755 -0.001454 0.006486 -0.012273
# 2 -0.000884 0.011996 -0.004389 0.000583 -0.004409 -0.002788
# 3 -0.004755 -0.004389 0.015980 -0.008357 0.006830 0.003894
# 4 -0.001454 0.000583 -0.008357 0.034164 -0.011923 -0.000492
# 5 0.006486 -0.004409 0.006830 -0.011923 0.024054 -0.001098
# 6 -0.012273 -0.002788 0.003894 -0.000492 -0.001098 0.032869
#
#
# Mechanical properties :
#
#
# Convention : Reuss Voigt Hill
#
# Bulk Modulus (GPa) = 41.88534 63.67914 52.78224
# Shear Modulus (GPa) = 30.66890 46.41272 38.54081
#
# Velocity S-wave (km/s) = 3.33599 4.10388 3.73969
# Velocity P-wave (km/s) = 5.48064 6.75004 6.14819
#
# Compressibility (1/GPa) = 0.02387470
#
# Stress axis : x y z
#
# Youngs Moduli (GPa) = 62.68079 83.35812 62.57673
#
# Poissons Ratio (x) = 0.07372 0.29756
# Poissons Ratio (y) = 0.05543 0.27462
# Poissons Ratio (z) = 0.29805 0.36582
#
# Static dielectric constant tensor:
#      x y z
#    x 2.250920 0.057550 0.036440 
#    y 0.057550 2.079530 0.005490 
#    z 0.036440 0.005490 2.300740 
# 
# From -- ./inp_files/211821.got.cif
#   From: 2010.05.17/outbox.cif.g08.bks.cpg/sg2_106_cif.got.tgz:211821.got - 2010.06.03 11:33:40.
