data_PCOD9020402
_publ_section_title
;
Structure prediction by ZEFSAII (Michael W. Deem and Ramdas Pophale) SiO2 
 PCOD9020402
Probable space group: P -1
;
_chemical_formula_sum "Si O2"
_cell_formula_units_Z 12
_cell_length_a 5.323390
_cell_length_b 12.681734
_cell_length_c 21.562641
_cell_angle_alpha 24.983926
_cell_angle_beta 109.125142
_cell_angle_gamma 121.183684
_cell_volume 483.862648
_symmetry_space_group_name_H-M "P -1"
_symmetry_group_IT_number 2
_symmetry_cell_setting 'triclinic'
loop_
_space_group_symop_operation_xyz
x,y,z
-x,-y,-z
loop_
_atom_site_type_symbol
_atom_site_label
_atom_site_fract_x
_atom_site_fract_y
_atom_site_fract_z
Si Si1 0.828134 0.962208 0.309004
Si Si2 0.528390 0.499313 0.864904
Si Si3 0.217248 0.804584 0.629500
Si Si4 0.667731 0.849478 0.850257
Si Si5 0.342157 0.186248 0.895120
Si Si6 0.316741 0.373194 0.405287
O O1 0.547625 0.020539 0.251218
O O2 0.131192 0.252300 0.212125
O O3 0.991656 0.964663 0.255965
O O4 0.722068 0.681111 0.495649
O O5 0.303445 0.623797 0.778152
O O6 0.357289 0.201369 0.050976
O O7 0.225342 0.056208 0.537955
O O8 0.562330 0.441607 0.827378
O O9 0.941819 0.596123 0.668875
O O10 0.500000 0.000000 0.500000
O O11 0.500000 0.500000 0.000000
O O12 0.359467 0.350840 0.744748
O O13 0.500000 0.000000 0.000000
O O14 0.000000 0.000000 0.000000
#
# Coordination Sequence:
#
# PCOD9020402 Si02
#       6
#     2   2   2   2   2   2
#     4  11  22  37  64  96 122 157 194 255 324 373
#     4  11  21  41  63  91 134 156 203 258 307 377
#     4  11  19  35  62  96 120 160 194 257 340 361
#     4  10  22  35  59  96 127 158 192 242 324 383
#     4  12  28  42  61  88 123 175 214 251 301 359
#     4  11  22  37  61  91 128 155 209 262 312 375
#
# _framework density 24.800426999999999
#
# number of rings (size 3 to 8) (size 9 to 14) (size 15 to 20)
#    0.000    1.000    3.333    6.000    0.000    5.333 
#    0.000    0.000    0.000    6.000    0.000    0.000 
#    0.000    0.000    0.000    0.000    0.000    0.000 
#
# Total GULP energy -67075.805966 kJ/mol
# GULP energy per Si atom -5589.650497 kJ/mol
# Density = 2.474398 g / cm^3
# Si number density = 24.800427 Si / 1000 Ang^3
#
#
#
# Elastic Constant Matrix: (Units=GPa)
#
#
# Indices 1 2 3 4 5 6 
#
# 1 125.7675 5.4263 60.9635 13.8736 -5.3815 -2.6292
# 2 5.4263 32.1717 25.4699 19.0320 -5.0884 0.0648
# 3 60.9635 25.4699 175.3894 44.2882 -27.7674 -0.9157
# 4 13.8736 19.0320 44.2882 47.5265 -12.0378 -10.4561
# 5 -5.3815 -5.0884 -27.7674 -12.0378 56.2860 9.9538
# 6 -2.6292 0.0648 -0.9157 -10.4561 9.9538 27.8562
#
#
#
# Elastic Compliance Matrix: (Units=1/GPa)
#
#
# Indices 1 2 3 4 5 6 
#
# 1 0.009667 0.000998 -0.003723 0.000272 -0.000983 0.001241
# 2 0.000998 0.042590 -0.002342 -0.016472 0.000400 -0.006408
# 3 -0.003723 -0.002342 0.009591 -0.006902 0.003364 -0.003823
# 4 0.000272 -0.016472 -0.006902 0.037140 0.000681 0.013534
# 5 -0.000983 0.000400 0.003364 0.000681 0.020779 -0.007152
# 6 0.001241 -0.006408 -0.003823 0.013534 -0.007152 0.043541
#
#
# Mechanical properties :
#
#
# Convention : Reuss Voigt Hill
#
# Bulk Modulus (GPa) = 19.33720 57.44980 38.39350
# Shear Modulus (GPa) = 26.22200 42.43166 34.32683
#
# Velocity S-wave (km/s) = 3.25517 4.14082 3.72442
# Velocity P-wave (km/s) = 4.68426 6.78800 5.83178
#
# Compressibility (1/GPa) = 0.05171379
#
# Stress axis : x y z
#
# Youngs Moduli (GPa) = 103.44955 23.47962 104.26196
#
# Poissons Ratio (x) = -0.02344 0.38814
# Poissons Ratio (y) = -0.10325 0.24423
# Poissons Ratio (z) = 0.38511 0.05500
#
# Static dielectric constant tensor:
#      x y z
#    x 2.116020 0.059180 -0.023400 
#    y 0.059180 2.039290 -0.005760 
#    z -0.023400 -0.005760 2.034820 
# 
# From -- ./inp_files/604728.got.cif
#   From: 2010.05.17/outbox.cif.g08.bks.cpg/sg2_303_cif.got.tgz:604728.got - 2010.06.03 11:33:40.
