data_PCOD9020805
_publ_section_title
;
Structure prediction by ZEFSAII (Michael W. Deem and Ramdas Pophale) SiO2 
 PCOD9020805
Probable space group: P -1
;
_chemical_formula_sum "Si O2"
_cell_formula_units_Z 14
_cell_length_a 7.611014
_cell_length_b 11.959727
_cell_length_c 9.489523
_cell_angle_alpha 134.488780
_cell_angle_beta 74.982630
_cell_angle_gamma 120.779244
_cell_volume 522.397933
_symmetry_space_group_name_H-M "P -1"
_symmetry_group_IT_number 2
_symmetry_cell_setting 'triclinic'
loop_
_space_group_symop_operation_xyz
x,y,z
-x,-y,-z
loop_
_atom_site_type_symbol
_atom_site_label
_atom_site_fract_x
_atom_site_fract_y
_atom_site_fract_z
Si Si1 0.742551 0.219908 0.061510
Si Si2 0.802780 0.525971 0.513016
Si Si3 0.104839 0.202914 0.515117
Si Si4 0.697887 0.180065 0.572557
Si Si5 0.875196 0.805284 0.101534
Si Si6 0.318771 0.015465 0.870876
Si Si7 0.456632 0.551829 0.214727
O O1 0.702107 0.361459 0.280134
O O2 0.712914 0.061328 0.034336
O O3 0.974443 0.281621 0.019750
O O4 0.564114 0.146177 0.918227
O O5 0.661984 0.510104 0.661285
O O6 0.000000 0.500000 0.500000
O O7 0.844172 0.696761 0.559317
O O8 0.914119 0.224141 0.636014
O O9 0.005595 0.987521 0.327369
O O10 0.643622 0.335282 0.729458
O O11 0.500000 0.000000 0.500000
O O12 0.727510 0.140432 0.368201
O O13 0.820752 0.894833 0.059068
O O14 0.692316 0.688803 0.336146
O O15 0.644589 0.635033 0.017829
#
# Coordination Sequence:
#
# PCOD9020805 Si02
#       7
#     2   2   2   2   2   2   2
#     4  11  20  35  60  91 135 163 201 263 322 390
#     4  12  20  38  62  97 140 172 205 261 335 395
#     4  11  25  41  64  99 133 169 216 268 326 390
#     4  11  24  47  69  88 128 179 225 270 315 381
#     4  11  23  36  62  95 135 164 205 263 327 390
#     4  10  22  37  58  95 123 166 213 260 322 380
#     4  12  24  41  65  97 131 174 216 261 333 390
#
# _framework density 26.799492000000001
#
# number of rings (size 3 to 8) (size 9 to 14) (size 15 to 20)
#    0.000    0.857    4.286    3.429    4.000    0.571 
#    0.000    2.857    0.000   14.571    0.000    0.000 
#    0.000    0.000    0.000    0.000    0.000    0.000 
#
# Total GULP energy -78298.902480 kJ/mol
# GULP energy per Si atom -5592.778749 kJ/mol
# Density = 2.673850 g / cm^3
# Si number density = 26.799492 Si / 1000 Ang^3
#
#
#
# Elastic Constant Matrix: (Units=GPa)
#
#
# Indices 1 2 3 4 5 6 
#
# 1 183.1459 38.8704 67.5413 15.1432 25.4856 30.2527
# 2 38.8704 107.6767 23.8797 44.8163 22.5384 3.7921
# 3 67.5413 23.8797 139.4795 36.0452 24.9409 1.0274
# 4 15.1432 44.8163 36.0452 37.3882 4.4828 6.3511
# 5 25.4856 22.5384 24.9409 4.4828 42.7518 10.0029
# 6 30.2527 3.7921 1.0274 6.3511 10.0029 47.8510
#
#
#
# Elastic Compliance Matrix: (Units=1/GPa)
#
#
# Indices 1 2 3 4 5 6 
#
# 1 0.009489 -0.007703 -0.007177 0.013245 0.002984 -0.007617
# 2 -0.007703 0.033727 0.014531 -0.051165 -0.019274 0.012705
# 3 -0.007177 0.014531 0.018986 -0.032934 -0.013379 0.010146
# 4 0.013245 -0.051165 -0.032934 0.114948 0.032229 -0.025606
# 5 0.002984 -0.019274 -0.013379 0.032229 0.039130 -0.012530
# 6 -0.007617 0.012705 0.010146 -0.025606 -0.012530 0.030507
#
#
# Mechanical properties :
#
#
# Convention : Reuss Voigt Hill
#
# Bulk Modulus (GPa) = 16.25892 76.76501 46.51197
# Shear Modulus (GPa) = 18.65758 45.59891 32.12825
#
# Velocity S-wave (km/s) = 2.64141 4.12938 3.46618
# Velocity P-wave (km/s) = 3.92209 7.17231 5.78035
#
# Compressibility (1/GPa) = 0.06150469
#
# Stress axis : x y z
#
# Youngs Moduli (GPa) = 105.38024 29.64941 52.67114
#
# Poissons Ratio (x) = 0.22840 0.37801
# Poissons Ratio (y) = 0.81177 -0.76537
# Poissons Ratio (z) = 0.75629 -0.43084
#
# Static dielectric constant tensor:
#      x y z
#    x 2.076400 0.118220 0.013020 
#    y 0.118220 2.237460 -0.090890 
#    z 0.013020 -0.090890 2.158420 
# 
# From -- ./inp_files/312095.got.cif
#   From: 2010.05.17/outbox.cif.g08.bks.cpg/sg2_157_cif.got.tgz:312095.got - 2010.06.03 11:33:40.
