data_PCOD9020631
_publ_section_title
;
Structure prediction by ZEFSAII (Michael W. Deem and Ramdas Pophale) SiO2 
 PCOD9020631
Probable space group: P -1
;
_chemical_formula_sum "Si O2"
_cell_formula_units_Z 16
_cell_length_a 11.394686
_cell_length_b 20.578666
_cell_length_c 7.927486
_cell_angle_alpha 72.134038
_cell_angle_beta 89.627088
_cell_angle_gamma 150.534007
_cell_volume 706.214644
_symmetry_space_group_name_H-M "P -1"
_symmetry_group_IT_number 2
_symmetry_cell_setting 'triclinic'
loop_
_space_group_symop_operation_xyz
x,y,z
-x,-y,-z
loop_
_atom_site_type_symbol
_atom_site_label
_atom_site_fract_x
_atom_site_fract_y
_atom_site_fract_z
Si Si1 0.361770 0.373323 0.235129
Si Si2 0.040338 0.735577 0.697541
Si Si3 0.306988 0.570453 0.188157
Si Si4 0.688831 0.802852 0.707628
Si Si5 0.711220 0.200048 0.877401
Si Si6 0.922054 0.481540 0.207467
Si Si7 0.578349 0.004665 0.250459
Si Si8 0.325066 0.476333 0.555084
O O1 0.247679 0.244094 0.257174
O O2 0.583707 0.464318 0.299878
O O3 0.114747 0.288793 0.392078
O O4 0.500000 0.500000 0.000000
O O5 0.115402 0.818615 0.798126
O O6 0.830063 0.557788 0.841724
O O7 0.337202 0.866830 0.507455
O O8 0.412657 0.581750 0.335855
O O9 0.040780 0.479162 0.312823
O O10 0.556369 0.743970 0.944421
O O11 0.424705 0.686142 0.675430
O O12 0.000000 0.000000 0.500000
O O13 0.877284 0.349858 0.853317
O O14 0.972522 0.295378 0.709937
O O15 0.477011 0.082603 0.820063
O O16 0.550193 0.064146 0.117292
O O17 0.000000 0.500000 0.000000
O O18 0.500000 0.500000 0.500000
#
# Coordination Sequence:
#
# PCOD9020631 Si02
#       8
#     2   2   2   2   2   2   2   2
#     4  12  22  41  72  98 131 186 240 286 351 436
#     4  11  21  39  63  99 138 176 231 286 365 412
#     4  11  23  43  67 101 140 190 237 293 362 428
#     4  11  24  44  68 103 137 188 245 291 351 431
#     4  11  21  41  64  98 134 178 236 281 359 417
#     4  10  23  43  71  94 141 190 238 284 358 437
#     4  10  22  36  63  99 136 170 227 302 343 418
#     4  12  22  41  68 100 137 180 236 290 357 423
#
# _framework density 22.655999999999999
#
# number of rings (size 3 to 8) (size 9 to 14) (size 15 to 20)
#    0.000    1.000    5.000    2.250    0.000    4.500 
#    0.000    0.625    0.000    0.000    0.000    0.000 
#    0.000    0.000    0.000    0.000    0.000    0.000 
#
# Total GULP energy -89089.197622 kJ/mol
# GULP energy per Si atom -5568.074851 kJ/mol
# Density = 2.260443 g / cm^3
# Si number density = 22.656000 Si / 1000 Ang^3
#
#
#
# Elastic Constant Matrix: (Units=GPa)
#
#
# Indices 1 2 3 4 5 6 
#
# 1 127.8814 32.6582 23.4914 -8.5539 10.2163 -4.0900
# 2 32.6582 154.9686 40.1373 -3.6026 13.3768 -6.3595
# 3 23.4914 40.1373 113.0982 -17.0537 12.1032 -0.8190
# 4 -8.5539 -3.6026 -17.0537 37.2932 5.1049 8.2138
# 5 10.2163 13.3768 12.1032 5.1049 29.6750 7.4875
# 6 -4.0900 -6.3595 -0.8190 8.2138 7.4875 34.1065
#
#
#
# Elastic Compliance Matrix: (Units=1/GPa)
#
#
# Indices 1 2 3 4 5 6 
#
# 1 0.008648 -0.001316 -0.000800 0.001636 -0.002578 0.000944
# 2 -0.001316 0.007583 -0.002250 -0.000686 -0.002408 0.001896
# 3 -0.000800 -0.002250 0.011029 0.005331 -0.003958 -0.000666
# 4 0.001636 -0.000686 0.005331 0.031766 -0.006364 -0.006057
# 5 -0.002578 -0.002408 -0.003958 -0.006364 0.040449 -0.008200
# 6 0.000944 0.001896 -0.000666 -0.006057 -0.008200 0.033030
#
#
# Mechanical properties :
#
#
# Convention : Reuss Voigt Hill
#
# Bulk Modulus (GPa) = 53.97107 65.39133 59.68120
# Shear Modulus (GPa) = 33.91830 40.19234 37.05532
#
# Velocity S-wave (km/s) = 3.87344 4.21649 4.04860
# Velocity P-wave (km/s) = 6.62407 7.25468 6.94654
#
# Compressibility (1/GPa) = 0.01852844
#
# Stress axis : x y z
#
# Youngs Moduli (GPa) = 115.62940 131.88019 90.67006
#
# Poissons Ratio (x) = 0.17357 0.07253
# Poissons Ratio (y) = 0.15218 0.20398
# Poissons Ratio (z) = 0.09250 0.29669
#
# Static dielectric constant tensor:
#      x y z
#    x 1.895820 -0.035180 -0.042940 
#    y -0.035180 2.141850 0.088870 
#    z -0.042940 0.088870 1.906620 
# 
# From -- ./inp_files/281854.got.cif
#   From: 2010.05.17/outbox.cif.g08.bks.cpg/sg2_141_cif.got.tgz:281854.got - 2010.06.03 11:33:40.
