data_PCOD9020638
_publ_section_title
;
Structure prediction by ZEFSAII (Michael W. Deem and Ramdas Pophale) SiO2 
 PCOD9020638
Probable space group: P -1
;
_chemical_formula_sum "Si O2"
_cell_formula_units_Z 11
_cell_length_a 8.718602
_cell_length_b 8.820759
_cell_length_c 6.604733
_cell_angle_alpha 84.763257
_cell_angle_beta 78.047530
_cell_angle_gamma 69.028592
_cell_volume 463.924401
_symmetry_space_group_name_H-M "P -1"
_symmetry_group_IT_number 2
_symmetry_cell_setting 'triclinic'
loop_
_space_group_symop_operation_xyz
x,y,z
-x,-y,-z
loop_
_atom_site_type_symbol
_atom_site_label
_atom_site_fract_x
_atom_site_fract_y
_atom_site_fract_z
Si Si1 0.000000 0.000000 0.500000
Si Si2 0.020908 0.712281 0.833411
Si Si3 0.553056 0.114720 0.120651
Si Si4 0.775138 0.611969 0.642688
Si Si5 0.185478 0.167634 0.720392
Si Si6 0.312949 0.623770 0.065822
O O1 0.061371 0.119164 0.615317
O O2 0.962270 0.137280 0.311254
O O3 0.936509 0.615406 0.723000
O O4 0.194277 0.616574 0.912050
O O5 0.891744 0.782837 0.044444
O O6 0.387653 0.254040 0.227640
O O7 0.654085 0.995927 0.283275
O O8 0.670229 0.199424 0.964589
O O9 0.500000 0.000000 0.000000
O O10 0.775413 0.684437 0.412459
O O11 0.754496 0.439341 0.708442
O O12 0.500000 0.500000 0.000000
#
# Coordination Sequence:
#
# PCOD9020638 Si02
#       6
#     1   2   2   2   2   2
#     4  10  22  36  64 104 120 168 208 276 314 368
#     4  11  21  41  69  92 131 164 222 263 318 380
#     4  11  21  41  68  93 133 170 215 264 316 380
#     4  10  23  41  65  95 131 172 208 262 331 374
#     4  11  22  38  67  98 128 166 220 266 315 379
#     4  10  23  41  64  93 131 172 212 263 323 382
#
# _framework density 23.710757999999998
#
# number of rings (size 3 to 8) (size 9 to 14) (size 15 to 20)
#    0.000    1.455    3.636    1.636    0.000    0.727 
#    0.000    0.909    4.000    0.000    0.000    0.000 
#    0.000    0.000    0.000    0.000    0.000    0.000 
#
# Total GULP energy -61309.593174 kJ/mol
# GULP energy per Si atom -5573.599379 kJ/mol
# Density = 2.365679 g / cm^3
# Si number density = 23.710758 Si / 1000 Ang^3
#
#
#
# Elastic Constant Matrix: (Units=GPa)
#
#
# Indices 1 2 3 4 5 6 
#
# 1 97.7042 61.9430 16.6443 -21.8468 -8.8590 -10.6904
# 2 61.9430 133.7317 57.7580 -47.8939 -15.1892 0.5674
# 3 16.6443 57.7580 65.6751 -45.9939 -2.2465 1.9240
# 4 -21.8468 -47.8939 -45.9939 54.2865 6.7248 -6.8993
# 5 -8.8590 -15.1892 -2.2465 6.7248 20.8810 -5.0170
# 6 -10.6904 0.5674 1.9240 -6.8993 -5.0170 47.5198
#
#
#
# Elastic Compliance Matrix: (Units=1/GPa)
#
#
# Indices 1 2 3 4 5 6 
#
# 1 0.016225 -0.008593 0.007210 0.005525 0.000671 0.004334
# 2 -0.008593 0.018226 -0.013460 0.000139 0.007940 -0.000747
# 3 0.007210 -0.013460 0.048629 0.034118 -0.011638 0.003539
# 4 0.005525 0.000139 0.034118 0.051598 -0.008962 0.006405
# 5 0.000671 0.007940 -0.011638 -0.008962 0.056841 0.005227
# 6 0.004334 -0.000747 0.003539 0.006405 0.005227 0.023366
#
#
# Mechanical properties :
#
#
# Convention : Reuss Voigt Hill
#
# Bulk Modulus (GPa) = 18.72853 63.31130 41.01992
# Shear Modulus (GPa) = 19.05724 35.25517 27.15621
#
# Velocity S-wave (km/s) = 2.83810 3.86020 3.38792
# Velocity P-wave (km/s) = 4.31922 6.82844 5.71329
#
# Compressibility (1/GPa) = 0.05339446
#
# Stress axis : x y z
#
# Youngs Moduli (GPa) = 61.63438 54.86718 20.56390
#
# Poissons Ratio (x) = 0.47146 -0.14827
# Poissons Ratio (y) = 0.52960 0.27679
# Poissons Ratio (z) = -0.44440 0.73852
#
# Static dielectric constant tensor:
#      x y z
#    x 1.932950 -0.032570 -0.034420 
#    y -0.032570 1.890020 -0.016530 
#    z -0.034420 -0.016530 1.925800 
# 
# From -- ./inp_files/17216.got.cif
#   From: 2010.05.17/outbox.cif.g08.bks.cpg/sg2_9_cif.got.tgz:17216.got - 2010.06.03 11:33:40.
