data_PCOD9020199
_publ_section_title
;
Structure prediction by ZEFSAII (Michael W. Deem and Ramdas Pophale) SiO2 
 PCOD9020199
Probable space group: P -1
;
_chemical_formula_sum "Si O2"
_cell_formula_units_Z 14
_cell_length_a 5.445904
_cell_length_b 23.003550
_cell_length_c 6.216271
_cell_angle_alpha 62.014848
_cell_angle_beta 106.099294
_cell_angle_gamma 74.499627
_cell_volume 583.770257
_symmetry_space_group_name_H-M "P -1"
_symmetry_group_IT_number 2
_symmetry_cell_setting 'triclinic'
loop_
_space_group_symop_operation_xyz
x,y,z
-x,-y,-z
loop_
_atom_site_type_symbol
_atom_site_label
_atom_site_fract_x
_atom_site_fract_y
_atom_site_fract_z
Si Si1 0.800642 0.995532 0.153431
Si Si2 0.252633 0.875717 0.765546
Si Si3 0.737732 0.767764 0.762817
Si Si4 0.786943 0.323893 0.223181
Si Si5 0.757026 0.635134 0.247766
Si Si6 0.372241 0.745806 0.327980
Si Si7 0.846803 0.457680 0.154217
O O1 0.989287 0.919811 0.462626
O O2 0.729456 0.063132 0.182889
O O3 0.500000 0.000000 0.000000
O O4 0.000000 0.000000 0.000000
O O5 0.540869 0.832838 0.763696
O O6 0.215832 0.818292 0.015716
O O7 0.538737 0.767194 0.516474
O O8 0.035339 0.749954 0.749176
O O9 0.842542 0.691851 0.054044
O O10 0.795039 0.289031 0.517860
O O11 0.914918 0.381171 0.178145
O O12 0.468105 0.370026 0.964519
O O13 0.572950 0.680174 0.331318
O O14 0.023244 0.564065 0.536131
O O15 0.500000 0.500000 0.000000
O O16 0.000000 0.500000 0.000000
#
# Coordination Sequence:
#
# PCOD9020199 Si02
#       7
#     2   2   2   2   2   2   2
#     4  11  26  55  76 109 163 201 253 300 365 454
#     4  10  24  48  77 116 145 202 249 306 376 440
#     4  10  22  45  71 112 142 189 247 315 375 435
#     4  11  25  45  75 106 151 188 251 316 379 443
#     4  10  24  45  70 101 146 190 240 313 378 437
#     4  10  21  47  69 112 147 189 247 315 377 437
#     4  12  28  48  74 105 148 203 253 303 376 460
#
# _framework density 23.982039
#
# number of rings (size 3 to 8) (size 9 to 14) (size 15 to 20)
#    0.000    1.429    1.429    1.714    6.000    3.429 
#   33.429    0.000    0.000    0.000    0.000    0.000 
#    0.000    0.000    0.000    0.000    0.000    0.000 
#
# Total GULP energy -78313.576962 kJ/mol
# GULP energy per Si atom -5593.826926 kJ/mol
# Density = 2.392746 g / cm^3
# Si number density = 23.982039 Si / 1000 Ang^3
#
#
#
# Elastic Constant Matrix: (Units=GPa)
#
#
# Indices 1 2 3 4 5 6 
#
# 1 119.7039 45.5631 96.4305 0.6094 9.3278 -6.1640
# 2 45.5631 114.9713 53.8055 3.3813 0.4474 -14.1101
# 3 96.4305 53.8055 220.7979 -9.2366 11.2291 4.9262
# 4 0.6094 3.3813 -9.2366 39.9500 -1.8977 -1.4236
# 5 9.3278 0.4474 11.2291 -1.8977 45.2275 17.1142
# 6 -6.1640 -14.1101 4.9262 -1.4236 17.1142 39.6205
#
#
#
# Elastic Compliance Matrix: (Units=1/GPa)
#
#
# Indices 1 2 3 4 5 6 
#
# 1 0.014196 -0.002596 -0.005551 -0.001300 -0.002759 0.003119
# 2 -0.002596 0.011030 -0.001655 -0.001168 -0.000726 0.004001
# 3 -0.005551 -0.001655 0.007474 0.001880 0.000311 -0.002449
# 4 -0.001300 -0.001168 0.001880 0.025620 0.001030 -0.000377
# 5 -0.002759 -0.000726 0.000311 0.001030 0.027391 -0.012521
# 6 0.003119 0.004001 -0.002449 -0.000377 -0.012521 0.032849
#
#
# Mechanical properties :
#
#
# Convention : Reuss Voigt Hill
#
# Bulk Modulus (GPa) = 76.36463 94.11904 85.24184
# Shear Modulus (GPa) = 35.08044 42.27118 38.67581
#
# Velocity S-wave (km/s) = 3.82878 4.20291 4.02020
# Velocity P-wave (km/s) = 7.17340 7.92991 7.56112
#
# Compressibility (1/GPa) = 0.01309507
#
# Stress axis : x y z
#
# Youngs Moduli (GPa) = 70.44187 90.66517 133.79501
#
# Poissons Ratio (x) = 0.23540 0.74269
# Poissons Ratio (y) = 0.18289 0.22144
# Poissons Ratio (z) = 0.39102 0.15006
#
# Static dielectric constant tensor:
#      x y z
#    x 1.981030 -0.004200 0.006290 
#    y -0.004200 1.948910 0.021520 
#    z 0.006290 0.021520 1.938210 
# 
# From -- ./inp_files/11122.got.cif
#   From: 2010.05.17/outbox.cif.g08.bks.cpg/sg2_6_cif.got.tgz:11122.got - 2010.06.03 11:33:40.
