data_PCOD9020742
_publ_section_title
;
Structure prediction by ZEFSAII (Michael W. Deem and Ramdas Pophale) SiO2 
 PCOD9020742
Probable space group: P -1
;
_chemical_formula_sum "Si O2"
_cell_formula_units_Z 15
_cell_length_a 10.932536
_cell_length_b 21.974153
_cell_length_c 7.021294
_cell_angle_alpha 134.926699
_cell_angle_beta 37.026308
_cell_angle_gamma 143.505868
_cell_volume 594.252435
_symmetry_space_group_name_H-M "P -1"
_symmetry_group_IT_number 2
_symmetry_cell_setting 'triclinic'
loop_
_space_group_symop_operation_xyz
x,y,z
-x,-y,-z
loop_
_atom_site_type_symbol
_atom_site_label
_atom_site_fract_x
_atom_site_fract_y
_atom_site_fract_z
Si Si1 0.210105 0.849321 0.249669
Si Si2 0.983256 0.591572 0.803220
Si Si3 0.808560 0.679034 0.897946
Si Si4 0.702730 0.633086 0.493001
Si Si5 0.500000 0.000000 0.000000
Si Si6 0.196147 0.907743 0.794721
Si Si7 0.481494 0.697520 0.636621
Si Si8 0.920447 0.939056 0.663545
O O1 0.283982 0.874057 0.431058
O O2 0.943259 0.743341 0.358595
O O3 0.151633 0.931802 0.411139
O O4 0.407964 0.875896 0.903609
O O5 0.217836 0.663120 0.809741
O O6 0.000000 0.500000 0.500000
O O7 0.955377 0.645935 0.771912
O O8 0.746739 0.555716 0.151846
O O9 0.737601 0.631643 0.670553
O O10 0.968569 0.802327 0.932999
O O11 0.584295 0.657764 0.258653
O O12 0.483959 0.640279 0.699722
O O13 0.390509 0.963057 0.839449
O O14 0.117639 0.984502 0.995376
O O15 0.678253 0.821616 0.698306
O O16 0.000000 0.000000 0.500000
#
# Coordination Sequence:
#
# PCOD9020742 Si02
#       8
#     2   2   2   2   1   2   2   2
#     4  10  22  37  54  83 123 163 205 249 301 360
#     4  11  25  43  66  96 126 160 207 265 325 383
#     4  10  22  43  64  91 128 165 208 261 316 373
#     4   9  22  43  64  89 127 163 207 266 315 373
#     4  12  20  32  50  78 120 162 200 236 290 350
#     4  11  22  36  56  86 122 163 204 251 300 362
#     4  10  22  41  64  91 128 167 207 256 316 373
#     4  11  19  36  61  85 119 162 205 250 297 362
#
# _framework density 25.241797999999999
#
# number of rings (size 3 to 8) (size 9 to 14) (size 15 to 20)
#    0.000    1.600    2.667    2.400    3.733    3.733 
#    0.000    1.333    0.000    0.000    0.000    0.000 
#    0.000    0.000    0.000    0.000    0.000    0.000 
#
# Total GULP energy -83650.052176 kJ/mol
# GULP energy per Si atom -5576.670145 kJ/mol
# Density = 2.518435 g / cm^3
# Si number density = 25.241798 Si / 1000 Ang^3
#
#
#
# Elastic Constant Matrix: (Units=GPa)
#
#
# Indices 1 2 3 4 5 6 
#
# 1 197.6949 39.8159 37.1868 3.4386 -16.3015 -0.9919
# 2 39.8159 92.6605 -1.1978 14.0045 -12.4073 15.8147
# 3 37.1868 -1.1978 61.3907 21.4829 -21.6823 -4.5237
# 4 3.4386 14.0045 21.4829 28.2830 -2.1598 -7.1072
# 5 -16.3015 -12.4073 -21.6823 -2.1598 51.4321 -8.5325
# 6 -0.9919 15.8147 -4.5237 -7.1072 -8.5325 24.7551
#
#
#
# Elastic Compliance Matrix: (Units=1/GPa)
#
#
# Indices 1 2 3 4 5 6 
#
# 1 0.007401 -0.005529 -0.007715 0.008755 -0.001118 0.004547
# 2 -0.005529 0.019810 0.011754 -0.021580 0.004526 -0.015365
# 3 -0.007715 0.011754 0.037428 -0.033747 0.013769 -0.005921
# 4 0.008755 -0.021580 -0.033747 0.076684 -0.008976 0.026892
# 5 -0.001118 0.004526 0.013769 -0.008976 0.026634 0.006183
# 6 0.004547 -0.015365 -0.005921 0.026892 0.006183 0.059163
#
#
# Mechanical properties :
#
#
# Convention : Reuss Voigt Hill
#
# Bulk Modulus (GPa) = 16.21837 55.92844 36.07340
# Shear Modulus (GPa) = 19.94790 39.29012 29.61901
#
# Velocity S-wave (km/s) = 2.81423 3.94959 3.42923
# Velocity P-wave (km/s) = 4.12298 6.55776 5.47737
#
# Compressibility (1/GPa) = 0.06165847
#
# Stress axis : x y z
#
# Youngs Moduli (GPa) = 135.11045 50.48017 26.71812
#
# Poissons Ratio (x) = 0.27911 0.20612
# Poissons Ratio (y) = 0.74704 -0.31404
# Poissons Ratio (z) = 1.04235 -0.59333
#
# Static dielectric constant tensor:
#      x y z
#    x 1.954580 -0.006620 -0.075920 
#    y -0.006620 1.785910 0.473030 
#    z -0.075920 0.473030 1.768320 
# 
# From -- ./inp_files/284457.got.cif
#   From: 2010.05.17/outbox.cif.g08.bks.cpg/sg2_143_cif.got.tgz:284457.got - 2010.06.03 11:33:40.
