data_PCOD9020380
_publ_section_title
;
Structure prediction by ZEFSAII (Michael W. Deem and Ramdas Pophale) SiO2 
 PCOD9020380
Probable space group: P -1
;
_chemical_formula_sum "Si O2"
_cell_formula_units_Z 16
_cell_length_a 9.424414
_cell_length_b 10.608161
_cell_length_c 10.705050
_cell_angle_alpha 105.007184
_cell_angle_beta 113.744740
_cell_angle_gamma 52.712791
_cell_volume 779.250304
_symmetry_space_group_name_H-M "P -1"
_symmetry_group_IT_number 2
_symmetry_cell_setting 'triclinic'
loop_
_space_group_symop_operation_xyz
x,y,z
-x,-y,-z
loop_
_atom_site_type_symbol
_atom_site_label
_atom_site_fract_x
_atom_site_fract_y
_atom_site_fract_z
Si Si1 0.613948 0.546957 0.205693
Si Si2 0.152078 0.335543 0.573722
Si Si3 0.295504 0.044858 0.355162
Si Si4 0.232596 0.744118 0.966978
Si Si5 0.420790 0.897513 0.612044
Si Si6 0.398470 0.629417 0.605594
Si Si7 0.011177 0.956271 0.166478
Si Si8 0.004789 0.181387 0.615646
O O1 0.687744 0.645620 0.314435
O O2 0.766208 0.395342 0.137521
O O3 0.573464 0.463882 0.281720
O O4 0.432162 0.659309 0.085394
O O5 0.056811 0.307697 0.650097
O O6 0.000000 0.500000 0.500000
O O7 0.207204 0.200398 0.453759
O O8 0.564324 0.950223 0.690279
O O9 0.406634 0.900461 0.456833
O O10 0.142820 0.022141 0.237980
O O11 0.078187 0.837568 0.043843
O O12 0.191583 0.881762 0.890704
O O13 0.482669 0.734694 0.655838
O O14 0.204652 0.022999 0.606924
O O15 0.500000 0.500000 0.500000
O O16 0.176196 0.749321 0.520943
O O17 0.035422 0.861376 0.275732
#
# Coordination Sequence:
#
# PCOD9020380 Si02
#       8
#     2   2   2   2   2   2   2   2
#     4  11  23  43  62  91 132 170 215 249 321 394
#     4  11  22  37  64 100 136 161 199 272 347 376
#     4  10  22  37  65  96 133 160 202 270 333 378
#     4  10  25  42  67  82 121 190 218 249 294 385
#     4  10  22  35  58 102 126 160 193 258 351 368
#     4  12  22  36  65  98 135 158 204 273 331 382
#     4  11  22  44  68  90 125 166 230 254 306 385
#     4  11  23  38  65 101 124 164 206 275 330 370
#
# _framework density 20.532557000000001
#
# number of rings (size 3 to 8) (size 9 to 14) (size 15 to 20)
#    0.000    1.250    2.500    3.375    8.750    0.000 
#    0.000    1.250   11.000    0.000    0.000    0.000 
#    0.000    0.000    0.000    0.000    0.000    0.000 
#
# Total GULP energy -89257.479765 kJ/mol
# GULP energy per Si atom -5578.592485 kJ/mol
# Density = 2.048582 g / cm^3
# Si number density = 20.532557 Si / 1000 Ang^3
#
#
#
# Elastic Constant Matrix: (Units=GPa)
#
#
# Indices 1 2 3 4 5 6 
#
# 1 106.8955 37.2245 26.9664 2.2229 4.0000 21.4566
# 2 37.2245 93.0542 33.4729 0.4489 1.6754 10.5962
# 3 26.9664 33.4729 71.2703 -3.6196 6.4665 7.6421
# 4 2.2229 0.4489 -3.6196 42.7751 0.3532 -9.0371
# 5 4.0000 1.6754 6.4665 0.3532 6.1288 0.5875
# 6 21.4566 10.5962 7.6421 -9.0371 0.5875 36.3175
#
#
#
# Elastic Compliance Matrix: (Units=1/GPa)
#
#
# Indices 1 2 3 4 5 6 
#
# 1 0.012598 -0.003433 -0.002188 -0.002130 -0.004235 -0.006443
# 2 -0.003433 0.014228 -0.005706 -0.000740 0.004526 -0.001180
# 3 -0.002188 -0.005706 0.019249 0.001873 -0.017397 -0.000346
# 4 -0.002130 -0.000740 0.001873 0.025240 -0.002548 0.007402
# 5 -0.004235 0.004526 -0.017397 -0.002548 0.183074 0.001247
# 6 -0.006443 -0.001180 -0.000346 0.007402 0.001247 0.033580
#
#
# Mechanical properties :
#
#
# Convention : Reuss Voigt Hill
#
# Bulk Modulus (GPa) = 42.69072 51.83863 47.26467
# Shear Modulus (GPa) = 15.70209 28.61469 22.15839
#
# Velocity S-wave (km/s) = 2.76840 3.73718 3.28866
# Velocity P-wave (km/s) = 5.57275 6.62751 6.12288
#
# Compressibility (1/GPa) = 0.02342430
#
# Stress axis : x y z
#
# Youngs Moduli (GPa) = 79.37688 70.28209 51.95026
#
# Poissons Ratio (x) = 0.24125 0.11365
# Poissons Ratio (y) = 0.27246 0.29640
# Poissons Ratio (z) = 0.17365 0.40099
#
# Static dielectric constant tensor:
#      x y z
#    x 1.817740 -0.007280 0.011090 
#    y -0.007280 1.830270 0.006580 
#    z 0.011090 0.006580 1.746100 
# 
# From -- ./inp_files/426375.got.cif
#   From: 2010.05.17/outbox.cif.g08.bks.cpg/sg2_214_cif.got.tgz:426375.got - 2010.06.03 11:33:40.
