data_PCOD9020840
_publ_section_title
;
Structure prediction by ZEFSAII (Michael W. Deem and Ramdas Pophale) SiO2 
 PCOD9020840
Probable space group: P -1
;
_chemical_formula_sum "Si O2"
_cell_formula_units_Z 12
_cell_length_a 5.157211
_cell_length_b 9.884887
_cell_length_c 12.124849
_cell_angle_alpha 85.609311
_cell_angle_beta 64.627893
_cell_angle_gamma 77.997082
_cell_volume 546.220671
_symmetry_space_group_name_H-M "P -1"
_symmetry_group_IT_number 2
_symmetry_cell_setting 'triclinic'
loop_
_space_group_symop_operation_xyz
x,y,z
-x,-y,-z
loop_
_atom_site_type_symbol
_atom_site_label
_atom_site_fract_x
_atom_site_fract_y
_atom_site_fract_z
Si Si1 0.294725 0.560267 0.166615
Si Si2 0.836552 0.686246 0.063310
Si Si3 0.630067 0.267561 0.189576
Si Si4 0.332862 0.009590 0.914471
Si Si5 0.403363 0.323418 0.456443
Si Si6 0.770636 0.347917 0.579508
O O1 0.022860 0.599444 0.132042
O O2 0.385764 0.399261 0.189384
O O3 0.240257 0.641500 0.287512
O O4 0.584641 0.611802 0.066939
O O5 0.684486 0.834415 0.131852
O O6 0.070227 0.712005 0.926448
O O7 0.634196 0.275270 0.320393
O O8 0.553242 0.123193 0.172893
O O9 0.500000 0.000000 0.000000
O O10 0.000000 0.000000 0.000000
O O11 0.538376 0.285840 0.554270
O O12 0.303765 0.490345 0.454241
O O13 0.099157 0.275692 0.493418
#
# Coordination Sequence:
#
# PCOD9020840 Si02
#       6
#     2   2   2   2   2   2
#     4  11  22  36  59  85 117 147 183 232 279 338
#     4  11  22  37  56  85 119 148 178 228 293 337
#     4  10  22  37  60  87 111 146 193 233 274 328
#     4  10  22  39  56  78 115 154 186 221 274 340
#     4   9  18  32  54  78 107 140 187 233 263 319
#     4   9  18  33  51  79 109 144 180 225 281 315
#
# _framework density 21.969142999999999
#
# number of rings (size 3 to 8) (size 9 to 14) (size 15 to 20)
#    0.000    2.000    0.000    4.000    0.000   10.667 
#    0.000    0.000    0.000    6.000    0.000    0.000 
#    0.000    0.000    0.000    0.000    0.000    0.000 
#
# Total GULP energy -67013.464786 kJ/mol
# GULP energy per Si atom -5584.455399 kJ/mol
# Density = 2.191914 g / cm^3
# Si number density = 21.969143 Si / 1000 Ang^3
#
#
#
# Elastic Constant Matrix: (Units=GPa)
#
#
# Indices 1 2 3 4 5 6 
#
# 1 97.3285 5.2369 7.9965 5.9190 12.3402 -6.0546
# 2 5.2369 98.3235 -1.8634 29.0698 -0.3648 4.2406
# 3 7.9965 -1.8634 90.3612 7.6109 2.7175 -12.7909
# 4 5.9190 29.0698 7.6109 21.0601 3.4198 5.3955
# 5 12.3402 -0.3648 2.7175 3.4198 21.5787 -0.5602
# 6 -6.0546 4.2406 -12.7909 5.3955 -0.5602 15.8068
#
#
#
# Elastic Compliance Matrix: (Units=1/GPa)
#
#
# Indices 1 2 3 4 5 6 
#
# 1 0.011609 0.000501 0.000410 -0.004713 -0.005778 0.006048
# 2 0.000501 0.018992 0.004108 -0.030941 0.004658 0.009147
# 3 0.000410 0.004108 0.014681 -0.015383 0.000845 0.016215
# 4 -0.004713 -0.030941 -0.015383 0.110792 -0.014598 -0.044287
# 5 -0.005778 0.004658 0.000845 -0.014598 0.052037 0.004048
# 6 0.006048 0.009147 0.016215 -0.044287 0.004048 0.091508
#
#
# Mechanical properties :
#
#
# Convention : Reuss Voigt Hill
#
# Bulk Modulus (GPa) = 18.07683 34.30592 26.19138
# Shear Modulus (GPa) = 16.23260 29.99867 23.11564
#
# Velocity S-wave (km/s) = 2.72119 3.69926 3.24726
# Velocity P-wave (km/s) = 4.25668 5.82198 5.09974
#
# Compressibility (1/GPa) = 0.05531942
#
# Stress axis : x y z
#
# Youngs Moduli (GPa) = 86.13725 52.65309 68.11687
#
# Poissons Ratio (x) = -0.02636 -0.02792
# Poissons Ratio (y) = -0.04312 -0.27983
# Poissons Ratio (z) = -0.03530 -0.21631
#
# Static dielectric constant tensor:
#      x y z
#    x 1.799710 0.014640 -0.030620 
#    y 0.014640 1.827510 0.011020 
#    z -0.030620 0.011020 1.856250 
# 
# From -- ./inp_files/73201.got.cif
#   From: 2010.05.17/outbox.cif.g08.bks.cpg/sg2_37_cif.got.tgz:73201.got - 2010.06.03 11:33:40.
