data_PCOD9020535
_publ_section_title
;
Structure prediction by ZEFSAII (Michael W. Deem and Ramdas Pophale) SiO2 
 PCOD9020535
Probable space group: P -1
;
_chemical_formula_sum "Si O2"
_cell_formula_units_Z 16
_cell_length_a 16.457687
_cell_length_b 9.829554
_cell_length_c 8.821184
_cell_angle_alpha 120.667235
_cell_angle_beta 102.125952
_cell_angle_gamma 126.929309
_cell_volume 647.649529
_symmetry_space_group_name_H-M "P -1"
_symmetry_group_IT_number 2
_symmetry_cell_setting 'triclinic'
loop_
_space_group_symop_operation_xyz
x,y,z
-x,-y,-z
loop_
_atom_site_type_symbol
_atom_site_label
_atom_site_fract_x
_atom_site_fract_y
_atom_site_fract_z
Si Si1 0.244933 0.431428 0.911466
Si Si2 0.388111 0.624617 0.411358
Si Si3 0.528489 0.713888 0.049273
Si Si4 0.687052 0.852472 0.913251
Si Si5 0.110612 0.319264 0.282518
Si Si6 0.750337 0.209938 0.890670
Si Si7 0.857362 0.315761 0.661608
Si Si8 0.043036 0.818398 0.558330
O O1 0.303686 0.527763 0.163710
O O2 0.388082 0.603371 0.965792
O O3 0.188072 0.514549 0.893132
O O4 0.119691 0.092684 0.665054
O O5 0.372028 0.411689 0.315579
O O6 0.287020 0.552419 0.455174
O O7 0.566603 0.949770 0.646306
O O8 0.686656 0.033274 0.361118
O O9 0.500000 0.500000 0.000000
O O10 0.555110 0.721769 0.888614
O O11 0.744744 0.067960 0.935586
O O12 0.824307 0.031529 0.184815
O O13 0.073884 0.409418 0.212006
O O14 0.081732 0.324967 0.447298
O O15 0.000000 0.000000 0.000000
O O16 0.826236 0.265831 0.799359
O O17 0.954579 0.326519 0.638137
#
# Coordination Sequence:
#
# PCOD9020535 Si02
#       8
#     2   2   2   2   2   2   2   2
#     4  11  19  35  61  85 119 161 196 245 295 361
#     4  11  20  36  60  89 117 161 201 252 291 360
#     4  11  18  36  62  89 123 157 198 246 303 359
#     4  10  22  36  59  93 125 160 187 256 313 361
#     4  12  21  38  64  90 119 157 221 249 278 352
#     4  12  22  36  60 100 122 148 202 251 321 356
#     4  11  21  35  65  92 116 160 201 257 292 356
#     4  10  22  41  63  87 118 165 208 239 296 357
#
# _framework density 24.704722
#
# number of rings (size 3 to 8) (size 9 to 14) (size 15 to 20)
#    0.000    1.000    8.750    1.875    0.000    0.500 
#    0.000    0.625    0.000    0.750    0.000    0.000 
#    0.000    0.000    0.000    0.000    0.000    0.000 
#
# Total GULP energy -89697.530079 kJ/mol
# GULP energy per Si atom -5606.095630 kJ/mol
# Density = 2.464849 g / cm^3
# Si number density = 24.704722 Si / 1000 Ang^3
#
#
#
# Elastic Constant Matrix: (Units=GPa)
#
#
# Indices 1 2 3 4 5 6 
#
# 1 207.0510 98.6331 34.9534 -4.6290 -43.9230 27.9933
# 2 98.6331 195.3868 61.7621 10.2339 -50.7276 1.2260
# 3 34.9534 61.7621 83.2898 4.5102 -32.5973 4.7566
# 4 -4.6290 10.2339 4.5102 42.8312 1.1454 -13.9009
# 5 -43.9230 -50.7276 -32.5973 1.1454 41.3137 1.0333
# 6 27.9933 1.2260 4.7566 -13.9009 1.0333 67.0771
#
#
#
# Elastic Compliance Matrix: (Units=1/GPa)
#
#
# Indices 1 2 3 4 5 6 
#
# 1 0.007585 -0.002706 0.001289 0.000112 0.005837 -0.003274
# 2 -0.002706 0.009129 -0.003305 -0.002059 0.005764 0.000681
# 3 0.001289 -0.003305 0.019060 -0.002217 0.012474 -0.002481
# 4 0.000112 -0.002059 -0.002217 0.026044 -0.005020 0.005623
# 5 0.005837 0.005764 0.012474 -0.005020 0.047600 -0.005199
# 6 -0.003274 0.000681 -0.002481 0.005623 -0.005199 0.017683
#
#
# Mechanical properties :
#
#
# Convention : Reuss Voigt Hill
#
# Bulk Modulus (GPa) = 37.98144 97.38053 67.68098
# Shear Modulus (GPa) = 34.40638 49.60300 42.00469
#
# Velocity S-wave (km/s) = 3.73594 4.48575 4.12791
# Velocity P-wave (km/s) = 5.83243 8.14448 7.08343
#
# Compressibility (1/GPa) = 0.02632865
#
# Stress axis : x y z
#
# Youngs Moduli (GPa) = 131.84677 109.54013 52.46559
#
# Poissons Ratio (x) = 0.29644 -0.06763
# Poissons Ratio (y) = 0.35680 0.17342
# Poissons Ratio (z) = -0.16995 0.36206
#
# Static dielectric constant tensor:
#      x y z
#    x 1.973060 -0.007250 0.085090 
#    y -0.007250 1.908580 -0.017950 
#    z 0.085090 -0.017950 2.076150 
# 
# From -- ./inp_files/329445.got.cif
#   From: 2010.05.17/outbox.cif.g08.bks.cpg/sg2_165_cif.got.tgz:329445.got - 2010.06.03 11:33:40.
