data_PCOD9020507
_publ_section_title
;
Structure prediction by ZEFSAII (Michael W. Deem and Ramdas Pophale) SiO2 
 PCOD9020507
Probable space group: P -1
;
_chemical_formula_sum "Si O2"
_cell_formula_units_Z 14
_cell_length_a 21.656102
_cell_length_b 5.182265
_cell_length_c 6.209400
_cell_angle_alpha 89.184838
_cell_angle_beta 129.942511
_cell_angle_gamma 89.084725
_cell_volume 533.939162
_symmetry_space_group_name_H-M "P -1"
_symmetry_group_IT_number 2
_symmetry_cell_setting 'triclinic'
loop_
_space_group_symop_operation_xyz
x,y,z
-x,-y,-z
loop_
_atom_site_type_symbol
_atom_site_label
_atom_site_fract_x
_atom_site_fract_y
_atom_site_fract_z
Si Si1 0.983256 0.707121 0.653439
Si Si2 0.301602 0.801452 0.287748
Si Si3 0.127769 0.536019 0.216535
Si Si4 0.728567 0.586963 0.160899
Si Si5 0.156178 0.119527 0.904173
Si Si6 0.592311 0.962314 0.783814
Si Si7 0.443864 0.745691 0.913061
O O1 0.927061 0.578836 0.711844
O O2 0.926370 0.928592 0.409298
O O3 0.000000 0.500000 0.500000
O O4 0.066119 0.754406 0.968722
O O5 0.364569 0.694840 0.599056
O O6 0.356094 0.030915 0.316873
O O7 0.288389 0.611046 0.064722
O O8 0.213271 0.903629 0.147982
O O9 0.215241 0.548876 0.528164
O O10 0.141588 0.336045 0.051374
O O11 0.787324 0.787179 0.168594
O O12 0.644936 0.742602 0.032966
O O13 0.500000 0.000000 0.500000
O O14 0.592154 0.208008 0.933781
O O15 0.500000 0.500000 0.000000
O O16 0.500000 0.000000 0.000000
#
# Coordination Sequence:
#
# PCOD9020507 Si02
#       7
#     2   2   2   2   2   2   2
#     4   8  15  30  59  90 116 161 205 253 313 381
#     4  11  24  40  62  88 125 164 211 270 324 390
#     4   9  16  33  59  84 121 160 204 256 318 379
#     4  10  22  36  58  88 121 162 210 261 319 384
#     4   9  19  36  57  86 122 159 208 255 318 381
#     4  11  23  42  64  87 122 164 214 267 327 386
#     4  12  27  43  66  95 126 168 220 272 331 394
#
# _framework density 26.220217999999999
#
# number of rings (size 3 to 8) (size 9 to 14) (size 15 to 20)
#    0.000    2.000    1.429    1.714    4.000    2.286 
#    0.000    0.714    0.000   29.143    0.000    0.000 
#    0.000    0.000    0.000    0.000    0.000    0.000 
#
# Total GULP energy -78045.051768 kJ/mol
# GULP energy per Si atom -5574.646555 kJ/mol
# Density = 2.616054 g / cm^3
# Si number density = 26.220218 Si / 1000 Ang^3
#
#
#
# Elastic Constant Matrix: (Units=GPa)
#
#
# Indices 1 2 3 4 5 6 
#
# 1 124.1511 25.7323 49.1899 -27.1769 41.3065 -15.1343
# 2 25.7323 98.8721 64.5695 -16.8657 21.9640 -29.1915
# 3 49.1899 64.5695 312.4078 -45.6782 60.6948 -28.0500
# 4 -27.1769 -16.8657 -45.6782 43.1924 -11.2209 8.1251
# 5 41.3065 21.9640 60.6948 -11.2209 59.4256 -6.1183
# 6 -15.1343 -29.1915 -28.0500 8.1251 -6.1183 38.9476
#
#
#
# Elastic Compliance Matrix: (Units=1/GPa)
#
#
# Indices 1 2 3 4 5 6 
#
# 1 0.011901 -0.000105 0.000697 0.005711 -0.007593 0.002664
# 2 -0.000105 0.014650 -0.001428 0.001747 -0.002612 0.009136
# 3 0.000697 -0.001428 0.004830 0.003695 -0.004061 0.001270
# 4 0.005711 0.001747 0.003695 0.030769 -0.002645 -0.000645
# 5 -0.007593 -0.002612 -0.004061 -0.002645 0.026397 -0.003135
# 6 0.002664 0.009136 0.001270 -0.000645 -0.003135 0.034115
#
#
# Mechanical properties :
#
#
# Convention : Reuss Voigt Hill
#
# Bulk Modulus (GPa) = 33.66059 90.49049 62.07554
# Shear Modulus (GPa) = 37.24762 54.70909 45.97835
#
# Velocity S-wave (km/s) = 3.77313 4.57280 4.19208
# Velocity P-wave (km/s) = 5.64336 7.90363 6.86713
#
# Compressibility (1/GPa) = 0.02970834
#
# Stress axis : x y z
#
# Youngs Moduli (GPa) = 84.02303 68.26078 207.05823
#
# Poissons Ratio (x) = 0.00719 -0.14437
# Poissons Ratio (y) = 0.00886 0.29569
# Poissons Ratio (z) = -0.05858 0.09748
#
# Static dielectric constant tensor:
#      x y z
#    x 2.370310 0.247750 -0.031170 
#    y 0.247750 2.126500 -0.114270 
#    z -0.031170 -0.114270 1.974340 
# 
# From -- ./inp_files/48782.got.cif
#   From: 2010.05.17/outbox.cif.g08.bks.cpg/sg2_25_cif.got.tgz:48782.got - 2010.06.03 11:33:40.
