data_PCOD9020373
_publ_section_title
;
Structure prediction by ZEFSAII (Michael W. Deem and Ramdas Pophale) SiO2 
 PCOD9020373
Probable space group: P -1
;
_chemical_formula_sum "Si O2"
_cell_formula_units_Z 14
_cell_length_a 10.820765
_cell_length_b 11.010453
_cell_length_c 10.871838
_cell_angle_alpha 81.116697
_cell_angle_beta 63.085316
_cell_angle_gamma 132.083271
_cell_volume 618.994379
_symmetry_space_group_name_H-M "P -1"
_symmetry_group_IT_number 2
_symmetry_cell_setting 'triclinic'
loop_
_space_group_symop_operation_xyz
x,y,z
-x,-y,-z
loop_
_atom_site_type_symbol
_atom_site_label
_atom_site_fract_x
_atom_site_fract_y
_atom_site_fract_z
Si Si1 0.763730 0.438407 0.551817
Si Si2 0.528669 0.770889 0.643510
Si Si3 0.871576 0.237193 0.465557
Si Si4 0.745318 0.834684 0.295806
Si Si5 0.082177 0.608594 0.811807
Si Si6 0.907350 0.736526 0.081630
Si Si7 0.780078 0.195781 0.893909
O O1 0.757017 0.283736 0.559847
O O2 0.504871 0.303565 0.641617
O O3 0.850096 0.548650 0.630456
O O4 0.003783 0.665519 0.327487
O O5 0.698971 0.822047 0.462274
O O6 0.341570 0.723861 0.659786
O O7 0.316610 0.517651 0.830566
O O8 0.699797 0.990081 0.614271
O O9 0.867453 0.233296 0.317254
O O10 0.793925 0.732872 0.244404
O O11 0.979879 0.089723 0.098288
O O12 0.845951 0.380622 0.879181
O O13 0.000000 0.500000 0.000000
O O14 0.140677 0.832566 0.022975
O O15 0.500000 0.000000 0.000000
#
# Coordination Sequence:
#
# PCOD9020373 Si02
#       7
#     2   2   2   2   2   2   2
#     4  10  22  40  62  91 130 173 205 262 331 379
#     4  11  22  38  63  91 126 167 214 270 315 375
#     4  10  22  37  59  95 128 166 205 267 325 374
#     4  11  22  43  68  87 132 171 224 257 313 390
#     4  10  22  35  56  94 129 166 202 262 327 371
#     4  10  24  40  67  96 120 175 219 268 309 383
#     4  10  22  37  61  96 126 165 208 265 323 380
#
# _framework density 22.617329000000002
#
# number of rings (size 3 to 8) (size 9 to 14) (size 15 to 20)
#    0.000    1.714    4.286    0.857   12.000    0.000 
#    0.000    0.714    0.000    1.714    0.000    0.000 
#    0.000    0.000    0.000    0.000    0.000    0.000 
#
# Total GULP energy -77945.702060 kJ/mol
# GULP energy per Si atom -5567.550147 kJ/mol
# Density = 2.256585 g / cm^3
# Si number density = 22.617329 Si / 1000 Ang^3
#
#
#
# Elastic Constant Matrix: (Units=GPa)
#
#
# Indices 1 2 3 4 5 6 
#
# 1 36.7212 17.6872 8.0213 -8.9962 -1.3096 -9.8393
# 2 17.6872 120.1787 35.8770 -29.3224 -6.2898 -8.7729
# 3 8.0213 35.8770 85.1028 -10.3774 5.5878 -0.6051
# 4 -8.9962 -29.3224 -10.3774 33.7885 2.3947 5.0794
# 5 -1.3096 -6.2898 5.5878 2.3947 40.2729 5.3977
# 6 -9.8393 -8.7729 -0.6051 5.0794 5.3977 29.7053
#
#
#
# Elastic Compliance Matrix: (Units=1/GPa)
#
#
# Indices 1 2 3 4 5 6 
#
# 1 0.032356 -0.002618 -0.001272 0.004610 -0.000695 0.009256
# 2 -0.002618 0.012062 -0.003933 0.008308 0.001733 0.000880
# 3 -0.001272 -0.003933 0.013783 0.000806 -0.002483 -0.000989
# 4 0.004610 0.008308 0.000806 0.038702 -0.000630 -0.002506
# 5 -0.000695 0.001733 -0.002483 -0.000630 0.026050 -0.004395
# 6 0.009256 0.000880 -0.000989 -0.002506 -0.004395 0.038197
#
#
# Mechanical properties :
#
#
# Convention : Reuss Voigt Hill
#
# Bulk Modulus (GPa) = 23.49936 40.57483 32.03709
# Shear Modulus (GPa) = 26.18067 32.78116 29.48092
#
# Velocity S-wave (km/s) = 3.40597 3.81121 3.61427
# Velocity P-wave (km/s) = 5.08724 6.11111 5.62253
#
# Compressibility (1/GPa) = 0.04255436
#
# Stress axis : x y z
#
# Youngs Moduli (GPa) = 30.90622 82.90324 72.55479
#
# Poissons Ratio (x) = 0.21704 0.09232
# Poissons Ratio (y) = 0.08091 0.28534
# Poissons Ratio (z) = 0.03933 0.32604
#
# Static dielectric constant tensor:
#      x y z
#    x 2.141360 -0.041570 0.325920 
#    y -0.041570 1.931420 0.046760 
#    z 0.325920 0.046760 2.235610 
# 
# From -- ./inp_files/256097.got.cif
#   From: 2010.05.17/outbox.cif.g08.bks.cpg/sg2_129_cif.got.tgz:256097.got - 2010.06.03 11:33:40.
