data_PCOD9020457
_publ_section_title
;
Structure prediction by ZEFSAII (Michael W. Deem and Ramdas Pophale) SiO2 
 PCOD9020457
Probable space group: P -1
;
_chemical_formula_sum "Si O2"
_cell_formula_units_Z 16
_cell_length_a 8.586021
_cell_length_b 17.513185
_cell_length_c 8.911684
_cell_angle_alpha 51.584366
_cell_angle_beta 51.593823
_cell_angle_gamma 68.984453
_cell_volume 821.950605
_symmetry_space_group_name_H-M "P -1"
_symmetry_group_IT_number 2
_symmetry_cell_setting 'triclinic'
loop_
_space_group_symop_operation_xyz
x,y,z
-x,-y,-z
loop_
_atom_site_type_symbol
_atom_site_label
_atom_site_fract_x
_atom_site_fract_y
_atom_site_fract_z
Si Si1 0.583836 0.126595 0.880314
Si Si2 0.763860 0.419146 0.370933
Si Si3 0.159193 0.021381 0.243307
Si Si4 0.287334 0.711496 0.164120
Si Si5 0.950130 0.777223 0.066689
Si Si6 0.621420 0.404878 0.014714
Si Si7 0.984962 0.609570 0.040133
Si Si8 0.526297 0.707415 0.478585
O O1 0.608709 0.200184 0.914512
O O2 0.549861 0.194814 0.671763
O O3 0.778571 0.067179 0.794543
O O4 0.383022 0.060118 0.112305
O O5 0.810137 0.357708 0.565190
O O6 0.798669 0.533307 0.240829
O O7 0.553262 0.379769 0.477410
O O8 0.915180 0.393117 0.179111
O O9 0.076643 0.110175 0.088183
O O10 0.000000 0.000000 0.500000
O O11 0.138404 0.756617 0.079558
O O12 0.412251 0.639233 0.075726
O O13 0.950959 0.718616 0.980295
O O14 0.760508 0.725596 0.324250
O O15 0.557857 0.321372 0.274531
O O16 0.500000 0.500000 0.000000
O O17 0.853125 0.428097 0.890114
#
# Coordination Sequence:
#
# PCOD9020457 Si02
#       8
#     2   2   2   2   2   2   2   2
#     4   9  21  45  62  89 120 152 201 251 301 359
#     4   9  19  37  55  81 113 163 190 241 276 348
#     4  10  22  40  70  88 114 156 200 247 310 369
#     4  10  22  38  60  85 124 151 193 249 293 343
#     4  10  22  37  60  89 114 153 196 241 305 354
#     4  10  22  36  54  84 124 162 195 233 298 348
#     4   9  20  37  56  81 119 158 199 233 293 349
#     4   9  20  39  57  82 118 162 189 242 290 356
#
# _framework density 19.465890999999999
#
# number of rings (size 3 to 8) (size 9 to 14) (size 15 to 20)
#    0.000    2.500    0.000    0.000   10.500    2.000 
#   20.250    0.625    0.000    0.000    0.000    0.000 
#    0.000    0.000    0.000    0.000    0.000    0.000 
#
# Total GULP energy -89155.341967 kJ/mol
# GULP energy per Si atom -5572.208873 kJ/mol
# Density = 1.942159 g / cm^3
# Si number density = 19.465891 Si / 1000 Ang^3
#
#
#
# Elastic Constant Matrix: (Units=GPa)
#
#
# Indices 1 2 3 4 5 6 
#
# 1 18.7427 19.5770 15.2587 -3.5190 6.9530 6.3695
# 2 19.5770 113.4391 18.7170 4.8094 5.7940 13.0935
# 3 15.2587 18.7170 79.9854 -1.5336 -5.2545 15.8261
# 4 -3.5190 4.8094 -1.5336 15.3856 3.7419 1.8028
# 5 6.9530 5.7940 -5.2545 3.7419 23.6017 5.9226
# 6 6.3695 13.0935 15.8261 1.8028 5.9226 23.3560
#
#
#
# Elastic Compliance Matrix: (Units=1/GPa)
#
#
# Indices 1 2 3 4 5 6 
#
# 1 0.103374 -0.014377 -0.017705 0.035339 -0.036036 -0.001724
# 2 -0.014377 0.011699 0.000797 -0.007325 0.003586 -0.003522
# 3 -0.017705 0.000797 0.018645 -0.004208 0.012631 -0.011130
# 4 0.035339 -0.007325 -0.004208 0.080572 -0.021456 -0.003458
# 5 -0.036036 0.003586 0.012631 -0.021456 0.062037 -0.014817
# 6 -0.001724 -0.003522 -0.011130 -0.003458 -0.014817 0.056826
#
#
# Mechanical properties :
#
#
# Convention : Reuss Voigt Hill
#
# Bulk Modulus (GPa) = 14.05528 35.47475 24.76502
# Shear Modulus (GPa) = 11.92068 23.04298 17.48183
#
# Velocity S-wave (km/s) = 2.47733 3.44432 3.00004
# Velocity P-wave (km/s) = 3.92671 5.83793 4.97496
#
# Compressibility (1/GPa) = 0.07114764
#
# Stress axis : x y z
#
# Youngs Moduli (GPa) = 9.67358 85.47819 53.63470
#
# Poissons Ratio (x) = 1.22896 0.94959
# Poissons Ratio (y) = 0.13908 -0.04275
# Poissons Ratio (z) = 0.17127 -0.06813
#
# Static dielectric constant tensor:
#      x y z
#    x 1.695590 -0.014210 -0.037100 
#    y -0.014210 1.742810 0.027770 
#    z -0.037100 0.027770 1.690030 
# 
# From -- ./inp_files/215646.got.cif
#   From: 2010.05.17/outbox.cif.g08.bks.cpg/sg2_108_cif.got.tgz:215646.got - 2010.06.03 11:33:40.
