data_PCOD9020588
_publ_section_title
;
Structure prediction by ZEFSAII (Michael W. Deem and Ramdas Pophale) SiO2 
 PCOD9020588
Probable space group: P -1
;
_chemical_formula_sum "Si O2"
_cell_formula_units_Z 16
_cell_length_a 11.892613
_cell_length_b 14.926699
_cell_length_c 20.731535
_cell_angle_alpha 31.269965
_cell_angle_beta 31.297654
_cell_angle_gamma 52.884573
_cell_volume 875.549486
_symmetry_space_group_name_H-M "P -1"
_symmetry_group_IT_number 2
_symmetry_cell_setting 'triclinic'
loop_
_space_group_symop_operation_xyz
x,y,z
-x,-y,-z
loop_
_atom_site_type_symbol
_atom_site_label
_atom_site_fract_x
_atom_site_fract_y
_atom_site_fract_z
Si Si1 0.261391 0.571208 0.507255
Si Si2 0.544602 0.738524 0.617990
Si Si3 0.946756 0.652543 0.519573
Si Si4 0.339108 0.069901 0.850846
Si Si5 0.838782 0.192890 0.158487
Si Si6 0.400815 0.382089 0.810254
Si Si7 0.910955 0.169862 0.994732
Si Si8 0.685301 0.223123 0.849660
O O1 0.446901 0.709860 0.384890
O O2 0.426002 0.568964 0.367663
O O3 0.095686 0.664680 0.503096
O O4 0.085092 0.358630 0.751323
O O5 0.726865 0.704623 0.597470
O O6 0.305875 0.719272 0.783316
O O7 0.475499 0.578680 0.693725
O O8 0.693699 0.958857 0.383203
O O9 0.835256 0.427311 0.688913
O O10 0.134592 0.778682 0.293359
O O11 0.079033 0.066895 0.992727
O O12 0.309251 0.971343 0.856664
O O13 0.383001 0.949869 0.960234
O O14 0.836483 0.229806 0.060779
O O15 0.118760 0.281018 0.990280
O O16 0.467072 0.241744 0.908869
#
# Coordination Sequence:
#
# PCOD9020588 Si02
#       8
#     2   2   2   2   2   2   2   2
#     4  11  22  35  58  92 114 147 186 228 296 342
#     4  10  23  39  60  84 112 152 191 238 275 325
#     4   9  18  34  57  83 118 142 183 240 282 330
#     4  11  22  34  57  84 118 153 178 229 286 341
#     4  11  23  40  59  84 112 155 196 223 280 340
#     4  10  22  36  62  87 117 140 186 246 282 332
#     4  11  24  37  54  85 123 148 187 228 283 344
#     4   9  18  34  56  89 113 143 182 235 295 325
#
# _framework density 18.274239000000001
#
# number of rings (size 3 to 8) (size 9 to 14) (size 15 to 20)
#    0.000    1.750    2.500    2.250    5.250    1.000 
#    0.000    0.625    0.000    0.750    0.000    0.000 
#    0.000    0.000    0.000    0.000    0.000    0.000 
#
# Total GULP energy -89380.736511 kJ/mol
# GULP energy per Si atom -5586.296032 kJ/mol
# Density = 1.823265 g / cm^3
# Si number density = 18.274239 Si / 1000 Ang^3
#
#
#
# Elastic Constant Matrix: (Units=GPa)
#
#
# Indices 1 2 3 4 5 6 
#
# 1 109.8032 48.0762 47.3685 4.5254 -12.0227 5.2721
# 2 48.0762 61.2549 41.0313 2.4977 -4.0525 -5.0299
# 3 47.3685 41.0313 51.7428 7.6761 -8.8714 3.5739
# 4 4.5254 2.4977 7.6761 23.7483 0.6283 -5.8836
# 5 -12.0227 -4.0525 -8.8714 0.6283 24.3276 -8.5480
# 6 5.2721 -5.0299 3.5739 -5.8836 -8.5480 22.5857
#
#
#
# Elastic Compliance Matrix: (Units=1/GPa)
#
#
# Indices 1 2 3 4 5 6 
#
# 1 0.016431 -0.007228 -0.008560 -0.000467 0.002683 -0.003197
# 2 -0.007228 0.044327 -0.031841 0.011787 -0.001376 0.019147
# 3 -0.008560 -0.031841 0.057214 -0.017761 0.005988 -0.016506
# 4 -0.000467 0.011787 -0.017761 0.051437 0.000674 0.019199
# 5 0.002683 -0.001376 0.005988 0.000674 0.050483 0.017401
# 6 -0.003197 0.019147 -0.016506 0.019199 0.017401 0.063485
#
#
# Mechanical properties :
#
#
# Convention : Reuss Voigt Hill
#
# Bulk Modulus (GPa) = 44.02575 55.08366 49.55470
# Shear Modulus (GPa) = 12.94641 19.88732 16.41687
#
# Velocity S-wave (km/s) = 2.66456 3.30247 3.00052
# Velocity P-wave (km/s) = 5.79746 6.68954 6.25941
#
# Compressibility (1/GPa) = 0.02271398
#
# Stress axis : x y z
#
# Youngs Moduli (GPa) = 60.85906 22.55957 17.47824
#
# Poissons Ratio (x) = 0.16306 0.14962
# Poissons Ratio (y) = 0.43989 0.55652
# Poissons Ratio (z) = 0.52098 0.71831
#
# Static dielectric constant tensor:
#      x y z
#    x 1.647440 -0.002160 -0.011520 
#    y -0.002160 1.620960 -0.028120 
#    z -0.011520 -0.028120 1.626380 
# 
# From -- ./inp_files/391163.got.cif
#   From: 2010.05.17/outbox.cif.g08.bks.cpg/sg2_196_cif.got.tgz:391163.got - 2010.06.03 11:33:40.
