data_PCOD9020850
_publ_section_title
;
Structure prediction by ZEFSAII (Michael W. Deem and Ramdas Pophale) SiO2 
 PCOD9020850
Probable space group: P -1
;
_chemical_formula_sum "Si O2"
_cell_formula_units_Z 16
_cell_length_a 17.501164
_cell_length_b 24.760309
_cell_length_c 7.999611
_cell_angle_alpha 148.186647
_cell_angle_beta 135.807437
_cell_angle_gamma 23.761095
_cell_volume 705.551281
_symmetry_space_group_name_H-M "P -1"
_symmetry_group_IT_number 2
_symmetry_cell_setting 'triclinic'
loop_
_space_group_symop_operation_xyz
x,y,z
-x,-y,-z
loop_
_atom_site_type_symbol
_atom_site_label
_atom_site_fract_x
_atom_site_fract_y
_atom_site_fract_z
Si Si1 0.578020 0.529180 0.079874
Si Si2 0.061728 0.873799 0.976760
Si Si3 0.653366 0.492450 0.725659
Si Si4 0.979258 0.240112 0.123763
Si Si5 0.607308 0.109827 0.299874
Si Si6 0.742403 0.091542 0.786322
Si Si7 0.906135 0.456721 0.874591
Si Si8 0.334854 0.207898 0.863595
O O1 0.788110 0.403932 0.144960
O O2 0.429788 0.740807 0.403647
O O3 0.500000 0.500000 0.000000
O O4 0.625476 0.468167 0.801281
O O5 0.253191 0.662867 0.658824
O O6 0.028890 0.868558 0.100536
O O7 0.108265 0.954228 0.213193
O O8 0.880689 0.964670 0.827651
O O9 0.801019 0.475097 0.905593
O O10 0.441555 0.700124 0.886292
O O11 0.955550 0.336800 0.492043
O O12 0.186167 0.093482 0.975926
O O13 0.640367 0.086870 0.493699
O O14 0.441390 0.181842 0.118469
O O15 0.122684 0.332306 0.927504
O O16 0.747423 0.657291 0.065541
O O17 0.500000 0.000000 0.500000
#
# Coordination Sequence:
#
# PCOD9020850 Si02
#       8
#     2   2   2   2   2   2   2   2
#     4  11  24  41  63  96 138 177 213 265 318 384
#     4  10  22  37  60  90 129 174 215 255 313 383
#     4  10  22  40  64  91 133 169 217 264 323 379
#     4  11  21  37  64  92 126 168 216 264 317 386
#     4  11  23  39  64  95 130 168 219 268 325 385
#     4  10  22  38  56  89 132 170 210 261 313 380
#     4  10  23  40  67  98 123 164 221 269 331 393
#     4  11  22  43  71  97 124 167 217 276 334 391
#
# _framework density 22.677299999999999
#
# number of rings (size 3 to 8) (size 9 to 14) (size 15 to 20)
#    0.000    1.500    2.500    2.625    1.750    5.000 
#    0.000    2.500    0.000    6.750    0.000    0.000 
#    0.000    0.000    0.000    0.000    0.000    0.000 
#
# Total GULP energy -89276.416811 kJ/mol
# GULP energy per Si atom -5579.776051 kJ/mol
# Density = 2.262569 g / cm^3
# Si number density = 22.677300 Si / 1000 Ang^3
#
#
#
# Elastic Constant Matrix: (Units=GPa)
#
#
# Indices 1 2 3 4 5 6 
#
# 1 55.5067 1.5406 -1.8641 -2.8938 -6.1737 -12.0897
# 2 1.5406 148.8040 22.7305 -14.0228 -18.9633 -9.8085
# 3 -1.8641 22.7305 65.6325 -4.6363 -10.1910 -5.3123
# 4 -2.8938 -14.0228 -4.6363 36.2242 -6.1783 3.0542
# 5 -6.1737 -18.9633 -10.1910 -6.1783 16.8333 -0.0118
# 6 -12.0897 -9.8085 -5.3123 3.0542 -0.0118 27.8443
#
#
#
# Elastic Compliance Matrix: (Units=1/GPa)
#
#
# Indices 1 2 3 4 5 6 
#
# 1 0.022193 0.002226 0.003261 0.004605 0.014319 0.010543
# 2 0.002226 0.009169 -0.000425 0.005584 0.012940 0.003508
# 3 0.003261 -0.000425 0.018198 0.004339 0.013331 0.004268
# 4 0.004605 0.005584 0.004339 0.034579 0.023298 0.001011
# 5 0.014319 0.012940 0.013331 0.023298 0.095864 0.010804
# 6 0.010543 0.003508 0.004268 0.001011 0.010804 0.042435
#
#
# Mechanical properties :
#
#
# Convention : Reuss Voigt Hill
#
# Bulk Modulus (GPa) = 16.75484 34.97302 25.86393
# Shear Modulus (GPa) = 21.53253 32.68276 27.10765
#
# Velocity S-wave (km/s) = 3.08477 3.80045 3.46116
# Velocity P-wave (km/s) = 4.48243 5.89181 5.23476
#
# Compressibility (1/GPa) = 0.05968426
#
# Stress axis : x y z
#
# Youngs Moduli (GPa) = 45.06009 109.06878 54.95144
#
# Poissons Ratio (x) = -0.24275 -0.17922
# Poissons Ratio (y) = -0.10029 0.02333
# Poissons Ratio (z) = -0.14696 0.04630
#
# Static dielectric constant tensor:
#      x y z
#    x 1.931410 0.013760 0.031480 
#    y 0.013760 1.959190 -0.092290 
#    z 0.031480 -0.092290 1.887290 
# 
# From -- ./inp_files/350318.got.cif
#   From: 2010.05.17/outbox.cif.g08.bks.cpg/sg2_176_cif.got.tgz:350318.got - 2010.06.03 11:33:40.
