data_PCOD9020871
_publ_section_title
;
Structure prediction by ZEFSAII (Michael W. Deem and Ramdas Pophale) SiO2 
 PCOD9020871
Probable space group: P -1
;
_chemical_formula_sum "Si O2"
_cell_formula_units_Z 16
_cell_length_a 13.466126
_cell_length_b 15.094070
_cell_length_c 9.453523
_cell_angle_alpha 53.052583
_cell_angle_beta 136.477032
_cell_angle_gamma 150.266871
_cell_volume 653.977252
_symmetry_space_group_name_H-M "P -1"
_symmetry_group_IT_number 2
_symmetry_cell_setting 'triclinic'
loop_
_space_group_symop_operation_xyz
x,y,z
-x,-y,-z
loop_
_atom_site_type_symbol
_atom_site_label
_atom_site_fract_x
_atom_site_fract_y
_atom_site_fract_z
Si Si1 0.787964 0.054616 0.223501
Si Si2 0.506540 0.669638 0.055019
Si Si3 0.276836 0.374733 0.486132
Si Si4 0.212036 0.940940 0.479463
Si Si5 0.995334 0.039526 0.117798
Si Si6 0.921263 0.674961 0.171675
Si Si7 0.270326 0.790705 0.203236
Si Si8 0.325752 0.641580 0.185614
O O1 0.809647 0.132647 0.320970
O O2 0.057626 0.184523 0.363363
O O3 0.595124 0.847051 0.258092
O O4 0.707790 0.082486 0.985772
O O5 0.648148 0.646298 0.277139
O O6 0.724492 0.880294 0.040245
O O7 0.329900 0.604554 0.060268
O O8 0.333262 0.533370 0.879908
O O9 0.500000 0.500000 0.500000
O O10 0.256770 0.494576 0.349845
O O11 0.131270 0.019251 0.347432
O O12 0.052529 0.789184 0.341070
O O13 0.486032 0.099290 0.580765
O O14 0.000000 0.000000 0.000000
O O15 0.104861 0.227393 0.041506
O O16 0.091823 0.700873 0.231481
O O17 0.206462 0.668568 0.125930
#
# Coordination Sequence:
#
# PCOD9020871 Si02
#       8
#     2   2   2   2   2   2   2   2
#     4  11  22  42  67  94 133 177 222 280 330 391
#     4  11  23  40  66 104 134 176 226 279 341 400
#     4  10  22  37  61 100 131 172 219 271 338 395
#     4  10  22  43  68  99 131 181 224 275 337 401
#     4  10  23  44  69  98 133 179 228 277 336 405
#     4  11  25  43  71  97 143 176 224 281 337 406
#     4  11  23  44  71 100 133 187 224 279 340 400
#     4  10  23  39  65  96 138 173 224 272 337 401
#
# _framework density 24.465682999999999
#
# number of rings (size 3 to 8) (size 9 to 14) (size 15 to 20)
#    0.000    1.500    1.250    4.125    3.500    6.000 
#    0.000    0.000    0.000   10.500    0.000    0.000 
#    0.000    0.000    0.000    0.000    0.000    0.000 
#
# Total GULP energy -89217.954842 kJ/mol
# GULP energy per Si atom -5576.122178 kJ/mol
# Density = 2.441000 g / cm^3
# Si number density = 24.465683 Si / 1000 Ang^3
#
#
#
# Elastic Constant Matrix: (Units=GPa)
#
#
# Indices 1 2 3 4 5 6 
#
# 1 83.5634 -3.1637 8.7132 -6.5008 14.0294 -13.3104
# 2 -3.1637 110.6142 19.5812 11.1713 13.2283 -6.0120
# 3 8.7132 19.5812 58.6347 24.5351 2.1870 -13.3889
# 4 -6.5008 11.1713 24.5351 32.2839 -1.5209 -4.9249
# 5 14.0294 13.2283 2.1870 -1.5209 38.0097 3.7132
# 6 -13.3104 -6.0120 -13.3889 -4.9249 3.7132 34.5287
#
#
#
# Elastic Compliance Matrix: (Units=1/GPa)
#
#
# Indices 1 2 3 4 5 6 
#
# 1 0.014852 0.001535 -0.003503 0.005765 -0.006182 0.006121
# 2 0.001535 0.010260 -0.002623 -0.001195 -0.004194 0.001642
# 3 -0.003503 -0.002623 0.028556 -0.020561 -0.000888 0.006428
# 4 0.005765 -0.001195 -0.020561 0.048359 0.001328 0.000796
# 5 -0.006182 -0.004194 -0.000888 0.001328 0.030798 -0.006580
# 6 0.006121 0.001642 0.006428 0.000796 -0.006580 0.034921
#
#
# Mechanical properties :
#
#
# Convention : Reuss Voigt Hill
#
# Bulk Modulus (GPa) = 22.48006 33.67485 28.07746
# Shear Modulus (GPa) = 26.07475 36.14323 31.10899
#
# Velocity S-wave (km/s) = 3.26815 3.84774 3.56973
# Velocity P-wave (km/s) = 4.84246 5.79087 5.33777
#
# Compressibility (1/GPa) = 0.04448386
#
# Stress axis : x y z
#
# Youngs Moduli (GPa) = 67.33297 97.46399 35.01924
#
# Poissons Ratio (x) = -0.14958 0.12268
# Poissons Ratio (y) = -0.10333 0.09186
# Poissons Ratio (z) = 0.23589 0.25566
#
# Static dielectric constant tensor:
#      x y z
#    x 2.111060 -0.028030 0.105630 
#    y -0.028030 2.003620 -0.013510 
#    z 0.105630 -0.013510 2.143200 
# 
# From -- ./inp_files/455565.got.cif
#   From: 2010.05.17/outbox.cif.g08.bks.cpg/sg2_228_cif.got.tgz:455565.got - 2010.06.03 11:33:40.
