data_PCOD9020721
_publ_section_title
;
Structure prediction by ZEFSAII (Michael W. Deem and Ramdas Pophale) SiO2 
 PCOD9020721
Probable space group: P -1
;
_chemical_formula_sum "Si O2"
_cell_formula_units_Z 16
_cell_length_a 5.530817
_cell_length_b 7.909789
_cell_length_c 16.533622
_cell_angle_alpha 86.646791
_cell_angle_beta 96.826493
_cell_angle_gamma 61.136911
_cell_volume 623.354532
_symmetry_space_group_name_H-M "P -1"
_symmetry_group_IT_number 2
_symmetry_cell_setting 'triclinic'
loop_
_space_group_symop_operation_xyz
x,y,z
-x,-y,-z
loop_
_atom_site_type_symbol
_atom_site_label
_atom_site_fract_x
_atom_site_fract_y
_atom_site_fract_z
Si Si1 0.625674 0.115894 0.339823
Si Si2 0.267770 0.212876 0.882129
Si Si3 0.317027 0.458968 0.731941
Si Si4 0.207199 0.766723 0.509895
Si Si5 0.893367 0.158993 0.745082
Si Si6 0.858183 0.802304 0.787033
Si Si7 0.875531 0.867187 0.962785
Si Si8 0.298650 0.258019 0.575879
O O1 0.652668 0.266712 0.395240
O O2 0.406000 0.213730 0.255082
O O3 0.543651 0.977754 0.394466
O O4 0.920817 0.943410 0.322260
O O5 0.293078 0.362184 0.818893
O O6 0.100489 0.134553 0.825166
O O7 0.562553 0.030156 0.921786
O O8 0.115429 0.273690 0.961150
O O9 0.643819 0.377347 0.729965
O O10 0.225011 0.374464 0.654801
O O11 0.106852 0.681643 0.737514
O O12 0.466475 0.709088 0.460905
O O13 0.990355 0.690602 0.483345
O O14 0.000000 0.000000 0.500000
O O15 0.753471 0.029352 0.764635
O O16 0.975130 0.756969 0.884178
O O17 0.000000 0.000000 0.000000
#
# Coordination Sequence:
#
# PCOD9020721 Si02
#       8
#     2   2   2   2   2   2   2   2
#     4  11  22  41  69  98 135 182 237 279 345 420
#     4  11  22  41  73  91 135 182 219 280 349 412
#     4  12  25  42  68 103 138 179 233 280 353 410
#     4  10  22  36  69 105 132 185 241 288 351 424
#     4  12  21  45  67  96 137 186 220 291 340 412
#     4  12  26  42  69 104 132 182 234 281 344 426
#     4  11  21  43  70  98 132 176 226 278 349 407
#     4  11  21  41  67 101 141 184 232 297 353 416
#
# _framework density 25.667573000000001
#
# number of rings (size 3 to 8) (size 9 to 14) (size 15 to 20)
#    0.000    0.750    6.250    3.000    1.750    1.500 
#    0.000    3.750    0.000    0.000    0.000    0.000 
#    0.000    0.000    0.000    0.000    0.000    0.000 
#
# Total GULP energy -89452.961346 kJ/mol
# GULP energy per Si atom -5590.810084 kJ/mol
# Density = 2.560915 g / cm^3
# Si number density = 25.667573 Si / 1000 Ang^3
#
#
#
# Elastic Constant Matrix: (Units=GPa)
#
#
# Indices 1 2 3 4 5 6 
#
# 1 138.7141 37.5893 69.0147 15.4758 24.1745 -12.8620
# 2 37.5893 106.9959 41.3391 17.7669 1.9086 -6.4084
# 3 69.0147 41.3391 179.4781 29.5435 10.4062 -8.9387
# 4 15.4758 17.7669 29.5435 37.3564 0.9935 -10.3756
# 5 24.1745 1.9086 10.4062 0.9935 68.9135 4.6960
# 6 -12.8620 -6.4084 -8.9387 -10.3756 4.6960 32.2637
#
#
#
# Elastic Compliance Matrix: (Units=1/GPa)
#
#
# Indices 1 2 3 4 5 6 
#
# 1 0.010193 -0.002168 -0.003111 0.000283 -0.003278 0.003339
# 2 -0.002168 0.011132 -0.001202 -0.003526 0.000700 -0.000222
# 3 -0.003111 -0.001202 0.007739 -0.004480 0.000074 -0.000786
# 4 0.000283 -0.003526 -0.004480 0.034474 -0.000457 0.009324
# 5 -0.003278 0.000700 0.000074 -0.000457 0.015882 -0.003606
# 6 0.003339 -0.000222 -0.000786 0.009324 -0.003606 0.035587
#
#
# Mechanical properties :
#
#
# Convention : Reuss Voigt Hill
#
# Bulk Modulus (GPa) = 62.09654 80.11938 71.10796
# Shear Modulus (GPa) = 37.49935 46.18971 41.84453
#
# Velocity S-wave (km/s) = 3.82640 4.24670 4.04201
# Velocity P-wave (km/s) = 6.61566 7.43827 7.03899
#
# Compressibility (1/GPa) = 0.01610396
#
# Stress axis : x y z
#
# Youngs Moduli (GPa) = 98.10258 89.83325 129.22190
#
# Poissons Ratio (x) = 0.19474 0.40195
# Poissons Ratio (y) = 0.21267 0.15527
# Poissons Ratio (z) = 0.30515 0.10794
#
# Static dielectric constant tensor:
#      x y z
#    x 2.083380 0.047970 -0.063550 
#    y 0.047970 1.983160 -0.032510 
#    z -0.063550 -0.032510 2.160780 
# 
# From -- ./inp_files/547238.got.cif
#   From: 2010.05.17/outbox.cif.g08.bks.cpg/sg2_274_cif.got.tgz:547238.got - 2010.06.03 11:33:40.
