data_PCOD9020244
_publ_section_title
;
Structure prediction by ZEFSAII (Michael W. Deem and Ramdas Pophale) SiO2 
 PCOD9020244
Probable space group: P -1
;
_chemical_formula_sum "Si O2"
_cell_formula_units_Z 14
_cell_length_a 18.685287
_cell_length_b 12.246999
_cell_length_c 9.028027
_cell_angle_alpha 138.851537
_cell_angle_beta 31.820156
_cell_angle_gamma 152.123228
_cell_volume 509.304924
_symmetry_space_group_name_H-M "P -1"
_symmetry_group_IT_number 2
_symmetry_cell_setting 'triclinic'
loop_
_space_group_symop_operation_xyz
x,y,z
-x,-y,-z
loop_
_atom_site_type_symbol
_atom_site_label
_atom_site_fract_x
_atom_site_fract_y
_atom_site_fract_z
Si Si1 0.723610 0.426769 0.676115
Si Si2 0.000000 0.500000 0.000000
Si Si3 0.799811 0.734628 0.107831
Si Si4 0.000000 0.500000 0.500000
Si Si5 0.705608 0.646918 0.704409
Si Si6 0.268035 0.564569 0.824244
Si Si7 0.326302 0.034230 0.477728
Si Si8 0.692981 0.985504 0.147040
O O1 0.820189 0.596106 0.534974
O O2 0.846570 0.414456 0.548819
O O3 0.517472 0.188251 0.737434
O O4 0.707128 0.572683 0.961752
O O5 0.875890 0.446292 0.019212
O O6 0.812276 0.240498 0.138904
O O7 0.824671 0.598567 0.034451
O O8 0.675167 0.787025 0.420295
O O9 0.000000 0.000000 0.000000
O O10 0.153371 0.777116 0.459441
O O11 0.684910 0.553185 0.483544
O O12 0.500000 0.500000 0.000000
O O13 0.794023 0.903616 0.825524
O O14 0.457165 0.831047 0.792977
O O15 0.314264 0.041631 0.688289
#
# Coordination Sequence:
#
# PCOD9020244 Si02
#       8
#     2   1   2   1   2   2   2   2
#     4  11  23  46  76 107 146 199 254 314 384 451
#     4  12  30  44  68 114 162 204 248 310 382 478
#     4  12  25  50  77 109 157 200 255 326 379 451
#     4  12  28  38  74 112 148 204 248 308 392 462
#     4  10  21  47  80 108 138 199 264 318 369 448
#     4  12  27  48  78 115 153 204 259 316 390 452
#     4  12  24  50  76 109 151 203 256 316 388 450
#     4  11  24  51  77 106 153 201 255 319 380 453
#
# _framework density 27.488446
#
# number of rings (size 3 to 8) (size 9 to 14) (size 15 to 20)
#    0.000    0.571    5.714    3.000    2.000    1.714 
#    5.143    1.429    0.000    0.000    0.000    0.000 
#    0.000    0.000    0.000    0.000    0.000    0.000 
#
# Total GULP energy -77981.477648 kJ/mol
# GULP energy per Si atom -5570.105546 kJ/mol
# Density = 2.742588 g / cm^3
# Si number density = 27.488446 Si / 1000 Ang^3
#
#
#
# Elastic Constant Matrix: (Units=GPa)
#
#
# Indices 1 2 3 4 5 6 
#
# 1 188.4812 59.4906 -13.8779 0.6232 -11.3028 -8.2269
# 2 59.4906 182.7129 13.9448 -3.9005 -1.4129 10.2984
# 3 -13.8779 13.9448 35.2654 -1.5008 20.5639 7.1746
# 4 0.6232 -3.9005 -1.5008 39.0832 -0.4620 -2.8170
# 5 -11.3028 -1.4129 20.5639 -0.4620 43.7567 -9.6881
# 6 -8.2269 10.2984 7.1746 -2.8170 -9.6881 62.7126
#
#
#
# Elastic Compliance Matrix: (Units=1/GPa)
#
#
# Indices 1 2 3 4 5 6 
#
# 1 0.006329 -0.002344 0.003029 -0.000149 0.000336 0.000914
# 2 -0.002344 0.006619 -0.004232 0.000505 0.001456 -0.000663
# 3 0.003029 -0.004232 0.046019 0.000477 -0.022671 -0.007653
# 4 -0.000149 0.000505 0.000477 0.025735 0.000255 0.001039
# 5 0.000336 0.001456 -0.022671 0.000255 0.035389 0.007877
# 6 0.000914 -0.000663 -0.007653 0.001039 0.007877 0.018314
#
#
# Mechanical properties :
#
#
# Convention : Reuss Voigt Hill
#
# Bulk Modulus (GPa) = 19.27806 58.39716 38.83761
# Shear Modulus (GPa) = 30.71451 52.23730 41.47591
#
# Velocity S-wave (km/s) = 3.34632 4.36401 3.88860
# Velocity P-wave (km/s) = 4.68603 6.83251 5.85842
#
# Compressibility (1/GPa) = 0.05187245
#
# Stress axis : x y z
#
# Youngs Moduli (GPa) = 158.00333 151.08844 21.73011
#
# Poissons Ratio (x) = 0.35414 -0.06582
# Poissons Ratio (y) = 0.37035 0.09197
# Poissons Ratio (z) = -0.47860 0.63944
#
# Static dielectric constant tensor:
#      x y z
#    x 2.107810 -0.093270 -0.096580 
#    y -0.093270 2.186040 0.014860 
#    z -0.096580 0.014860 1.304400 
# 
# From -- ./inp_files/333694.got.cif
#   From: 2010.05.17/outbox.cif.g08.bks.cpg/sg2_167_cif.got.tgz:333694.got - 2010.06.03 11:33:40.
