data_PCOD9020266
_publ_section_title
;
Structure prediction by ZEFSAII (Michael W. Deem and Ramdas Pophale) SiO2 
 PCOD9020266
Probable space group: P -1
;
_chemical_formula_sum "Si O2"
_cell_formula_units_Z 16
_cell_length_a 7.833381
_cell_length_b 9.117864
_cell_length_c 8.582669
_cell_angle_alpha 100.872821
_cell_angle_beta 101.514348
_cell_angle_gamma 99.348880
_cell_volume 576.991930
_symmetry_space_group_name_H-M "P -1"
_symmetry_group_IT_number 2
_symmetry_cell_setting 'triclinic'
loop_
_space_group_symop_operation_xyz
x,y,z
-x,-y,-z
loop_
_atom_site_type_symbol
_atom_site_label
_atom_site_fract_x
_atom_site_fract_y
_atom_site_fract_z
Si Si1 0.492998 0.647899 0.666474
Si Si2 0.824396 0.025828 0.686615
Si Si3 0.118244 0.489703 0.723517
Si Si4 0.786846 0.921430 0.261542
Si Si5 0.563157 0.236469 0.651298
Si Si6 0.002030 0.248187 0.385211
Si Si7 0.352643 0.066739 0.076000
Si Si8 0.681755 0.509418 0.934389
O O1 0.307926 0.556349 0.686227
O O2 0.529522 0.343477 0.522074
O O3 0.647959 0.599915 0.790116
O O4 0.532392 0.824551 0.756534
O O5 0.841265 0.847757 0.627544
O O6 0.017073 0.105974 0.674140
O O7 0.673957 0.106757 0.606221
O O8 0.797159 0.038557 0.869188
O O9 0.022193 0.357172 0.562498
O O10 0.017150 0.630222 0.727861
O O11 0.163757 0.448698 0.899691
O O12 0.624564 0.840738 0.320546
O O13 0.740726 0.864548 0.067284
O O14 0.832367 0.106458 0.314566
O O15 0.674516 0.342303 0.826112
O O16 0.500000 0.000000 0.000000
O O17 0.500000 0.500000 0.000000
#
# Coordination Sequence:
#
# PCOD9020266 Si02
#       8
#     2   2   2   2   2   2   2   2
#     4  11  27  48  80 118 160 223 282 346 413 504
#     4  10  26  45  82 129 161 224 269 340 424 502
#     4  10  21  49  85 118 166 223 278 342 421 494
#     4  10  23  47  83 120 174 210 275 344 417 511
#     4  12  25  51  84 122 168 219 277 349 424 487
#     4   9  23  46  83 124 169 217 270 347 419 505
#     4  12  23  46  80 117 164 216 267 348 419 479
#     4  10  24  46  85 118 154 222 289 340 414 498
#
# _framework density 27.73002
#
# number of rings (size 3 to 8) (size 9 to 14) (size 15 to 20)
#    0.750    0.750    1.250    3.000    1.750    3.500 
#    2.250   10.000    2.750    9.000    0.000    0.000 
#    0.000    0.000    0.000    0.000    0.000    0.000 
#
# Total GULP energy -89471.866148 kJ/mol
# GULP energy per Si atom -5591.991634 kJ/mol
# Density = 2.766691 g / cm^3
# Si number density = 27.730020 Si / 1000 Ang^3
#
#
#
# Elastic Constant Matrix: (Units=GPa)
#
#
# Indices 1 2 3 4 5 6 
#
# 1 133.4561 42.8582 29.8151 -17.1049 -4.2301 -10.4630
# 2 42.8582 162.5364 56.0251 -34.9720 1.1653 -23.8024
# 3 29.8151 56.0251 189.4752 -14.5467 4.0375 -7.6506
# 4 -17.1049 -34.9720 -14.5467 60.9369 0.7207 3.1478
# 5 -4.2301 1.1653 4.0375 0.7207 47.0025 -4.2044
# 6 -10.4630 -23.8024 -7.6506 3.1478 -4.2044 37.3462
#
#
#
# Elastic Compliance Matrix: (Units=1/GPa)
#
#
# Indices 1 2 3 4 5 6 
#
# 1 0.008437 -0.001524 -0.000752 0.001239 0.000954 0.001241
# 2 -0.001524 0.008672 -0.001852 0.003877 0.000142 0.004410
# 3 -0.000752 -0.001852 0.005958 0.000168 -0.000558 -0.000247
# 4 0.001239 0.003877 0.000168 0.018962 -0.000179 0.001234
# 5 0.000954 0.000142 -0.000558 -0.000179 0.021650 0.002696
# 6 0.001241 0.004410 -0.000247 0.001234 0.002696 0.030084
#
#
# Mechanical properties :
#
#
# Convention : Reuss Voigt Hill
#
# Bulk Modulus (GPa) = 67.51470 82.54052 75.02761
# Shear Modulus (GPa) = 46.74901 52.84173 49.79537
#
# Velocity S-wave (km/s) = 4.11038 4.37003 4.24219
# Velocity P-wave (km/s) = 6.85033 7.43594 7.14913
#
# Compressibility (1/GPa) = 0.01481159
#
# Stress axis : x y z
#
# Youngs Moduli (GPa) = 118.52786 115.31962 167.83119
#
# Poissons Ratio (x) = 0.17574 0.12622
# Poissons Ratio (y) = 0.18063 0.31075
# Poissons Ratio (z) = 0.08914 0.21352
#
# Static dielectric constant tensor:
#      x y z
#    x 2.144770 -0.006260 0.040310 
#    y -0.006260 2.284120 -0.005810 
#    z 0.040310 -0.005810 2.235350 
# 
# From -- ./inp_files/382972.got.cif
#   From: 2010.05.17/outbox.cif.g08.bks.cpg/sg2_192_cif.got.tgz:382972.got - 2010.06.03 11:33:40.
