data_PCOD9020989
_publ_section_title
;
Structure prediction by ZEFSAII (Michael W. Deem and Ramdas Pophale) SiO2 
 PCOD9020989
Probable space group: P -1
;
_chemical_formula_sum "Si O2"
_cell_formula_units_Z 16
_cell_length_a 13.921724
_cell_length_b 26.348236
_cell_length_c 8.990413
_cell_angle_alpha 141.551020
_cell_angle_beta 132.011967
_cell_angle_gamma 20.183591
_cell_volume 673.447272
_symmetry_space_group_name_H-M "P -1"
_symmetry_group_IT_number 2
_symmetry_cell_setting 'triclinic'
loop_
_space_group_symop_operation_xyz
x,y,z
-x,-y,-z
loop_
_atom_site_type_symbol
_atom_site_label
_atom_site_fract_x
_atom_site_fract_y
_atom_site_fract_z
Si Si1 0.695528 0.566245 0.191178
Si Si2 0.849067 0.284795 0.433188
Si Si3 0.846162 0.652581 0.086775
Si Si4 0.853294 0.316066 0.944266
Si Si5 0.304199 0.974637 0.421016
Si Si6 0.709326 0.452082 0.400672
Si Si7 0.475600 0.273089 0.315282
Si Si8 0.827509 0.132113 0.872293
O O1 0.672130 0.643051 0.481364
O O2 0.363426 0.747479 0.198852
O O3 0.890420 0.467704 0.021192
O O4 0.853449 0.400601 0.051596
O O5 0.844452 0.364151 0.501574
O O6 0.587391 0.432503 0.619901
O O7 0.137610 0.108367 0.417150
O O8 0.790189 0.234785 0.166312
O O9 0.629200 0.737462 0.929942
O O10 0.000000 0.500000 0.000000
O O11 0.634326 0.815146 0.363169
O O12 0.098483 0.118803 0.676231
O O13 0.500000 0.500000 0.000000
O O14 0.918242 0.292466 0.130916
O O15 0.289230 0.884239 0.205750
O O16 0.615497 0.591885 0.556886
O O17 0.822753 0.076858 0.254798
#
# Coordination Sequence:
#
# PCOD9020989 Si02
#       8
#     2   2   2   2   2   2   2   2
#     4  11  26  43  69  98 137 184 218 274 346 397
#     4  11  21  37  64 101 132 167 218 280 339 388
#     4  12  26  46  67  99 139 182 224 273 337 407
#     4  11  22  43  65 100 139 170 224 282 336 397
#     4  12  23  41  67  96 138 176 224 280 336 396
#     4  10  22  37  63  96 132 173 211 280 342 386
#     4  11  23  45  69  97 136 174 228 284 332 398
#     4  12  22  39  70 104 129 170 232 285 331 389
#
# _framework density 23.758355999999999
#
# number of rings (size 3 to 8) (size 9 to 14) (size 15 to 20)
#    0.000    0.750    5.000    3.375    1.750    1.500 
#    0.000    0.000    0.000    3.000    0.000    0.000 
#    0.000    0.000    0.000    0.000    0.000    0.000 
#
# Total GULP energy -89281.838013 kJ/mol
# GULP energy per Si atom -5580.114876 kJ/mol
# Density = 2.370428 g / cm^3
# Si number density = 23.758356 Si / 1000 Ang^3
#
#
#
# Elastic Constant Matrix: (Units=GPa)
#
#
# Indices 1 2 3 4 5 6 
#
# 1 83.8426 13.6160 39.3328 10.8198 -31.0913 9.4918
# 2 13.6160 81.8496 29.0252 17.4345 -8.9507 5.9167
# 3 39.3328 29.0252 147.0667 13.7340 -37.6681 -2.3493
# 4 10.8198 17.4345 13.7340 36.1967 5.8279 -3.4186
# 5 -31.0913 -8.9507 -37.6681 5.8279 28.4874 -1.5398
# 6 9.4918 5.9167 -2.3493 -3.4186 -1.5398 38.7136
#
#
#
# Elastic Compliance Matrix: (Units=1/GPa)
#
#
# Indices 1 2 3 4 5 6 
#
# 1 0.027074 0.002651 0.003587 -0.017551 0.038344 -0.006850
# 2 0.002651 0.015253 -0.000694 -0.009584 0.008538 -0.003530
# 3 0.003587 -0.000694 0.012457 -0.009003 0.022014 0.000063
# 4 -0.017551 -0.009584 -0.009003 0.048661 -0.043606 0.007784
# 5 0.038344 0.008538 0.022014 -0.043606 0.117201 -0.008559
# 6 -0.006850 -0.003530 0.000063 0.007784 -0.008559 0.028401
#
#
# Mechanical properties :
#
#
# Convention : Reuss Voigt Hill
#
# Bulk Modulus (GPa) = 15.18100 52.96744 34.07422
# Shear Modulus (GPa) = 19.23695 36.06519 27.65107
#
# Velocity S-wave (km/s) = 2.84860 3.90038 3.41522
# Velocity P-wave (km/s) = 4.15006 6.52890 5.47035
#
# Compressibility (1/GPa) = 0.06587180
#
# Stress axis : x y z
#
# Youngs Moduli (GPa) = 36.93648 65.56126 80.27298
#
# Poissons Ratio (x) = -0.17381 -0.28791
# Poissons Ratio (y) = -0.09793 0.05569
# Poissons Ratio (z) = -0.13248 0.04549
#
# Static dielectric constant tensor:
#      x y z
#    x 1.967020 -0.056210 -0.017140 
#    y -0.056210 1.901630 -0.039530 
#    z -0.017140 -0.039530 1.999800 
# 
# From -- ./inp_files/320719.got.cif
#   From: 2010.05.17/outbox.cif.g08.bks.cpg/sg2_161_cif.got.tgz:320719.got - 2010.06.03 11:33:40.
