data_PCOD9020114
_publ_section_title
;
Structure prediction by ZEFSAII (Michael W. Deem and Ramdas Pophale) SiO2 
 PCOD9020114
Probable space group: P -1
;
_chemical_formula_sum "Si O2"
_cell_formula_units_Z 12
_cell_length_a 9.978216
_cell_length_b 11.862019
_cell_length_c 9.481625
_cell_angle_alpha 129.367911
_cell_angle_beta 29.819518
_cell_angle_gamma 130.302794
_cell_volume 417.617918
_symmetry_space_group_name_H-M "P -1"
_symmetry_group_IT_number 2
_symmetry_cell_setting 'triclinic'
loop_
_space_group_symop_operation_xyz
x,y,z
-x,-y,-z
loop_
_atom_site_type_symbol
_atom_site_label
_atom_site_fract_x
_atom_site_fract_y
_atom_site_fract_z
Si Si1 0.277551 0.664942 0.328955
Si Si2 0.440216 0.753130 0.546286
Si Si3 0.254159 0.038238 0.905830
Si Si4 0.221554 0.894951 0.102511
Si Si5 0.723499 0.508401 0.064800
Si Si6 0.878369 0.683982 0.469819
O O1 0.257327 0.658512 0.510863
O O2 0.553261 0.796053 0.151503
O O3 0.029505 0.711844 0.507261
O O4 0.294954 0.518112 0.108799
O O5 0.457043 0.923168 0.614701
O O6 0.312800 0.765358 0.825005
O O7 0.693809 0.674220 0.259529
O O8 0.135953 0.995079 0.136789
O O9 0.000000 0.000000 0.000000
O O10 0.996418 0.822649 0.367493
O O11 0.500000 0.000000 0.000000
O O12 0.987139 0.448331 0.817667
O O13 0.447755 0.387849 0.277654
#
# Coordination Sequence:
#
# PCOD9020114 Si02
#       6
#     2   2   2   2   2   2
#     4  10  22  44  69 102 145 186 238 297 357 423
#     4  10  23  41  70 104 139 193 239 298 352 439
#     4  10  23  41  69 105 140 188 241 299 351 426
#     4  10  21  46  71 102 148 190 241 295 367 428
#     4  10  24  43  73 106 146 187 242 295 360 429
#     4  10  23  44  72 104 147 189 235 294 367 426
#
# _framework density 28.734397999999999
#
# number of rings (size 3 to 8) (size 9 to 14) (size 15 to 20)
#    2.000    0.000    1.667    1.000    2.333    3.333 
#    3.000    1.667    0.000    0.000    0.000    0.000 
#    0.000    0.000    0.000    0.000    0.000    0.000 
#
# Total GULP energy -67212.889135 kJ/mol
# GULP energy per Si atom -5601.074095 kJ/mol
# Density = 2.866900 g / cm^3
# Si number density = 28.734398 Si / 1000 Ang^3
#
#
#
# Elastic Constant Matrix: (Units=GPa)
#
#
# Indices 1 2 3 4 5 6 
#
# 1 162.0929 38.3663 49.3264 -16.8629 21.7738 1.8716
# 2 38.3663 149.6064 78.4081 -19.9897 1.3318 2.7970
# 3 49.3264 78.4081 142.5631 19.8977 8.3710 15.8710
# 4 -16.8629 -19.9897 19.8977 63.2079 9.9220 5.2270
# 5 21.7738 1.3318 8.3710 9.9220 51.0750 3.3803
# 6 1.8716 2.7970 15.8710 5.2270 3.3803 47.8438
#
#
#
# Elastic Compliance Matrix: (Units=1/GPa)
#
#
# Indices 1 2 3 4 5 6 
#
# 1 0.007980 0.000158 -0.003219 0.003714 -0.003640 0.000598
# 2 0.000158 0.011091 -0.007054 0.005741 -0.000388 0.001086
# 3 -0.003219 -0.007054 0.013303 -0.007170 0.000978 -0.003160
# 4 0.003714 0.005741 -0.007170 0.021642 -0.004754 -0.000131
# 5 -0.003640 -0.000388 0.000978 -0.004754 0.021983 -0.001193
# 6 0.000598 0.001086 -0.003160 -0.000131 -0.001193 0.021962
#
#
# Mechanical properties :
#
#
# Convention : Reuss Voigt Hill
#
# Bulk Modulus (GPa) = 82.34742 87.38489 84.86615
# Shear Modulus (GPa) = 40.90381 51.63612 46.26997
#
# Velocity S-wave (km/s) = 3.77704 4.24372 4.01716
# Velocity P-wave (km/s) = 6.90954 7.38170 7.14952
#
# Compressibility (1/GPa) = 0.01214367
#
# Stress axis : x y z
#
# Youngs Moduli (GPa) = 125.31462 90.16380 75.17045
#
# Poissons Ratio (x) = -0.01428 0.24200
# Poissons Ratio (y) = -0.01984 0.53026
# Poissons Ratio (z) = 0.40344 0.63602
#
# Static dielectric constant tensor:
#      x y z
#    x 2.213940 -0.045330 0.031030 
#    y -0.045330 2.275510 0.069390 
#    z 0.031030 0.069390 2.283030 
# 
# From -- ./inp_files/203476.got.cif
#   From: 2010.05.17/outbox.cif.g08.bks.cpg/sg2_102_cif.got.tgz:203476.got - 2010.06.03 11:33:40.
