data_PCOD9020236
_publ_section_title
;
Structure prediction by ZEFSAII (Michael W. Deem and Ramdas Pophale) SiO2 
 PCOD9020236
Probable space group: P -1
;
_chemical_formula_sum "Si O2"
_cell_formula_units_Z 16
_cell_length_a 8.847931
_cell_length_b 10.339371
_cell_length_c 18.818170
_cell_angle_alpha 30.248726
_cell_angle_beta 127.990069
_cell_angle_gamma 128.834642
_cell_volume 663.469671
_symmetry_space_group_name_H-M "P -1"
_symmetry_group_IT_number 2
_symmetry_cell_setting 'triclinic'
loop_
_space_group_symop_operation_xyz
x,y,z
-x,-y,-z
loop_
_atom_site_type_symbol
_atom_site_label
_atom_site_fract_x
_atom_site_fract_y
_atom_site_fract_z
Si Si1 0.086147 0.245025 0.652839
Si Si2 0.927617 0.272244 0.346464
Si Si3 0.275858 0.040230 0.233910
Si Si4 0.695645 0.431388 0.928991
Si Si5 0.458940 0.647499 0.224379
Si Si6 0.427339 0.069117 0.522303
Si Si7 0.170461 0.853078 0.141750
Si Si8 0.923723 0.231073 0.202366
O O1 0.316519 0.311956 0.704655
O O2 0.000000 0.500000 0.500000
O O3 0.041669 0.062158 0.656125
O O4 0.953719 0.065280 0.760326
O O5 0.066416 0.550189 0.278419
O O6 0.732892 0.187255 0.377179
O O7 0.000000 0.000000 0.500000
O O8 0.404602 0.881079 0.392113
O O9 0.287711 0.005336 0.170509
O O10 0.343775 0.333213 0.146142
O O11 0.540470 0.322909 0.874546
O O12 0.889937 0.559448 0.876432
O O13 0.750049 0.233771 0.095065
O O14 0.359080 0.339827 0.362633
O O15 0.324606 0.818763 0.141750
O O16 0.500000 0.000000 0.500000
O O17 0.881048 0.304351 0.234439
O O18 0.000000 0.000000 0.000000
#
# Coordination Sequence:
#
# PCOD9020236 Si02
#       8
#     2   2   2   2   2   2   2   2
#     4  11  26  42  73 106 147 187 252 314 380 441
#     4  12  26  46  78 111 151 202 258 318 385 457
#     4  11  26  45  75 104 149 198 252 318 380 447
#     4  10  21  47  76 101 148 204 249 311 377 470
#     4  12  25  47  75 110 155 200 256 316 387 456
#     4  12  26  47  75 111 150 197 265 317 376 459
#     4  12  29  51  73 114 162 198 251 320 391 457
#     4  10  23  44  72 106 145 199 258 301 386 461
#
# _framework density 24.115646000000002
#
# number of rings (size 3 to 8) (size 9 to 14) (size 15 to 20)
#    0.000    0.750    5.000    0.750   10.500    1.000 
#    2.250    1.250    0.000    0.000    0.000    0.000 
#    0.000    0.000    0.000    0.000    0.000    0.000 
#
# Total GULP energy -89569.413477 kJ/mol
# GULP energy per Si atom -5598.088342 kJ/mol
# Density = 2.406076 g / cm^3
# Si number density = 24.115646 Si / 1000 Ang^3
#
#
#
# Elastic Constant Matrix: (Units=GPa)
#
#
# Indices 1 2 3 4 5 6 
#
# 1 97.8079 51.4020 37.7740 1.2953 8.6749 -15.4040
# 2 51.4020 101.1768 43.3618 13.9394 -6.5024 -23.4360
# 3 37.7740 43.3618 113.0931 12.1267 17.8720 -15.4292
# 4 1.2953 13.9394 12.1267 47.0256 -2.0399 -6.6366
# 5 8.6749 -6.5024 17.8720 -2.0399 36.9812 -0.2468
# 6 -15.4040 -23.4360 -15.4292 -6.6366 -0.2468 54.3393
#
#
#
# Elastic Compliance Matrix: (Units=1/GPa)
#
#
# Indices 1 2 3 4 5 6 
#
# 1 0.015203 -0.007299 -0.001777 0.002163 -0.003866 0.000904
# 2 -0.007299 0.017178 -0.004380 -0.002939 0.006712 0.003767
# 3 -0.001777 -0.004380 0.012477 -0.002029 -0.006489 0.000873
# 4 0.002163 -0.002939 -0.002029 0.022874 0.001229 0.001569
# 5 -0.003866 0.006712 -0.006489 0.001229 0.032333 0.000254
# 6 0.000904 0.003767 0.000873 0.001569 0.000254 0.020725
#
#
# Mechanical properties :
#
#
# Convention : Reuss Voigt Hill
#
# Bulk Modulus (GPa) = 55.72368 64.12815 59.92591
# Shear Modulus (GPa) = 32.53403 39.63857 36.08630
#
# Velocity S-wave (km/s) = 3.67697 4.05864 3.87251
# Velocity P-wave (km/s) = 6.41746 6.97231 6.70063
#
# Compressibility (1/GPa) = 0.01794569
#
# Stress axis : x y z
#
# Youngs Moduli (GPa) = 65.77648 58.21363 80.14560
#
# Poissons Ratio (x) = 0.42492 0.14242
# Poissons Ratio (y) = 0.48012 0.35104
# Poissons Ratio (z) = 0.11689 0.25498
#
# Static dielectric constant tensor:
#      x y z
#    x 1.960940 0.038990 0.048700 
#    y 0.038990 1.966580 -0.039040 
#    z 0.048700 -0.039040 1.980490 
# 
# From -- ./inp_files/311706.got.cif
#   From: 2010.05.17/outbox.cif.g08.bks.cpg/sg2_156_cif.got.tgz:311706.got - 2010.06.03 11:33:40.
