data_PCOD9020582
_publ_section_title
;
Structure prediction by ZEFSAII (Michael W. Deem and Ramdas Pophale) SiO2 
 PCOD9020582
Probable space group: P -1
;
_chemical_formula_sum "Si O2"
_cell_formula_units_Z 16
_cell_length_a 9.383469
_cell_length_b 11.427457
_cell_length_c 14.654820
_cell_angle_alpha 150.135236
_cell_angle_beta 77.708004
_cell_angle_gamma 95.267290
_cell_volume 750.517141
_symmetry_space_group_name_H-M "P -1"
_symmetry_group_IT_number 2
_symmetry_cell_setting 'triclinic'
loop_
_space_group_symop_operation_xyz
x,y,z
-x,-y,-z
loop_
_atom_site_type_symbol
_atom_site_label
_atom_site_fract_x
_atom_site_fract_y
_atom_site_fract_z
Si Si1 0.339346 0.939876 0.004332
Si Si2 0.198728 0.601335 0.921039
Si Si3 0.041591 0.982341 0.711046
Si Si4 0.380717 0.823436 0.498671
Si Si5 0.418201 0.471099 0.582469
Si Si6 0.531096 0.680750 0.196091
Si Si7 0.029667 0.199179 0.203057
Si Si8 0.138377 0.343222 0.568562
O O1 0.324488 0.733648 0.793950
O O2 0.294513 0.800169 0.005969
O O3 0.500000 0.000000 0.000000
O O4 0.208016 0.166707 0.165124
O O5 0.308874 0.431626 0.857813
O O6 0.160051 0.446014 0.735356
O O7 0.043732 0.745299 0.078625
O O8 0.210295 0.916711 0.611026
O O9 0.029890 0.860870 0.730374
O O10 0.942117 0.877177 0.579057
O O11 0.464829 0.616345 0.413214
O O12 0.412005 0.723336 0.324117
O O13 0.459650 0.052119 0.656100
O O14 0.500000 0.500000 0.500000
O O15 0.303597 0.293221 0.470847
O O16 0.500000 0.500000 0.000000
O O17 0.957931 0.452021 0.342425
O O18 0.000000 0.000000 0.000000
#
# Coordination Sequence:
#
# PCOD9020582 Si02
#       8
#     2   2   2   2   2   2   2   2
#     4  10  22  36  61  94 133 181 225 268 328 411
#     4  10  23  46  64  97 135 175 230 285 338 402
#     4  11  25  39  70  99 137 181 227 276 348 405
#     4  11  26  47  68 108 133 172 239 286 332 421
#     4  11  23  38  64  99 140 173 220 281 337 405
#     4  11  26  49  77  94 137 182 229 291 350 403
#     4  11  20  41  58  94 143 184 217 272 336 405
#     4  11  22  40  64  93 140 182 219 278 337 407
#
# _framework density 21.318635
#
# number of rings (size 3 to 8) (size 9 to 14) (size 15 to 20)
#    0.000    1.250    6.250    1.125    7.000    1.500 
#    0.000    1.250    0.000    0.000    0.000    0.000 
#    0.000    0.000    0.000    0.000    0.000    0.000 
#
# Total GULP energy -89330.025234 kJ/mol
# GULP energy per Si atom -5583.126577 kJ/mol
# Density = 2.127011 g / cm^3
# Si number density = 21.318635 Si / 1000 Ang^3
#
#
#
# Elastic Constant Matrix: (Units=GPa)
#
#
# Indices 1 2 3 4 5 6 
#
# 1 104.4703 39.4410 37.1629 -26.7420 -13.9648 8.3116
# 2 39.4410 60.1693 42.7115 -17.3546 -4.3501 -6.9753
# 3 37.1629 42.7115 114.3622 -30.9328 0.5690 -3.3331
# 4 -26.7420 -17.3546 -30.9328 26.3196 3.3444 -11.5572
# 5 -13.9648 -4.3501 0.5690 3.3444 51.4498 -3.4886
# 6 8.3116 -6.9753 -3.3331 -11.5572 -3.4886 32.1815
#
#
#
# Elastic Compliance Matrix: (Units=1/GPa)
#
#
# Indices 1 2 3 4 5 6 
#
# 1 0.015300 -0.007419 0.000506 0.010223 0.002751 -0.001538
# 2 -0.007419 0.029923 -0.005496 0.010827 0.000673 0.011794
# 3 0.000506 -0.005496 0.015935 0.018831 -0.001256 0.006955
# 4 0.010223 0.010827 0.018831 0.093072 -0.000191 0.035061
# 5 0.002751 0.000673 -0.001256 -0.000191 0.020364 0.001444
# 6 -0.001538 0.011794 0.006955 0.035061 0.001444 0.047495
#
#
# Mechanical properties :
#
#
# Convention : Reuss Voigt Hill
#
# Bulk Modulus (GPa) = 27.51823 57.51476 42.51649
# Shear Modulus (GPa) = 19.30349 32.63595 25.96972
#
# Velocity S-wave (km/s) = 3.01238 3.91687 3.49402
# Velocity P-wave (km/s) = 5.00353 6.89152 6.02197
#
# Compressibility (1/GPa) = 0.03633955
#
# Stress axis : x y z
#
# Youngs Moduli (GPa) = 65.35913 33.41956 62.75522
#
# Poissons Ratio (x) = 0.24793 -0.03172
# Poissons Ratio (y) = 0.48488 0.34489
# Poissons Ratio (z) = -0.03304 0.18367
#
# Static dielectric constant tensor:
#      x y z
#    x 1.798350 0.046960 0.012220 
#    y 0.046960 1.822620 0.011780 
#    z 0.012220 0.011780 1.788310 
# 
# From -- ./inp_files/501109.got.cif
#   From: 2010.05.17/outbox.cif.g08.bks.cpg/sg2_251_cif.got.tgz:501109.got - 2010.06.03 11:33:40.
