data_PCOD9020295
_publ_section_title
;
Structure prediction by ZEFSAII (Michael W. Deem and Ramdas Pophale) SiO2 
 PCOD9020295
Probable space group: P -1
;
_chemical_formula_sum "Si O2"
_cell_formula_units_Z 16
_cell_length_a 5.742903
_cell_length_b 18.443801
_cell_length_c 9.833630
_cell_angle_alpha 141.867037
_cell_angle_beta 91.022214
_cell_angle_gamma 86.687040
_cell_volume 641.448816
_symmetry_space_group_name_H-M "P -1"
_symmetry_group_IT_number 2
_symmetry_cell_setting 'triclinic'
loop_
_space_group_symop_operation_xyz
x,y,z
-x,-y,-z
loop_
_atom_site_type_symbol
_atom_site_label
_atom_site_fract_x
_atom_site_fract_y
_atom_site_fract_z
Si Si1 0.976003 0.824450 0.194399
Si Si2 0.728066 0.180663 0.568479
Si Si3 0.888009 0.940127 0.066147
Si Si4 0.642666 0.962600 0.577862
Si Si5 0.000609 0.424222 0.193308
Si Si6 0.393720 0.859828 0.919518
Si Si7 0.305529 0.593180 0.573525
Si Si8 0.242802 0.554891 0.041935
O O1 0.922757 0.866563 0.102868
O O2 0.874907 0.915323 0.439544
O O3 0.226414 0.807489 0.248456
O O4 0.867483 0.699269 0.030803
O O5 0.463068 0.144652 0.503417
O O6 0.850397 0.073519 0.321507
O O7 0.772520 0.309539 0.708376
O O8 0.648977 0.899210 0.932926
O O9 0.130380 0.907489 0.938314
O O10 0.500000 0.000000 0.500000
O O11 0.622692 0.073795 0.838045
O O12 0.891559 0.391055 0.287913
O O13 0.786541 0.452702 0.132742
O O14 0.172091 0.527562 0.357102
O O15 0.395349 0.718994 0.721801
O O16 0.500000 0.500000 0.500000
O O17 0.500000 0.500000 0.000000
O O18 0.000000 0.500000 0.000000
#
# Coordination Sequence:
#
# PCOD9020295 Si02
#       8
#     2   2   2   2   2   2   2   2
#     4  11  18  31  55  86 134 158 206 254 342 415
#     4  10  22  33  57  87 126 166 205 271 338 388
#     4  11  20  32  53  88 123 164 192 261 329 413
#     4  11  20  29  55  90 129 170 198 263 344 414
#     4  10  25  41  65  93 136 180 227 271 337 398
#     4  11  22  34  52  87 135 163 208 242 323 413
#     4  11  24  39  63  96 139 188 216 267 334 424
#     4  11  28  47  68  95 131 182 243 285 325 382
#
# _framework density 24.943532000000001
#
# number of rings (size 3 to 8) (size 9 to 14) (size 15 to 20)
#    0.000    1.250    5.000    1.875    8.750    0.000 
#    0.000    0.000    0.000    0.000    0.000   12.250 
#    0.000    0.000    0.000    0.000    0.000    0.000 
#
# Total GULP energy -89159.946634 kJ/mol
# GULP energy per Si atom -5572.496665 kJ/mol
# Density = 2.488676 g / cm^3
# Si number density = 24.943532 Si / 1000 Ang^3
#
#
#
# Elastic Constant Matrix: (Units=GPa)
#
#
# Indices 1 2 3 4 5 6 
#
# 1 158.3749 42.6668 66.1556 30.9430 21.1329 0.1925
# 2 42.6668 68.1011 50.8415 13.5100 16.6024 -2.1596
# 3 66.1556 50.8415 164.3228 47.9931 31.0633 0.7362
# 4 30.9430 13.5100 47.9931 51.4523 6.1633 7.3899
# 5 21.1329 16.6024 31.0633 6.1633 40.3332 3.9624
# 6 0.1925 -2.1596 0.7362 7.3899 3.9624 38.2222
#
#
#
# Elastic Compliance Matrix: (Units=1/GPa)
#
#
# Indices 1 2 3 4 5 6 
#
# 1 0.008553 -0.003443 -0.001166 -0.003021 -0.001759 0.000551
# 2 -0.003443 0.021115 -0.004872 0.001283 -0.003471 0.001416
# 3 -0.001166 -0.004872 0.011449 -0.008326 -0.005091 0.001648
# 4 -0.003021 0.001283 -0.008326 0.029077 0.003588 -0.005746
# 5 -0.001759 -0.003471 -0.005091 0.003588 0.030908 -0.003987
# 6 0.000551 0.001416 0.001648 -0.005746 -0.003987 0.027732
#
#
# Mechanical properties :
#
#
# Convention : Reuss Voigt Hill
#
# Bulk Modulus (GPa) = 45.13530 78.90295 62.01912
# Shear Modulus (GPa) = 32.22084 41.41053 36.81569
#
# Velocity S-wave (km/s) = 3.59799 4.07894 3.84599
# Velocity P-wave (km/s) = 5.94937 7.34064 6.68132
#
# Compressibility (1/GPa) = 0.02215561
#
# Stress axis : x y z
#
# Youngs Moduli (GPa) = 116.92093 47.36079 87.34415
#
# Poissons Ratio (x) = 0.16304 0.10184
# Poissons Ratio (y) = 0.40251 0.42552
# Poissons Ratio (z) = 0.13633 0.23073
#
# Static dielectric constant tensor:
#      x y z
#    x 1.840250 0.234140 0.079400 
#    y 0.234140 1.930290 -0.054170 
#    z 0.079400 -0.054170 1.985420 
# 
# From -- ./inp_files/370539.got.cif
#   From: 2010.05.17/outbox.cif.g08.bks.cpg/sg2_186_cif.got.tgz:370539.got - 2010.06.03 11:33:40.
