data_PCOD9020792
_publ_section_title
;
Structure prediction by ZEFSAII (Michael W. Deem and Ramdas Pophale) SiO2 
 PCOD9020792
Probable space group: P -1
;
_chemical_formula_sum "Si O2"
_cell_formula_units_Z 14
_cell_length_a 14.095598
_cell_length_b 7.479428
_cell_length_c 5.503566
_cell_angle_alpha 109.463808
_cell_angle_beta 81.444523
_cell_angle_gamma 90.274272
_cell_volume 540.353916
_symmetry_space_group_name_H-M "P -1"
_symmetry_group_IT_number 2
_symmetry_cell_setting 'triclinic'
loop_
_space_group_symop_operation_xyz
x,y,z
-x,-y,-z
loop_
_atom_site_type_symbol
_atom_site_label
_atom_site_fract_x
_atom_site_fract_y
_atom_site_fract_z
Si Si1 0.495126 0.327300 0.150060
Si Si2 0.408848 0.997834 0.284555
Si Si3 0.958055 0.363373 0.655622
Si Si4 0.095415 0.900218 0.818032
Si Si5 0.300820 0.967754 0.798391
Si Si6 0.856057 0.519096 0.156344
Si Si7 0.662216 0.478643 0.440032
O O1 0.484239 0.157759 0.274318
O O2 0.576263 0.465432 0.268850
O O3 0.390174 0.429784 0.262692
O O4 0.534384 0.207573 0.850682
O O5 0.355860 0.042159 0.576194
O O6 0.340769 0.001876 0.070476
O O7 0.054299 0.348755 0.775418
O O8 0.000000 0.500000 0.500000
O O9 0.924554 0.167448 0.477865
O O10 0.863658 0.476156 0.848732
O O11 0.188090 0.022936 0.862191
O O12 0.116263 0.697618 0.857209
O O13 0.000000 0.000000 0.000000
O O14 0.306415 0.741252 0.639492
O O15 0.755282 0.575475 0.342540
#
# Coordination Sequence:
#
# PCOD9020792 Si02
#       7
#     2   2   2   2   2   2   2
#     4   9  20  37  63  91 124 161 205 256 303 369
#     4  10  22  42  63  88 130 162 203 251 315 366
#     4   9  19  37  59  83 117 155 200 248 308 361
#     4  10  22  37  58  89 119 159 204 253 304 365
#     4  10  23  41  64  89 124 169 202 253 311 368
#     4   9  19  38  61  84 117 162 196 254 305 363
#     4   9  19  38  62  93 119 161 210 251 306 364
#
# _framework density 25.908944999999999
#
# number of rings (size 3 to 8) (size 9 to 14) (size 15 to 20)
#    0.000    2.571    0.000    0.000    6.000    7.429 
#    7.714    2.857    0.000    0.000    0.000    0.000 
#    0.000    0.000    0.000    0.000    0.000    0.000 
#
# Total GULP energy -78167.105519 kJ/mol
# GULP energy per Si atom -5583.364680 kJ/mol
# Density = 2.584998 g / cm^3
# Si number density = 25.908945 Si / 1000 Ang^3
#
#
#
# Elastic Constant Matrix: (Units=GPa)
#
#
# Indices 1 2 3 4 5 6 
#
# 1 168.8124 17.9239 76.1200 -2.7124 -30.1557 13.1965
# 2 17.9239 56.5940 15.7088 -1.6319 -5.6796 -5.2660
# 3 76.1200 15.7088 114.2477 -8.0880 -8.1349 -4.5466
# 4 -2.7124 -1.6319 -8.0880 37.8769 8.5103 -11.5649
# 5 -30.1557 -5.6796 -8.1349 8.5103 43.4099 7.9887
# 6 13.1965 -5.2660 -4.5466 -11.5649 7.9887 34.7761
#
#
#
# Elastic Compliance Matrix: (Units=1/GPa)
#
#
# Indices 1 2 3 4 5 6 
#
# 1 0.012207 -0.001784 -0.008040 -0.006285 0.009869 -0.010311
# 2 -0.001784 0.018966 -0.001146 0.001659 -0.000026 0.003957
# 3 -0.008040 -0.001146 0.014631 0.006292 -0.005736 0.008200
# 4 -0.006285 0.001659 0.006292 0.036047 -0.013448 0.018536
# 5 0.009869 -0.000026 -0.005736 -0.013448 0.034562 -0.016911
# 6 -0.010311 0.003957 0.008200 0.018536 -0.016911 0.044388
#
#
# Mechanical properties :
#
#
# Convention : Reuss Voigt Hill
#
# Bulk Modulus (GPa) = 41.90633 62.12884 52.01759
# Shear Modulus (GPa) = 26.21977 38.53934 32.37955
#
# Velocity S-wave (km/s) = 3.18464 3.86099 3.53901
# Velocity P-wave (km/s) = 5.45272 6.62631 6.06796
#
# Compressibility (1/GPa) = 0.02386274
#
# Stress axis : x y z
#
# Youngs Moduli (GPa) = 81.92308 52.72505 68.34959
#
# Poissons Ratio (x) = 0.09409 0.54954
# Poissons Ratio (y) = 0.14619 0.07832
# Poissons Ratio (z) = 0.65867 0.06041
#
# Static dielectric constant tensor:
#      x y z
#    x 2.113180 -0.092660 0.080520 
#    y -0.092660 2.096480 -0.038360 
#    z 0.080520 -0.038360 2.190390 
# 
# From -- ./inp_files/45930.got.cif
#   From: 2010.05.17/outbox.cif.g08.bks.cpg/sg2_23_cif.got.tgz:45930.got - 2010.06.03 11:33:40.
