data_PCOD9020511
_publ_section_title
;
Structure prediction by ZEFSAII (Michael W. Deem and Ramdas Pophale) SiO2 
 PCOD9020511
Probable space group: P -1
;
_chemical_formula_sum "Si O2"
_cell_formula_units_Z 14
_cell_length_a 23.593165
_cell_length_b 6.967027
_cell_length_c 13.868769
_cell_angle_alpha 52.760256
_cell_angle_beta 161.101461
_cell_angle_gamma 124.213782
_cell_volume 587.358954
_symmetry_space_group_name_H-M "P -1"
_symmetry_group_IT_number 2
_symmetry_cell_setting 'triclinic'
loop_
_space_group_symop_operation_xyz
x,y,z
-x,-y,-z
loop_
_atom_site_type_symbol
_atom_site_label
_atom_site_fract_x
_atom_site_fract_y
_atom_site_fract_z
Si Si1 0.705147 0.671117 0.727423
Si Si2 0.443642 0.138576 0.176901
Si Si3 0.601216 0.581416 0.792467
Si Si4 0.129358 0.106357 0.321698
Si Si5 0.916257 0.313665 0.762779
Si Si6 0.616666 0.626526 0.253952
Si Si7 0.715414 0.054559 0.191547
O O1 0.725703 0.620145 0.889767
O O2 0.581855 0.478545 0.536246
O O3 0.836551 0.106623 0.633708
O O4 0.893747 0.656104 0.986100
O O5 0.409574 0.201472 0.214701
O O6 0.596140 0.929968 0.470938
O O7 0.500060 0.399860 0.147906
O O8 0.281877 0.036285 0.886789
O O9 0.665354 0.335789 0.024670
O O10 0.283683 0.295734 0.512522
O O11 0.133629 0.999763 0.469279
O O12 0.953492 0.233061 0.957967
O O13 0.780402 0.534234 0.479491
O O14 0.563867 0.883982 0.044056
#
# Coordination Sequence:
#
# PCOD9020511 Si02
#       7
#     2   2   2   2   2   2   2
#     4  10  23  40  61  89 109 157 204 232 281 346
#     4  11  20  38  63  87 117 151 192 244 293 336
#     4  10  22  42  62  82 120 151 196 246 280 336
#     4   9  21  35  56  89 121 147 190 233 294 350
#     4  11  20  39  59  82 125 153 188 240 285 348
#     4  10  22  36  58  91 119 148 189 235 297 348
#     4   9  23  37  57  93 118 148 196 234 297 349
#
# _framework density 23.835509999999999
#
# number of rings (size 3 to 8) (size 9 to 14) (size 15 to 20)
#    0.857    1.143    0.000    3.857    2.000    2.857 
#    2.571    1.429    0.000    0.000    0.000    0.000 
#    0.000    0.000    0.000    0.000    0.000    0.000 
#
# Total GULP energy -78072.772455 kJ/mol
# GULP energy per Si atom -5576.626604 kJ/mol
# Density = 2.378126 g / cm^3
# Si number density = 23.835510 Si / 1000 Ang^3
#
#
#
# Elastic Constant Matrix: (Units=GPa)
#
#
# Indices 1 2 3 4 5 6 
#
# 1 125.6329 25.2657 54.7579 3.3367 -14.6772 -23.0434
# 2 25.2657 72.9337 30.0557 -6.7010 -10.8855 -24.7948
# 3 54.7579 30.0557 97.5482 0.6484 -22.9292 -13.7199
# 4 3.3367 -6.7010 0.6484 41.3978 -7.6560 -15.2931
# 5 -14.6772 -10.8855 -22.9292 -7.6560 34.3038 8.2445
# 6 -23.0434 -24.7948 -13.7199 -15.2931 8.2445 46.3068
#
#
#
# Elastic Compliance Matrix: (Units=1/GPa)
#
#
# Indices 1 2 3 4 5 6 
#
# 1 0.011181 -0.000080 -0.005648 0.000701 0.000167 0.004050
# 2 -0.000080 0.020722 -0.004026 0.008431 0.002812 0.012146
# 3 -0.005648 -0.004026 0.016255 0.000454 0.007597 -0.001353
# 4 0.000701 0.008431 0.000454 0.032045 0.006985 0.014337
# 5 0.000167 0.002812 0.007597 0.006985 0.036852 -0.000414
# 6 0.004050 0.012146 -0.001353 0.014337 -0.000414 0.034522
#
#
# Mechanical properties :
#
#
# Convention : Reuss Voigt Hill
#
# Bulk Modulus (GPa) = 34.90456 57.36372 46.13414
# Shear Modulus (GPa) = 27.68032 36.80403 32.24218
#
# Velocity S-wave (km/s) = 3.41149 3.93375 3.68189
# Velocity P-wave (km/s) = 5.49485 6.68964 6.12146
#
# Compressibility (1/GPa) = 0.02864955
#
# Stress axis : x y z
#
# Youngs Moduli (GPa) = 89.43763 48.25869 61.52097
#
# Poissons Ratio (x) = 0.00385 0.34745
# Poissons Ratio (y) = 0.00714 0.24771
# Poissons Ratio (z) = 0.50511 0.19431
#
# Static dielectric constant tensor:
#      x y z
#    x 1.984540 0.030010 -0.051580 
#    y 0.030010 1.966940 -0.023580 
#    z -0.051580 -0.023580 1.946710 
# 
# From -- ./inp_files/543721.got.cif
#   From: 2010.05.17/outbox.cif.g08.bks.cpg/sg2_272_cif.got.tgz:543721.got - 2010.06.03 11:33:40.
