data_PCOD9020289
_publ_section_title
;
Structure prediction by ZEFSAII (Michael W. Deem and Ramdas Pophale) SiO2 
 PCOD9020289
Probable space group: P -1
;
_chemical_formula_sum "Si O2"
_cell_formula_units_Z 14
_cell_length_a 12.379604
_cell_length_b 5.460272
_cell_length_c 11.442926
_cell_angle_alpha 99.516813
_cell_angle_beta 123.180679
_cell_angle_gamma 110.631041
_cell_volume 538.806740
_symmetry_space_group_name_H-M "P -1"
_symmetry_group_IT_number 2
_symmetry_cell_setting 'triclinic'
loop_
_space_group_symop_operation_xyz
x,y,z
-x,-y,-z
loop_
_atom_site_type_symbol
_atom_site_label
_atom_site_fract_x
_atom_site_fract_y
_atom_site_fract_z
Si Si1 0.877461 0.672152 0.864551
Si Si2 0.810284 0.285664 0.258219
Si Si3 0.875045 0.318406 0.624238
Si Si4 0.685672 0.788426 0.599126
Si Si5 0.726349 0.312356 0.963778
Si Si6 0.460043 0.812729 0.626721
Si Si7 0.322545 0.359054 0.853579
O O1 0.923349 0.561536 0.771285
O O2 0.729504 0.668632 0.728325
O O3 0.833216 0.442833 0.925125
O O4 0.000000 0.000000 0.000000
O O5 0.716185 0.444497 0.238436
O O6 0.989805 0.538092 0.377110
O O7 0.758897 0.977009 0.263133
O O8 0.764210 0.183749 0.087212
O O9 0.703349 0.218801 0.479054
O O10 0.843368 0.031358 0.651176
O O11 0.581903 0.902824 0.597516
O O12 0.594029 0.530884 0.430583
O O13 0.561637 0.053894 0.801718
O O14 0.738525 0.593509 0.055449
O O15 0.500000 0.500000 0.000000
#
# Coordination Sequence:
#
# PCOD9020289 Si02
#       7
#     2   2   2   2   2   2   2
#     4  11  22  32  52  84 125 157 202 247 293 345
#     4  10  24  39  66  94 115 156 198 248 312 359
#     4  11  22  36  54  83 127 162 197 244 290 352
#     4  10  22  33  54  75 128 177 201 236 282 346
#     4  10  23  35  60  88 117 157 208 243 294 363
#     4  10  22  35  51  83 121 169 206 236 286 348
#     4  10  23  44  68  92 116 148 200 262 313 362
#
# _framework density 25.983340999999999
#
# number of rings (size 3 to 8) (size 9 to 14) (size 15 to 20)
#    0.857    0.857    1.429    2.571   12.000    1.143 
#    0.000    0.000    0.000    1.714    0.000    0.000 
#    0.000    0.000    0.000    0.000    0.000    0.000 
#
# Total GULP energy -78155.182708 kJ/mol
# GULP energy per Si atom -5582.513051 kJ/mol
# Density = 2.592420 g / cm^3
# Si number density = 25.983341 Si / 1000 Ang^3
#
#
#
# Elastic Constant Matrix: (Units=GPa)
#
#
# Indices 1 2 3 4 5 6 
#
# 1 69.3243 16.3996 20.6409 -3.8334 8.1216 -2.7578
# 2 16.3996 115.0514 34.0445 22.4240 -2.6303 -6.6547
# 3 20.6409 34.0445 106.1937 30.5000 -1.9188 8.7646
# 4 -3.8334 22.4240 30.5000 46.8141 3.6436 5.0241
# 5 8.1216 -2.6303 -1.9188 3.6436 39.6366 1.8684
# 6 -2.7578 -6.6547 8.7646 5.0241 1.8684 27.2344
#
#
#
# Elastic Compliance Matrix: (Units=1/GPa)
#
#
# Indices 1 2 3 4 5 6 
#
# 1 0.017176 -0.002193 -0.004456 0.005501 -0.004477 0.001930
# 2 -0.002193 0.010727 -0.002004 -0.004520 0.001301 0.003789
# 3 -0.004456 -0.002004 0.013602 -0.008022 0.002364 -0.004001
# 4 0.005501 -0.004520 -0.008022 0.029887 -0.004413 -0.003177
# 5 -0.004477 0.001301 0.002364 -0.004413 0.026844 -0.001924
# 6 0.001930 0.003789 -0.004001 -0.003177 -0.001924 0.039845
#
#
# Mechanical properties :
#
#
# Convention : Reuss Voigt Hill
#
# Bulk Modulus (GPa) = 41.32099 48.08218 44.70159
# Shear Modulus (GPa) = 30.59003 37.36932 33.97968
#
# Velocity S-wave (km/s) = 3.43489 3.79648 3.62020
# Velocity P-wave (km/s) = 5.62750 6.14515 5.89201
#
# Compressibility (1/GPa) = 0.02420077
#
# Stress axis : x y z
#
# Youngs Moduli (GPa) = 58.22147 93.22151 73.51876
#
# Poissons Ratio (x) = 0.20441 0.32757
# Poissons Ratio (y) = 0.12766 0.14731
# Poissons Ratio (z) = 0.25941 0.18679
#
# Static dielectric constant tensor:
#      x y z
#    x 2.082150 0.006940 0.026600 
#    y 0.006940 2.118450 -0.080290 
#    z 0.026600 -0.080290 2.057320 
# 
# From -- ./inp_files/525077.got.cif
#   From: 2010.05.17/outbox.cif.g08.bks.cpg/sg2_263_cif.got.tgz:525077.got - 2010.06.03 11:33:40.
