data_PCOD9020224
_publ_section_title
;
Structure prediction by ZEFSAII (Michael W. Deem and Ramdas Pophale) SiO2 
 PCOD9020224
Probable space group: P -1
;
_chemical_formula_sum "Si O2"
_cell_formula_units_Z 14
_cell_length_a 9.415458
_cell_length_b 7.606927
_cell_length_c 9.207737
_cell_angle_alpha 48.871906
_cell_angle_beta 102.136139
_cell_angle_gamma 93.500235
_cell_volume 482.969675
_symmetry_space_group_name_H-M "P -1"
_symmetry_group_IT_number 2
_symmetry_cell_setting 'triclinic'
loop_
_space_group_symop_operation_xyz
x,y,z
-x,-y,-z
loop_
_atom_site_type_symbol
_atom_site_label
_atom_site_fract_x
_atom_site_fract_y
_atom_site_fract_z
Si Si1 0.345214 0.057239 0.738583
Si Si2 0.520232 0.381149 0.803924
Si Si3 0.179628 0.664060 0.204922
Si Si4 0.924415 0.136658 0.217994
Si Si5 0.500000 0.000000 0.500000
Si Si6 0.237653 0.585337 0.720828
Si Si7 0.000000 0.500000 0.500000
Si Si8 0.229525 0.110763 0.161732
O O1 0.166567 0.088188 0.710668
O O2 0.379651 0.061911 0.575392
O O3 0.422636 0.235175 0.758939
O O4 0.409834 0.800457 0.959456
O O5 0.655456 0.453420 0.702110
O O6 0.412878 0.602746 0.718915
O O7 0.051542 0.558015 0.316642
O O8 0.197725 0.920460 0.135698
O O9 0.128980 0.682748 0.017932
O O10 0.857914 0.226551 0.305141
O O11 0.094181 0.110834 0.242684
O O12 0.627181 0.951224 0.681208
O O13 0.157912 0.577084 0.555336
O O14 0.244275 0.347965 0.946706
#
# Coordination Sequence:
#
# PCOD9020224 Si02
#       8
#     2   2   2   2   1   2   1   2
#     4  10  22  42  72 115 139 197 249 304 369 443
#     4  10  21  47  74 101 154 198 241 300 382 448
#     4  11  25  50  77 110 147 201 255 307 382 445
#     4  11  26  45  78 110 154 197 248 308 384 444
#     4  12  24  44  78 112 146 188 270 304 358 446
#     4  12  26  49  72 114 153 196 247 310 382 448
#     4  12  30  44  76 116 150 192 254 312 384 440
#     4  12  25  49  78 108 152 202 243 314 374 453
#
# _framework density 28.987328999999999
#
# number of rings (size 3 to 8) (size 9 to 14) (size 15 to 20)
#    0.000    0.857    4.286    2.571    4.000    4.571 
#    0.000    0.000    0.000    0.000    0.000    0.000 
#    0.000    0.000    0.000    0.000    0.000    0.000 
#
# Total GULP energy -78265.923875 kJ/mol
# GULP energy per Si atom -5590.423134 kJ/mol
# Density = 2.892135 g / cm^3
# Si number density = 28.987329 Si / 1000 Ang^3
#
#
#
# Elastic Constant Matrix: (Units=GPa)
#
#
# Indices 1 2 3 4 5 6 
#
# 1 213.1605 -15.0106 -20.0419 8.2375 -7.0012 -4.4177
# 2 -15.0106 86.7266 -5.4539 6.8334 1.2368 -12.6960
# 3 -20.0419 -5.4539 112.6967 14.9831 -5.8391 3.6077
# 4 8.2375 6.8334 14.9831 43.6797 -4.2534 -1.4916
# 5 -7.0012 1.2368 -5.8391 -4.2534 60.4563 19.3217
# 6 -4.4177 -12.6960 3.6077 -1.4916 19.3217 35.7278
#
#
#
# Elastic Compliance Matrix: (Units=1/GPa)
#
#
# Indices 1 2 3 4 5 6 
#
# 1 0.004958 0.001133 0.001125 -0.001442 0.000350 0.000653
# 2 0.001133 0.012828 0.000875 -0.002526 -0.002012 0.005593
# 3 0.001125 0.000875 0.009701 -0.003603 0.001225 -0.001343
# 4 -0.001442 -0.002526 -0.003603 0.024921 0.001433 -0.000446
# 5 0.000350 -0.002012 0.001225 0.001433 0.020645 -0.011900
# 6 0.000653 0.005593 -0.001343 -0.000446 -0.011900 0.036610
#
#
# Mechanical properties :
#
#
# Convention : Reuss Voigt Hill
#
# Bulk Modulus (GPa) = 29.62658 36.84123 33.23391
# Shear Modulus (GPa) = 43.61166 58.17877 50.89522
#
# Velocity S-wave (km/s) = 3.88301 4.48486 4.19474
# Velocity P-wave (km/s) = 5.50875 6.28933 5.91194
#
# Compressibility (1/GPa) = 0.03375348
#
# Stress axis : x y z
#
# Youngs Moduli (GPa) = 201.70917 77.95430 103.07813
#
# Poissons Ratio (x) = -0.08832 -0.11601
# Poissons Ratio (y) = -0.22854 -0.09017
# Poissons Ratio (z) = -0.22701 -0.06819
#
# Static dielectric constant tensor:
#      x y z
#    x 2.894470 -0.363280 -0.106400 
#    y -0.363280 2.159180 0.085790 
#    z -0.106400 0.085790 2.087980 
# 
# From -- ./inp_files/156949.got.cif
#   From: 2010.05.17/outbox.cif.g08.bks.cpg/sg2_79_cif.got.tgz:156949.got - 2010.06.03 11:33:40.
