data_PCOD9020260
_publ_section_title
;
Structure prediction by ZEFSAII (Michael W. Deem and Ramdas Pophale) SiO2 
 PCOD9020260
Probable space group: P -1
;
_chemical_formula_sum "Si O2"
_cell_formula_units_Z 12
_cell_length_a 14.104609
_cell_length_b 10.819540
_cell_length_c 7.155140
_cell_angle_alpha 111.705166
_cell_angle_beta 57.665892
_cell_angle_gamma 151.013972
_cell_volume 434.088888
_symmetry_space_group_name_H-M "P -1"
_symmetry_group_IT_number 2
_symmetry_cell_setting 'triclinic'
loop_
_space_group_symop_operation_xyz
x,y,z
-x,-y,-z
loop_
_atom_site_type_symbol
_atom_site_label
_atom_site_fract_x
_atom_site_fract_y
_atom_site_fract_z
Si Si1 0.488488 0.547329 0.326283
Si Si2 0.195044 0.897642 0.600259
Si Si3 0.782749 0.614513 0.963633
Si Si4 0.740052 0.255856 0.294006
Si Si5 0.070790 0.256962 0.689000
Si Si6 0.343518 0.014078 0.105337
O O1 0.500000 0.500000 0.500000
O O2 0.640585 0.602708 0.078524
O O3 0.229544 0.316634 0.444712
O O4 0.617126 0.819363 0.344775
O O5 0.118227 0.701216 0.705459
O O6 0.296601 0.942415 0.331020
O O7 0.990515 0.787113 0.715337
O O8 0.883104 0.722450 0.128367
O O9 0.597483 0.311717 0.976236
O O10 0.831402 0.496483 0.323318
O O11 0.500000 0.000000 0.500000
O O12 0.723318 0.173030 0.062761
O O13 0.811017 0.015362 0.794616
#
# Coordination Sequence:
#
# PCOD9020260 Si02
#       6
#     2   2   2   2   2   2
#     4  10  21  48  76 103 153 189 236 312 354 420
#     4  12  25  47  77 110 145 194 239 303 367 427
#     4  11  25  48  75 109 149 191 244 298 363 433
#     4  12  26  48  75 108 150 189 244 301 364 434
#     4  11  24  48  72 107 152 189 240 306 353 428
#     4  12  27  47  75 113 143 193 244 298 365 432
#
# _framework density 27.644105
#
# number of rings (size 3 to 8) (size 9 to 14) (size 15 to 20)
#    0.000    0.667    6.667    1.000    2.333    4.000 
#    0.000    1.667    0.000    0.000    0.000    0.000 
#    0.000    0.000    0.000    0.000    0.000    0.000 
#
# Total GULP energy -67377.504949 kJ/mol
# GULP energy per Si atom -5614.792079 kJ/mol
# Density = 2.758119 g / cm^3
# Si number density = 27.644105 Si / 1000 Ang^3
#
#
#
# Elastic Constant Matrix: (Units=GPa)
#
#
# Indices 1 2 3 4 5 6 
#
# 1 111.6906 2.3031 16.4980 1.7723 -19.0623 5.9062
# 2 2.3031 67.7038 14.6287 -21.0754 -3.4007 0.7605
# 3 16.4980 14.6287 100.8490 -8.1933 -30.1519 -7.7340
# 4 1.7723 -21.0754 -8.1933 50.2925 11.3662 -20.1638
# 5 -19.0623 -3.4007 -30.1519 11.3662 49.6824 -9.7654
# 6 5.9062 0.7605 -7.7340 -20.1638 -9.7654 49.7601
#
#
#
# Elastic Compliance Matrix: (Units=1/GPa)
#
#
# Indices 1 2 3 4 5 6 
#
# 1 0.009775 -0.000629 -0.000759 -0.002086 0.003441 -0.001438
# 2 -0.000629 0.017800 -0.002105 0.008580 -0.001751 0.002609
# 3 -0.000759 -0.002105 0.013199 0.001154 0.008145 0.004240
# 4 -0.002086 0.008580 0.001154 0.029184 -0.003960 0.011345
# 5 0.003441 -0.001751 0.008145 -0.003960 0.028120 0.004798
# 6 -0.001438 0.002609 0.004240 0.011345 0.004798 0.026425
#
#
# Mechanical properties :
#
#
# Convention : Reuss Voigt Hill
#
# Bulk Modulus (GPa) = 29.59627 38.56701 34.08164
# Shear Modulus (GPa) = 35.02559 46.40123 40.71341
#
# Velocity S-wave (km/s) = 3.56338 4.10142 3.84183
# Velocity P-wave (km/s) = 5.25925 6.03410 5.65995
#
# Compressibility (1/GPa) = 0.03378804
#
# Stress axis : x y z
#
# Youngs Moduli (GPa) = 102.30314 56.17928 75.76135
#
# Poissons Ratio (x) = 0.03533 0.05748
# Poissons Ratio (y) = 0.06434 0.15951
# Poissons Ratio (z) = 0.07762 0.11828
#
# Static dielectric constant tensor:
#      x y z
#    x 2.192760 0.028720 -0.036420 
#    y 0.028720 2.085880 0.000770 
#    z -0.036420 0.000770 2.114260 
# 
# From -- ./inp_files/308271.got.cif
#   From: 2010.05.17/outbox.cif.g08.bks.cpg/sg2_155_cif.got.tgz:308271.got - 2010.06.03 11:33:40.
