data_PCOD9021946
_publ_section_title
;
Structure prediction by ZEFSAII (Michael W. Deem and Ramdas Pophale) SiO2 
 PCOD9021946
Probable space group: P -1
;
_chemical_formula_sum "Si O2"
_cell_formula_units_Z 14
_cell_length_a 8.609999
_cell_length_b 11.659592
_cell_length_c 7.061406
_cell_angle_alpha 76.979232
_cell_angle_beta 98.259441
_cell_angle_gamma 58.495832
_cell_volume 558.945885
_symmetry_space_group_name_H-M "P -1"
_symmetry_group_IT_number 2
_symmetry_cell_setting 'triclinic'
loop_
_space_group_symop_operation_xyz
x,y,z
-x,-y,-z
loop_
_atom_site_type_symbol
_atom_site_label
_atom_site_fract_x
_atom_site_fract_y
_atom_site_fract_z
Si Si1 0.636018 0.524204 0.238619
Si Si2 0.537661 0.851096 0.494504
Si Si3 0.299461 0.528976 0.286867
Si Si4 0.635927 0.211046 0.170479
Si Si5 0.056919 0.841995 0.993477
Si Si6 0.334621 0.988934 0.043067
Si Si7 0.948051 0.575859 0.667487
O O1 0.494205 0.470233 0.220217
O O2 0.643971 0.530834 0.466848
O O3 0.855580 0.441914 0.238169
O O4 0.523491 0.672164 0.047620
O O5 0.454126 0.793724 0.650245
O O6 0.424665 0.876405 0.271705
O O7 0.765002 0.738681 0.554861
O O8 0.500000 0.000000 0.500000
O O9 0.193218 0.702200 0.200373
O O10 0.144657 0.496472 0.209696
O O11 0.829294 0.203182 0.169171
O O12 0.710150 0.059822 0.138133
O O13 0.000000 0.000000 0.000000
O O14 0.850951 0.869504 0.953315
O O15 0.500000 0.000000 0.000000
O O16 0.000000 0.500000 0.500000
#
# Coordination Sequence:
#
# PCOD9021946 Si02
#       7
#     2   2   2   2   2   2   2
#     4   9  19  36  62  91 127 170 216 280 330 391
#     4  12  26  43  65 103 139 177 224 286 334 406
#     4   9  18  36  63  93 128 168 224 273 330 398
#     4  10  22  43  63  96 137 169 230 279 334 410
#     4   9  21  38  65 100 131 179 225 274 340 407
#     4  11  22  38  67  93 131 182 221 268 341 400
#     4  10  22  38  67  96 128 178 229 268 340 405
#
# _framework density 25.047146999999999
#
# number of rings (size 3 to 8) (size 9 to 14) (size 15 to 20)
#    0.000    2.000    1.429    1.714    6.000    2.286 
#    0.000    4.286    0.000    0.000    0.000    0.000 
#    0.000    0.000    0.000    0.000    0.000    0.000 
#
# Total GULP energy -78068.190566 kJ/mol
# GULP energy per Si atom -5576.299326 kJ/mol
# Density = 2.499014 g / cm^3
# Si number density = 25.047147 Si / 1000 Ang^3
#
#
#
# Elastic Constant Matrix: (Units=GPa)
#
#
# Indices 1 2 3 4 5 6 
#
# 1 182.5272 53.2475 24.8865 2.6252 -18.9458 -50.0039
# 2 53.2475 116.4482 39.3510 -15.5446 -1.0433 -30.8401
# 3 24.8865 39.3510 134.1650 7.5242 -34.9411 -27.0132
# 4 2.6252 -15.5446 7.5242 43.1075 -6.1708 -4.7608
# 5 -18.9458 -1.0433 -34.9411 -6.1708 29.4864 1.9999
# 6 -50.0039 -30.8401 -27.0132 -4.7608 1.9999 74.0290
#
#
#
# Elastic Compliance Matrix: (Units=1/GPa)
#
#
# Indices 1 2 3 4 5 6 
#
# 1 0.008233 -0.003301 0.002426 -0.000491 0.007617 0.004833
# 2 -0.003301 0.012775 -0.004676 0.004928 -0.006306 0.001873
# 3 0.002426 -0.004676 0.013746 -0.001323 0.017123 0.004159
# 4 -0.000491 0.004928 -0.001323 0.026056 0.003553 0.002818
# 5 0.007617 -0.006306 0.017123 0.003553 0.059117 0.007397
# 6 0.004833 0.001873 0.004159 0.002818 0.007397 0.019052
#
#
# Mechanical properties :
#
#
# Convention : Reuss Voigt Hill
#
# Bulk Modulus (GPa) = 42.28429 74.23448 58.25938
# Shear Modulus (GPa) = 31.65249 50.36825 41.01037
#
# Velocity S-wave (km/s) = 3.55874 4.48921 4.05078
# Velocity P-wave (km/s) = 5.81418 7.52150 6.72226
#
# Compressibility (1/GPa) = 0.02364944
#
# Stress axis : x y z
#
# Youngs Moduli (GPa) = 121.46549 78.27999 72.74831
#
# Poissons Ratio (x) = 0.25844 -0.17645
# Poissons Ratio (y) = 0.40102 0.34018
# Poissons Ratio (z) = -0.29462 0.36604
#
# Static dielectric constant tensor:
#      x y z
#    x 2.273670 0.018270 -0.038950 
#    y 0.018270 2.309520 0.028520 
#    z -0.038950 0.028520 1.916050 
# 
# From -- ./inp_files/195685.got.cif
#   From: 2010.05.17/outbox.cif.g08.bks.cpg/sg2_98_cif.got.tgz:195685.got - 2010.06.03 11:33:40.
