data_PCOD9021741
_publ_section_title
;
Structure prediction by ZEFSAII (Michael W. Deem and Ramdas Pophale) SiO2 
 PCOD9021741
Probable space group: P -1
;
_chemical_formula_sum "Si O2"
_cell_formula_units_Z 14
_cell_length_a 20.578848
_cell_length_b 13.020675
_cell_length_c 9.474065
_cell_angle_alpha 137.549125
_cell_angle_beta 146.875759
_cell_angle_gamma 26.098358
_cell_volume 609.186383
_symmetry_space_group_name_H-M "P -1"
_symmetry_group_IT_number 2
_symmetry_cell_setting 'triclinic'
loop_
_space_group_symop_operation_xyz
x,y,z
-x,-y,-z
loop_
_atom_site_type_symbol
_atom_site_label
_atom_site_fract_x
_atom_site_fract_y
_atom_site_fract_z
Si Si1 0.959305 0.863821 0.251510
Si Si2 0.817335 0.498215 0.476499
Si Si3 0.416087 0.880974 0.040534
Si Si4 0.542447 0.631006 0.730386
Si Si5 0.030098 0.342824 0.201597
Si Si6 0.611755 0.822348 0.889159
Si Si7 0.046277 0.781120 0.825853
O O1 0.102961 0.613672 0.339013
O O2 0.000000 0.000000 0.500000
O O3 0.970021 0.805280 0.048967
O O4 0.758787 0.010490 0.088028
O O5 0.606133 0.659442 0.237838
O O6 0.940095 0.272427 0.367618
O O7 0.843776 0.645001 0.616839
O O8 0.415155 0.061665 0.186498
O O9 0.417429 0.812952 0.814573
O O10 0.500000 0.500000 0.500000
O O11 0.538996 0.721374 0.666747
O O12 0.748213 0.447821 0.976493
O O13 0.070507 0.233319 0.317890
O O14 0.827251 0.611546 0.098273
O O15 0.500000 0.000000 0.000000
O O16 0.000000 0.000000 0.000000
#
# Coordination Sequence:
#
# PCOD9021741 Si02
#       7
#     2   2   2   2   2   2   2
#     4  12  27  45  69  93 139 183 216 276 339 396
#     4  11  24  44  69  97 131 171 230 279 317 410
#     4  10  23  42  64  95 131 174 222 269 336 385
#     4   9  20  34  61  94 129 171 215 267 330 396
#     4  11  23  43  67  98 132 179 226 264 336 404
#     4   9  19  38  62  93 128 166 215 265 327 385
#     4  10  22  38  64  99 132 167 221 276 333 382
#
# _framework density 22.981470999999999
#
# number of rings (size 3 to 8) (size 9 to 14) (size 15 to 20)
#    0.000    1.714    1.429    2.571    6.000    2.286 
#    0.000    0.000    0.000    0.000    0.000    0.000 
#    0.000    0.000    0.000    0.000    0.000    0.000 
#
# Total GULP energy -78234.999990 kJ/mol
# GULP energy per Si atom -5588.214285 kJ/mol
# Density = 2.292916 g / cm^3
# Si number density = 22.981471 Si / 1000 Ang^3
#
#
#
# Elastic Constant Matrix: (Units=GPa)
#
#
# Indices 1 2 3 4 5 6 
#
# 1 83.1365 26.3689 21.4747 -11.5355 18.3372 -1.2464
# 2 26.3689 78.5879 15.9117 -3.8929 13.3488 -11.5567
# 3 21.4747 15.9117 64.4875 4.1923 18.3022 -9.5443
# 4 -11.5355 -3.8929 4.1923 42.2924 0.3897 8.7459
# 5 18.3372 13.3488 18.3022 0.3897 36.8775 5.2094
# 6 -1.2464 -11.5567 -9.5443 8.7459 5.2094 31.0777
#
#
#
# Elastic Compliance Matrix: (Units=1/GPa)
#
#
# Indices 1 2 3 4 5 6 
#
# 1 0.015852 -0.003982 -0.003820 0.004933 -0.004216 -0.002700
# 2 -0.003982 0.015819 -0.000230 -0.000947 -0.004566 0.006684
# 3 -0.003820 -0.000230 0.021361 -0.005033 -0.009893 0.009396
# 4 0.004933 -0.000947 -0.005033 0.027384 0.001462 -0.009652
# 5 -0.004216 -0.004566 -0.009893 0.001462 0.037397 -0.011585
# 6 -0.002700 0.006684 0.009396 -0.009652 -0.011585 0.042098
#
#
# Mechanical properties :
#
#
# Convention : Reuss Voigt Hill
#
# Bulk Modulus (GPa) = 27.05107 39.30251 33.17679
# Shear Modulus (GPa) = 26.55348 32.87997 29.71673
#
# Velocity S-wave (km/s) = 3.40285 3.78658 3.59983
# Velocity P-wave (km/s) = 5.21877 6.02134 5.63436
#
# Compressibility (1/GPa) = 0.03696712
#
# Stress axis : x y z
#
# Youngs Moduli (GPa) = 63.08347 63.21551 46.81366
#
# Poissons Ratio (x) = 0.25172 0.17883
# Poissons Ratio (y) = 0.25120 0.01079
# Poissons Ratio (z) = 0.24098 0.01457
#
# Static dielectric constant tensor:
#      x y z
#    x 1.875990 -0.002800 0.012840 
#    y -0.002800 1.908160 0.048740 
#    z 0.012840 0.048740 1.842190 
# 
# From -- ./inp_files/254229.got.cif
#   From: 2010.05.17/outbox.cif.g08.bks.cpg/sg2_128_cif.got.tgz:254229.got - 2010.06.03 11:33:40.
