data_PCOD9021377
_publ_section_title
;
Structure prediction by ZEFSAII (Michael W. Deem and Ramdas Pophale) SiO2 
 PCOD9021377
Probable space group: P -1
;
_chemical_formula_sum "Si O2"
_cell_formula_units_Z 16
_cell_length_a 6.782981
_cell_length_b 18.060511
_cell_length_c 15.773016
_cell_angle_alpha 150.528582
_cell_angle_beta 43.042429
_cell_angle_gamma 137.965687
_cell_volume 615.381545
_symmetry_space_group_name_H-M "P -1"
_symmetry_group_IT_number 2
_symmetry_cell_setting 'triclinic'
loop_
_space_group_symop_operation_xyz
x,y,z
-x,-y,-z
loop_
_atom_site_type_symbol
_atom_site_label
_atom_site_fract_x
_atom_site_fract_y
_atom_site_fract_z
Si Si1 0.714019 0.523896 0.231405
Si Si2 0.178230 0.264230 0.100763
Si Si3 0.284033 0.736066 0.453328
Si Si4 0.529048 0.989065 0.193800
Si Si5 0.804162 0.395996 0.255429
Si Si6 0.254256 0.802077 0.340148
Si Si7 0.390521 0.720852 0.635739
Si Si8 0.831853 0.869555 0.316710
O O1 0.495930 0.395885 0.111961
O O2 0.730031 0.421652 0.208617
O O3 0.539835 0.644379 0.440534
O O4 0.042515 0.632942 0.206991
O O5 0.959644 0.258154 0.083514
O O6 0.978572 0.325594 0.294033
O O7 0.253321 0.116885 0.969740
O O8 0.335111 0.868370 0.639845
O O9 0.167477 0.794762 0.460991
O O10 0.624193 0.743123 0.322487
O O11 0.055241 0.562726 0.368721
O O12 0.513379 0.089572 0.214964
O O13 0.180916 0.884992 0.217684
O O14 0.544205 0.343415 0.357003
O O15 0.614499 0.830079 0.261693
O O16 0.185563 0.954982 0.477638
#
# Coordination Sequence:
#
# PCOD9021377 Si02
#       8
#     2   2   2   2   2   2   2   2
#     4  11  18  41  65  81 116 157 195 245 286 334
#     4  10  25  38  54  91 124 154 190 235 296 354
#     4   9  19  35  63  83 110 146 201 241 278 339
#     4  12  21  38  58  86 123 157 181 241 304 337
#     4   9  22  39  59  89 113 151 204 237 285 340
#     4   8  18  35  60  89 107 143 207 244 277 334
#     4  10  22  38  61  85 116 156 201 237 278 351
#     4   9  18  36  59  90 108 147 198 242 285 343
#
# _framework density 26.000128
#
# number of rings (size 3 to 8) (size 9 to 14) (size 15 to 20)
#    1.500    0.750    1.250    2.250    1.750    0.000 
#    2.250    1.875    0.000    0.000    0.000    0.000 
#    0.000    0.000    0.000    0.000    0.000    0.000 
#
# Total GULP energy -89273.484419 kJ/mol
# GULP energy per Si atom -5579.592776 kJ/mol
# Density = 2.594095 g / cm^3
# Si number density = 26.000128 Si / 1000 Ang^3
#
#
#
# Elastic Constant Matrix: (Units=GPa)
#
#
# Indices 1 2 3 4 5 6 
#
# 1 70.5202 4.6972 29.2169 1.3468 -21.0108 3.7436
# 2 4.6972 113.1281 34.4868 9.2095 -7.2044 -0.3095
# 3 29.2169 34.4868 85.4957 1.7991 -29.9972 -8.0466
# 4 1.3468 9.2095 1.7991 34.1258 -0.0118 -7.3539
# 5 -21.0108 -7.2044 -29.9972 -0.0118 41.5558 13.4144
# 6 3.7436 -0.3095 -8.0466 -7.3539 13.4144 33.2821
#
#
#
# Elastic Compliance Matrix: (Units=1/GPa)
#
#
# Indices 1 2 3 4 5 6 
#
# 1 0.019099 0.001352 -0.004564 -0.002471 0.008987 -0.007407
# 2 0.001352 0.010509 -0.004991 -0.002993 -0.000549 -0.001701
# 3 -0.004564 -0.004991 0.018906 0.000778 0.010109 0.001136
# 4 -0.002471 -0.002993 0.000778 0.032154 -0.004175 0.009226
# 5 0.008987 -0.000549 0.010109 -0.004175 0.040976 -0.016010
# 6 -0.007407 -0.001701 0.001136 0.009226 -0.016010 0.039629
#
#
# Mechanical properties :
#
#
# Convention : Reuss Voigt Hill
#
# Bulk Modulus (GPa) = 31.14473 45.10509 38.12491
# Shear Modulus (GPa) = 26.54160 35.17562 30.85861
#
# Velocity S-wave (km/s) = 3.19850 3.68217 3.44883
# Velocity P-wave (km/s) = 5.06411 5.95513 5.52760
#
# Compressibility (1/GPa) = 0.03210816
#
# Stress axis : x y z
#
# Youngs Moduli (GPa) = 52.35835 95.15818 52.89190
#
# Poissons Ratio (x) = -0.12861 0.24140
# Poissons Ratio (y) = -0.07076 0.26396
# Poissons Ratio (z) = 0.23897 0.47490
#
# Static dielectric constant tensor:
#      x y z
#    x 2.140030 -0.052540 -0.012640 
#    y -0.052540 2.083470 -0.014370 
#    z -0.012640 -0.014370 2.036560 
# 
# From -- ./inp_files/608700.got.cif
#   From: 2010.05.17/outbox.cif.g08.bks.cpg/sg2_305_cif.got.tgz:608700.got - 2010.06.03 11:33:40.
