data_PCOD9021145
_publ_section_title
;
Structure prediction by ZEFSAII (Michael W. Deem and Ramdas Pophale) SiO2 
 PCOD9021145
Probable space group: P -1
;
_chemical_formula_sum "Si O2"
_cell_formula_units_Z 16
_cell_length_a 12.959031
_cell_length_b 8.227489
_cell_length_c 11.689066
_cell_angle_alpha 91.841427
_cell_angle_beta 138.189641
_cell_angle_gamma 65.144111
_cell_volume 667.509848
_symmetry_space_group_name_H-M "P -1"
_symmetry_group_IT_number 2
_symmetry_cell_setting 'triclinic'
loop_
_space_group_symop_operation_xyz
x,y,z
-x,-y,-z
loop_
_atom_site_type_symbol
_atom_site_label
_atom_site_fract_x
_atom_site_fract_y
_atom_site_fract_z
Si Si1 0.510885 0.995725 0.370705
Si Si2 0.416698 0.485266 0.814449
Si Si3 0.114569 0.305733 0.423623
Si Si4 0.438113 0.661087 0.617408
Si Si5 0.781966 0.310801 0.744959
Si Si6 0.962718 0.730498 0.393477
Si Si7 0.986700 0.869505 0.867053
Si Si8 0.727775 0.041597 0.001991
O O1 0.575160 0.137170 0.389802
O O2 0.500000 0.000000 0.500000
O O3 0.685693 0.768676 0.472845
O O4 0.332378 0.054975 0.144786
O O5 0.489042 0.563342 0.779489
O O6 0.184799 0.629113 0.612652
O O7 0.500000 0.500000 0.000000
O O8 0.528179 0.246405 0.883483
O O9 0.978370 0.542066 0.345328
O O10 0.033480 0.236154 0.258632
O O11 0.145656 0.205242 0.571927
O O12 0.605786 0.507722 0.665203
O O13 0.257640 0.662135 0.422555
O O14 0.808105 0.096581 0.762836
O O15 0.951163 0.259275 0.968063
O O16 0.851408 0.906676 0.211090
O O17 0.145951 0.899830 0.956453
#
# Coordination Sequence:
#
# PCOD9021145 Si02
#       8
#     2   2   2   2   2   2   2   2
#     4  12  28  48  74 111 152 197 251 307 373 444
#     4  12  27  48  75 111 150 191 253 307 367 446
#     4  11  26  50  74 104 155 194 248 307 373 439
#     4  11  24  45  70 105 148 197 241 304 376 435
#     4  10  22  37  71  98 141 186 247 292 359 443
#     4  11  28  49  74 111 150 195 251 311 364 446
#     4  11  22  43  69 107 139 198 241 301 371 440
#     4  12  27  46  75 110 150 190 253 305 372 439
#
# _framework density 23.969684000000001
#
# number of rings (size 3 to 8) (size 9 to 14) (size 15 to 20)
#    0.000    0.750    3.750    2.250    7.000    3.500 
#    0.000    1.250    0.000    0.000    0.000    0.000 
#    0.000    0.000    0.000    0.000    0.000    0.000 
#
# Total GULP energy -89204.215874 kJ/mol
# GULP energy per Si atom -5575.263492 kJ/mol
# Density = 2.391513 g / cm^3
# Si number density = 23.969684 Si / 1000 Ang^3
#
#
#
# Elastic Constant Matrix: (Units=GPa)
#
#
# Indices 1 2 3 4 5 6 
#
# 1 71.0870 27.6920 50.8158 6.7930 -23.6215 -9.2366
# 2 27.6920 103.6260 58.4308 24.1856 -16.1227 -18.6544
# 3 50.8158 58.4308 176.4589 31.3746 -34.8762 -1.7891
# 4 6.7930 24.1856 31.3746 54.5079 -7.2422 -4.8349
# 5 -23.6215 -16.1227 -34.8762 -7.2422 45.1902 2.5868
# 6 -9.2366 -18.6544 -1.7891 -4.8349 2.5868 30.6070
#
#
#
# Elastic Compliance Matrix: (Units=1/GPa)
#
#
# Indices 1 2 3 4 5 6 
#
# 1 0.020468 -0.001583 -0.004318 0.001963 0.006848 0.004691
# 2 -0.001583 0.014248 -0.003462 -0.003392 0.000616 0.007416
# 3 -0.004318 -0.003462 0.009236 -0.003121 0.003344 -0.003649
# 4 0.001963 -0.003392 -0.003121 0.021657 0.000781 0.001698
# 5 0.006848 0.000616 0.003344 0.000781 0.028614 0.000342
# 6 0.004691 0.007416 -0.003649 0.001698 0.000342 0.038633
#
#
# Mechanical properties :
#
#
# Convention : Reuss Voigt Hill
#
# Bulk Modulus (GPa) = 39.64297 69.44989 54.54643
# Shear Modulus (GPa) = 31.25167 40.34324 35.79746
#
# Velocity S-wave (km/s) = 3.61473 4.10700 3.86871
# Velocity P-wave (km/s) = 5.83065 7.17823 6.53924
#
# Compressibility (1/GPa) = 0.02522515
#
# Stress axis : x y z
#
# Youngs Moduli (GPa) = 48.85657 70.18698 108.27387
#
# Poissons Ratio (x) = 0.11112 0.46754
# Poissons Ratio (y) = 0.07735 0.37483
# Poissons Ratio (z) = 0.21097 0.24298
#
# Static dielectric constant tensor:
#      x y z
#    x 1.969460 0.004060 0.056880 
#    y 0.004060 1.893750 -0.019250 
#    z 0.056880 -0.019250 2.059520 
# 
# From -- ./inp_files/446150.got.cif
#   From: 2010.05.17/outbox.cif.g08.bks.cpg/sg2_224_cif.got.tgz:446150.got - 2010.06.03 11:33:40.
