data_PCOD9021418
_publ_section_title
;
Structure prediction by ZEFSAII (Michael W. Deem and Ramdas Pophale) SiO2 
 PCOD9021418
Probable space group: P -1
;
_chemical_formula_sum "Si O2"
_cell_formula_units_Z 16
_cell_length_a 15.805297
_cell_length_b 7.382363
_cell_length_c 18.947965
_cell_angle_alpha 136.798382
_cell_angle_beta 34.122972
_cell_angle_gamma 132.188999
_cell_volume 835.551500
_symmetry_space_group_name_H-M "P -1"
_symmetry_group_IT_number 2
_symmetry_cell_setting 'triclinic'
loop_
_space_group_symop_operation_xyz
x,y,z
-x,-y,-z
loop_
_atom_site_type_symbol
_atom_site_label
_atom_site_fract_x
_atom_site_fract_y
_atom_site_fract_z
Si Si1 0.689967 0.063331 0.038608
Si Si2 0.036038 0.550503 0.099711
Si Si3 0.375421 0.026785 0.299864
Si Si4 0.827787 0.821635 0.634409
Si Si5 0.289920 0.413810 0.202105
Si Si6 0.882024 0.870687 0.399552
Si Si7 0.057603 0.688525 0.640733
Si Si8 0.998448 0.909489 0.101111
O O1 0.547685 0.161026 0.200342
O O2 0.793288 0.271059 0.972419
O O3 0.817495 0.018061 0.995371
O O4 0.635007 0.788285 0.955664
O O5 0.946568 0.621890 0.250049
O O6 0.952517 0.680497 0.129167
O O7 0.041062 0.246263 0.988530
O O8 0.373133 0.719065 0.236689
O O9 0.275660 0.021048 0.296039
O O10 0.283376 0.167680 0.461347
O O11 0.743350 0.715744 0.734890
O O12 0.857889 0.560726 0.496761
O O13 0.990610 0.994673 0.593691
O O14 0.121536 0.408287 0.282256
O O15 0.886903 0.092856 0.396965
O O16 0.068559 0.839539 0.751155
#
# Coordination Sequence:
#
# PCOD9021418 Si02
#       8
#     2   2   2   2   2   2   2   2
#     4   9  18  32  47  76 107 128 170 212 247 304
#     4   8  14  31  55  72  95 134 177 207 246 296
#     4  12  22  28  50  80 109 134 159 209 259 296
#     4  11  19  32  50  74 109 137 170 194 251 311
#     4  10  18  34  48  70 107 139 165 204 244 303
#     4  10  17  31  49  75 102 133 170 207 241 297
#     4   9  15  30  54  70  98 134 172 208 235 298
#     4   7  14  29  56  75  88 135 182 201 247 298
#
# _framework density 19.149028000000001
#
# number of rings (size 3 to 8) (size 9 to 14) (size 15 to 20)
#    0.750    1.750    5.000    1.500    0.000    0.500 
#    0.000    0.625    0.000    1.500    0.000    0.000 
#    0.000    0.125    0.000    0.000    0.000    0.000 
#
# Total GULP energy -89081.981384 kJ/mol
# GULP energy per Si atom -5567.623836 kJ/mol
# Density = 1.910544 g / cm^3
# Si number density = 19.149028 Si / 1000 Ang^3
#
#
#
# Elastic Constant Matrix: (Units=GPa)
#
#
# Indices 1 2 3 4 5 6 
#
# 1 20.6015 22.7338 29.1909 8.2543 3.9628 -0.6265
# 2 22.7338 29.1528 24.8414 -6.6974 17.5895 -6.0805
# 3 29.1909 24.8414 123.3546 -21.2133 26.6893 20.0486
# 4 8.2543 -6.6974 -21.2133 21.3361 14.8519 6.5346
# 5 3.9628 17.5895 26.6893 14.8519 18.6780 9.1971
# 6 -0.6265 -6.0805 20.0486 6.5346 9.1971 18.0280
#
#
#
# Elastic Compliance Matrix: (Units=1/GPa)
#
#
# Indices 1 2 3 4 5 6 
#
# 1 0.032222 0.017648 -0.000463 0.021189 -0.052880 0.026884
# 2 0.017648 0.055268 -0.038683 -0.055203 0.003823 0.080331
# 3 -0.000463 -0.038683 0.022839 0.013645 0.019252 -0.053229
# 4 0.021189 -0.055203 0.013645 0.029519 0.034811 -0.061516
# 5 -0.052880 0.003823 0.019252 0.034811 0.030707 -0.050241
# 6 0.026884 0.080331 -0.053229 -0.061516 -0.050241 0.190621
#
#
# Mechanical properties :
#
#
# Convention : Reuss Voigt Hill
#
# Bulk Modulus (GPa) = 14.85179 36.29348 25.57263
# Shear Modulus (GPa) = 11.72018 18.03128 14.87573
#
# Velocity S-wave (km/s) = 2.47665 3.07193 2.79021
# Velocity P-wave (km/s) = 3.99389 5.61931 4.87482
#
# Compressibility (1/GPa) = 0.06733196
#
# Stress axis : x y z
#
# Youngs Moduli (GPa) = 31.03504 18.09372 43.78502
#
# Poissons Ratio (x) = -0.31932 0.02029
# Poissons Ratio (y) = -0.54771 1.69373
# Poissons Ratio (z) = 0.01438 0.69992
#
# Static dielectric constant tensor:
#      x y z
#    x 1.670150 -0.016170 0.041280 
#    y -0.016170 1.692430 0.005350 
#    z 0.041280 0.005350 1.703050 
# 
# From -- ./inp_files/599307.got.cif
#   From: 2010.05.17/outbox.cif.g08.bks.cpg/sg2_300_cif.got.tgz:599307.got - 2010.06.03 11:33:40.
