data_PCOD9021081
_publ_section_title
;
Structure prediction by ZEFSAII (Michael W. Deem and Ramdas Pophale) SiO2 
 PCOD9021081
Probable space group: P -1
;
_chemical_formula_sum "Si O2"
_cell_formula_units_Z 12
_cell_length_a 14.291858
_cell_length_b 9.151100
_cell_length_c 6.194888
_cell_angle_alpha 77.752384
_cell_angle_beta 79.148600
_cell_angle_gamma 43.084491
_cell_volume 540.161664
_symmetry_space_group_name_H-M "P -1"
_symmetry_group_IT_number 2
_symmetry_cell_setting 'triclinic'
loop_
_space_group_symop_operation_xyz
x,y,z
-x,-y,-z
loop_
_atom_site_type_symbol
_atom_site_label
_atom_site_fract_x
_atom_site_fract_y
_atom_site_fract_z
Si Si1 0.934253 0.473569 0.347015
Si Si2 0.438807 0.380986 0.906147
Si Si3 0.578953 0.027111 0.611611
Si Si4 0.328786 0.813942 0.793635
Si Si5 0.777548 0.550032 0.761357
Si Si6 0.932144 0.772370 0.027030
O O1 0.822888 0.498144 0.506872
O O2 0.880450 0.663577 0.150444
O O3 0.000000 0.500000 0.500000
O O4 0.043484 0.255964 0.230899
O O5 0.475843 0.211888 0.772813
O O6 0.376461 0.599052 0.756215
O O7 0.576950 0.262127 0.013584
O O8 0.329925 0.448980 0.109821
O O9 0.641205 0.091051 0.422607
O O10 0.500000 0.000000 0.500000
O O11 0.700467 0.795842 0.742227
O O12 0.173903 0.996502 0.889980
O O13 0.916588 0.377865 0.891183
#
# Coordination Sequence:
#
# PCOD9021081 Si02
#       6
#     2   2   2   2   2   2
#     4   9  20  35  60  97 128 160 210 267 320 372
#     4  11  27  43  64  96 135 170 214 263 328 392
#     4  12  25  41  72  96 127 172 222 269 316 380
#     4  11  25  46  64  94 134 175 208 264 333 387
#     4  11  23  39  66  99 122 165 222 267 316 377
#     4  10  22  37  66  93 129 166 212 272 319 373
#
# _framework density 22.215572999999999
#
# number of rings (size 3 to 8) (size 9 to 14) (size 15 to 20)
#    0.000    1.333    3.333    1.000    9.333    0.667 
#    0.000    0.833    0.000    0.000    0.000    0.000 
#    0.000    0.000    0.000    0.000    0.000    0.000 
#
# Total GULP energy -67073.175748 kJ/mol
# GULP energy per Si atom -5589.431312 kJ/mol
# Density = 2.216501 g / cm^3
# Si number density = 22.215573 Si / 1000 Ang^3
#
#
#
# Elastic Constant Matrix: (Units=GPa)
#
#
# Indices 1 2 3 4 5 6 
#
# 1 55.9111 50.2100 24.3766 2.1560 -4.0359 -15.2257
# 2 50.2100 107.5847 30.1950 -6.5969 -6.2113 -22.3162
# 3 24.3766 30.1950 78.1881 21.5459 -14.1086 -4.9887
# 4 2.1560 -6.5969 21.5459 36.9985 -4.2049 -6.2066
# 5 -4.0359 -6.2113 -14.1086 -4.2049 34.4361 -6.4386
# 6 -15.2257 -22.3162 -4.9887 -6.2066 -6.4386 31.3677
#
#
#
# Elastic Compliance Matrix: (Units=1/GPa)
#
#
# Indices 1 2 3 4 5 6 
#
# 1 0.033326 -0.012857 -0.004800 -0.000282 0.000776 0.006369
# 2 -0.012857 0.019175 -0.004738 0.008740 0.002749 0.008941
# 3 -0.004800 -0.004738 0.020106 -0.012433 0.004549 -0.004030
# 4 -0.000282 0.008740 -0.012433 0.038313 0.003445 0.012391
# 5 0.000776 0.002749 0.004549 0.003445 0.033911 0.010698
# 6 0.006369 0.008941 -0.004030 0.012391 0.010698 0.045339
#
#
# Mechanical properties :
#
#
# Convention : Reuss Voigt Hill
#
# Bulk Modulus (GPa) = 35.95264 50.13858 43.04561
# Shear Modulus (GPa) = 20.47222 29.68728 25.07975
#
# Velocity S-wave (km/s) = 3.03896 3.65955 3.36360
# Velocity P-wave (km/s) = 5.34157 6.36196 5.87396
#
# Compressibility (1/GPa) = 0.02781437
#
# Stress axis : x y z
#
# Youngs Moduli (GPa) = 30.00638 52.15223 49.73690
#
# Poissons Ratio (x) = 0.67055 0.23876
# Poissons Ratio (y) = 0.38581 0.23566
# Poissons Ratio (z) = 0.14404 0.24711
#
# Static dielectric constant tensor:
#      x y z
#    x 1.836540 -0.015090 0.005840 
#    y -0.015090 1.830390 -0.000760 
#    z 0.005840 -0.000760 1.859350 
# 
# From -- ./inp_files/90054.got.cif
#   From: 2010.05.17/outbox.cif.g08.bks.cpg/sg2_46_cif.got.tgz:90054.got - 2010.06.03 11:33:40.
