data_PCOD9021427
_publ_section_title
;
Structure prediction by ZEFSAII (Michael W. Deem and Ramdas Pophale) SiO2 
 PCOD9021427
Probable space group: P -1
;
_chemical_formula_sum "Si O2"
_cell_formula_units_Z 16
_cell_length_a 11.879347
_cell_length_b 7.140852
_cell_length_c 12.940367
_cell_angle_alpha 67.625030
_cell_angle_beta 68.304037
_cell_angle_gamma 119.535105
_cell_volume 636.938570
_symmetry_space_group_name_H-M "P -1"
_symmetry_group_IT_number 2
_symmetry_cell_setting 'triclinic'
loop_
_space_group_symop_operation_xyz
x,y,z
-x,-y,-z
loop_
_atom_site_type_symbol
_atom_site_label
_atom_site_fract_x
_atom_site_fract_y
_atom_site_fract_z
Si Si1 0.969023 0.762298 0.685990
Si Si2 0.999392 0.063012 0.821722
Si Si3 0.667642 0.781643 0.477408
Si Si4 0.618629 0.489783 0.111543
Si Si5 0.840061 0.141198 0.131676
Si Si6 0.349944 0.651137 0.650393
Si Si7 0.350820 0.493895 0.278954
Si Si8 0.352030 0.844236 0.975767
O O1 0.848726 0.715186 0.649452
O O2 0.836007 0.424563 0.845067
O O3 0.999098 0.961265 0.728567
O O4 0.171723 0.939857 0.557813
O O5 0.155622 0.418468 0.712505
O O6 0.066975 0.962016 0.894023
O O7 0.791942 0.846438 0.959902
O O8 0.459017 0.586880 0.589732
O O9 0.654064 0.542984 0.587227
O O10 0.743544 0.985257 0.306512
O O11 0.662154 0.396888 0.213071
O O12 0.449340 0.418673 0.212337
O O13 0.602432 0.317774 0.057158
O O14 0.703872 0.059039 0.112713
O O15 0.000000 0.500000 0.000000
O O16 0.500000 0.000000 0.500000
O O17 0.463039 0.820552 0.125227
#
# Coordination Sequence:
#
# PCOD9021427 Si02
#       8
#     2   2   2   2   2   2   2   2
#     4  10  22  41  63  88 124 171 220 258 308 372
#     4  10  22  38  61  92 126 171 205 254 327 376
#     4  10  22  39  60  89 124 165 206 259 323 370
#     4  10  22  40  60  91 129 165 208 260 317 372
#     4  11  18  36  63  90 124 160 208 260 318 385
#     4  11  23  36  58  94 131 161 205 264 322 390
#     4  11  24  41  63  93 127 170 221 261 304 374
#     4  11  22  39  65  93 124 170 210 265 314 374
#
# _framework density 25.120159999999998
#
# number of rings (size 3 to 8) (size 9 to 14) (size 15 to 20)
#    0.000    1.500    3.750    3.375    0.000    9.500 
#    0.000    1.250    0.000    3.750    0.000    0.000 
#    0.000    0.000    0.000    0.000    0.000    0.000 
#
# Total GULP energy -89223.812643 kJ/mol
# GULP energy per Si atom -5576.488290 kJ/mol
# Density = 2.506299 g / cm^3
# Si number density = 25.120160 Si / 1000 Ang^3
#
#
#
# Elastic Constant Matrix: (Units=GPa)
#
#
# Indices 1 2 3 4 5 6 
#
# 1 54.7323 -1.4091 29.0305 -10.2866 -10.5248 3.2724
# 2 -1.4091 72.4529 30.7865 -25.6248 -6.6431 -1.5950
# 3 29.0305 30.7865 194.7921 -32.0654 -11.9066 4.1416
# 4 -10.2866 -25.6248 -32.0654 48.8363 1.7475 -9.5507
# 5 -10.5248 -6.6431 -11.9066 1.7475 53.1454 -5.0274
# 6 3.2724 -1.5950 4.1416 -9.5507 -5.0274 29.0389
#
#
#
# Elastic Compliance Matrix: (Units=1/GPa)
#
#
# Indices 1 2 3 4 5 6 
#
# 1 0.021417 0.003549 -0.002783 0.004470 0.003946 0.000332
# 2 0.003549 0.018554 -0.001719 0.010173 0.002746 0.004685
# 3 -0.002783 -0.001719 0.006291 0.002681 0.000584 0.000305
# 4 0.004470 0.010173 0.002681 0.030402 0.002717 0.010142
# 5 0.003946 0.002746 0.000584 0.002717 0.020365 0.004042
# 6 0.000332 0.004685 0.000305 0.010142 0.004042 0.038649
#
#
# Mechanical properties :
#
#
# Convention : Reuss Voigt Hill
#
# Bulk Modulus (GPa) = 22.54431 48.75478 35.64954
# Shear Modulus (GPa) = 32.81520 43.77540 38.29530
#
# Velocity S-wave (km/s) = 3.61824 4.17902 3.90870
# Velocity P-wave (km/s) = 5.14292 6.53731 5.88158
#
# Compressibility (1/GPa) = 0.04435710
#
# Stress axis : x y z
#
# Youngs Moduli (GPa) = 46.69135 53.89652 158.96716
#
# Poissons Ratio (x) = -0.19128 0.44238
# Poissons Ratio (y) = -0.16571 0.27320
# Poissons Ratio (z) = 0.12993 0.09263
#
# Static dielectric constant tensor:
#      x y z
#    x 2.085110 -0.039370 -0.035100 
#    y -0.039370 2.222700 0.082520 
#    z -0.035100 0.082520 2.105820 
# 
# From -- ./inp_files/566546.got.cif
#   From: 2010.05.17/outbox.cif.g08.bks.cpg/sg2_284_cif.got.tgz:566546.got - 2010.06.03 11:33:40.
