data_PCOD9021181
_publ_section_title
;
Structure prediction by ZEFSAII (Michael W. Deem and Ramdas Pophale) SiO2 
 PCOD9021181
Probable space group: P -1
;
_chemical_formula_sum "Si O2"
_cell_formula_units_Z 14
_cell_length_a 19.226464
_cell_length_b 8.161213
_cell_length_c 7.146238
_cell_angle_alpha 106.570914
_cell_angle_beta 136.211813
_cell_angle_gamma 49.679904
_cell_volume 555.339905
_symmetry_space_group_name_H-M "P -1"
_symmetry_group_IT_number 2
_symmetry_cell_setting 'triclinic'
loop_
_space_group_symop_operation_xyz
x,y,z
-x,-y,-z
loop_
_atom_site_type_symbol
_atom_site_label
_atom_site_fract_x
_atom_site_fract_y
_atom_site_fract_z
Si Si1 0.914684 0.708579 0.040487
Si Si2 0.183761 0.826745 0.980141
Si Si3 0.051270 0.153461 0.494823
Si Si4 0.519380 0.678329 0.092994
Si Si5 0.663703 0.825396 0.551855
Si Si6 0.600070 0.667212 0.821577
Si Si7 0.748664 0.816443 0.284590
O O1 0.792142 0.735646 0.890215
O O2 0.000000 0.500000 0.000000
O O3 0.845434 0.959878 0.908263
O O4 0.001906 0.680547 0.373274
O O5 0.154723 0.908879 0.729736
O O6 0.330485 0.580203 0.208066
O O7 0.066345 0.828478 0.810815
O O8 0.124385 0.206278 0.521793
O O9 0.376697 0.924334 0.937028
O O10 0.500000 0.500000 0.000000
O O11 0.559674 0.673508 0.957658
O O12 0.623356 0.672011 0.418639
O O13 0.716740 0.810514 0.439283
O O14 0.534815 0.088598 0.436468
O O15 0.717651 0.674553 0.071922
#
# Coordination Sequence:
#
# PCOD9021181 Si02
#       7
#     2   2   2   2   2   2   2
#     4  10  22  38  57  81 117 152 185 233 291 327
#     4   9  20  36  60  82 110 153 195 226 271 340
#     4   9  20  37  59  84 109 154 196 223 271 339
#     4   9  17  30  58  85 110 149 190 226 270 342
#     4   9  20  36  57  87 115 147 178 245 284 325
#     4   9  18  34  56  85 115 142 189 230 285 333
#     4   9  18  33  57  86 110 144 194 227 277 332
#
# _framework density 25.209786999999999
#
# number of rings (size 3 to 8) (size 9 to 14) (size 15 to 20)
#    0.857    2.000    0.000    2.571    4.000    2.286 
#    0.000    3.571    6.286    0.000    0.000    0.000 
#    0.000    0.000    0.000    0.000    0.000    0.000 
#
# Total GULP energy -78183.474841 kJ/mol
# GULP energy per Si atom -5584.533917 kJ/mol
# Density = 2.515241 g / cm^3
# Si number density = 25.209787 Si / 1000 Ang^3
#
#
#
# Elastic Constant Matrix: (Units=GPa)
#
#
# Indices 1 2 3 4 5 6 
#
# 1 113.6940 30.7465 12.3594 6.2256 31.1838 2.5206
# 2 30.7465 174.3712 51.0336 11.4915 18.6013 -6.6355
# 3 12.3594 51.0336 107.3573 13.8809 34.9997 2.3380
# 4 6.2256 11.4915 13.8809 41.9861 8.6943 5.5555
# 5 31.1838 18.6013 34.9997 8.6943 34.1567 9.7452
# 6 2.5206 -6.6355 2.3380 5.5555 9.7452 32.5670
#
#
#
# Elastic Compliance Matrix: (Units=1/GPa)
#
#
# Indices 1 2 3 4 5 6 
#
# 1 0.013395 -0.001821 0.004846 0.000019 -0.017172 0.003380
# 2 -0.001821 0.007067 -0.003413 -0.000981 0.001084 0.001669
# 3 0.004846 -0.003413 0.017424 -0.001724 -0.021213 0.004320
# 4 0.000019 -0.000981 -0.001724 0.025796 -0.003286 -0.003495
# 5 -0.017172 0.001084 -0.021213 -0.003286 0.072051 -0.017927
# 6 0.003380 0.001669 0.004320 -0.003495 -0.017927 0.036435
#
#
# Mechanical properties :
#
#
# Convention : Reuss Voigt Hill
#
# Bulk Modulus (GPa) = 26.94714 64.85572 45.90143
# Shear Modulus (GPa) = 26.98130 41.82749 34.40440
#
# Velocity S-wave (km/s) = 3.27505 4.07772 3.69822
# Velocity P-wave (km/s) = 5.00136 6.92478 6.04013
#
# Compressibility (1/GPa) = 0.03710969
#
# Stress axis : x y z
#
# Youngs Moduli (GPa) = 74.65401 141.49625 57.39349
#
# Poissons Ratio (x) = 0.25766 -0.27811
# Poissons Ratio (y) = 0.13594 0.19588
# Poissons Ratio (z) = -0.36175 0.48292
#
# Static dielectric constant tensor:
#      x y z
#    x 2.024930 0.041050 -0.062580 
#    y 0.041050 2.019570 -0.012940 
#    z -0.062580 -0.012940 2.043280 
# 
# From -- ./inp_files/474315.got.cif
#   From: 2010.05.17/outbox.cif.g08.bks.cpg/sg2_238_cif.got.tgz:474315.got - 2010.06.03 11:33:40.
