data_PCOD9021594
_publ_section_title
;
Structure prediction by ZEFSAII (Michael W. Deem and Ramdas Pophale) SiO2 
 PCOD9021594
Probable space group: P -1
;
_chemical_formula_sum "Si O2"
_cell_formula_units_Z 16
_cell_length_a 14.308721
_cell_length_b 22.434252
_cell_length_c 14.250007
_cell_angle_alpha 158.682527
_cell_angle_beta 149.660281
_cell_angle_gamma 26.030207
_cell_volume 720.040691
_symmetry_space_group_name_H-M "P -1"
_symmetry_group_IT_number 2
_symmetry_cell_setting 'triclinic'
loop_
_space_group_symop_operation_xyz
x,y,z
-x,-y,-z
loop_
_atom_site_type_symbol
_atom_site_label
_atom_site_fract_x
_atom_site_fract_y
_atom_site_fract_z
Si Si1 0.134376 0.226812 0.291807
Si Si2 0.799795 0.575360 0.006777
Si Si3 0.445677 0.338925 0.689510
Si Si4 0.758855 0.876787 0.553948
Si Si5 0.221642 0.791974 0.536987
Si Si6 0.535123 0.836235 0.994256
Si Si7 0.150863 0.915721 0.218291
Si Si8 0.635407 0.051030 0.265591
O O1 0.206494 0.381750 0.568215
O O2 0.162803 0.168109 0.338424
O O3 0.916371 0.242769 0.089402
O O4 0.324798 0.044746 0.134330
O O5 0.770428 0.403646 0.762476
O O6 0.609187 0.730053 0.001389
O O7 0.831629 0.680864 0.275494
O O8 0.000000 0.500000 0.000000
O O9 0.615419 0.169746 0.658219
O O10 0.510697 0.247350 0.507030
O O11 0.500000 0.500000 0.000000
O O12 0.500000 0.000000 0.500000
O O13 0.851526 0.988219 0.740692
O O14 0.446307 0.735512 0.701540
O O15 0.207242 0.917372 0.618389
O O16 0.025682 0.923538 0.630168
O O17 0.701988 0.880641 0.149523
O O18 0.500000 0.000000 0.000000
#
# Coordination Sequence:
#
# PCOD9021594 Si02
#       8
#     2   2   2   2   2   2   2   2
#     4  10  22  41  67  92 127 172 216 260 328 390
#     4  12  23  37  60  95 131 159 216 272 319 376
#     4  11  24  42  66  94 132 170 218 275 324 383
#     4  12  21  40  66  91 129 172 213 262 331 392
#     4  10  22  38  63  93 125 165 214 265 326 384
#     4   9  19  41  62  88 127 168 206 266 321 387
#     4  11  23  43  66  93 128 172 217 265 326 396
#     4   9  20  41  67  91 123 170 217 256 329 397
#
# _framework density 22.220965
#
# number of rings (size 3 to 8) (size 9 to 14) (size 15 to 20)
#    0.000    1.500    3.750    2.250    1.750    1.000 
#    0.000    2.500    0.000    0.000    0.000    0.000 
#    0.000    0.000    0.000    0.000    0.000    0.000 
#
# Total GULP energy -89316.703288 kJ/mol
# GULP energy per Si atom -5582.293955 kJ/mol
# Density = 2.217039 g / cm^3
# Si number density = 22.220965 Si / 1000 Ang^3
#
#
#
# Elastic Constant Matrix: (Units=GPa)
#
#
# Indices 1 2 3 4 5 6 
#
# 1 114.7753 2.9456 31.1609 0.9304 17.7309 5.5467
# 2 2.9456 32.3512 13.3588 -15.5153 8.6498 11.1430
# 3 31.1609 13.3588 154.4607 -4.7775 20.7965 4.7635
# 4 0.9304 -15.5153 -4.7775 32.6245 4.5757 -1.0237
# 5 17.7309 8.6498 20.7965 4.5757 46.5480 -0.0500
# 6 5.5467 11.1430 4.7635 -1.0237 -0.0500 22.8993
#
#
#
# Elastic Compliance Matrix: (Units=1/GPa)
#
#
# Indices 1 2 3 4 5 6 
#
# 1 0.009767 0.002215 -0.001562 0.000944 -0.003530 -0.003084
# 2 0.002215 0.058080 -0.001926 0.028330 -0.013590 -0.027161
# 3 -0.001562 -0.001926 0.007295 0.000522 -0.002358 -0.000184
# 4 0.000944 0.028330 0.000522 0.045241 -0.010317 -0.012123
# 5 -0.003530 -0.013590 -0.002358 -0.010317 0.027429 0.007557
# 6 -0.003084 -0.027161 -0.000184 -0.012123 0.007557 0.057146
#
#
# Mechanical properties :
#
#
# Convention : Reuss Voigt Hill
#
# Bulk Modulus (GPa) = 13.77517 44.05753 28.91635
# Shear Modulus (GPa) = 21.57927 37.35582 29.46754
#
# Velocity S-wave (km/s) = 3.11966 4.10458 3.64554
# Velocity P-wave (km/s) = 4.38053 6.50642 5.54628
#
# Compressibility (1/GPa) = 0.07259437
#
# Stress axis : x y z
#
# Youngs Moduli (GPa) = 102.38874 17.21757 137.07724
#
# Poissons Ratio (x) = -0.03813 0.21415
# Poissons Ratio (y) = -0.22677 0.26406
# Poissons Ratio (z) = 0.15996 0.03317
#
# Static dielectric constant tensor:
#      x y z
#    x 1.790740 -0.009080 0.043280 
#    y -0.009080 1.868770 0.002910 
#    z 0.043280 0.002910 1.843660 
# 
# From -- ./inp_files/535463.got.cif
#   From: 2010.05.17/outbox.cif.g08.bks.cpg/sg2_268_cif.got.tgz:535463.got - 2010.06.03 11:33:40.
