data_PCOD9021275
_publ_section_title
;
Structure prediction by ZEFSAII (Michael W. Deem and Ramdas Pophale) SiO2 
 PCOD9021275
Probable space group: P -1
;
_chemical_formula_sum "Si O2"
_cell_formula_units_Z 16
_cell_length_a 13.985585
_cell_length_b 9.054674
_cell_length_c 15.273404
_cell_angle_alpha 91.130282
_cell_angle_beta 40.351383
_cell_angle_gamma 59.559637
_cell_volume 741.348232
_symmetry_space_group_name_H-M "P -1"
_symmetry_group_IT_number 2
_symmetry_cell_setting 'triclinic'
loop_
_space_group_symop_operation_xyz
x,y,z
-x,-y,-z
loop_
_atom_site_type_symbol
_atom_site_label
_atom_site_fract_x
_atom_site_fract_y
_atom_site_fract_z
Si Si1 0.481342 0.319607 0.127344
Si Si2 0.014097 0.077356 0.131680
Si Si3 0.246609 0.784634 0.378884
Si Si4 0.707077 0.715298 0.885543
Si Si5 0.282731 0.307068 0.428561
Si Si6 0.602114 0.768962 0.161218
Si Si7 0.366198 0.539267 0.460826
Si Si8 0.880572 0.290242 0.050833
O O1 0.764552 0.065220 0.957002
O O2 0.424908 0.531301 0.197930
O O3 0.398690 0.347902 0.087596
O O4 0.317990 0.348129 0.307253
O O5 0.016315 0.903618 0.098105
O O6 0.758800 0.324974 0.359209
O O7 0.044449 0.147504 0.022305
O O8 0.380704 0.829885 0.301597
O O9 0.193824 0.749225 0.507679
O O10 0.000000 0.000000 0.500000
O O11 0.990960 0.511153 0.652933
O O12 0.705370 0.719797 0.991800
O O13 0.500000 0.000000 0.000000
O O14 0.372137 0.361829 0.433765
O O15 0.465395 0.019295 0.301907
O O16 0.805611 0.511989 0.071864
O O17 0.627119 0.409021 0.258680
#
# Coordination Sequence:
#
# PCOD9021275 Si02
#       8
#     2   2   2   2   2   2   2   2
#     4  11  22  41  63  94 123 168 214 254 316 377
#     4  11  21  42  73  91 124 162 223 261 317 375
#     4  10  22  38  59  92 131 161 201 270 312 362
#     4  12  25  37  66  93 129 177 209 248 317 388
#     4  11  23  42  62  90 136 166 206 262 307 387
#     4  11  24  42  61  95 132 164 213 257 326 371
#     4  10  22  40  68  93 123 168 215 252 321 381
#     4  10  23  45  67  96 123 164 209 283 313 359
#
# _framework density 21.582298999999999
#
# number of rings (size 3 to 8) (size 9 to 14) (size 15 to 20)
#    0.000    1.250    5.000    2.250    5.250    3.500 
#    0.000    1.250    0.000    0.000    0.000    0.000 
#    0.000    0.000    0.000    0.000    0.000    0.000 
#
# Total GULP energy -89408.077801 kJ/mol
# GULP energy per Si atom -5588.004863 kJ/mol
# Density = 2.153318 g / cm^3
# Si number density = 21.582299 Si / 1000 Ang^3
#
#
#
# Elastic Constant Matrix: (Units=GPa)
#
#
# Indices 1 2 3 4 5 6 
#
# 1 58.1286 19.2973 46.5212 9.0565 3.7049 6.1023
# 2 19.2973 110.2380 43.5605 19.4026 6.7171 11.1711
# 3 46.5212 43.5605 108.0871 15.3515 18.1477 11.2535
# 4 9.0565 19.4026 15.3515 16.7872 0.9854 -3.2214
# 5 3.7049 6.7171 18.1477 0.9854 32.8239 9.3638
# 6 6.1023 11.1711 11.2535 -3.2214 9.3638 32.6504
#
#
#
# Elastic Compliance Matrix: (Units=1/GPa)
#
#
# Indices 1 2 3 4 5 6 
#
# 1 0.027181 0.000956 -0.011608 -0.006021 0.004254 -0.003220
# 2 0.000956 0.013093 -0.003386 -0.013587 0.000949 -0.005104
# 3 -0.011608 -0.003386 0.017817 -0.005940 -0.007297 -0.001306
# 4 -0.006021 -0.013587 -0.005940 0.087173 -0.000607 0.016596
# 5 0.004254 0.000949 -0.007297 -0.000607 0.036444 -0.009117
# 6 -0.003220 -0.005104 -0.001306 0.016596 -0.009117 0.037678
#
#
# Mechanical properties :
#
#
# Convention : Reuss Voigt Hill
#
# Bulk Modulus (GPa) = 33.31729 55.02351 44.17040
# Shear Modulus (GPa) = 19.41998 27.59062 23.50530
#
# Velocity S-wave (km/s) = 3.00294 3.57934 3.30373
# Velocity P-wave (km/s) = 5.24351 6.52934 5.92143
#
# Compressibility (1/GPa) = 0.03001445
#
# Stress axis : x y z
#
# Youngs Moduli (GPa) = 36.79079 76.37834 56.12572
#
# Poissons Ratio (x) = -0.07298 0.65148
# Poissons Ratio (y) = -0.03515 0.19004
# Poissons Ratio (z) = 0.42705 0.25862
#
# Static dielectric constant tensor:
#      x y z
#    x 1.867160 -0.040230 -0.007080 
#    y -0.040230 1.830360 0.024250 
#    z -0.007080 0.024250 1.799170 
# 
# From -- ./inp_files/528570.got.cif
#   From: 2010.05.17/outbox.cif.g08.bks.cpg/sg2_265_cif.got.tgz:528570.got - 2010.06.03 11:33:40.
