data_PCOD9021344
_publ_section_title
;
Structure prediction by ZEFSAII (Michael W. Deem and Ramdas Pophale) SiO2 
 PCOD9021344
Probable space group: P -1
;
_chemical_formula_sum "Si O2"
_cell_formula_units_Z 16
_cell_length_a 13.831696
_cell_length_b 9.197381
_cell_length_c 11.948894
_cell_angle_alpha 45.922422
_cell_angle_beta 139.657062
_cell_angle_gamma 109.477552
_cell_volume 640.546553
_symmetry_space_group_name_H-M "P -1"
_symmetry_group_IT_number 2
_symmetry_cell_setting 'triclinic'
loop_
_space_group_symop_operation_xyz
x,y,z
-x,-y,-z
loop_
_atom_site_type_symbol
_atom_site_label
_atom_site_fract_x
_atom_site_fract_y
_atom_site_fract_z
Si Si1 0.282553 0.757387 0.743185
Si Si2 0.657313 0.777388 0.720256
Si Si3 0.208930 0.393107 0.456072
Si Si4 0.652358 0.540615 0.245895
Si Si5 0.841011 0.159848 0.967747
Si Si6 0.188603 0.934181 0.338806
Si Si7 0.102353 0.714559 0.797063
Si Si8 0.491799 0.259581 0.623334
O O1 0.292529 0.549345 0.783476
O O2 0.245367 0.937603 0.515081
O O3 0.135842 0.848684 0.652757
O O4 0.460676 0.698575 0.984096
O O5 0.611725 0.750052 0.568191
O O6 0.500000 0.000000 0.500000
O O7 0.801074 0.859208 0.821180
O O8 0.737674 0.522459 0.967014
O O9 0.234626 0.386487 0.616278
O O10 0.177522 0.627158 0.239592
O O11 0.392215 0.237774 0.653763
O O12 0.060588 0.328709 0.329974
O O13 0.680076 0.305801 0.458135
O O14 0.684189 0.101852 0.862716
O O15 0.868305 0.219002 0.087861
O O16 0.004480 0.959185 0.171931
O O17 0.500000 0.500000 0.500000
#
# Coordination Sequence:
#
# PCOD9021344 Si02
#       8
#     2   2   2   2   2   2   2   2
#     4   9  22  42  63  86 131 177 209 248 324 389
#     4  12  24  37  65  99 127 160 213 271 310 365
#     4  11  21  37  66  91 123 164 218 260 307 379
#     4   9  21  41  64  87 126 179 210 246 320 387
#     4  11  22  38  65  91 130 159 216 259 330 358
#     4  10  22  41  60  95 130 160 211 262 317 369
#     4  12  22  40  63  95 123 172 211 259 318 385
#     4  10  22  38  60  93 126 167 205 255 322 382
#
# _framework density 24.978667999999999
#
# number of rings (size 3 to 8) (size 9 to 14) (size 15 to 20)
#    0.750    0.750    3.750    2.625    5.250    2.500 
#    0.000    1.250    0.000    3.000    0.000    0.000 
#    0.000    0.000    0.000    0.000    0.000    0.000 
#
# Total GULP energy -89248.578860 kJ/mol
# GULP energy per Si atom -5578.036179 kJ/mol
# Density = 2.492182 g / cm^3
# Si number density = 24.978668 Si / 1000 Ang^3
#
#
#
# Elastic Constant Matrix: (Units=GPa)
#
#
# Indices 1 2 3 4 5 6 
#
# 1 78.0835 17.4490 22.6763 17.0837 11.2612 -10.9587
# 2 17.4490 47.0721 14.7113 18.9959 -6.7075 -15.1280
# 3 22.6763 14.7113 65.6417 25.7968 17.2470 2.5849
# 4 17.0837 18.9959 25.7968 45.3712 -8.8770 -3.6871
# 5 11.2612 -6.7075 17.2470 -8.8770 45.0615 7.7924
# 6 -10.9587 -15.1280 2.5849 -3.6871 7.7924 26.0028
#
#
#
# Elastic Compliance Matrix: (Units=1/GPa)
#
#
# Indices 1 2 3 4 5 6 
#
# 1 0.016810 -0.002180 -0.002206 -0.004728 -0.005843 0.007116
# 2 -0.002180 0.032528 -0.004622 -0.008308 0.002668 0.016488
# 3 -0.002206 -0.004622 0.026380 -0.015036 -0.012390 -0.004660
# 4 -0.004728 -0.008308 -0.015036 0.038244 0.013940 -0.004086
# 5 -0.005843 0.002668 -0.012390 0.013940 0.032842 -0.007544
# 6 0.007116 0.016488 -0.004660 -0.004086 -0.007544 0.053194
#
#
# Mechanical properties :
#
#
# Convention : Reuss Voigt Hill
#
# Bulk Modulus (GPa) = 17.32993 33.38562 25.35777
# Shear Modulus (GPa) = 21.07505 32.35116 26.71311
#
# Velocity S-wave (km/s) = 2.90784 3.60273 3.27377
# Velocity P-wave (km/s) = 4.26931 5.54083 4.94610
#
# Compressibility (1/GPa) = 0.05770365
#
# Stress axis : x y z
#
# Youngs Moduli (GPa) = 59.48726 30.74241 37.90758
#
# Poissons Ratio (x) = 0.06701 0.08361
# Poissons Ratio (y) = 0.12966 0.17522
# Poissons Ratio (z) = 0.13121 0.14210
#
# Static dielectric constant tensor:
#      x y z
#    x 2.013840 0.000930 0.043050 
#    y 0.000930 2.043670 -0.112550 
#    z 0.043050 -0.112550 2.070530 
# 
# From -- ./inp_files/446997.got.cif
#   From: 2010.05.17/outbox.cif.g08.bks.cpg/sg2_224_cif.got.tgz:446997.got - 2010.06.03 11:33:40.
