data_PCOD9021592
_publ_section_title
;
Structure prediction by ZEFSAII (Michael W. Deem and Ramdas Pophale) SiO2 
 PCOD9021592
Probable space group: P -1
;
_chemical_formula_sum "Si O2"
_cell_formula_units_Z 16
_cell_length_a 6.475389
_cell_length_b 22.903703
_cell_length_c 10.279799
_cell_angle_alpha 145.093457
_cell_angle_beta 102.042455
_cell_angle_gamma 60.473655
_cell_volume 698.157232
_symmetry_space_group_name_H-M "P -1"
_symmetry_group_IT_number 2
_symmetry_cell_setting 'triclinic'
loop_
_space_group_symop_operation_xyz
x,y,z
-x,-y,-z
loop_
_atom_site_type_symbol
_atom_site_label
_atom_site_fract_x
_atom_site_fract_y
_atom_site_fract_z
Si Si1 0.757854 0.273408 0.856499
Si Si2 0.088078 0.284464 0.388909
Si Si3 0.496835 0.455215 0.660834
Si Si4 0.406931 0.858866 0.239955
Si Si5 0.710879 0.928004 0.567310
Si Si6 0.037684 0.108980 0.211066
Si Si7 0.517198 0.676821 0.352892
Si Si8 0.762300 0.642200 0.709547
O O1 0.767090 0.178591 0.786076
O O2 0.535998 0.318274 0.798377
O O3 0.029560 0.197411 0.680879
O O4 0.680346 0.401684 0.144563
O O5 0.094238 0.161882 0.190330
O O6 0.282221 0.290776 0.522282
O O7 0.162854 0.295234 0.273756
O O8 0.796474 0.401024 0.594828
O O9 0.406183 0.444576 0.774202
O O10 0.455033 0.369581 0.405903
O O11 0.482119 0.921738 0.472696
O O12 0.302407 0.955406 0.283613
O O13 0.651966 0.727968 0.978001
O O14 0.738706 0.929295 0.726301
O O15 0.763604 0.222230 0.438853
O O16 0.000000 0.000000 0.000000
O O17 0.000000 0.500000 0.500000
#
# Coordination Sequence:
#
# PCOD9021592 Si02
#       8
#     2   2   2   2   2   2   2   2
#     4  11  21  40  64  89 124 166 202 254 312 365
#     4  10  22  40  61  92 124 161 207 254 316 360
#     4  10  22  38  63  93 124 157 208 259 309 365
#     4  11  24  41  63  88 128 166 208 251 302 375
#     4  10  24  43  60  91 124 162 208 258 304 370
#     4  10  22  41  65  91 123 159 210 263 304 365
#     4   9  21  39  60  94 122 158 206 253 313 369
#     4  11  24  42  62  93 126 164 208 253 306 372
#
# _framework density 22.917473999999999
#
# number of rings (size 3 to 8) (size 9 to 14) (size 15 to 20)
#    0.000    1.750    0.000    3.000    5.250    5.000 
#    9.000    0.000    0.000    0.000    0.000    0.000 
#    0.000    0.000    0.000    0.000    0.000    0.000 
#
# Total GULP energy -89459.506279 kJ/mol
# GULP energy per Si atom -5591.219142 kJ/mol
# Density = 2.286531 g / cm^3
# Si number density = 22.917474 Si / 1000 Ang^3
#
#
#
# Elastic Constant Matrix: (Units=GPa)
#
#
# Indices 1 2 3 4 5 6 
#
# 1 60.2759 3.2203 1.6642 1.2039 16.4837 6.1514
# 2 3.2203 56.3330 1.1478 5.9599 13.9502 0.8316
# 3 1.6642 1.1478 50.4921 7.1129 14.1735 14.8532
# 4 1.2039 5.9599 7.1129 29.3962 5.1414 4.3964
# 5 16.4837 13.9502 14.1735 5.1414 29.5935 11.1891
# 6 6.1514 0.8316 14.8532 4.3964 11.1891 32.9834
#
#
#
# Elastic Compliance Matrix: (Units=1/GPa)
#
#
# Indices 1 2 3 4 5 6 
#
# 1 0.020170 0.002109 0.003254 0.000445 -0.013589 -0.000730
# 2 0.002109 0.021054 0.002732 -0.003161 -0.012852 0.002627
# 3 0.003254 0.002732 0.025770 -0.003686 -0.011867 -0.007764
# 4 0.000445 -0.003161 -0.003686 0.036307 -0.002405 -0.002367
# 5 -0.013589 -0.012852 -0.011867 -0.002405 0.057698 -0.011050
# 6 -0.000730 0.002627 -0.007764 -0.002367 -0.011050 0.037948
#
#
# Mechanical properties :
#
#
# Convention : Reuss Voigt Hill
#
# Bulk Modulus (GPa) = 12.02163 19.90728 15.96446
# Shear Modulus (GPa) = 23.75482 29.13253 26.44368
#
# Velocity S-wave (km/s) = 3.22302 3.56925 3.40054
# Velocity P-wave (km/s) = 4.37121 5.06867 4.73281
#
# Compressibility (1/GPa) = 0.08318338
#
# Stress axis : x y z
#
# Youngs Moduli (GPa) = 49.57981 47.49777 38.80509
#
# Poissons Ratio (x) = -0.10020 -0.12626
# Poissons Ratio (y) = -0.10459 -0.10602
# Poissons Ratio (z) = -0.16131 -0.12977
#
# Static dielectric constant tensor:
#      x y z
#    x 1.840120 -0.004940 0.019290 
#    y -0.004940 1.908690 0.019610 
#    z 0.019290 0.019610 1.853290 
# 
# From -- ./inp_files/69179.got.cif
#   From: 2010.05.17/outbox.cif.g08.bks.cpg/sg2_35_cif.got.tgz:69179.got - 2010.06.03 11:33:40.
