data_PCOD9021764
_publ_section_title
;
Structure prediction by ZEFSAII (Michael W. Deem and Ramdas Pophale) SiO2 
 PCOD9021764
Probable space group: P -1
;
_chemical_formula_sum "Si O2"
_cell_formula_units_Z 16
_cell_length_a 18.112424
_cell_length_b 5.297341
_cell_length_c 14.279884
_cell_angle_alpha 96.559136
_cell_angle_beta 31.850241
_cell_angle_gamma 86.070968
_cell_volume 681.527637
_symmetry_space_group_name_H-M "P -1"
_symmetry_group_IT_number 2
_symmetry_cell_setting 'triclinic'
loop_
_space_group_symop_operation_xyz
x,y,z
-x,-y,-z
loop_
_atom_site_type_symbol
_atom_site_label
_atom_site_fract_x
_atom_site_fract_y
_atom_site_fract_z
Si Si1 0.301871 0.951551 0.762694
Si Si2 0.325611 0.123939 0.182343
Si Si3 0.135197 0.619903 0.840722
Si Si4 0.784855 0.846799 0.495399
Si Si5 0.828195 0.326832 0.716636
Si Si6 0.965856 0.681747 0.860886
Si Si7 0.002628 0.077314 0.346719
Si Si8 0.402646 0.117818 0.473463
O O1 0.190580 0.780341 0.866857
O O2 0.432986 0.871691 0.692132
O O3 0.376800 0.934361 0.578694
O O4 0.193394 0.249312 0.914792
O O5 0.263148 0.239982 0.356771
O O6 0.271297 0.368802 0.177858
O O7 0.262458 0.881978 0.214021
O O8 0.500000 0.000000 0.000000
O O9 0.283188 0.399042 0.638844
O O10 0.067468 0.792968 0.827529
O O11 0.000000 0.500000 0.000000
O O12 0.649485 0.945184 0.574092
O O13 0.922698 0.614310 0.292301
O O14 0.850447 0.079859 0.462623
O O15 0.957072 0.258526 0.495698
O O16 0.908803 0.218138 0.722907
O O17 0.921154 0.821206 0.814682
#
# Coordination Sequence:
#
# PCOD9021764 Si02
#       8
#     2   2   2   2   2   2   2   2
#     4  11  23  39  63  91 130 171 221 274 337 396
#     4  11  23  44  70  95 138 177 225 270 351 413
#     4  11  22  38  63  91 126 176 222 271 333 403
#     4  10  23  40  63  94 128 170 219 277 336 400
#     4  10  23  41  67  99 129 177 220 283 339 404
#     4  11  22  36  64  93 126 166 229 271 330 397
#     4  10  22  38  65  92 132 163 227 278 334 396
#     4  10  23  42  60  91 131 171 217 275 341 397
#
# _framework density 23.476669999999999
#
# number of rings (size 3 to 8) (size 9 to 14) (size 15 to 20)
#    0.000    1.500    2.500    1.875    5.250    2.500 
#    0.000    0.000    0.000    0.000    0.000    0.000 
#    0.000    0.000    0.000    0.000    0.000    0.000 
#
# Total GULP energy -89285.952927 kJ/mol
# GULP energy per Si atom -5580.372058 kJ/mol
# Density = 2.342324 g / cm^3
# Si number density = 23.476670 Si / 1000 Ang^3
#
#
#
# Elastic Constant Matrix: (Units=GPa)
#
#
# Indices 1 2 3 4 5 6 
#
# 1 155.8801 39.4354 29.3722 -10.2231 -30.6056 -0.3408
# 2 39.4354 91.4056 24.0791 -3.2503 -15.4588 0.5511
# 3 29.3722 24.0791 88.1188 6.1794 -32.1839 7.8568
# 4 -10.2231 -3.2503 6.1794 23.7467 -10.0235 -2.4281
# 5 -30.6056 -15.4588 -32.1839 -10.0235 41.7500 -2.6892
# 6 -0.3408 0.5511 7.8568 -2.4281 -2.6892 38.9251
#
#
#
# Elastic Compliance Matrix: (Units=1/GPa)
#
#
# Indices 1 2 3 4 5 6 
#
# 1 0.008898 -0.002326 -0.000300 0.006701 0.007108 0.001081
# 2 -0.002326 0.012939 -0.002267 0.002217 0.001904 0.000524
# 3 -0.000300 -0.002267 0.016485 -0.000154 0.011449 -0.002517
# 4 0.006701 0.002217 -0.000154 0.053769 0.018827 0.004713
# 5 0.007108 0.001904 0.011449 0.018827 0.043336 0.001893
# 6 0.001081 0.000524 -0.002517 0.004713 0.001893 0.026625
#
#
# Mechanical properties :
#
#
# Convention : Reuss Voigt Hill
#
# Bulk Modulus (GPa) = 35.04498 57.90867 46.47683
# Shear Modulus (GPa) = 27.57130 37.05220 32.31175
#
# Velocity S-wave (km/s) = 3.43069 3.97704 3.71392
# Velocity P-wave (km/s) = 5.53650 6.76824 6.18312
#
# Compressibility (1/GPa) = 0.02853475
#
# Stress axis : x y z
#
# Youngs Moduli (GPa) = 112.38901 77.28830 60.66270
#
# Poissons Ratio (x) = 0.17975 0.01822
# Poissons Ratio (y) = 0.26138 0.13752
# Poissons Ratio (z) = 0.03376 0.17521
#
# Static dielectric constant tensor:
#      x y z
#    x 1.994920 -0.033160 0.074140 
#    y -0.033160 1.998680 -0.055780 
#    z 0.074140 -0.055780 1.893630 
# 
# From -- ./inp_files/124821.got.cif
#   From: 2010.05.17/outbox.cif.g08.bks.cpg/sg2_63_cif.got.tgz:124821.got - 2010.06.03 11:33:40.
