data_PCOD9021977
_publ_section_title
;
Structure prediction by ZEFSAII (Michael W. Deem and Ramdas Pophale) SiO2 
 PCOD9021977
Probable space group: P -1
;
_chemical_formula_sum "Si O2"
_cell_formula_units_Z 16
_cell_length_a 5.456604
_cell_length_b 14.208226
_cell_length_c 11.973500
_cell_angle_alpha 110.680451
_cell_angle_beta 58.238472
_cell_angle_gamma 89.114642
_cell_volume 714.370630
_symmetry_space_group_name_H-M "P -1"
_symmetry_group_IT_number 2
_symmetry_cell_setting 'triclinic'
loop_
_space_group_symop_operation_xyz
x,y,z
-x,-y,-z
loop_
_atom_site_type_symbol
_atom_site_label
_atom_site_fract_x
_atom_site_fract_y
_atom_site_fract_z
Si Si1 0.736734 0.219767 0.551835
Si Si2 0.833158 0.444672 0.927958
Si Si3 0.836850 0.996701 0.373623
Si Si4 0.025968 0.238217 0.717701
Si Si5 0.785446 0.497129 0.322701
Si Si6 0.949624 0.725238 0.718618
Si Si7 0.137172 0.044956 0.092922
Si Si8 0.312571 0.414774 0.388722
O O1 0.380746 0.233261 0.634439
O O2 0.855499 0.266419 0.651989
O O3 0.844779 0.264018 0.431747
O O4 0.898272 0.095708 0.464657
O O5 0.876469 0.321976 0.882343
O O6 0.006964 0.451870 0.775161
O O7 0.500000 0.500000 0.000000
O O8 0.000000 0.500000 0.000000
O O9 0.006785 0.877327 0.299219
O O10 0.500000 0.000000 0.500000
O O11 0.933658 0.021332 0.235165
O O12 0.529645 0.471114 0.296725
O O13 0.632402 0.577755 0.489413
O O14 0.946874 0.380927 0.279144
O O15 0.904082 0.829910 0.842935
O O16 0.671499 0.697969 0.708666
O O17 0.500000 0.000000 0.000000
O O18 0.000000 0.000000 0.000000
O O19 0.000000 0.500000 0.500000
#
# Coordination Sequence:
#
# PCOD9021977 Si02
#       8
#     2   2   2   2   2   2   2   2
#     4  10  22  38  68 105 128 158 218 281 337 388
#     4  12  29  45  62  90 133 183 229 264 312 399
#     4   9  22  45  73 102 133 175 225 280 339 409
#     4  11  23  42  68  92 133 173 220 274 328 386
#     4  10  23  40  65  95 130 166 222 275 336 389
#     4  10  23  38  67  95 134 172 210 273 344 398
#     4  11  27  45  67 103 142 178 225 280 336 410
#     4   9  20  37  66  98 123 159 214 278 335 388
#
# _framework density 22.397335999999999
#
# number of rings (size 3 to 8) (size 9 to 14) (size 15 to 20)
#    0.000    1.750    0.000    1.875   12.250    9.000 
#    0.000    0.000    0.000    0.000    0.000    0.000 
#    0.000    0.000    0.000    0.000    0.000    0.000 
#
# Total GULP energy -89069.079070 kJ/mol
# GULP energy per Si atom -5566.817442 kJ/mol
# Density = 2.234636 g / cm^3
# Si number density = 22.397336 Si / 1000 Ang^3
#
#
#
# Elastic Constant Matrix: (Units=GPa)
#
#
# Indices 1 2 3 4 5 6 
#
# 1 122.0128 29.2676 46.8326 19.6676 22.6806 18.6186
# 2 29.2676 102.2182 31.0701 30.4526 15.6037 5.8388
# 3 46.8326 31.0701 88.1809 24.6193 27.2767 14.0972
# 4 19.6676 30.4526 24.6193 43.7016 15.9133 -4.7074
# 5 22.6806 15.6037 27.2767 15.9133 39.9695 7.3580
# 6 18.6186 5.8388 14.0972 -4.7074 7.3580 32.6381
#
#
#
# Elastic Compliance Matrix: (Units=1/GPa)
#
#
# Indices 1 2 3 4 5 6 
#
# 1 0.011224 -0.000900 -0.003781 -0.002144 -0.001752 -0.004523
# 2 -0.000900 0.013037 -0.001504 -0.008132 0.000121 -0.002369
# 3 -0.003781 -0.001504 0.018263 -0.005652 -0.006599 -0.004790
# 4 -0.002144 -0.008132 -0.005652 0.037285 -0.008898 0.012502
# 5 -0.001752 0.000121 -0.006599 -0.008898 0.034995 -0.005345
# 6 -0.004523 -0.002369 -0.004790 0.012502 -0.005345 0.038721
#
#
# Mechanical properties :
#
#
# Convention : Reuss Voigt Hill
#
# Bulk Modulus (GPa) = 33.16168 58.52806 45.84487
# Shear Modulus (GPa) = 28.41774 36.94460 32.68117
#
# Velocity S-wave (km/s) = 3.56589 4.06582 3.82403
# Velocity P-wave (km/s) = 5.63846 6.94476 6.32542
#
# Compressibility (1/GPa) = 0.03015529
#
# Stress axis : x y z
#
# Youngs Moduli (GPa) = 89.09245 76.70276 54.75523
#
# Poissons Ratio (x) = 0.06905 0.20700
# Poissons Ratio (y) = 0.08021 0.08235
# Poissons Ratio (z) = 0.33682 0.11536
#
# Static dielectric constant tensor:
#      x y z
#    x 1.904220 -0.001030 0.173520 
#    y -0.001030 1.865420 -0.054880 
#    z 0.173520 -0.054880 1.743700 
# 
# From -- ./inp_files/367902.got.cif
#   From: 2010.05.17/outbox.cif.g08.bks.cpg/sg2_184_cif.got.tgz:367902.got - 2010.06.03 11:33:40.
