data_PCOD9021150
_publ_section_title
;
Structure prediction by ZEFSAII (Michael W. Deem and Ramdas Pophale) SiO2 
 PCOD9021150
Probable space group: P -1
;
_chemical_formula_sum "Si O2"
_cell_formula_units_Z 14
_cell_length_a 14.748409
_cell_length_b 17.130202
_cell_length_c 7.893345
_cell_angle_alpha 48.578771
_cell_angle_beta 45.690219
_cell_angle_gamma 24.083988
_cell_volume 580.374792
_symmetry_space_group_name_H-M "P -1"
_symmetry_group_IT_number 2
_symmetry_cell_setting 'triclinic'
loop_
_space_group_symop_operation_xyz
x,y,z
-x,-y,-z
loop_
_atom_site_type_symbol
_atom_site_label
_atom_site_fract_x
_atom_site_fract_y
_atom_site_fract_z
Si Si1 0.426794 0.623671 0.734384
Si Si2 0.169875 0.429580 0.630648
Si Si3 0.681207 0.089209 0.362254
Si Si4 0.996563 0.163691 0.393792
Si Si5 0.890227 0.303556 0.787604
Si Si6 0.788573 0.532006 0.082015
Si Si7 0.303558 0.816711 0.264521
O O1 0.336712 0.775109 0.766111
O O2 0.695614 0.420435 0.724236
O O3 0.390903 0.695837 0.494100
O O4 0.270308 0.629486 0.948796
O O5 0.414290 0.236310 0.496356
O O6 0.066854 0.603623 0.423603
O O7 0.231252 0.413624 0.773172
O O8 0.981720 0.468897 0.829717
O O9 0.802999 0.953938 0.561766
O O10 0.870362 0.926800 0.207908
O O11 0.874410 0.354689 0.236100
O O12 0.837085 0.177737 0.649971
O O13 0.124887 0.026026 0.261725
O O14 0.543194 0.702354 0.056766
#
# Coordination Sequence:
#
# PCOD9021150 Si02
#       7
#     2   2   2   2   2   2   2
#     4   9  18  30  48  72  98 126 165 198 241 293
#     4  10  21  30  48  74 104 127 163 194 246 298
#     4  10  17  32  46  78  99 124 161 201 247 290
#     4  10  19  30  52  70 102 128 158 201 249 283
#     4  10  17  31  49  69 100 132 155 204 245 281
#     4  11  19  33  47  72 105 130 157 202 241 295
#     4  10  19  34  48  77  99 124 164 202 239 297
#
# _framework density 24.122343999999998
#
# number of rings (size 3 to 8) (size 9 to 14) (size 15 to 20)
#    0.000    2.000    5.714    0.857    0.000    1.714 
#    0.000    0.000    0.000    0.857    0.000   10.000 
#    0.000    0.000    0.000    0.000    0.000    0.000 
#
# Total GULP energy -78245.504544 kJ/mol
# GULP energy per Si atom -5588.964610 kJ/mol
# Density = 2.406744 g / cm^3
# Si number density = 24.122344 Si / 1000 Ang^3
#
#
#
# Elastic Constant Matrix: (Units=GPa)
#
#
# Indices 1 2 3 4 5 6 
#
# 1 30.3292 23.4215 17.0516 14.7195 0.1541 7.3224
# 2 23.4215 129.8817 42.8096 29.1089 -18.8685 11.6326
# 3 17.0516 42.8096 153.2099 29.3359 -24.7681 4.2805
# 4 14.7195 29.1089 29.3359 29.9117 -11.5909 -2.1986
# 5 0.1541 -18.8685 -24.7681 -11.5909 27.9018 -4.3884
# 6 7.3224 11.6326 4.2805 -2.1986 -4.3884 23.5864
#
#
#
# Elastic Compliance Matrix: (Units=1/GPa)
#
#
# Indices 1 2 3 4 5 6 
#
# 1 0.059216 -0.003486 -0.002035 -0.034173 -0.022406 -0.023649
# 2 -0.003486 0.011076 -0.000633 -0.007557 0.003118 -0.004390
# 3 -0.002035 -0.000633 0.008725 -0.004905 0.005272 -0.000116
# 4 -0.034173 -0.007557 -0.004905 0.074427 0.025886 0.026980
# 5 -0.022406 0.003118 0.005272 0.025886 0.056232 0.017337
# 6 -0.023649 -0.004390 -0.000116 0.026980 0.017337 0.057666
#
#
# Mechanical properties :
#
#
# Convention : Reuss Voigt Hill
#
# Bulk Modulus (GPa) = 14.99032 53.33181 34.16107
# Shear Modulus (GPa) = 16.56247 31.62250 24.09248
#
# Velocity S-wave (km/s) = 2.62315 3.62459 3.16375
# Velocity P-wave (km/s) = 3.92458 6.29871 5.24767
#
# Compressibility (1/GPa) = 0.06670970
#
# Stress axis : x y z
#
# Youngs Moduli (GPa) = 16.88741 90.28123 114.61077
#
# Poissons Ratio (x) = 0.31471 0.23319
# Poissons Ratio (y) = 0.05887 0.07259
# Poissons Ratio (z) = 0.03436 0.05718
#
# Static dielectric constant tensor:
#      x y z
#    x 1.995190 0.014150 0.060220 
#    y 0.014150 1.914940 0.045390 
#    z 0.060220 0.045390 1.953590 
# 
# From -- ./inp_files/273549.got.cif
#   From: 2010.05.17/outbox.cif.g08.bks.cpg/sg2_137_cif.got.tgz:273549.got - 2010.06.03 11:33:40.
