data_PCOD9021090
_publ_section_title
;
Structure prediction by ZEFSAII (Michael W. Deem and Ramdas Pophale) SiO2 
 PCOD9021090
Probable space group: P -1
;
_chemical_formula_sum "Si O2"
_cell_formula_units_Z 14
_cell_length_a 14.350323
_cell_length_b 7.293949
_cell_length_c 10.396372
_cell_angle_alpha 79.468161
_cell_angle_beta 133.597760
_cell_angle_gamma 71.061881
_cell_volume 599.899037
_symmetry_space_group_name_H-M "P -1"
_symmetry_group_IT_number 2
_symmetry_cell_setting 'triclinic'
loop_
_space_group_symop_operation_xyz
x,y,z
-x,-y,-z
loop_
_atom_site_type_symbol
_atom_site_label
_atom_site_fract_x
_atom_site_fract_y
_atom_site_fract_z
Si Si1 0.994547 0.447515 0.710940
Si Si2 0.588280 0.618698 0.559683
Si Si3 0.890202 0.985701 0.297566
Si Si4 0.187293 0.572921 0.974473
Si Si5 0.537875 0.248461 0.040902
Si Si6 0.396465 0.150749 0.684140
Si Si7 0.958499 0.250553 0.931334
O O1 0.805073 0.686437 0.524149
O O2 0.056204 0.283850 0.920030
O O3 0.988284 0.726697 0.358144
O O4 0.124758 0.496319 0.812236
O O5 0.500000 0.500000 0.500000
O O6 0.646797 0.617972 0.760151
O O7 0.525329 0.837294 0.375655
O O8 0.765928 0.424439 0.685189
O O9 0.821737 0.203645 0.103955
O O10 0.729041 0.056868 0.205539
O O11 0.000000 0.000000 0.500000
O O12 0.043323 0.679830 0.933335
O O13 0.435870 0.261296 0.821770
O O14 0.500000 0.500000 0.000000
O O15 0.521038 0.121428 0.160304
O O16 0.000000 0.000000 0.000000
#
# Coordination Sequence:
#
# PCOD9021090 Si02
#       7
#     2   2   2   2   2   2   2
#     4  11  21  41  66  99 131 162 222 275 322 397
#     4   9  19  38  63  97 129 166 219 266 325 390
#     4  12  25  41  67  97 131 175 221 270 328 388
#     4  10  22  37  66  96 132 170 211 270 335 379
#     4  11  25  46  62  89 131 176 222 269 324 392
#     4  10  23  40  67  92 127 172 217 268 328 385
#     4   9  18  36  63  93 131 169 204 263 331 382
#
# _framework density 23.337261999999999
#
# number of rings (size 3 to 8) (size 9 to 14) (size 15 to 20)
#    0.857    0.857    1.429    3.000    0.000    4.571 
#    0.000    1.429    0.000    4.286    0.000    0.000 
#    0.000    0.000    0.000    0.000    0.000    0.000 
#
# Total GULP energy -78070.716078 kJ/mol
# GULP energy per Si atom -5576.479720 kJ/mol
# Density = 2.328415 g / cm^3
# Si number density = 23.337262 Si / 1000 Ang^3
#
#
#
# Elastic Constant Matrix: (Units=GPa)
#
#
# Indices 1 2 3 4 5 6 
#
# 1 71.4039 22.0511 37.1378 2.1595 -11.7974 14.4267
# 2 22.0511 147.2440 39.1618 3.5704 -20.0102 26.0067
# 3 37.1378 39.1618 96.1699 11.5387 -26.6423 26.3627
# 4 2.1595 3.5704 11.5387 38.8457 11.8080 -1.0299
# 5 -11.7974 -20.0102 -26.6423 11.8080 40.3823 0.6131
# 6 14.4267 26.0067 26.3627 -1.0299 0.6131 31.5538
#
#
#
# Elastic Compliance Matrix: (Units=1/GPa)
#
#
# Indices 1 2 3 4 5 6 
#
# 1 0.017867 -0.000466 -0.005450 0.000158 0.001396 -0.003254
# 2 -0.000466 0.008927 0.000621 -0.002910 0.005667 -0.007868
# 3 -0.005450 0.000621 0.024335 -0.013246 0.018934 -0.019151
# 4 0.000158 -0.002910 -0.013246 0.036750 -0.021109 0.015003
# 5 0.001396 0.005667 0.018934 -0.021109 0.046989 -0.022731
# 6 -0.003254 -0.007868 -0.019151 0.015003 -0.022731 0.056596
#
#
# Mechanical properties :
#
#
# Convention : Reuss Voigt Hill
#
# Bulk Modulus (GPa) = 24.66811 56.83547 40.75179
# Shear Modulus (GPa) = 23.19483 36.58749 29.89116
#
# Velocity S-wave (km/s) = 3.15603 3.96380 3.58276
# Velocity P-wave (km/s) = 4.88610 6.73467 5.88344
#
# Compressibility (1/GPa) = 0.04053816
#
# Stress axis : x y z
#
# Youngs Moduli (GPa) = 55.97048 112.02599 41.09376
#
# Poissons Ratio (x) = 0.05215 0.22397
# Poissons Ratio (y) = 0.02606 -0.02552
# Poissons Ratio (z) = 0.30505 -0.06956
#
# Static dielectric constant tensor:
#      x y z
#    x 1.921540 0.018550 -0.152390 
#    y 0.018550 1.909880 -0.133360 
#    z -0.152390 -0.133360 1.838800 
# 
# From -- ./inp_files/444215.got.cif
#   From: 2010.05.17/outbox.cif.g08.bks.cpg/sg2_223_cif.got.tgz:444215.got - 2010.06.03 11:33:40.
