data_PCOD9021677
_publ_section_title
;
Structure prediction by ZEFSAII (Michael W. Deem and Ramdas Pophale) SiO2 
 PCOD9021677
Probable space group: P -1
;
_chemical_formula_sum "Si O2"
_cell_formula_units_Z 13
_cell_length_a 9.715396
_cell_length_b 11.992436
_cell_length_c 8.624604
_cell_angle_alpha 53.455202
_cell_angle_beta 46.222184
_cell_angle_gamma 69.232209
_cell_volume 580.032749
_symmetry_space_group_name_H-M "P -1"
_symmetry_group_IT_number 2
_symmetry_cell_setting 'triclinic'
loop_
_space_group_symop_operation_xyz
x,y,z
-x,-y,-z
loop_
_atom_site_type_symbol
_atom_site_label
_atom_site_fract_x
_atom_site_fract_y
_atom_site_fract_z
Si Si1 0.515937 0.271137 0.950326
Si Si2 0.742049 0.488600 0.054740
Si Si3 0.849154 0.413367 0.366129
Si Si4 0.500000 0.000000 0.000000
Si Si5 0.573631 0.192142 0.317280
Si Si6 0.824805 0.953117 0.287950
Si Si7 0.932967 0.115583 0.567491
O O1 0.364460 0.379860 0.018801
O O2 0.693189 0.366796 0.655305
O O3 0.574950 0.202582 0.121358
O O4 0.433031 0.148865 0.000375
O O5 0.763592 0.487886 0.225100
O O6 0.628080 0.343229 0.218077
O O7 0.955406 0.498841 0.808529
O O8 0.914867 0.264815 0.380095
O O9 0.280998 0.942647 0.167825
O O10 0.358314 0.131600 0.580543
O O11 0.726105 0.083627 0.331785
O O12 0.920188 0.868270 0.417768
O O13 0.000000 0.000000 0.000000
O O14 0.000000 0.000000 0.500000
#
# Coordination Sequence:
#
# PCOD9021677 Si02
#       7
#     2   2   2   1   2   2   2
#     4  11  23  41  64  91 125 166 210 258 314 370
#     4  11  23  41  63  91 130 166 207 262 314 370
#     4  10  23  39  60  93 123 164 216 253 307 378
#     4  10  22  38  64  92 118 158 212 256 304 376
#     4  11  25  42  63  95 129 166 214 257 311 384
#     4  11  24  41  62  92 127 165 207 257 315 369
#     4  11  21  38  63  88 121 161 205 259 310 360
#
# _framework density 22.412526
#
# number of rings (size 3 to 8) (size 9 to 14) (size 15 to 20)
#    0.000    1.231    0.000    6.462    0.000   10.462 
#    0.000    0.000    0.000    0.000    0.000    0.000 
#    0.000    0.000    0.000    0.000    0.000    0.000 
#
# Total GULP energy -72445.569146 kJ/mol
# GULP energy per Si atom -5572.736088 kJ/mol
# Density = 2.236151 g / cm^3
# Si number density = 22.412526 Si / 1000 Ang^3
#
#
#
# Elastic Constant Matrix: (Units=GPa)
#
#
# Indices 1 2 3 4 5 6 
#
# 1 61.0206 19.5376 32.6696 -5.6838 -23.8450 -16.1508
# 2 19.5376 63.6052 2.4751 -19.7045 -27.8768 4.3583
# 3 32.6696 2.4751 126.5370 7.2720 -30.7143 1.2302
# 4 -5.6838 -19.7045 7.2720 31.9345 -1.7523 -3.8958
# 5 -23.8450 -27.8768 -30.7143 -1.7523 48.7390 -10.3258
# 6 -16.1508 4.3583 1.2302 -3.8958 -10.3258 26.0131
#
#
#
# Elastic Compliance Matrix: (Units=1/GPa)
#
#
# Indices 1 2 3 4 5 6 
#
# 1 0.040031 0.000985 -0.005479 0.014888 0.025099 0.037141
# 2 0.000985 0.031220 0.003400 0.020816 0.022794 0.007385
# 3 -0.005479 0.003400 0.010662 -0.001318 0.005400 -0.002530
# 4 0.014888 0.020816 -0.001318 0.051358 0.025187 0.023508
# 5 0.025099 0.022794 0.005400 0.025187 0.058281 0.038415
# 6 0.037141 0.007385 -0.002530 0.023508 0.038415 0.079154
#
#
# Mechanical properties :
#
#
# Convention : Reuss Voigt Hill
#
# Bulk Modulus (GPa) = 12.54331 40.05859 26.30095
# Shear Modulus (GPa) = 16.69615 34.43604 25.56610
#
# Velocity S-wave (km/s) = 2.73233 3.92403 3.38110
# Velocity P-wave (km/s) = 3.94499 6.20022 5.19643
#
# Compressibility (1/GPa) = 0.07972376
#
# Stress axis : x y z
#
# Youngs Moduli (GPa) = 24.98046 32.03075 93.79221
#
# Poissons Ratio (x) = -0.03154 0.51389
# Poissons Ratio (y) = -0.02460 -0.31887
# Poissons Ratio (z) = 0.13687 -0.10890
#
# Static dielectric constant tensor:
#      x y z
#    x 1.819830 0.003630 -0.009070 
#    y 0.003630 1.837380 0.048720 
#    z -0.009070 0.048720 1.867470 
# 
# From -- ./inp_files/156395.got.cif
#   From: 2010.05.17/outbox.cif.g08.bks.cpg/sg2_79_cif.got.tgz:156395.got - 2010.06.03 11:33:40.
