data_PCOD9021290
_publ_section_title
;
Structure prediction by ZEFSAII (Michael W. Deem and Ramdas Pophale) SiO2 
 PCOD9021290
Probable space group: P -1
;
_chemical_formula_sum "Si O2"
_cell_formula_units_Z 14
_cell_length_a 8.601811
_cell_length_b 11.249710
_cell_length_c 11.866928
_cell_angle_alpha 83.181983
_cell_angle_beta 81.204793
_cell_angle_gamma 141.738141
_cell_volume 647.055342
_symmetry_space_group_name_H-M "P -1"
_symmetry_group_IT_number 2
_symmetry_cell_setting 'triclinic'
loop_
_space_group_symop_operation_xyz
x,y,z
-x,-y,-z
loop_
_atom_site_type_symbol
_atom_site_label
_atom_site_fract_x
_atom_site_fract_y
_atom_site_fract_z
Si Si1 0.674046 0.319367 0.792651
Si Si2 0.316835 0.284545 0.217852
Si Si3 0.692746 0.531282 0.612711
Si Si4 0.895563 0.824563 0.375053
Si Si5 0.825320 0.148413 0.856833
Si Si6 0.050600 0.909455 0.933555
Si Si7 0.310506 0.655347 0.963865
O O1 0.805024 0.480913 0.662800
O O2 0.808687 0.275159 0.807237
O O3 0.353031 0.103521 0.824331
O O4 0.672780 0.384666 0.906501
O O5 0.392024 0.437168 0.276311
O O6 0.565122 0.355743 0.141263
O O7 0.168932 0.235105 0.124815
O O8 0.097957 0.062885 0.331352
O O9 0.896068 0.733831 0.489649
O O10 0.419906 0.335308 0.592326
O O11 0.997178 0.815308 0.255634
O O12 0.520888 0.899450 0.914515
O O13 0.935565 0.186506 0.964737
O O14 0.000000 0.000000 0.000000
O O15 0.000000 0.500000 0.000000
#
# Coordination Sequence:
#
# PCOD9021290 Si02
#       7
#     2   2   2   2   2   2   2
#     4  11  22  38  58  93 131 167 199 250 325 373
#     4  11  22  40  70  92 127 162 207 267 309 370
#     4  11  24  39  66  95 119 170 215 257 304 372
#     4  10  22  45  64  88 127 162 219 263 302 360
#     4  10  22  39  67  85 131 173 190 263 323 365
#     4  11  17  39  64  92 121 163 205 249 323 364
#     4  10  22  38  59  98 128 159 205 256 317 379
#
# _framework density 21.636479000000001
#
# number of rings (size 3 to 8) (size 9 to 14) (size 15 to 20)
#    0.000    1.429    5.714    2.143    2.000    3.429 
#    2.571    0.000    0.000    2.571    0.000    0.000 
#    0.000    0.000    0.000    0.000    0.000    0.000 
#
# Total GULP energy -78291.942973 kJ/mol
# GULP energy per Si atom -5592.281641 kJ/mol
# Density = 2.158723 g / cm^3
# Si number density = 21.636479 Si / 1000 Ang^3
#
#
#
# Elastic Constant Matrix: (Units=GPa)
#
#
# Indices 1 2 3 4 5 6 
#
# 1 89.9662 24.3517 30.7651 -26.3320 34.5382 0.4783
# 2 24.3517 77.2926 16.9731 -19.1835 12.1869 8.1192
# 3 30.7651 16.9731 86.8643 -10.8918 37.8840 4.2351
# 4 -26.3320 -19.1835 -10.8918 17.1535 -4.5181 0.7301
# 5 34.5382 12.1869 37.8840 -4.5181 43.5703 -10.3823
# 6 0.4783 8.1192 4.2351 0.7301 -10.3823 33.1485
#
#
#
# Elastic Compliance Matrix: (Units=1/GPa)
#
#
# Indices 1 2 3 4 5 6 
#
# 1 0.045340 0.012757 0.013854 0.080837 -0.048542 -0.022533
# 2 0.012757 0.023496 0.006379 0.044994 -0.020976 -0.014315
# 3 0.013854 0.006379 0.026565 0.036469 -0.036205 -0.017299
# 4 0.080837 0.044994 0.036469 0.232616 -0.096705 -0.052259
# 5 -0.048542 -0.020976 -0.036205 -0.096705 0.099151 0.043649
# 6 -0.022533 -0.014315 -0.017299 -0.052259 0.043649 0.051031
#
#
# Mechanical properties :
#
#
# Convention : Reuss Voigt Hill
#
# Bulk Modulus (GPa) = 6.19651 44.25589 25.22620
# Shear Modulus (GPa) = 10.72930 30.91000 20.81965
#
# Velocity S-wave (km/s) = 2.22927 3.78379 3.10538
# Velocity P-wave (km/s) = 3.08161 6.29191 4.95401
#
# Compressibility (1/GPa) = 0.16138113
#
# Stress axis : x y z
#
# Youngs Moduli (GPa) = 22.05568 42.55997 37.64298
#
# Poissons Ratio (x) = -0.54293 -0.52152
# Poissons Ratio (y) = -0.28136 -0.24011
# Poissons Ratio (z) = -0.30557 -0.27147
#
# Static dielectric constant tensor:
#      x y z
#    x 1.805230 -0.018600 0.017440 
#    y -0.018600 1.827080 -0.014230 
#    z 0.017440 -0.014230 1.785540 
# 
# From -- ./inp_files/330987.got.cif
#   From: 2010.05.17/outbox.cif.g08.bks.cpg/sg2_166_cif.got.tgz:330987.got - 2010.06.03 11:33:40.
