data_PCOD9021030
_publ_section_title
;
Structure prediction by ZEFSAII (Michael W. Deem and Ramdas Pophale) SiO2 
 PCOD9021030
Probable space group: P -1
;
_chemical_formula_sum "Si O2"
_cell_formula_units_Z 12
_cell_length_a 4.989078
_cell_length_b 10.038501
_cell_length_c 12.254398
_cell_angle_alpha 58.739998
_cell_angle_beta 117.037847
_cell_angle_gamma 114.584318
_cell_volume 454.027891
_symmetry_space_group_name_H-M "P -1"
_symmetry_group_IT_number 2
_symmetry_cell_setting 'triclinic'
loop_
_space_group_symop_operation_xyz
x,y,z
-x,-y,-z
loop_
_atom_site_type_symbol
_atom_site_label
_atom_site_fract_x
_atom_site_fract_y
_atom_site_fract_z
Si Si1 0.606928 0.053366 0.375317
Si Si2 0.200383 0.199821 0.110040
Si Si3 0.107416 0.618999 0.868967
Si Si4 0.628214 0.738132 0.434061
Si Si5 0.794939 0.385169 0.385163
Si Si6 0.918891 0.336391 0.802193
O O1 0.329801 0.049254 0.237696
O O2 0.741801 0.244820 0.339118
O O3 0.500000 0.000000 0.500000
O O4 0.779481 0.925089 0.411043
O O5 0.519513 0.332206 0.086544
O O6 0.022059 0.233919 0.171970
O O7 0.001886 0.213041 0.958567
O O8 0.911749 0.500835 0.793801
O O9 0.000000 0.500000 0.000000
O O10 0.447507 0.674314 0.538958
O O11 0.385274 0.728001 0.296215
O O12 0.875275 0.634568 0.500843
O O13 0.811100 0.566329 0.271013
#
# Coordination Sequence:
#
# PCOD9021030 Si02
#       6
#     2   2   2   2   2   2
#     4  10  24  44  68  90 133 173 218 257 313 396
#     4  11  24  41  66  99 123 172 215 262 321 376
#     4  10  22  37  64  97 126 159 211 262 319 374
#     4  11  26  42  62  99 129 172 209 261 328 374
#     4  11  24  41  68  91 129 171 217 259 315 383
#     4  11  23  41  69  95 133 158 216 277 317 372
#
# _framework density 26.430095000000001
#
# number of rings (size 3 to 8) (size 9 to 14) (size 15 to 20)
#    0.000    1.333    1.667    3.500    4.667    8.667 
#    0.000    0.000    0.000   10.000    0.000    0.000 
#    0.000    0.000    0.000    0.000    0.000    0.000 
#
# Total GULP energy -66938.817456 kJ/mol
# GULP energy per Si atom -5578.234788 kJ/mol
# Density = 2.636994 g / cm^3
# Si number density = 26.430095 Si / 1000 Ang^3
#
#
#
# Elastic Constant Matrix: (Units=GPa)
#
#
# Indices 1 2 3 4 5 6 
#
# 1 105.9670 -10.4739 -0.5390 10.0521 5.2964 -1.7403
# 2 -10.4739 70.0935 24.0472 11.8244 -2.1266 6.5996
# 3 -0.5390 24.0472 162.6772 11.7376 14.7567 6.3176
# 4 10.0521 11.8244 11.7376 49.4245 -1.8856 9.8858
# 5 5.2964 -2.1266 14.7567 -1.8856 27.7736 3.3422
# 6 -1.7403 6.5996 6.3176 9.8858 3.3422 30.0724
#
#
#
# Elastic Compliance Matrix: (Units=1/GPa)
#
#
# Indices 1 2 3 4 5 6 
#
# 1 0.010010 0.001737 0.000128 -0.002835 -0.002199 0.001348
# 2 0.001737 0.016101 -0.002258 -0.003155 0.002147 -0.002160
# 3 0.000128 -0.002258 0.006935 -0.001264 -0.003956 -0.000099
# 4 -0.002835 -0.003155 -0.001264 0.023456 0.003442 -0.007299
# 5 -0.002199 0.002147 -0.003956 0.003442 0.039562 -0.005296
# 6 0.001348 -0.002160 -0.000099 -0.007299 -0.005296 0.036814
#
#
# Mechanical properties :
#
#
# Convention : Reuss Voigt Hill
#
# Bulk Modulus (GPa) = 30.99719 40.53401 35.76560
# Shear Modulus (GPa) = 34.62171 43.16767 38.89469
#
# Velocity S-wave (km/s) = 3.62323 4.04577 3.84031
# Velocity P-wave (km/s) = 5.40899 6.09868 5.76416
#
# Compressibility (1/GPa) = 0.03226099
#
# Stress axis : x y z
#
# Youngs Moduli (GPa) = 99.89838 62.10618 144.19207
#
# Poissons Ratio (x) = -0.10785 -0.01848
# Poissons Ratio (y) = -0.17348 0.32553
# Poissons Ratio (z) = -0.01280 0.14021
#
# Static dielectric constant tensor:
#      x y z
#    x 2.674420 -0.061470 -0.865600 
#    y -0.061470 2.436680 -0.439260 
#    z -0.865600 -0.439260 4.436340 
# 
# From -- ./inp_files/118169.got.cif
#   From: 2010.05.17/outbox.cif.g08.bks.cpg/sg2_60_cif.got.tgz:118169.got - 2010.06.03 11:33:40.
