data_PCOD9021730
_publ_section_title
;
Structure prediction by ZEFSAII (Michael W. Deem and Ramdas Pophale) SiO2 
 PCOD9021730
Probable space group: P -1
;
_chemical_formula_sum "Si O2"
_cell_formula_units_Z 13
_cell_length_a 8.595603
_cell_length_b 16.804327
_cell_length_c 4.813574
_cell_angle_alpha 69.331477
_cell_angle_beta 115.325146
_cell_angle_gamma 129.686975
_cell_volume 480.440950
_symmetry_space_group_name_H-M "P -1"
_symmetry_group_IT_number 2
_symmetry_cell_setting 'triclinic'
loop_
_space_group_symop_operation_xyz
x,y,z
-x,-y,-z
loop_
_atom_site_type_symbol
_atom_site_label
_atom_site_fract_x
_atom_site_fract_y
_atom_site_fract_z
Si Si1 0.500000 0.000000 0.000000
Si Si2 0.480285 0.152399 0.883759
Si Si3 0.244629 0.226344 0.913605
Si Si4 0.380367 0.374014 0.346550
Si Si5 0.801316 0.328909 0.503444
Si Si6 0.775413 0.494572 0.113307
Si Si7 0.205446 0.857593 0.474959
O O1 0.351770 0.932140 0.252647
O O2 0.342140 0.043573 0.758396
O O3 0.643567 0.121890 0.165269
O O4 0.369802 0.174585 0.010911
O O5 0.606507 0.249175 0.653617
O O6 0.364255 0.330379 0.689447
O O7 0.011681 0.153452 0.695237
O O8 0.254021 0.272604 0.167839
O O9 0.612850 0.447531 0.306343
O O10 0.289089 0.442918 0.192240
O O11 0.768621 0.392239 0.167988
O O12 0.866312 0.259429 0.501308
O O13 0.990521 0.416489 0.724211
#
# Coordination Sequence:
#
# PCOD9021730 Si02
#       7
#     1   2   2   2   2   2   2
#     4   8  24  44  64 102 124 178 222 298 328 434
#     4  10  23  44  67  98 134 172 232 278 350 395
#     4  12  24  44  74  94 142 182 224 290 342 398
#     4  11  24  44  60 107 136 183 234 274 326 413
#     4  11  20  43  64  96 134 185 214 289 326 416
#     4  10  22  38  64  97 139 178 233 261 344 394
#     4  10  23  44  67  98 134 172 232 278 350 395
#
# _framework density 27.058475000000001
#
# number of rings (size 3 to 8) (size 9 to 14) (size 15 to 20)
#    0.923    0.615    3.077    1.846    0.000    3.692 
#    5.538    3.077    0.000    3.692    0.000    0.000 
#    0.000    0.000    0.000    0.000    0.000    0.000 
#
# Total GULP energy -72596.246490 kJ/mol
# GULP energy per Si atom -5584.326653 kJ/mol
# Density = 2.699689 g / cm^3
# Si number density = 27.058475 Si / 1000 Ang^3
#
#
#
# Elastic Constant Matrix: (Units=GPa)
#
#
# Indices 1 2 3 4 5 6 
#
# 1 77.3774 47.0664 46.7433 17.5574 15.3435 -12.1747
# 2 47.0664 124.7521 52.1794 -21.5858 17.5661 -19.8763
# 3 46.7433 52.1794 117.3945 -1.8451 5.9680 9.7528
# 4 17.5574 -21.5858 -1.8451 44.4285 -3.9192 7.6761
# 5 15.3435 17.5661 5.9680 -3.9192 40.3262 -7.1277
# 6 -12.1747 -19.8763 9.7528 7.6761 -7.1277 38.8280
#
#
#
# Elastic Compliance Matrix: (Units=1/GPa)
#
#
# Indices 1 2 3 4 5 6 
#
# 1 0.031132 -0.008535 -0.009416 -0.019220 -0.006779 0.010313
# 2 -0.008535 0.015143 -0.003429 0.009829 -0.001220 0.003770
# 3 -0.009416 -0.003429 0.014508 0.004350 0.001782 -0.008885
# 4 -0.019220 0.009829 0.004350 0.036934 0.004462 -0.008570
# 5 -0.006779 -0.001220 0.001782 0.004462 0.028275 0.001111
# 6 0.010313 0.003770 -0.008885 -0.008570 0.001111 0.035048
#
#
# Mechanical properties :
#
#
# Convention : Reuss Voigt Hill
#
# Bulk Modulus (GPa) = 55.48848 67.94468 61.71658
# Shear Modulus (GPa) = 23.83129 36.28554 30.05841
#
# Velocity S-wave (km/s) = 2.97093 3.66595 3.33659
# Velocity P-wave (km/s) = 5.68507 6.56382 6.14018
#
# Compressibility (1/GPa) = 0.01802176
#
# Stress axis : x y z
#
# Youngs Moduli (GPa) = 32.12167 66.03527 68.92817
#
# Poissons Ratio (x) = 0.56359 0.64906
# Poissons Ratio (y) = 0.27415 0.23638
# Poissons Ratio (z) = 0.30247 0.22646
#
# Static dielectric constant tensor:
#      x y z
#    x 2.155660 -0.049400 0.097530 
#    y -0.049400 2.161020 0.100030 
#    z 0.097530 0.100030 2.148080 
# 
# From -- ./inp_files/24359.got.cif
#   From: 2010.05.17/outbox.cif.g08.bks.cpg/sg2_13_cif.got.tgz:24359.got - 2010.06.03 11:33:40.
