data_PCOD9021140
_publ_section_title
;
Structure prediction by ZEFSAII (Michael W. Deem and Ramdas Pophale) SiO2 
 PCOD9021140
Probable space group: P -1
;
_chemical_formula_sum "Si O2"
_cell_formula_units_Z 16
_cell_length_a 9.692313
_cell_length_b 9.022272
_cell_length_c 15.910422
_cell_angle_alpha 74.952969
_cell_angle_beta 37.527395
_cell_angle_gamma 64.920969
_cell_volume 760.183207
_symmetry_space_group_name_H-M "P -1"
_symmetry_group_IT_number 2
_symmetry_cell_setting 'triclinic'
loop_
_space_group_symop_operation_xyz
x,y,z
-x,-y,-z
loop_
_atom_site_type_symbol
_atom_site_label
_atom_site_fract_x
_atom_site_fract_y
_atom_site_fract_z
Si Si1 0.516679 0.679434 0.467241
Si Si2 0.625732 0.654490 0.064772
Si Si3 0.278442 0.458014 0.273628
Si Si4 0.409108 0.786346 0.981966
Si Si5 0.306664 0.101096 0.873119
Si Si6 0.252560 0.290342 0.482420
Si Si7 0.778117 0.021102 0.541243
Si Si8 0.997100 0.323004 0.858516
O O1 0.500000 0.500000 0.500000
O O2 0.545391 0.737188 0.539444
O O3 0.296429 0.813270 0.502926
O O4 0.762805 0.674654 0.302579
O O5 0.418347 0.583101 0.197408
O O6 0.685218 0.744521 0.100874
O O7 0.526896 0.780291 0.016456
O O8 0.853692 0.497680 0.945702
O O9 0.390452 0.342924 0.156625
O O10 0.328983 0.347413 0.349197
O O11 0.990513 0.559360 0.392490
O O12 0.312677 0.960221 0.955848
O O13 0.191721 0.716610 0.104841
O O14 0.547259 0.035244 0.708832
O O15 0.078901 0.177366 0.909820
O O16 0.184867 0.132067 0.516530
O O17 0.000000 0.000000 0.500000
#
# Coordination Sequence:
#
# PCOD9021140 Si02
#       8
#     2   2   2   2   2   2   2   2
#     4  11  26  43  68  98 130 166 218 268 323 383
#     4  11  22  39  65  93 126 162 214 261 316 377
#     4  10  22  37  70  92 126 171 215 257 326 380
#     4  11  21  42  64  94 122 167 212 263 313 384
#     4  11  23  40  62  94 128 162 211 262 321 374
#     4  11  22  42  66  94 131 174 216 261 324 380
#     4  11  25  43  65  95 135 171 215 265 319 387
#     4  10  23  42  63  88 128 163 206 260 321 381
#
# _framework density 21.047557999999999
#
# number of rings (size 3 to 8) (size 9 to 14) (size 15 to 20)
#    0.000    1.250    1.250    5.250    7.000    1.000 
#    0.000    2.500    0.000    0.000    0.000    0.000 
#    0.000    0.000    0.000    0.000    0.000    0.000 
#
# Total GULP energy -89497.975481 kJ/mol
# GULP energy per Si atom -5593.623468 kJ/mol
# Density = 2.099965 g / cm^3
# Si number density = 21.047558 Si / 1000 Ang^3
#
#
#
# Elastic Constant Matrix: (Units=GPa)
#
#
# Indices 1 2 3 4 5 6 
#
# 1 125.0613 37.3856 7.4017 6.4155 1.9161 -16.8488
# 2 37.3856 104.9416 -1.5629 -16.1502 6.5912 -19.1054
# 3 7.4017 -1.5629 29.5090 -8.4284 1.3339 -13.5705
# 4 6.4155 -16.1502 -8.4284 25.8312 -8.0059 5.4324
# 5 1.9161 6.5912 1.3339 -8.0059 11.7092 -0.0865
# 6 -16.8488 -19.1054 -13.5705 5.4324 -0.0865 40.7876
#
#
#
# Elastic Compliance Matrix: (Units=1/GPa)
#
#
# Indices 1 2 3 4 5 6 
#
# 1 0.010326 -0.004409 -0.004150 -0.008485 -0.004522 0.001940
# 2 -0.004409 0.013995 0.007684 0.010977 -0.000484 0.005828
# 3 -0.004150 0.007684 0.047699 0.019581 0.004420 0.015156
# 4 -0.008485 0.010977 0.019581 0.065998 0.038099 -0.000558
# 5 -0.004522 -0.000484 0.004420 0.038099 0.111921 -0.005461
# 6 0.001940 0.005828 0.015156 -0.000558 -0.005461 0.033154
#
#
# Mechanical properties :
#
#
# Convention : Reuss Voigt Hill
#
# Bulk Modulus (GPa) = 14.23095 38.44006 26.33550
# Shear Modulus (GPa) = 16.21979 30.08476 23.15228
#
# Velocity S-wave (km/s) = 2.77903 3.78480 3.32022
# Velocity P-wave (km/s) = 4.13199 6.11578 5.21901
#
# Compressibility (1/GPa) = 0.07026940
#
# Stress axis : x y z
#
# Youngs Moduli (GPa) = 96.84672 71.45463 20.96470
#
# Poissons Ratio (x) = 0.31504 0.08701
# Poissons Ratio (y) = 0.42699 -0.16110
# Poissons Ratio (z) = 0.40196 -0.54907
#
# Static dielectric constant tensor:
#      x y z
#    x 1.734530 -0.030320 0.007960 
#    y -0.030320 1.753870 0.000160 
#    z 0.007960 0.000160 1.743780 
# 
# From -- ./inp_files/184866.got.cif
#   From: 2010.05.17/outbox.cif.g08.bks.cpg/sg2_93_cif.got.tgz:184866.got - 2010.06.03 11:33:40.
