data_PCOD9021141
_publ_section_title
;
Structure prediction by ZEFSAII (Michael W. Deem and Ramdas Pophale) SiO2 
 PCOD9021141
Probable space group: P -1
;
_chemical_formula_sum "Si O2"
_cell_formula_units_Z 16
_cell_length_a 8.400412
_cell_length_b 18.674483
_cell_length_c 9.807010
_cell_angle_alpha 144.550926
_cell_angle_beta 64.299029
_cell_angle_gamma 97.414410
_cell_volume 726.225714
_symmetry_space_group_name_H-M "P -1"
_symmetry_group_IT_number 2
_symmetry_cell_setting 'triclinic'
loop_
_space_group_symop_operation_xyz
x,y,z
-x,-y,-z
loop_
_atom_site_type_symbol
_atom_site_label
_atom_site_fract_x
_atom_site_fract_y
_atom_site_fract_z
Si Si1 0.091502 0.015331 0.633893
Si Si2 0.927828 0.752020 0.791042
Si Si3 0.407827 0.660697 0.633944
Si Si4 0.566116 0.008870 0.201455
Si Si5 0.546943 0.205698 0.727603
Si Si6 0.251397 0.957900 0.076061
Si Si7 0.641217 0.347430 0.661431
Si Si8 0.280306 0.430042 0.380900
O O1 0.309928 0.897828 0.375898
O O2 0.083702 0.154809 0.924497
O O3 0.000000 0.000000 0.500000
O O4 0.978588 0.962216 0.703701
O O5 0.897379 0.613235 0.603438
O O6 0.132212 0.707864 0.563331
O O7 0.731380 0.859916 0.952342
O O8 0.287897 0.822192 0.937048
O O9 0.469528 0.649565 0.435854
O O10 0.276329 0.577866 0.580036
O O11 0.585391 0.611646 0.597422
O O12 0.478646 0.108452 0.515276
O O13 0.681752 0.061899 0.134651
O O14 0.383481 0.015194 0.193829
O O15 0.640960 0.261317 0.660784
O O16 0.395258 0.334091 0.063663
O O17 0.500000 0.500000 0.000000
#
# Coordination Sequence:
#
# PCOD9021141 Si02
#       8
#     2   2   2   2   2   2   2   2
#     4  11  24  38  65 100 140 173 212 273 340 407
#     4  11  24  42  67  98 136 172 228 272 337 397
#     4  11  22  44  69  89 135 177 224 270 339 388
#     4  10  22  37  70  95 133 168 219 281 329 400
#     4  11  23  41  67 101 132 173 225 269 335 400
#     4  11  20  40  64  97 129 175 219 271 340 386
#     4  12  24  46  69  95 130 181 229 275 328 400
#     4  11  25  42  69  96 135 180 218 280 332 396
#
# _framework density 22.031717
#
# number of rings (size 3 to 8) (size 9 to 14) (size 15 to 20)
#    0.000    1.000    5.000    1.500    1.750    3.500 
#    0.000    0.625    2.750    0.000    0.000    0.000 
#    0.000    0.000    0.000    0.000    0.000    0.000 
#
# Total GULP energy -89079.004456 kJ/mol
# GULP energy per Si atom -5567.437779 kJ/mol
# Density = 2.198157 g / cm^3
# Si number density = 22.031717 Si / 1000 Ang^3
#
#
#
# Elastic Constant Matrix: (Units=GPa)
#
#
# Indices 1 2 3 4 5 6 
#
# 1 58.8805 17.1782 15.3031 -9.6531 16.7412 4.1236
# 2 17.1782 101.5801 19.7145 1.7771 6.1905 3.5788
# 3 15.3031 19.7145 107.2675 -12.9136 7.0033 5.1423
# 4 -9.6531 1.7771 -12.9136 36.9568 -6.7446 0.3687
# 5 16.7412 6.1905 7.0033 -6.7446 28.6592 -7.2447
# 6 4.1236 3.5788 5.1423 0.3687 -7.2447 41.1719
#
#
#
# Elastic Compliance Matrix: (Units=1/GPa)
#
#
# Indices 1 2 3 4 5 6 
#
# 1 0.022490 -0.002704 -0.001302 0.003311 -0.012488 -0.004082
# 2 -0.002704 0.010753 -0.001741 -0.001997 -0.000938 -0.000593
# 3 -0.001302 -0.001741 0.010332 0.003194 -0.000940 -0.001203
# 4 0.003311 -0.001997 0.003194 0.030008 0.004783 0.000016
# 5 -0.012488 -0.000938 -0.000940 0.004783 0.046154 0.009528
# 6 -0.004082 -0.000593 -0.001203 0.000016 0.009528 0.026576
#
#
# Mechanical properties :
#
#
# Convention : Reuss Voigt Hill
#
# Bulk Modulus (GPa) = 31.17126 41.34662 36.25894
# Shear Modulus (GPa) = 29.67359 35.72638 32.69999
#
# Velocity S-wave (km/s) = 3.67394 4.03126 3.85674
# Velocity P-wave (km/s) = 5.67240 6.36205 6.02710
#
# Compressibility (1/GPa) = 0.03208083
#
# Stress axis : x y z
#
# Youngs Moduli (GPa) = 44.46393 93.00086 96.78811
#
# Poissons Ratio (x) = 0.25145 0.12602
# Poissons Ratio (y) = 0.12022 0.16853
# Poissons Ratio (z) = 0.05789 0.16193
#
# Static dielectric constant tensor:
#      x y z
#    x 1.916730 0.027240 -0.076120 
#    y 0.027240 1.864770 0.043070 
#    z -0.076120 0.043070 1.948800 
# 
# From -- ./inp_files/218804.got.cif
#   From: 2010.05.17/outbox.cif.g08.bks.cpg/sg2_110_cif.got.tgz:218804.got - 2010.06.03 11:33:40.
