data_PCOD9021130
_publ_section_title
;
Structure prediction by ZEFSAII (Michael W. Deem and Ramdas Pophale) SiO2 
 PCOD9021130
Probable space group: P -1
;
_chemical_formula_sum "Si O2"
_cell_formula_units_Z 14
_cell_length_a 12.310442
_cell_length_b 12.417894
_cell_length_c 8.825706
_cell_angle_alpha 62.481209
_cell_angle_beta 136.715260
_cell_angle_gamma 140.158782
_cell_volume 578.033413
_symmetry_space_group_name_H-M "P -1"
_symmetry_group_IT_number 2
_symmetry_cell_setting 'triclinic'
loop_
_space_group_symop_operation_xyz
x,y,z
-x,-y,-z
loop_
_atom_site_type_symbol
_atom_site_label
_atom_site_fract_x
_atom_site_fract_y
_atom_site_fract_z
Si Si1 0.300412 0.553122 0.695207
Si Si2 0.386436 0.670044 0.256455
Si Si3 0.450322 0.069168 0.273004
Si Si4 0.241080 0.927385 0.577261
Si Si5 0.018024 0.638669 0.740171
Si Si6 0.000490 0.142021 0.934451
Si Si7 0.441850 0.515348 0.163847
O O1 0.467365 0.755333 0.702867
O O2 0.374204 0.467098 0.744256
O O3 0.062483 0.456523 0.443718
O O4 0.333574 0.545685 0.909235
O O5 0.593835 0.866706 0.393601
O O6 0.494275 0.625948 0.287840
O O7 0.210931 0.507850 0.298713
O O8 0.215697 0.668680 0.996849
O O9 0.500000 0.000000 0.500000
O O10 0.591465 0.096394 0.259429
O O11 0.184016 0.924299 0.084325
O O12 0.107419 0.821416 0.664272
O O13 0.076579 0.845476 0.316202
O O14 0.238872 0.314529 0.122059
O O15 0.000000 0.000000 0.000000
#
# Coordination Sequence:
#
# PCOD9021130 Si02
#       7
#     2   2   2   2   2   2   2
#     4  11  23  45  70 101 134 180 234 284 336 414
#     4  11  27  44  67 103 144 179 226 287 350 406
#     4  10  22  37  68  99 133 170 228 280 337 392
#     4  11  24  46  69 101 143 181 228 285 344 414
#     4  11  24  44  70  98 140 186 229 277 350 408
#     4  11  22  43  70 103 136 181 232 284 342 410
#     4  11  25  44  70 103 138 177 229 287 344 406
#
# _framework density 24.220051999999999
#
# number of rings (size 3 to 8) (size 9 to 14) (size 15 to 20)
#    0.000    1.143    2.857    3.000    8.000    1.714 
#    0.000    0.714    0.000    0.000    0.000    0.000 
#    0.000    0.000    0.000    0.000    0.000    0.000 
#
# Total GULP energy -78218.414764 kJ/mol
# GULP energy per Si atom -5587.029626 kJ/mol
# Density = 2.416493 g / cm^3
# Si number density = 24.220052 Si / 1000 Ang^3
#
#
#
# Elastic Constant Matrix: (Units=GPa)
#
#
# Indices 1 2 3 4 5 6 
#
# 1 94.7652 38.1778 -5.7450 -1.1468 -2.2508 -4.7115
# 2 38.1778 120.9059 4.5829 -0.4777 -10.8419 12.6279
# 3 -5.7450 4.5829 57.9681 -9.1146 -13.0699 4.0773
# 4 -1.1468 -0.4777 -9.1146 44.6730 6.7219 -2.1156
# 5 -2.2508 -10.8419 -13.0699 6.7219 24.9855 1.1008
# 6 -4.7115 12.6279 4.0773 -2.1156 1.1008 35.2999
#
#
#
# Elastic Compliance Matrix: (Units=1/GPa)
#
#
# Indices 1 2 3 4 5 6 
#
# 1 0.012557 -0.004377 0.001405 0.000768 -0.000378 0.003137
# 2 -0.004377 0.010538 -0.000055 -0.000918 0.004597 -0.004546
# 3 0.001405 -0.000055 0.020233 0.002534 0.010106 -0.002293
# 4 0.000768 -0.000918 0.002534 0.023820 -0.005488 0.001737
# 5 -0.000378 0.004597 0.010106 -0.005488 0.048955 -0.004718
# 6 0.003137 -0.004546 -0.002293 0.001737 -0.004718 0.030890
#
#
# Mechanical properties :
#
#
# Convention : Reuss Voigt Hill
#
# Bulk Modulus (GPa) = 26.82725 38.63006 32.72866
# Shear Modulus (GPa) = 30.21682 36.76659 33.49170
#
# Velocity S-wave (km/s) = 3.53596 3.90041 3.72265
# Velocity P-wave (km/s) = 5.26984 6.02233 5.65861
#
# Compressibility (1/GPa) = 0.03727553
#
# Stress axis : x y z
#
# Youngs Moduli (GPa) = 79.63562 94.89053 49.42477
#
# Poissons Ratio (x) = 0.41532 -0.06946
# Poissons Ratio (y) = 0.34856 0.00272
# Poissons Ratio (z) = -0.11192 0.00522
#
# Static dielectric constant tensor:
#      x y z
#    x 2.029430 0.087240 -0.007040 
#    y 0.087240 1.988230 -0.013910 
#    z -0.007040 -0.013910 1.961570 
# 
# From -- ./inp_files/158435.got.cif
#   From: 2010.05.17/outbox.cif.g08.bks.cpg/sg2_80_cif.got.tgz:158435.got - 2010.06.03 11:33:40.
