data_PCOD9021461
_publ_section_title
;
Structure prediction by ZEFSAII (Michael W. Deem and Ramdas Pophale) SiO2 
 PCOD9021461
Probable space group: P -1
;
_chemical_formula_sum "Si O2"
_cell_formula_units_Z 14
_cell_length_a 9.554645
_cell_length_b 5.162981
_cell_length_c 26.462084
_cell_angle_alpha 73.741955
_cell_angle_beta 37.413862
_cell_angle_gamma 84.110228
_cell_volume 745.175108
_symmetry_space_group_name_H-M "P -1"
_symmetry_group_IT_number 2
_symmetry_cell_setting 'triclinic'
loop_
_space_group_symop_operation_xyz
x,y,z
-x,-y,-z
loop_
_atom_site_type_symbol
_atom_site_label
_atom_site_fract_x
_atom_site_fract_y
_atom_site_fract_z
Si Si1 0.873622 0.944331 0.668938
Si Si2 0.382029 0.867906 0.763492
Si Si3 0.337649 0.996337 0.172291
Si Si4 0.644684 0.527042 0.296300
Si Si5 0.912772 0.550199 0.764910
Si Si6 0.845656 0.194665 0.058914
Si Si7 0.878588 0.757896 0.510319
O O1 0.773043 0.100877 0.735313
O O2 0.063772 0.128990 0.568994
O O3 0.643839 0.837562 0.706550
O O4 0.954343 0.700146 0.690000
O O5 0.289650 0.614391 0.766520
O O6 0.234627 0.871859 0.856717
O O7 0.391524 0.162929 0.718497
O O8 0.286500 0.726228 0.167966
O O9 0.188577 0.222748 0.186273
O O10 0.603990 0.146344 0.098519
O O11 0.397894 0.339871 0.395130
O O12 0.852720 0.519150 0.276254
O O13 0.000000 0.500000 0.000000
O O14 0.000000 0.000000 0.000000
O O15 0.000000 0.500000 0.500000
O O16 0.000000 0.000000 0.500000
#
# Coordination Sequence:
#
# PCOD9021461 Si02
#       7
#     2   2   2   2   2   2   2
#     4   9  22  37  62  84 119 165 207 243 298 344
#     4  11  23  39  65  88 125 155 204 248 306 363
#     4   9  21  38  62  86 120 158 196 246 303 353
#     4  12  23  40  60  93 123 167 201 249 303 356
#     4  10  22  38  62  85 124 171 202 235 301 369
#     4  11  22  38  67  99 117 146 205 258 296 358
#     4  12  23  36  58  90 125 156 210 260 298 334
#
# _framework density 18.787531000000001
#
# number of rings (size 3 to 8) (size 9 to 14) (size 15 to 20)
#    0.857    0.571    2.857    2.571    6.000    0.571 
#    0.000    0.714    0.000   17.143    0.000    0.000 
#    0.000    0.000    0.000    0.000    0.000    0.000 
#
# Total GULP energy -78045.087537 kJ/mol
# GULP energy per Si atom -5574.649110 kJ/mol
# Density = 1.874477 g / cm^3
# Si number density = 18.787531 Si / 1000 Ang^3
#
#
#
# Elastic Constant Matrix: (Units=GPa)
#
#
# Indices 1 2 3 4 5 6 
#
# 1 97.7880 28.5195 20.1230 -7.6365 -12.2348 -21.4942
# 2 28.5195 84.2594 9.7444 -12.8425 -5.4939 8.4951
# 3 20.1230 9.7444 84.4322 0.7653 -13.1101 -4.7702
# 4 -7.6365 -12.8425 0.7653 28.8321 1.7326 -0.7533
# 5 -12.2348 -5.4939 -13.1101 1.7326 19.3307 1.5739
# 6 -21.4942 8.4951 -4.7702 -0.7533 1.5739 23.5283
#
#
#
# Elastic Compliance Matrix: (Units=1/GPa)
#
#
# Indices 1 2 3 4 5 6 
#
# 1 0.017300 -0.006796 -0.001347 0.001658 0.006523 0.017602
# 2 -0.006796 0.016303 -0.000962 0.005158 0.000205 -0.012139
# 3 -0.001347 -0.000962 0.013629 -0.001604 0.008157 0.001284
# 4 0.001658 0.005158 -0.001604 0.037600 -0.001996 0.000665
# 5 0.006523 0.000205 0.008157 -0.001996 0.061354 0.003370
# 6 0.017602 -0.012139 0.001284 0.000665 0.003370 0.063021
#
#
# Mechanical properties :
#
#
# Convention : Reuss Voigt Hill
#
# Bulk Modulus (GPa) = 34.45684 42.58371 38.52028
# Shear Modulus (GPa) = 21.08873 28.21108 24.64990
#
# Velocity S-wave (km/s) = 3.35399 3.87923 3.62613
# Velocity P-wave (km/s) = 5.77746 6.54062 6.17085
#
# Compressibility (1/GPa) = 0.02902181
#
# Stress axis : x y z
#
# Youngs Moduli (GPa) = 57.80317 61.33749 73.37060
#
# Poissons Ratio (x) = 0.41688 0.09880
# Poissons Ratio (y) = 0.39286 0.07062
# Poissons Ratio (z) = 0.07783 0.05904
#
# Static dielectric constant tensor:
#      x y z
#    x 1.654910 0.011900 0.011020 
#    y 0.011900 1.645560 0.008800 
#    z 0.011020 0.008800 1.650600 
# 
# From -- ./inp_files/616310.got.cif
#   From: 2010.05.17/outbox.cif.g08.bks.cpg/sg2_309_cif.got.tgz:616310.got - 2010.06.03 11:33:40.
