data_PCOD9021712
_publ_section_title
;
Structure prediction by ZEFSAII (Michael W. Deem and Ramdas Pophale) SiO2 
 PCOD9021712
Probable space group: P -1
;
_chemical_formula_sum "Si O2"
_cell_formula_units_Z 16
_cell_length_a 9.502174
_cell_length_b 10.358200
_cell_length_c 22.178787
_cell_angle_alpha 39.262349
_cell_angle_beta 153.527963
_cell_angle_gamma 137.718154
_cell_volume 607.312179
_symmetry_space_group_name_H-M "P -1"
_symmetry_group_IT_number 2
_symmetry_cell_setting 'triclinic'
loop_
_space_group_symop_operation_xyz
x,y,z
-x,-y,-z
loop_
_atom_site_type_symbol
_atom_site_label
_atom_site_fract_x
_atom_site_fract_y
_atom_site_fract_z
Si Si1 0.837450 0.739584 0.160558
Si Si2 0.689490 0.170989 0.398385
Si Si3 0.684627 0.886332 0.845460
Si Si4 0.445864 0.508408 0.690446
Si Si5 0.606928 0.847174 0.279994
Si Si6 0.747990 0.521693 0.642358
Si Si7 0.136576 0.543851 0.968724
Si Si8 0.662206 0.208853 0.557476
O O1 0.456947 0.713103 0.030440
O O2 0.920615 0.531465 0.235033
O O3 0.051124 0.760207 0.295790
O O4 0.007668 0.940526 0.115876
O O5 0.571584 0.104739 0.310290
O O6 0.645460 0.405256 0.311462
O O7 0.046753 0.148794 0.559347
O O8 0.442875 0.035233 0.399221
O O9 0.785994 0.664176 0.957734
O O10 0.529334 0.948751 0.825730
O O11 0.390235 0.261578 0.745183
O O12 0.268215 0.632757 0.528091
O O13 0.824835 0.591587 0.798030
O O14 0.380822 0.664064 0.294987
O O15 0.500000 0.500000 0.500000
O O16 0.669793 0.731083 0.564371
O O17 0.000000 0.500000 0.000000
#
# Coordination Sequence:
#
# PCOD9021712 Si02
#       8
#     2   2   2   2   2   2   2   2
#     4   9  21  41  66  93 129 170 210 275 314 373
#     4  11  21  38  67  98 126 167 216 271 321 378
#     4  10  23  43  66 100 124 168 229 255 318 392
#     4  11  24  42  58  97 136 167 212 259 332 386
#     4  10  22  38  64  95 129 160 213 282 313 370
#     4   8  16  32  58  90 121 156 200 260 323 362
#     4  12  26  43  66  93 133 178 212 259 321 400
#     4   9  20  38  64  94 126 163 218 267 323 375
#
# _framework density 26.345590999999999
#
# number of rings (size 3 to 8) (size 9 to 14) (size 15 to 20)
#    0.000    2.000    1.250    1.875    7.000    2.000 
#    2.250    5.625    0.000    0.000    0.000    0.000 
#    0.000    0.000    0.000    0.000    0.000    0.000 
#
# Total GULP energy -89443.682197 kJ/mol
# GULP energy per Si atom -5590.230137 kJ/mol
# Density = 2.628563 g / cm^3
# Si number density = 26.345591 Si / 1000 Ang^3
#
#
#
# Elastic Constant Matrix: (Units=GPa)
#
#
# Indices 1 2 3 4 5 6 
#
# 1 86.5202 46.4824 29.3525 12.7150 19.2964 -20.6909
# 2 46.4824 128.8481 34.6256 11.7601 23.3450 -22.0508
# 3 29.3525 34.6256 112.7943 31.9736 16.9052 -6.2417
# 4 12.7150 11.7601 31.9736 41.8058 2.1392 12.5788
# 5 19.2964 23.3450 16.9052 2.1392 45.2485 0.4496
# 6 -20.6909 -22.0508 -6.2417 12.5788 0.4496 46.6869
#
#
#
# Elastic Compliance Matrix: (Units=1/GPa)
#
#
# Indices 1 2 3 4 5 6 
#
# 1 0.017454 -0.003298 -0.000611 -0.005976 -0.005308 0.007758
# 2 -0.003298 0.010828 -0.001013 -0.002336 -0.003733 0.004183
# 3 -0.000611 -0.001013 0.013073 -0.010504 -0.003643 0.003864
# 4 -0.005976 -0.002336 -0.010504 0.038839 0.005998 -0.015678
# 5 -0.005308 -0.003733 -0.003643 0.005998 0.027432 -0.006483
# 6 0.007758 0.004183 0.003864 -0.015678 -0.006483 0.031636
#
#
# Mechanical properties :
#
#
# Convention : Reuss Voigt Hill
#
# Bulk Modulus (GPa) = 31.73303 61.00931 46.37117
# Shear Modulus (GPa) = 31.32654 41.26171 36.29412
#
# Velocity S-wave (km/s) = 3.45202 3.96178 3.71565
# Velocity P-wave (km/s) = 5.28769 6.64343 6.00395
#
# Compressibility (1/GPa) = 0.03151291
#
# Stress axis : x y z
#
# Youngs Moduli (GPa) = 57.29258 92.35054 76.49451
#
# Poissons Ratio (x) = 0.30454 0.04672
# Poissons Ratio (y) = 0.18893 0.07747
# Poissons Ratio (z) = 0.03500 0.09353
#
# Static dielectric constant tensor:
#      x y z
#    x 2.178600 -0.077810 -0.011300 
#    y -0.077810 2.109100 0.003730 
#    z -0.011300 0.003730 2.045400 
# 
# From -- ./inp_files/618424.got.cif
#   From: 2010.05.17/outbox.cif.g08.bks.cpg/sg2_310_cif.got.tgz:618424.got - 2010.06.03 11:33:40.
