data_PCOD9021436
_publ_section_title
;
Structure prediction by ZEFSAII (Michael W. Deem and Ramdas Pophale) SiO2 
 PCOD9021436
Probable space group: P -1
;
_chemical_formula_sum "Si O2"
_cell_formula_units_Z 16
_cell_length_a 20.778425
_cell_length_b 8.857247
_cell_length_c 18.039951
_cell_angle_alpha 42.444680
_cell_angle_beta 18.196195
_cell_angle_gamma 45.096476
_cell_volume 699.500470
_symmetry_space_group_name_H-M "P -1"
_symmetry_group_IT_number 2
_symmetry_cell_setting 'triclinic'
loop_
_space_group_symop_operation_xyz
x,y,z
-x,-y,-z
loop_
_atom_site_type_symbol
_atom_site_label
_atom_site_fract_x
_atom_site_fract_y
_atom_site_fract_z
Si Si1 0.305319 0.149123 0.181917
Si Si2 0.998460 0.118637 0.071035
Si Si3 0.075196 0.741108 0.620939
Si Si4 0.506705 0.500490 0.734469
Si Si5 0.611357 0.829819 0.631941
Si Si6 0.150998 0.316720 0.440119
Si Si7 0.175388 0.069140 0.042932
Si Si8 0.139910 0.668553 0.001549
O O1 0.300319 0.231739 0.241811
O O2 0.119113 0.973728 0.447265
O O3 0.340761 0.361777 0.014359
O O4 0.500000 0.000000 0.000000
O O5 0.775632 0.023583 0.370356
O O6 0.957629 0.290335 0.987224
O O7 0.128236 0.197214 0.971085
O O8 0.116994 0.900816 0.986286
O O9 0.296679 0.658633 0.441453
O O10 0.998480 0.523940 0.740777
O O11 0.895789 0.790208 0.858949
O O12 0.574821 0.698578 0.642857
O O13 0.378569 0.595000 0.771227
O O14 0.706520 0.659095 0.651928
O O15 0.398330 0.950899 0.845962
O O16 0.000000 0.500000 0.500000
O O17 0.990938 0.127077 0.705508
#
# Coordination Sequence:
#
# PCOD9021436 Si02
#       8
#     2   2   2   2   2   2   2   2
#     4   9  21  39  60  89 127 161 201 252 308 372
#     4  10  23  41  63  94 124 161 215 265 307 369
#     4  10  23  42  61  93 129 164 204 262 320 365
#     4  11  22  39  66  94 123 168 214 253 307 380
#     4  11  22  40  65  91 125 167 207 255 315 366
#     4  10  22  38  61  93 126 161 210 257 301 373
#     4  10  22  41  62  90 129 163 204 261 315 369
#     4  11  23  40  65  93 123 164 216 261 309 372
#
# _framework density 22.873466000000001
#
# number of rings (size 3 to 8) (size 9 to 14) (size 15 to 20)
#    0.000    1.750    2.500    0.750    1.750    8.500 
#    0.000    7.500    0.000    0.000    0.000    0.000 
#    0.000    0.000    0.000    0.000    0.000    0.000 
#
# Total GULP energy -89257.047496 kJ/mol
# GULP energy per Si atom -5578.565469 kJ/mol
# Density = 2.282141 g / cm^3
# Si number density = 22.873466 Si / 1000 Ang^3
#
#
#
# Elastic Constant Matrix: (Units=GPa)
#
#
# Indices 1 2 3 4 5 6 
#
# 1 78.3611 -8.1323 13.6486 18.3559 -13.1327 0.8196
# 2 -8.1323 -38.2412 10.6941 12.3463 -28.5149 65.5955
# 3 13.6486 10.6941 63.2380 18.5353 -0.3922 4.5035
# 4 18.3559 12.3463 18.5353 45.9415 1.3778 -0.9489
# 5 -13.1327 -28.5149 -0.3922 1.3778 22.4627 19.9689
# 6 0.8196 65.5955 4.5035 -0.9489 19.9689 -25.0811
#
#
#
# Elastic Compliance Matrix: (Units=1/GPa)
#
#
# Indices 1 2 3 4 5 6 
#
# 1 0.015218 0.000586 -0.002182 -0.005385 0.004858 0.005709
# 2 0.000586 0.008971 -0.002733 -0.000997 -0.005110 0.018959
# 3 -0.002182 -0.002733 0.018801 -0.006047 -0.000487 -0.004003
# 4 -0.005385 -0.000997 -0.006047 0.026540 -0.001063 -0.005721
# 5 0.004858 -0.005110 -0.000487 -0.001063 0.030865 0.011320
# 6 0.005709 0.018959 -0.004003 -0.005721 0.011320 0.018411
#
#
# Mechanical properties :
#
#
# Convention : Reuss Voigt Hill
#
# Bulk Modulus (GPa) = 29.12702 15.08652 22.10677
# Shear Modulus (GPa) = 35.99532 14.47444 25.23488
#
# Velocity S-wave (km/s) = 3.97126 2.51829 3.32511
# Velocity P-wave (km/s) = 5.81287 3.88145 4.94243
#
# Compressibility (1/GPa) = 0.03433238
#
# Stress axis : x y z
#
# Youngs Moduli (GPa) = 65.71103 111.47172 53.18930
#
# Poissons Ratio (x) = -0.06531 0.11603
# Poissons Ratio (y) = -0.03850 0.14537
# Poissons Ratio (z) = 0.14335 0.30466
#
# Static dielectric constant tensor:
#      x y z
#    x 1.923650 -0.030680 0.013520 
#    y -0.030680 1.881330 -0.027720 
#    z 0.013520 -0.027720 1.855660 
# 
# From -- ./inp_files/577545.got.cif
#   From: 2010.05.17/outbox.cif.g08.bks.cpg/sg2_289_cif.got.tgz:577545.got - 2010.06.03 11:33:40.
