data_PCOD9021001
_publ_section_title
;
Structure prediction by ZEFSAII (Michael W. Deem and Ramdas Pophale) SiO2 
 PCOD9021001
Probable space group: P -1
;
_chemical_formula_sum "Si O2"
_cell_formula_units_Z 12
_cell_length_a 13.762505
_cell_length_b 12.419205
_cell_length_c 10.812949
_cell_angle_alpha 145.961738
_cell_angle_beta 30.344094
_cell_angle_gamma 144.297578
_cell_volume 490.964358
_symmetry_space_group_name_H-M "P -1"
_symmetry_group_IT_number 2
_symmetry_cell_setting 'triclinic'
loop_
_space_group_symop_operation_xyz
x,y,z
-x,-y,-z
loop_
_atom_site_type_symbol
_atom_site_label
_atom_site_fract_x
_atom_site_fract_y
_atom_site_fract_z
Si Si1 0.041060 0.283995 0.751673
Si Si2 0.462904 0.288521 0.216885
Si Si3 0.094343 0.800552 0.920689
Si Si4 0.285963 0.456733 0.028400
Si Si5 0.623239 0.156534 0.143957
Si Si6 0.404373 0.167954 0.802529
O O1 0.230772 0.284428 0.463715
O O2 0.474582 0.716536 0.713192
O O3 0.812100 0.138499 0.833041
O O4 0.053245 0.212459 0.811555
O O5 0.493111 0.082029 0.933413
O O6 0.608295 0.469970 0.149328
O O7 0.959607 0.632043 0.812065
O O8 0.202449 0.030210 0.970123
O O9 0.275543 0.749861 0.747906
O O10 0.413606 0.651018 0.157800
O O11 0.330388 0.268296 0.863965
O O12 0.000000 0.500000 0.000000
O O13 0.500000 0.000000 0.500000
#
# Coordination Sequence:
#
# PCOD9021001 Si02
#       6
#     2   2   2   2   2   2
#     4  10  22  37  64 104 140 177 226 278 346 427
#     4  11  21  42  70 100 146 185 221 283 359 420
#     4  10  23  44  66 101 140 175 236 281 346 424
#     4  11  24  45  73  96 139 188 230 292 351 415
#     4   9  22  40  64 104 139 180 229 279 346 428
#     4  11  26  47  69  99 133 184 245 292 347 408
#
# _framework density 24.441693000000001
#
# number of rings (size 3 to 8) (size 9 to 14) (size 15 to 20)
#    1.000    0.667    1.667    2.000    2.333    4.667 
#    0.000    1.667    0.000    0.000    0.000    0.000 
#    0.000    0.000    0.000    0.000    0.000    0.000 
#
# Total GULP energy -66844.561307 kJ/mol
# GULP energy per Si atom -5570.380109 kJ/mol
# Density = 2.438606 g / cm^3
# Si number density = 24.441693 Si / 1000 Ang^3
#
#
#
# Elastic Constant Matrix: (Units=GPa)
#
#
# Indices 1 2 3 4 5 6 
#
# 1 153.0516 76.3588 30.9141 11.3577 -15.3255 -3.4115
# 2 76.3588 178.3013 36.2464 9.3217 -5.8807 -27.0599
# 3 30.9141 36.2464 54.7271 10.9214 -7.7513 -5.9215
# 4 11.3577 9.3217 10.9214 31.6933 3.2725 -4.3915
# 5 -15.3255 -5.8807 -7.7513 3.2725 17.2673 7.4978
# 6 -3.4115 -27.0599 -5.9215 -4.3915 7.4978 56.4364
#
#
#
# Elastic Compliance Matrix: (Units=1/GPa)
#
#
# Indices 1 2 3 4 5 6 
#
# 1 0.009781 -0.003878 -0.001424 -0.003142 0.008531 -0.002795
# 2 -0.003878 0.008461 -0.003823 0.001227 -0.004283 0.004086
# 3 -0.001424 -0.003823 0.024583 -0.008123 0.010609 -0.001381
# 4 -0.003142 0.001227 -0.008123 0.037282 -0.015012 0.004441
# 5 0.008531 -0.004283 0.010609 -0.015012 0.076752 -0.011790
# 6 -0.002795 0.004086 -0.001381 0.004441 -0.011790 0.021276
#
#
# Mechanical properties :
#
#
# Convention : Reuss Voigt Hill
#
# Bulk Modulus (GPa) = 40.69007 74.79096 57.74051
# Shear Modulus (GPa) = 24.44067 37.25011 30.84539
#
# Velocity S-wave (km/s) = 3.16564 3.90813 3.55632
# Velocity P-wave (km/s) = 5.48139 7.14359 6.36697
#
# Compressibility (1/GPa) = 0.02457602
#
# Stress axis : x y z
#
# Youngs Moduli (GPa) = 102.23708 118.18872 40.67884
#
# Poissons Ratio (x) = 0.45834 0.05792
# Poissons Ratio (y) = 0.39648 0.15550
# Poissons Ratio (z) = 0.14558 0.45179
#
# Static dielectric constant tensor:
#      x y z
#    x 2.011050 0.054600 0.034830 
#    y 0.054600 2.096730 -0.000770 
#    z 0.034830 -0.000770 1.989200 
# 
# From -- ./inp_files/541314.got.cif
#   From: 2010.05.17/outbox.cif.g08.bks.cpg/sg2_271_cif.got.tgz:541314.got - 2010.06.03 11:33:40.
