data_PCOD9021328
_publ_section_title
;
Structure prediction by ZEFSAII (Michael W. Deem and Ramdas Pophale) SiO2 
 PCOD9021328
Probable space group: P -1
;
_chemical_formula_sum "Si O2"
_cell_formula_units_Z 14
_cell_length_a 8.746106
_cell_length_b 8.655199
_cell_length_c 26.744746
_cell_angle_alpha 41.254553
_cell_angle_beta 31.807030
_cell_angle_gamma 55.207058
_cell_volume 689.915938
_symmetry_space_group_name_H-M "P -1"
_symmetry_group_IT_number 2
_symmetry_cell_setting 'triclinic'
loop_
_space_group_symop_operation_xyz
x,y,z
-x,-y,-z
loop_
_atom_site_type_symbol
_atom_site_label
_atom_site_fract_x
_atom_site_fract_y
_atom_site_fract_z
Si Si1 0.363361 0.044723 0.079766
Si Si2 0.639810 0.603965 0.877598
Si Si3 0.229215 0.170114 0.430817
Si Si4 0.021766 0.565544 0.090279
Si Si5 0.549263 0.270861 0.772132
Si Si6 0.770391 0.020929 0.675058
Si Si7 0.282520 0.885273 0.758507
O O1 0.430819 0.882392 0.146266
O O2 0.008922 0.005955 0.184820
O O3 0.500000 0.000000 0.000000
O O4 0.510302 0.323988 0.977507
O O5 0.879333 0.613206 0.852585
O O6 0.782766 0.753944 0.754963
O O7 0.339038 0.703261 0.949140
O O8 0.284714 0.452224 0.334491
O O9 0.534518 0.088885 0.350798
O O10 0.079423 0.134424 0.535322
O O11 0.000000 0.000000 0.500000
O O12 0.797463 0.712793 0.141097
O O13 0.847410 0.402207 0.134355
O O14 0.689599 0.166764 0.710015
O O15 0.507779 0.985544 0.715579
#
# Coordination Sequence:
#
# PCOD9021328 Si02
#       7
#     2   2   2   2   2   2   2
#     4  11  26  39  62  93 129 159 206 252 305 368
#     4  10  22  38  60  90 125 162 203 243 311 363
#     4   9  21  43  65  86 121 166 206 247 306 360
#     4   9  20  39  60  85 127 164 196 248 307 367
#     4  11  23  40  64  92 125 156 209 257 298 357
#     4  11  22  38  68  92 124 158 206 254 301 361
#     4   9  21  41  60  89 123 165 202 244 307 363
#
# _framework density 20.292328000000001
#
# number of rings (size 3 to 8) (size 9 to 14) (size 15 to 20)
#    0.000    2.000    0.000    3.000   10.000    2.286 
#    0.000   10.714    0.000    0.000    0.000    0.000 
#    0.000    0.000    0.000    0.000    0.000    0.000 
#
# Total GULP energy -77983.668018 kJ/mol
# GULP energy per Si atom -5570.262001 kJ/mol
# Density = 2.024614 g / cm^3
# Si number density = 20.292328 Si / 1000 Ang^3
#
#
#
# Elastic Constant Matrix: (Units=GPa)
#
#
# Indices 1 2 3 4 5 6 
#
# 1 76.1155 48.8155 54.0020 12.4666 6.5989 8.2257
# 2 48.8155 99.6361 77.8300 24.7679 16.7340 3.0122
# 3 54.0020 77.8300 152.9899 9.5591 15.9934 -3.3467
# 4 12.4666 24.7679 9.5591 44.1709 4.9799 4.0075
# 5 6.5989 16.7340 15.9934 4.9799 35.1763 -1.4354
# 6 8.2257 3.0122 -3.3467 4.0075 -1.4354 28.2400
#
#
#
# Elastic Compliance Matrix: (Units=1/GPa)
#
#
# Indices 1 2 3 4 5 6 
#
# 1 0.021192 -0.006981 -0.004121 -0.000777 0.001094 -0.005751
# 2 -0.006981 0.022617 -0.008042 -0.008417 -0.004617 -0.000372
# 3 -0.004121 -0.008042 0.012090 0.002916 -0.001188 0.003017
# 4 -0.000777 -0.008417 0.002916 0.027299 -0.001141 -0.002462
# 5 0.001094 -0.004617 -0.001188 -0.001141 0.031194 0.001780
# 6 -0.005751 -0.000372 0.003017 -0.002462 0.001780 0.037923
#
#
# Mechanical properties :
#
#
# Convention : Reuss Voigt Hill
#
# Bulk Modulus (GPa) = 56.77505 76.67072 66.72288
# Shear Modulus (GPa) = 25.44874 31.39038 28.41956
#
# Velocity S-wave (km/s) = 3.54518 3.93734 3.74640
# Velocity P-wave (km/s) = 6.69306 7.65084 7.18792
#
# Compressibility (1/GPa) = 0.01761337
#
# Stress axis : x y z
#
# Youngs Moduli (GPa) = 47.18670 44.21360 82.71431
#
# Poissons Ratio (x) = 0.30865 0.34084
# Poissons Ratio (y) = 0.32941 0.66515
# Poissons Ratio (z) = 0.19444 0.35554
#
# Static dielectric constant tensor:
#      x y z
#    x 1.782960 0.058280 -0.001580 
#    y 0.058280 1.801940 0.027070 
#    z -0.001580 0.027070 1.742270 
# 
# From -- ./inp_files/242047.got.cif
#   From: 2010.05.17/outbox.cif.g08.bks.cpg/sg2_122_cif.got.tgz:242047.got - 2010.06.03 11:33:40.
