data_PCOD9021537
_publ_section_title
;
Structure prediction by ZEFSAII (Michael W. Deem and Ramdas Pophale) SiO2 
 PCOD9021537
Probable space group: P -1
;
_chemical_formula_sum "Si O2"
_cell_formula_units_Z 14
_cell_length_a 15.293456
_cell_length_b 11.414701
_cell_length_c 14.863033
_cell_angle_alpha 49.988954
_cell_angle_beta 160.656124
_cell_angle_gamma 129.646576
_cell_volume 653.199650
_symmetry_space_group_name_H-M "P -1"
_symmetry_group_IT_number 2
_symmetry_cell_setting 'triclinic'
loop_
_space_group_symop_operation_xyz
x,y,z
-x,-y,-z
loop_
_atom_site_type_symbol
_atom_site_label
_atom_site_fract_x
_atom_site_fract_y
_atom_site_fract_z
Si Si1 0.967487 0.767198 0.599982
Si Si2 0.751337 0.189891 0.326147
Si Si3 0.552357 0.132724 0.860605
Si Si4 0.484410 0.488991 0.867241
Si Si5 0.208607 0.581654 0.394535
Si Si6 0.731753 0.394279 0.763409
Si Si7 0.016528 0.663658 0.345095
O O1 0.011474 0.803957 0.519710
O O2 0.693860 0.803677 0.359236
O O3 0.975777 0.583449 0.710685
O O4 0.211301 0.864532 0.839552
O O5 0.872319 0.217981 0.529265
O O6 0.562158 0.031437 0.209443
O O7 0.585480 0.328382 0.066452
O O8 0.668447 0.247259 0.837997
O O9 0.462733 0.528062 0.720916
O O10 0.189009 0.517898 0.597985
O O11 0.702538 0.615515 0.061142
O O12 0.257252 0.646350 0.311182
O O13 0.097169 0.694896 0.303110
O O14 0.500000 0.500000 0.500000
O O15 0.000000 0.500000 0.000000
#
# Coordination Sequence:
#
# PCOD9021537 Si02
#       7
#     2   2   2   2   2   2   2
#     4  12  24  41  64  98 133 168 210 266 325 386
#     4  12  24  43  66  95 142 168 212 261 329 397
#     4  12  27  43  62 102 129 175 209 267 329 381
#     4  10  22  38  62  97 126 168 210 259 318 369
#     4  10  23  40  69  92 127 158 229 262 314 364
#     4  12  24  43  70  91 126 168 223 267 312 382
#     4  10  24  39  65  98 124 173 216 261 318 375
#
# _framework density 21.432956000000001
#
# number of rings (size 3 to 8) (size 9 to 14) (size 15 to 20)
#    0.857    0.000    4.286    2.571    2.000    4.571 
#    0.000    0.714    0.000    0.857    0.000    0.000 
#    0.000    0.000    0.000    0.000    0.000    0.000 
#
# Total GULP energy -78253.300702 kJ/mol
# GULP energy per Si atom -5589.521479 kJ/mol
# Density = 2.138417 g / cm^3
# Si number density = 21.432956 Si / 1000 Ang^3
#
#
#
# Elastic Constant Matrix: (Units=GPa)
#
#
# Indices 1 2 3 4 5 6 
#
# 1 174.3854 51.0242 51.5805 13.8240 -21.7356 0.4505
# 2 51.0242 68.4699 27.9120 26.4061 -5.6849 -4.2414
# 3 51.5805 27.9120 129.2658 25.9307 5.1376 -12.6918
# 4 13.8240 26.4061 25.9307 32.1307 -8.2312 -5.1294
# 5 -21.7356 -5.6849 5.1376 -8.2312 42.5915 8.0890
# 6 0.4505 -4.2414 -12.6918 -5.1294 8.0890 24.7374
#
#
#
# Elastic Compliance Matrix: (Units=1/GPa)
#
#
# Indices 1 2 3 4 5 6 
#
# 1 0.009470 -0.007601 -0.004106 0.006428 0.006379 -0.004335
# 2 -0.007601 0.027674 0.001961 -0.021909 -0.005237 0.003059
# 3 -0.004106 0.001961 0.011858 -0.010023 -0.006440 0.006522
# 4 0.006428 -0.021909 -0.010023 0.057557 0.012938 -0.001312
# 5 0.006379 -0.005237 -0.006440 0.012938 0.031585 -0.011963
# 6 -0.004335 0.003059 0.006522 -0.001312 -0.011963 0.048014
#
#
# Mechanical properties :
#
#
# Convention : Reuss Voigt Hill
#
# Bulk Modulus (GPa) = 33.88791 70.35050 52.11921
# Shear Modulus (GPa) = 23.20328 35.99886 29.60107
#
# Velocity S-wave (km/s) = 3.29386 4.10274 3.72035
# Velocity P-wave (km/s) = 5.50558 7.43896 6.54406
#
# Compressibility (1/GPa) = 0.02950905
#
# Stress axis : x y z
#
# Youngs Moduli (GPa) = 105.59990 36.13487 84.33081
#
# Poissons Ratio (x) = 0.27467 0.34627
# Poissons Ratio (y) = 0.80268 -0.16536
# Poissons Ratio (z) = 0.43361 -0.07086
#
# Static dielectric constant tensor:
#      x y z
#    x 1.864160 -0.025090 -0.001760 
#    y -0.025090 1.755970 0.005010 
#    z -0.001760 0.005010 1.784290 
# 
# From -- ./inp_files/425726.got.cif
#   From: 2010.05.17/outbox.cif.g08.bks.cpg/sg2_213_cif.got.tgz:425726.got - 2010.06.03 11:33:40.
