data_PCOD9021516
_publ_section_title
;
Structure prediction by ZEFSAII (Michael W. Deem and Ramdas Pophale) SiO2 
 PCOD9021516
Probable space group: P -1
;
_chemical_formula_sum "Si O2"
_cell_formula_units_Z 16
_cell_length_a 8.387327
_cell_length_b 7.733894
_cell_length_c 19.079208
_cell_angle_alpha 39.480057
_cell_angle_beta 120.896604
_cell_angle_gamma 127.051044
_cell_volume 625.142104
_symmetry_space_group_name_H-M "P -1"
_symmetry_group_IT_number 2
_symmetry_cell_setting 'triclinic'
loop_
_space_group_symop_operation_xyz
x,y,z
-x,-y,-z
loop_
_atom_site_type_symbol
_atom_site_label
_atom_site_fract_x
_atom_site_fract_y
_atom_site_fract_z
Si Si1 0.952771 0.460597 0.621234
Si Si2 0.227316 0.692377 0.972045
Si Si3 0.788597 0.366608 0.754647
Si Si4 0.388843 0.795366 0.682627
Si Si5 0.487692 0.700071 0.163800
Si Si6 0.868091 0.790609 0.378710
Si Si7 0.201280 0.617458 0.835285
Si Si8 0.547058 0.744644 0.549770
O O1 0.162426 0.627956 0.655329
O O2 0.981976 0.266028 0.625144
O O3 0.800820 0.278566 0.704226
O O4 0.910574 0.715272 0.490493
O O5 0.260624 0.574510 0.940495
O O6 0.290730 0.046690 0.869386
O O7 0.367924 0.681629 0.070866
O O8 0.000000 0.500000 0.000000
O O9 0.621774 0.211301 0.823964
O O10 0.739904 0.665553 0.636716
O O11 0.995099 0.377882 0.833752
O O12 0.513313 0.624175 0.728019
O O13 0.374706 0.711828 0.787149
O O14 0.445362 0.128711 0.567257
O O15 0.645333 0.551295 0.391106
O O16 0.865545 0.104741 0.266483
O O17 0.500000 0.000000 0.500000
#
# Coordination Sequence:
#
# PCOD9021516 Si02
#       8
#     2   2   2   2   2   2   2   2
#     4  10  22  38  62  93 136 170 224 253 331 389
#     4  11  24  47  73 100 126 175 222 284 337 397
#     4  11  22  40  65  97 133 179 210 276 325 400
#     4  11  23  43  63 100 133 178 214 276 328 404
#     4  11  24  45  75  96 136 171 222 276 344 386
#     4  11  23  40  61  96 133 185 218 275 315 399
#     4  11  24  41  70  92 134 172 229 272 338 387
#     4  12  22  37  60  92 140 175 223 260 326 390
#
# _framework density 25.594182
#
# number of rings (size 3 to 8) (size 9 to 14) (size 15 to 20)
#    0.000    1.000    3.750    3.000    1.750    5.500 
#    2.250    0.625    5.500    0.000    0.000    0.000 
#    0.000    0.000    0.000    0.000    0.000    0.000 
#
# Total GULP energy -89446.145756 kJ/mol
# GULP energy per Si atom -5590.384110 kJ/mol
# Density = 2.553593 g / cm^3
# Si number density = 25.594182 Si / 1000 Ang^3
#
#
#
# Elastic Constant Matrix: (Units=GPa)
#
#
# Indices 1 2 3 4 5 6 
#
# 1 99.6523 13.7481 22.9373 10.5032 -38.2289 -6.4455
# 2 13.7481 48.8565 22.4160 18.0389 -13.2669 16.9002
# 3 22.9373 22.4160 95.8224 27.8622 -30.7355 4.6534
# 4 10.5032 18.0389 27.8622 40.7965 -8.8856 -3.8402
# 5 -38.2289 -13.2669 -30.7355 -8.8856 47.6580 3.1414
# 6 -6.4455 16.9002 4.6534 -3.8402 3.1414 29.4627
#
#
#
# Elastic Compliance Matrix: (Units=1/GPa)
#
#
# Indices 1 2 3 4 5 6 
#
# 1 0.014819 -0.002321 0.000600 -0.000427 0.011336 0.003214
# 2 -0.002321 0.038209 0.000245 -0.017254 0.007397 -0.025501
# 3 0.000600 0.000245 0.016426 -0.009846 0.009631 -0.004914
# 4 -0.000427 -0.017254 -0.009846 0.039434 -0.005268 0.017060
# 5 0.011336 0.007397 0.009631 -0.005268 0.037892 -0.008011
# 6 0.003214 -0.025501 -0.004914 0.017060 -0.008011 0.053126
#
#
# Mechanical properties :
#
#
# Convention : Reuss Voigt Hill
#
# Bulk Modulus (GPa) = 15.03718 40.28154 27.65936
# Shear Modulus (GPa) = 22.21972 35.93209 29.07590
#
# Velocity S-wave (km/s) = 2.94964 3.75095 3.37417
# Velocity P-wave (km/s) = 4.18193 5.87641 5.10004
#
# Compressibility (1/GPa) = 0.06650182
#
# Stress axis : x y z
#
# Youngs Moduli (GPa) = 67.48224 26.17159 60.88047
#
# Poissons Ratio (x) = 0.06075 -0.03653
# Poissons Ratio (y) = 0.15663 -0.01493
# Poissons Ratio (z) = -0.04049 -0.00642
#
# Static dielectric constant tensor:
#      x y z
#    x 2.062050 -0.009950 -0.051360 
#    y -0.009950 2.034680 0.030310 
#    z -0.051360 0.030310 2.070030 
# 
# From -- ./inp_files/556921.got.cif
#   From: 2010.05.17/outbox.cif.g08.bks.cpg/sg2_279_cif.got.tgz:556921.got - 2010.06.03 11:33:40.
