data_PCOD9021322
_publ_section_title
;
Structure prediction by ZEFSAII (Michael W. Deem and Ramdas Pophale) SiO2 
 PCOD9021322
Probable space group: P -1
;
_chemical_formula_sum "Si O2"
_cell_formula_units_Z 16
_cell_length_a 15.908090
_cell_length_b 9.968933
_cell_length_c 9.427425
_cell_angle_alpha 43.684128
_cell_angle_beta 72.171311
_cell_angle_gamma 99.341453
_cell_volume 798.251619
_symmetry_space_group_name_H-M "P -1"
_symmetry_group_IT_number 2
_symmetry_cell_setting 'triclinic'
loop_
_space_group_symop_operation_xyz
x,y,z
-x,-y,-z
loop_
_atom_site_type_symbol
_atom_site_label
_atom_site_fract_x
_atom_site_fract_y
_atom_site_fract_z
Si Si1 0.327979 0.266308 0.279544
Si Si2 0.132980 0.242410 0.543961
Si Si3 0.508794 0.239457 0.335226
Si Si4 0.961871 0.711215 0.991207
Si Si5 0.244127 0.575406 0.503061
Si Si6 0.404542 0.509997 0.602110
Si Si7 0.006491 0.322932 0.326295
Si Si8 0.241963 0.019290 0.210937
O O1 0.225065 0.222430 0.445491
O O2 0.396142 0.205877 0.387083
O O3 0.290897 0.111175 0.273192
O O4 0.405726 0.544109 0.979264
O O5 0.179634 0.407905 0.530754
O O6 0.095412 0.352362 0.363639
O O7 0.029994 0.969876 0.830052
O O8 0.550102 0.330189 0.402829
O O9 0.500000 0.000000 0.500000
O O10 0.976558 0.739815 0.792217
O O11 0.836389 0.555909 0.220243
O O12 0.006487 0.556799 0.133666
O O13 0.355409 0.603009 0.448368
O O14 0.261741 0.827502 0.292332
O O15 0.500000 0.500000 0.500000
O O16 0.303935 0.246249 0.903698
O O17 0.887014 0.113649 0.605868
#
# Coordination Sequence:
#
# PCOD9021322 Si02
#       8
#     2   2   2   2   2   2   2   2
#     4  10  22  38  60  90 115 155 207 250 298 360
#     4  12  23  37  62  92 127 159 201 253 299 355
#     4  10  22  40  62  85 115 155 205 257 300 354
#     4  10  22  39  62  92 126 161 208 243 295 372
#     4  11  25  39  61  93 125 163 200 251 306 360
#     4  11  24  41  63  87 121 162 202 252 313 361
#     4  10  22  39  64  92 122 169 200 245 302 360
#     4  10  22  42  62  86 125 163 201 248 302 371
#
# _framework density 20.043804999999999
#
# number of rings (size 3 to 8) (size 9 to 14) (size 15 to 20)
#    0.000    1.500    1.250    3.000    3.500    5.500 
#    0.000    0.000    0.000    0.000    0.000    0.000 
#    0.000    0.000    0.000    0.000    0.000    0.000 
#
# Total GULP energy -89485.061179 kJ/mol
# GULP energy per Si atom -5592.816324 kJ/mol
# Density = 1.999818 g / cm^3
# Si number density = 20.043805 Si / 1000 Ang^3
#
#
#
# Elastic Constant Matrix: (Units=GPa)
#
#
# Indices 1 2 3 4 5 6 
#
# 1 134.3216 33.6536 21.8561 -6.3923 8.7690 0.6180
# 2 33.6536 98.4167 28.7311 -20.4139 20.8550 -11.3867
# 3 21.8561 28.7311 29.5092 -5.1565 11.6512 -1.7443
# 4 -6.3923 -20.4139 -5.1565 24.2579 -6.4427 3.9446
# 5 8.7690 20.8550 11.6512 -6.4427 16.4451 0.8372
# 6 0.6180 -11.3867 -1.7443 3.9446 0.8372 23.7642
#
#
#
# Elastic Compliance Matrix: (Units=1/GPa)
#
#
# Indices 1 2 3 4 5 6 
#
# 1 0.008698 -0.001933 -0.005306 0.000274 0.001764 -0.001650
# 2 -0.001933 0.019277 -0.010160 0.008838 -0.013139 0.007537
# 3 -0.005306 -0.010160 0.057626 -0.005133 -0.027192 0.001310
# 4 0.000274 0.008838 -0.005133 0.051914 0.012886 -0.005220
# 5 0.001764 -0.013139 -0.027192 0.012886 0.101559 -0.014054
# 6 -0.001650 0.007537 0.001310 -0.005220 -0.014054 0.047192
#
#
# Mechanical properties :
#
#
# Convention : Reuss Voigt Hill
#
# Bulk Modulus (GPa) = 19.68367 47.85878 33.77123
# Shear Modulus (GPa) = 14.79294 24.76057 19.77676
#
# Velocity S-wave (km/s) = 2.71962 3.51853 3.14455
# Velocity P-wave (km/s) = 4.43885 6.35890 5.48357
#
# Compressibility (1/GPa) = 0.05080353
#
# Stress axis : x y z
#
# Youngs Moduli (GPa) = 114.96889 51.87424 17.35326
#
# Poissons Ratio (x) = 0.10027 0.09208
# Poissons Ratio (y) = 0.22224 0.17630
# Poissons Ratio (z) = 0.61006 0.52702
#
# Static dielectric constant tensor:
#      x y z
#    x 1.710370 -0.014940 -0.044640 
#    y -0.014940 1.681270 0.026160 
#    z -0.044640 0.026160 1.834240 
# 
# From -- ./inp_files/187030.got.cif
#   From: 2010.05.17/outbox.cif.g08.bks.cpg/sg2_94_cif.got.tgz:187030.got - 2010.06.03 11:33:40.
