data_PCOD9021705
_publ_section_title
;
Structure prediction by ZEFSAII (Michael W. Deem and Ramdas Pophale) SiO2 
 PCOD9021705
Probable space group: P -1
;
_chemical_formula_sum "Si O2"
_cell_formula_units_Z 16
_cell_length_a 16.758939
_cell_length_b 9.311427
_cell_length_c 12.465975
_cell_angle_alpha 73.687006
_cell_angle_beta 66.263082
_cell_angle_gamma 132.287876
_cell_volume 763.834148
_symmetry_space_group_name_H-M "P -1"
_symmetry_group_IT_number 2
_symmetry_cell_setting 'triclinic'
loop_
_space_group_symop_operation_xyz
x,y,z
-x,-y,-z
loop_
_atom_site_type_symbol
_atom_site_label
_atom_site_fract_x
_atom_site_fract_y
_atom_site_fract_z
Si Si1 0.545410 0.182888 0.220261
Si Si2 0.402399 0.543467 0.243167
Si Si3 0.883215 0.540257 0.320001
Si Si4 0.898554 0.882895 0.339299
Si Si5 0.765556 0.475266 0.829347
Si Si6 0.176585 0.768987 0.215362
Si Si7 0.066530 0.252320 0.971401
Si Si8 0.371341 0.208761 0.214803
O O1 0.721012 0.439347 0.155165
O O2 0.501697 0.286455 0.187625
O O3 0.346042 0.818948 0.455502
O O4 0.614984 0.214207 0.064130
O O5 0.315672 0.448010 0.425459
O O6 0.332116 0.562457 0.193955
O O7 0.307011 0.237904 0.325168
O O8 0.634230 0.889970 0.029433
O O9 0.953153 0.802296 0.282773
O O10 0.926461 0.615203 0.154006
O O11 0.991592 0.567004 0.308252
O O12 0.052067 0.162885 0.289475
O O13 0.924635 0.041304 0.195267
O O14 0.825190 0.412459 0.754563
O O15 0.217894 0.888814 0.288762
O O16 0.000000 0.000000 0.000000
O O17 0.500000 0.500000 0.000000
#
# Coordination Sequence:
#
# PCOD9021705 Si02
#       8
#     2   2   2   2   2   2   2   2
#     4  11  22  41  69  93 127 168 212 254 320 376
#     4  11  22  40  61  88 133 171 202 254 317 380
#     4  11  24  42  66  94 125 167 217 264 308 370
#     4  10  23  41  65  89 124 172 216 251 320 371
#     4  11  22  40  60  95 132 169 204 258 313 385
#     4  11  24  38  63  97 134 162 211 258 314 371
#     4   9  22  43  70  90 120 164 220 266 309 371
#     4  10  22  38  64  94 130 165 209 253 311 376
#
# _framework density 20.946953000000001
#
# number of rings (size 3 to 8) (size 9 to 14) (size 15 to 20)
#    0.000    1.500    2.500    2.625   12.250    0.500 
#    0.000    3.125    2.750    0.000    0.000    0.000 
#    0.000    0.000    0.000    0.000    0.000    0.000 
#
# Total GULP energy -89416.950621 kJ/mol
# GULP energy per Si atom -5588.559414 kJ/mol
# Density = 2.089928 g / cm^3
# Si number density = 20.946953 Si / 1000 Ang^3
#
#
#
# Elastic Constant Matrix: (Units=GPa)
#
#
# Indices 1 2 3 4 5 6 
#
# 1 89.5221 42.7242 3.9302 11.6915 2.9160 2.4328
# 2 42.7242 88.3060 8.2343 -3.6234 -3.8160 0.0542
# 3 3.9302 8.2343 96.8262 0.7948 1.0381 16.7207
# 4 11.6915 -3.6234 0.7948 28.6610 -0.7052 2.7177
# 5 2.9160 -3.8160 1.0381 -0.7052 25.7098 2.9122
# 6 2.4328 0.0542 16.7207 2.7177 2.9122 31.3592
#
#
#
# Elastic Compliance Matrix: (Units=1/GPa)
#
#
# Indices 1 2 3 4 5 6 
#
# 1 0.016276 -0.008353 0.000215 -0.007745 -0.003263 -0.000389
# 2 -0.008353 0.015848 -0.001168 0.005486 0.003447 0.000448
# 3 0.000215 -0.001168 0.011478 0.000029 0.000035 -0.006141
# 4 -0.007745 0.005486 0.000029 0.039114 0.003116 -0.003103
# 5 -0.003263 0.003447 0.000035 0.003116 0.040290 -0.003783
# 6 -0.000389 0.000448 -0.006141 -0.003103 -0.003783 0.035812
#
#
# Mechanical properties :
#
#
# Convention : Reuss Voigt Hill
#
# Bulk Modulus (GPa) = 40.01482 42.71466 41.36474
# Shear Modulus (GPa) = 26.91642 31.79703 29.35672
#
# Velocity S-wave (km/s) = 3.58855 3.90035 3.74770
# Velocity P-wave (km/s) = 6.02616 6.38120 6.20622
#
# Compressibility (1/GPa) = 0.02499074
#
# Stress axis : x y z
#
# Youngs Moduli (GPa) = 61.44080 63.09790 87.12181
#
# Poissons Ratio (x) = 0.52707 -0.01877
# Poissons Ratio (y) = 0.51323 0.10176
# Poissons Ratio (z) = -0.01324 0.07370
#
# Static dielectric constant tensor:
#      x y z
#    x 1.713810 -0.035280 0.015370 
#    y -0.035280 1.787140 -0.012750 
#    z 0.015370 -0.012750 1.822220 
# 
# From -- ./inp_files/342581.got.cif
#   From: 2010.05.17/outbox.cif.g08.bks.cpg/sg2_172_cif.got.tgz:342581.got - 2010.06.03 11:33:40.
