data_PCOD9021404
_publ_section_title
;
Structure prediction by ZEFSAII (Michael W. Deem and Ramdas Pophale) SiO2 
 PCOD9021404
Probable space group: P -1
;
_chemical_formula_sum "Si O2"
_cell_formula_units_Z 14
_cell_length_a 15.548318
_cell_length_b 8.439636
_cell_length_c 7.172931
_cell_angle_alpha 53.427542
_cell_angle_beta 114.409521
_cell_angle_gamma 84.663503
_cell_volume 609.812031
_symmetry_space_group_name_H-M "P -1"
_symmetry_group_IT_number 2
_symmetry_cell_setting 'triclinic'
loop_
_space_group_symop_operation_xyz
x,y,z
-x,-y,-z
loop_
_atom_site_type_symbol
_atom_site_label
_atom_site_fract_x
_atom_site_fract_y
_atom_site_fract_z
Si Si1 0.913138 0.940402 0.375664
Si Si2 0.308937 0.007716 0.821474
Si Si3 0.063481 0.467728 0.886113
Si Si4 0.544036 0.480027 0.762258
Si Si5 0.699257 0.691493 0.701389
Si Si6 0.335922 0.890930 0.374949
Si Si7 0.886561 0.004342 0.912101
O O1 0.864061 0.083202 0.050231
O O2 0.984843 0.686721 0.550466
O O3 0.809075 0.956215 0.372431
O O4 0.000000 0.000000 0.500000
O O5 0.316438 0.216658 0.590017
O O6 0.397826 0.782736 0.965557
O O7 0.321100 0.974382 0.082001
O O8 0.087378 0.242278 0.961114
O O9 0.175989 0.459538 0.037806
O O10 0.000000 0.500000 0.000000
O O11 0.500000 0.500000 0.500000
O O12 0.632838 0.563616 0.777764
O O13 0.441983 0.659566 0.654662
O O14 0.662831 0.909157 0.646576
O O15 0.233339 0.860011 0.369330
O O16 0.000000 0.000000 0.000000
#
# Coordination Sequence:
#
# PCOD9021404 Si02
#       7
#     2   2   2   2   2   2   2
#     4  11  21  37  61  87 126 160 201 255 303 363
#     4  10  22  41  63  90 123 162 206 248 308 364
#     4  11  21  37  60  89 119 160 204 244 308 365
#     4  10  22  41  64  91 122 159 207 255 306 363
#     4  11  22  41  66  87 125 163 204 254 307 365
#     4   9  22  41  61  90 124 154 207 256 298 367
#     4  10  22  38  61  90 122 157 201 252 305 370
#
# _framework density 22.957896999999999
#
# number of rings (size 3 to 8) (size 9 to 14) (size 15 to 20)
#    0.000    1.714    1.429    2.571    2.000    5.143 
#    0.000    2.857    3.143    0.000    0.000    0.000 
#    0.000    0.000    0.000    0.000    0.000    0.000 
#
# Total GULP energy -78044.168040 kJ/mol
# GULP energy per Si atom -5574.583431 kJ/mol
# Density = 2.290564 g / cm^3
# Si number density = 22.957897 Si / 1000 Ang^3
#
#
#
# Elastic Constant Matrix: (Units=GPa)
#
#
# Indices 1 2 3 4 5 6 
#
# 1 64.0052 4.4627 5.9809 7.6087 24.7112 2.1723
# 2 4.4627 66.2799 3.5738 15.7610 13.9954 -3.3856
# 3 5.9809 3.5738 71.5946 0.9312 22.6274 -6.7394
# 4 7.6087 15.7610 0.9312 28.4190 -10.8743 5.2317
# 5 24.7112 13.9954 22.6274 -10.8743 40.5714 2.2032
# 6 2.1723 -3.3856 -6.7394 5.2317 2.2032 36.7899
#
#
#
# Elastic Compliance Matrix: (Units=1/GPa)
#
#
# Indices 1 2 3 4 5 6 
#
# 1 0.033237 0.014495 0.010712 -0.034562 -0.040955 0.008701
# 2 0.014495 0.030230 0.009900 -0.036449 -0.035147 0.011028
# 3 0.010712 0.009900 0.022956 -0.021984 -0.029143 0.009355
# 4 -0.034562 -0.036449 -0.021984 0.097809 0.073385 -0.023644
# 5 -0.040955 -0.035147 -0.029143 0.073385 0.098862 -0.022511
# 6 0.008701 0.011028 0.009355 -0.023644 -0.022511 0.034107
#
#
# Mechanical properties :
#
#
# Convention : Reuss Voigt Hill
#
# Bulk Modulus (GPa) = 6.38414 25.54606 15.96510
# Shear Modulus (GPa) = 16.71137 33.68022 25.19579
#
# Velocity S-wave (km/s) = 2.70091 3.83435 3.31641
# Velocity P-wave (km/s) = 3.53743 5.54568 4.65123
#
# Compressibility (1/GPa) = 0.15663819
#
# Stress axis : x y z
#
# Youngs Moduli (GPa) = 30.08681 33.07987 43.56223
#
# Poissons Ratio (x) = -0.47950 -0.46664
# Poissons Ratio (y) = -0.43612 -0.43128
# Poissons Ratio (z) = -0.32229 -0.32750
#
# Static dielectric constant tensor:
#      x y z
#    x 1.991970 -0.017810 -0.055330 
#    y -0.017810 1.828280 0.009670 
#    z -0.055330 0.009670 1.879290 
# 
# From -- ./inp_files/106432.got.cif
#   From: 2010.05.17/outbox.cif.g08.bks.cpg/sg2_54_cif.got.tgz:106432.got - 2010.06.03 11:33:40.
