data_PCOD9021175
_publ_section_title
;
Structure prediction by ZEFSAII (Michael W. Deem and Ramdas Pophale) SiO2 
 PCOD9021175
Probable space group: P -1
;
_chemical_formula_sum "Si O2"
_cell_formula_units_Z 12
_cell_length_a 17.800499
_cell_length_b 12.876161
_cell_length_c 14.342374
_cell_angle_alpha 34.896565
_cell_angle_beta 153.520579
_cell_angle_gamma 153.841218
_cell_volume 643.826067
_symmetry_space_group_name_H-M "P -1"
_symmetry_group_IT_number 2
_symmetry_cell_setting 'triclinic'
loop_
_space_group_symop_operation_xyz
x,y,z
-x,-y,-z
loop_
_atom_site_type_symbol
_atom_site_label
_atom_site_fract_x
_atom_site_fract_y
_atom_site_fract_z
Si Si1 0.440663 0.241090 0.915157
Si Si2 0.917745 0.301070 0.132142
Si Si3 0.883192 0.691107 0.475426
Si Si4 0.876150 0.334584 0.396128
Si Si5 0.754136 0.871439 0.549942
Si Si6 0.357953 0.585701 0.186848
O O1 0.338617 0.353954 0.762260
O O2 0.498875 0.328011 0.809426
O O3 0.246590 0.957972 0.904379
O O4 0.663010 0.308580 0.154120
O O5 0.103662 0.348441 0.371649
O O6 0.775350 0.321186 0.031920
O O7 0.000000 0.500000 0.000000
O O8 0.919560 0.030477 0.532238
O O9 0.953092 0.577832 0.565505
O O10 0.000000 0.500000 0.500000
O O11 0.792207 0.068953 0.514000
O O12 0.511381 0.706969 0.358876
O O13 0.787399 0.695233 0.757659
#
# Coordination Sequence:
#
# PCOD9021175 Si02
#       6
#     2   2   2   2   2   2
#     4  12  21  37  61  88 121 155 192 243 297 346
#     4  12  22  34  58  94 127 153 183 240 302 362
#     4  10  22  38  56  91 118 148 198 237 293 352
#     4  10  22  43  62  80 117 161 203 243 281 338
#     4   9  20  36  57  89 118 149 198 238 291 353
#     4  11  19  35  60  88 123 153 185 242 307 351
#
# _framework density 18.638573999999998
#
# number of rings (size 3 to 8) (size 9 to 14) (size 15 to 20)
#    1.000    0.333    5.000    2.000    4.667    0.667 
#    0.000    0.833    0.000    2.000    0.000    0.000 
#    0.000    0.000    0.000    0.000    0.000    0.000 
#
# Total GULP energy -66814.779224 kJ/mol
# GULP energy per Si atom -5567.898269 kJ/mol
# Density = 1.859615 g / cm^3
# Si number density = 18.638574 Si / 1000 Ang^3
#
#
#
# Elastic Constant Matrix: (Units=GPa)
#
#
# Indices 1 2 3 4 5 6 
#
# 1 74.0905 29.1778 38.5129 7.6936 3.5046 -8.1844
# 2 29.1778 77.6690 33.0565 -0.6498 -16.4376 -16.5562
# 3 38.5129 33.0565 111.3959 6.0528 21.3470 -25.6784
# 4 7.6936 -0.6498 6.0528 17.4142 2.4788 -10.9605
# 5 3.5046 -16.4376 21.3470 2.4788 35.8210 -6.4484
# 6 -8.1844 -16.5562 -25.6784 -10.9605 -6.4484 32.3726
#
#
#
# Elastic Compliance Matrix: (Units=1/GPa)
#
#
# Indices 1 2 3 4 5 6 
#
# 1 0.019575 -0.007437 -0.005083 -0.011346 -0.002826 -0.007291
# 2 -0.007437 0.024670 -0.005443 0.012518 0.016952 0.014034
# 3 -0.005083 -0.005443 0.015882 0.002625 -0.010321 0.007362
# 4 -0.011346 0.012518 0.002625 0.083146 0.005824 0.034927
# 5 -0.002826 0.016952 -0.010321 0.005824 0.043596 0.010424
# 6 -0.007291 0.014034 0.007362 0.034927 0.010424 0.055965
#
#
# Mechanical properties :
#
#
# Convention : Reuss Voigt Hill
#
# Bulk Modulus (GPa) = 41.32408 51.62775 46.47592
# Shear Modulus (GPa) = 17.43213 27.94877 22.69045
#
# Velocity S-wave (km/s) = 3.06154 3.87655 3.49290
# Velocity P-wave (km/s) = 5.89209 6.91350 6.42313
#
# Compressibility (1/GPa) = 0.02419897
#
# Stress axis : x y z
#
# Youngs Moduli (GPa) = 51.08658 40.53575 62.96507
#
# Poissons Ratio (x) = 0.30148 0.32006
# Poissons Ratio (y) = 0.37995 0.34272
# Poissons Ratio (z) = 0.25968 0.22064
#
# Static dielectric constant tensor:
#      x y z
#    x 1.679470 0.018110 0.039980 
#    y 0.018110 1.620700 -0.043350 
#    z 0.039980 -0.043350 1.697590 
# 
# From -- ./inp_files/198801.got.cif
#   From: 2010.05.17/outbox.cif.g08.bks.cpg/sg2_100_cif.got.tgz:198801.got - 2010.06.03 11:33:40.
