data_PCOD9021368
_publ_section_title
;
Structure prediction by ZEFSAII (Michael W. Deem and Ramdas Pophale) SiO2 
 PCOD9021368
Probable space group: P -1
;
_chemical_formula_sum "Si O2"
_cell_formula_units_Z 13
_cell_length_a 8.647168
_cell_length_b 12.408372
_cell_length_c 10.909045
_cell_angle_alpha 97.310184
_cell_angle_beta 106.982733
_cell_angle_gamma 32.740688
_cell_volume 589.365155
_symmetry_space_group_name_H-M "P -1"
_symmetry_group_IT_number 2
_symmetry_cell_setting 'triclinic'
loop_
_space_group_symop_operation_xyz
x,y,z
-x,-y,-z
loop_
_atom_site_type_symbol
_atom_site_label
_atom_site_fract_x
_atom_site_fract_y
_atom_site_fract_z
Si Si1 0.000000 0.000000 0.500000
Si Si2 0.096076 0.688412 0.852464
Si Si3 0.679234 0.626357 0.471972
Si Si4 0.459802 0.092477 0.379185
Si Si5 0.098421 0.704458 0.381896
Si Si6 0.908598 0.026855 0.762221
Si Si7 0.221847 0.675309 0.135480
O O1 0.067205 0.931244 0.652769
O O2 0.862984 0.196522 0.543778
O O3 0.864459 0.744733 0.732358
O O4 0.988035 0.873491 0.830443
O O5 0.094531 0.673903 0.996214
O O6 0.438391 0.486857 0.852493
O O7 0.501925 0.801780 0.559136
O O8 0.451404 0.763846 0.325890
O O9 0.000000 0.500000 0.500000
O O10 0.765049 0.460392 0.517509
O O11 0.500000 0.000000 0.500000
O O12 0.731199 0.900906 0.326965
O O13 0.221563 0.622637 0.261828
O O14 0.968581 0.104805 0.857712
#
# Coordination Sequence:
#
# PCOD9021368 Si02
#       7
#     1   2   2   2   2   2   2
#     4  10  22  38  60  98 132 160 200 280 328 378
#     4  11  23  45  65  88 137 173 227 260 323 395
#     4  12  23  37  65  99 130 167 212 271 331 388
#     4  12  22  42  64  98 130 174 214 272 331 389
#     4  11  24  42  63 102 133 169 222 265 337 386
#     4  11  22  37  64  93 126 166 213 271 322 378
#     4  10  26  41  64  95 125 184 218 270 317 388
#
# _framework density 22.057632000000002
#
# number of rings (size 3 to 8) (size 9 to 14) (size 15 to 20)
#    0.000    0.923    4.615    1.385    4.308    1.846 
#    0.000    0.769    0.000    0.000    0.000    0.000 
#    0.000    0.000    0.000    0.000    0.000    0.000 
#
# Total GULP energy -72511.184592 kJ/mol
# GULP energy per Si atom -5577.783430 kJ/mol
# Density = 2.200743 g / cm^3
# Si number density = 22.057632 Si / 1000 Ang^3
#
#
#
# Elastic Constant Matrix: (Units=GPa)
#
#
# Indices 1 2 3 4 5 6 
#
# 1 36.8563 4.3811 26.9024 1.0448 -6.7407 7.2944
# 2 4.3811 70.5837 33.4693 -2.6215 -9.9324 2.2838
# 3 26.9024 33.4693 128.6434 27.5804 1.6337 -4.6738
# 4 1.0448 -2.6215 27.5804 23.5911 -0.5625 -14.1365
# 5 -6.7407 -9.9324 1.6337 -0.5625 36.1480 0.0899
# 6 7.2944 2.2838 -4.6738 -14.1365 0.0899 43.1976
#
#
#
# Elastic Compliance Matrix: (Units=1/GPa)
#
#
# Indices 1 2 3 4 5 6 
#
# 1 0.037135 0.004854 -0.011377 0.009638 0.008934 -0.004623
# 2 0.004854 0.019607 -0.009090 0.013740 0.006913 0.001642
# 3 -0.011377 -0.009090 0.017378 -0.022873 -0.005753 -0.003191
# 4 0.009638 0.013740 -0.022873 0.083983 0.007857 0.022639
# 5 0.008934 0.006913 -0.005753 0.007857 0.031612 0.000009
# 6 -0.004623 0.001642 -0.003191 0.022639 0.000009 0.030907
#
#
# Mechanical properties :
#
#
# Convention : Reuss Voigt Hill
#
# Bulk Modulus (GPa) = 23.31251 40.62101 31.96676
# Shear Modulus (GPa) = 18.78678 32.00936 25.39807
#
# Velocity S-wave (km/s) = 2.92158 3.81355 3.39697
# Velocity P-wave (km/s) = 4.68750 6.15197 5.46898
#
# Compressibility (1/GPa) = 0.04289542
#
# Stress axis : x y z
#
# Youngs Moduli (GPa) = 26.92870 51.00335 57.54251
#
# Poissons Ratio (x) = -0.24758 0.65463
# Poissons Ratio (y) = -0.13072 0.52307
# Poissons Ratio (z) = 0.30635 0.46362
#
# Static dielectric constant tensor:
#      x y z
#    x 1.234110 0.165770 -0.015060 
#    y 0.165770 1.744180 0.024210 
#    z -0.015060 0.024210 1.822610 
# 
# From -- ./inp_files/250974.got.cif
#   From: 2010.05.17/outbox.cif.g08.bks.cpg/sg2_126_cif.got.tgz:250974.got - 2010.06.03 11:33:40.
