data_PCOD9021012
_publ_section_title
;
Structure prediction by ZEFSAII (Michael W. Deem and Ramdas Pophale) SiO2 
 PCOD9021012
Probable space group: P -1
;
_chemical_formula_sum "Si O2"
_cell_formula_units_Z 16
_cell_length_a 5.271881
_cell_length_b 7.952822
_cell_length_c 25.482031
_cell_angle_alpha 127.593102
_cell_angle_beta 78.998050
_cell_angle_gamma 70.771801
_cell_volume 680.975113
_symmetry_space_group_name_H-M "P -1"
_symmetry_group_IT_number 2
_symmetry_cell_setting 'triclinic'
loop_
_space_group_symop_operation_xyz
x,y,z
-x,-y,-z
loop_
_atom_site_type_symbol
_atom_site_label
_atom_site_fract_x
_atom_site_fract_y
_atom_site_fract_z
Si Si1 0.653280 0.100547 0.551178
Si Si2 0.905477 0.633384 0.947272
Si Si3 0.731992 0.533417 0.765564
Si Si4 0.136691 0.737859 0.063428
Si Si5 0.769572 0.780783 0.589141
Si Si6 0.912064 0.043018 0.311226
Si Si7 0.769446 0.369028 0.284144
Si Si8 0.741390 0.896936 0.906792
O O1 0.442270 0.408371 0.621725
O O2 0.500000 0.000000 0.500000
O O3 0.674587 0.988607 0.586591
O O4 0.000000 0.000000 0.500000
O O5 0.006456 0.347469 0.902596
O O6 0.993973 0.688082 0.898419
O O7 0.006083 0.724696 0.010118
O O8 0.524913 0.838973 0.002748
O O9 0.994145 0.559352 0.732228
O O10 0.478412 0.581911 0.741848
O O11 0.599407 0.761914 0.857262
O O12 0.889327 0.260096 0.737190
O O13 0.118668 0.997361 0.118777
O O14 0.500000 0.500000 0.000000
O O15 0.449273 0.832554 0.634591
O O16 0.000000 0.500000 0.500000
O O17 0.947582 0.829879 0.636089
O O18 0.926076 0.105635 0.261585
#
# Coordination Sequence:
#
# PCOD9021012 Si02
#       8
#     2   2   2   2   2   2   2   2
#     4  12  22  39  67 101 129 169 220 276 339 394
#     4   9  19  39  63  93 129 159 222 277 319 388
#     4  12  26  47  66  99 140 186 225 276 338 422
#     4   9  18  36  61  94 128 158 206 281 323 379
#     4  12  23  42  70 102 135 167 228 284 336 402
#     4  12  24  47  68  96 138 180 221 282 335 400
#     4  12  26  47  69  95 142 176 226 281 338 404
#     4  10  22  37  64  91 125 176 215 266 337 382
#
# _framework density 23.495718
#
# number of rings (size 3 to 8) (size 9 to 14) (size 15 to 20)
#    0.000    1.000    2.500    4.500    1.750    1.000 
#    4.500    0.000    0.000    0.000    0.000    0.000 
#    0.000    0.000    0.000    0.000    0.000    0.000 
#
# Total GULP energy -89473.930309 kJ/mol
# GULP energy per Si atom -5592.120644 kJ/mol
# Density = 2.344224 g / cm^3
# Si number density = 23.495718 Si / 1000 Ang^3
#
#
#
# Elastic Constant Matrix: (Units=GPa)
#
#
# Indices 1 2 3 4 5 6 
#
# 1 129.9274 74.9152 26.7229 10.4203 12.0206 -3.1136
# 2 74.9152 211.6485 36.3574 -11.3814 26.4694 5.9950
# 3 26.7229 36.3574 71.5761 14.3421 22.5980 3.1685
# 4 10.4203 -11.3814 14.3421 28.2375 7.8394 3.3836
# 5 12.0206 26.4694 22.5980 7.8394 42.7274 -1.2752
# 6 -3.1136 5.9950 3.1685 3.3836 -1.2752 22.5905
#
#
#
# Elastic Compliance Matrix: (Units=1/GPa)
#
#
# Indices 1 2 3 4 5 6 
#
# 1 0.010823 -0.004201 -0.001363 -0.005852 0.001464 0.003757
# 2 -0.004201 0.007580 -0.002424 0.007282 -0.003674 -0.003549
# 3 -0.001363 -0.002424 0.019665 -0.008337 -0.007029 -0.001451
# 4 -0.005852 0.007282 -0.008337 0.047930 -0.007523 -0.009173
# 5 0.001464 -0.003674 -0.007029 -0.007523 0.030516 0.005012
# 6 0.003757 -0.003549 -0.001451 -0.009173 0.005012 0.047586
#
#
# Mechanical properties :
#
#
# Convention : Reuss Voigt Hill
#
# Bulk Modulus (GPa) = 45.26417 76.57144 60.91780
# Shear Modulus (GPa) = 26.67519 37.05483 31.86501
#
# Velocity S-wave (km/s) = 3.37311 3.97557 3.68666
# Velocity P-wave (km/s) = 5.87173 7.33033 6.64119
#
# Compressibility (1/GPa) = 0.02209253
#
# Stress axis : x y z
#
# Youngs Moduli (GPa) = 92.39518 131.93151 50.85115
#
# Poissons Ratio (x) = 0.55425 0.06931
# Poissons Ratio (y) = 0.38815 0.12325
# Poissons Ratio (z) = 0.12593 0.31978
#
# Static dielectric constant tensor:
#      x y z
#    x 1.892650 0.034380 -0.031540 
#    y 0.034380 1.986670 -0.006400 
#    z -0.031540 -0.006400 1.907510 
# 
# From -- ./inp_files/615263.got.cif
#   From: 2010.05.17/outbox.cif.g08.bks.cpg/sg2_308_cif.got.tgz:615263.got - 2010.06.03 11:33:40.
