data_PCOD9021641
_publ_section_title
;
Structure prediction by ZEFSAII (Michael W. Deem and Ramdas Pophale) SiO2 
 PCOD9021641
Probable space group: P -1
;
_chemical_formula_sum "Si O2"
_cell_formula_units_Z 15
_cell_length_a 10.023459
_cell_length_b 8.826969
_cell_length_c 9.926847
_cell_angle_alpha 87.038054
_cell_angle_beta 124.462331
_cell_angle_gamma 114.803123
_cell_volume 636.796298
_symmetry_space_group_name_H-M "P -1"
_symmetry_group_IT_number 2
_symmetry_cell_setting 'triclinic'
loop_
_space_group_symop_operation_xyz
x,y,z
-x,-y,-z
loop_
_atom_site_type_symbol
_atom_site_label
_atom_site_fract_x
_atom_site_fract_y
_atom_site_fract_z
Si Si1 0.847321 0.266536 0.051313
Si Si2 0.552553 0.292380 0.697627
Si Si3 0.851301 0.892540 0.564933
Si Si4 0.500000 0.000000 0.500000
Si Si5 0.999620 0.252241 0.567623
Si Si6 0.225366 0.321372 0.197394
Si Si7 0.632246 0.892954 0.864808
Si Si8 0.765395 0.373026 0.274440
O O1 0.868802 0.353989 0.203672
O O2 0.037475 0.333537 0.076538
O O3 0.694710 0.296542 0.887788
O O4 0.759562 0.059586 0.018299
O O5 0.340685 0.169944 0.620762
O O6 0.602989 0.489941 0.700921
O O7 0.571486 0.199966 0.578803
O O8 0.802261 0.779856 0.674690
O O9 0.976766 0.843454 0.545762
O O10 0.925624 0.092935 0.635455
O O11 0.575116 0.960409 0.692890
O O12 0.851218 0.316554 0.450770
O O13 0.183749 0.427394 0.694065
O O14 0.259335 0.210024 0.110255
O O15 0.447963 0.761346 0.842573
#
# Coordination Sequence:
#
# PCOD9021641 Si02
#       8
#     2   2   2   1   2   2   2   2
#     4  11  25  46  63  99 139 176 217 275 333 392
#     4  11  24  42  69  97 135 174 225 268 334 396
#     4  11  22  43  67 101 131 173 218 284 322 394
#     4  10  22  38  64 100 128 170 212 276 318 392
#     4  10  23  41  69  97 135 168 231 269 331 382
#     4  12  24  44  68 100 134 173 223 276 331 393
#     4  11  24  42  69  98 134 175 221 268 336 394
#     4  11  23  44  69  99 128 182 220 272 324 403
#
# _framework density 23.555412
#
# number of rings (size 3 to 8) (size 9 to 14) (size 15 to 20)
#    0.000    1.067    2.667    4.000    1.867    1.067 
#    4.800    1.333    0.000    0.000    0.000    0.000 
#    0.000    0.000    0.000    0.000    0.000    0.000 
#
# Total GULP energy -83636.095349 kJ/mol
# GULP energy per Si atom -5575.739690 kJ/mol
# Density = 2.350180 g / cm^3
# Si number density = 23.555412 Si / 1000 Ang^3
#
#
#
# Elastic Constant Matrix: (Units=GPa)
#
#
# Indices 1 2 3 4 5 6 
#
# 1 65.3452 19.6672 -5.9320 4.7179 11.5062 -2.2179
# 2 19.6672 145.0030 12.7030 40.3428 -11.7635 -15.4636
# 3 -5.9320 12.7030 45.8266 8.0685 1.2328 -6.9376
# 4 4.7179 40.3428 8.0685 43.5900 -7.9743 8.0543
# 5 11.5062 -11.7635 1.2328 -7.9743 37.8475 11.6393
# 6 -2.2179 -15.4636 -6.9376 8.0543 11.6393 22.6513
#
#
#
# Elastic Compliance Matrix: (Units=1/GPa)
#
#
# Indices 1 2 3 4 5 6 
#
# 1 0.018828 -0.001185 0.005649 -0.005852 -0.010689 0.010338
# 2 -0.001185 0.012846 0.001835 -0.016076 -0.004378 0.017182
# 3 0.005649 0.001835 0.027876 -0.013406 -0.011314 0.020924
# 4 -0.005852 -0.016076 -0.013406 0.053698 0.022826 -0.046477
# 5 -0.010689 -0.004378 -0.011314 0.022826 0.045478 -0.038985
# 6 0.010338 0.017182 0.020924 -0.046477 -0.038985 0.099857
#
#
# Mechanical properties :
#
#
# Convention : Reuss Voigt Hill
#
# Bulk Modulus (GPa) = 13.86044 34.33903 24.09974
# Shear Modulus (GPa) = 18.51610 36.13353 27.32482
#
# Velocity S-wave (km/s) = 2.80673 3.92085 3.40961
# Velocity P-wave (km/s) = 4.04976 5.92512 5.07482
#
# Compressibility (1/GPa) = 0.07214778
#
# Stress axis : x y z
#
# Youngs Moduli (GPa) = 53.11164 77.84318 35.87294
#
# Poissons Ratio (x) = 0.09225 -0.20263
# Poissons Ratio (y) = 0.06294 -0.06583
# Poissons Ratio (z) = -0.30000 -0.14284
#
# Static dielectric constant tensor:
#      x y z
#    x 1.953240 0.025450 0.041980 
#    y 0.025450 1.929960 -0.049870 
#    z 0.041980 -0.049870 1.890740 
# 
# From -- ./inp_files/419493.got.cif
#   From: 2010.05.17/outbox.cif.g08.bks.cpg/sg2_210_cif.got.tgz:419493.got - 2010.06.03 11:33:40.
