data_PCOD9021331
_publ_section_title
;
Structure prediction by ZEFSAII (Michael W. Deem and Ramdas Pophale) SiO2 
 PCOD9021331
Probable space group: P -1
;
_chemical_formula_sum "Si O2"
_cell_formula_units_Z 16
_cell_length_a 5.652109
_cell_length_b 15.042160
_cell_length_c 9.926747
_cell_angle_alpha 112.426471
_cell_angle_beta 62.970192
_cell_angle_gamma 115.420434
_cell_volume 660.518894
_symmetry_space_group_name_H-M "P -1"
_symmetry_group_IT_number 2
_symmetry_cell_setting 'triclinic'
loop_
_space_group_symop_operation_xyz
x,y,z
-x,-y,-z
loop_
_atom_site_type_symbol
_atom_site_label
_atom_site_fract_x
_atom_site_fract_y
_atom_site_fract_z
Si Si1 0.583086 0.617663 0.581190
Si Si2 0.793860 0.152407 0.918754
Si Si3 0.436382 0.297765 0.089237
Si Si4 0.944346 0.969739 0.683239
Si Si5 0.407542 0.308607 0.802507
Si Si6 0.900627 0.137656 0.188410
Si Si7 0.590181 0.870949 0.487458
Si Si8 0.822139 0.390012 0.538366
O O1 0.500000 0.500000 0.500000
O O2 0.466608 0.632892 0.767018
O O3 0.402544 0.662813 0.551180
O O4 0.924263 0.652882 0.505256
O O5 0.787345 0.055990 0.773872
O O6 0.073926 0.247227 0.863776
O O7 0.551125 0.201986 0.996881
O O8 0.797786 0.113717 0.048925
O O9 0.109424 0.249561 0.176273
O O10 0.489651 0.341169 0.952266
O O11 0.250926 0.033018 0.589535
O O12 0.819234 0.882082 0.555608
O O13 0.941017 0.929328 0.811661
O O14 0.493592 0.219858 0.650903
O O15 0.601718 0.400151 0.715825
O O16 0.669037 0.131706 0.355571
O O17 0.000000 0.500000 0.500000
#
# Coordination Sequence:
#
# PCOD9021331 Si02
#       8
#     2   2   2   2   2   2   2   2
#     4  10  24  46  75 103 138 176 228 283 348 421
#     4  10  24  41  59  95 134 180 228 283 347 412
#     4  11  25  42  66  96 136 176 227 284 350 420
#     4  10  22  39  59  90 132 176 233 287 340 400
#     4  10  24  41  66  96 137 178 223 285 347 412
#     4  11  22  37  63  90 129 181 230 284 343 405
#     4  10  22  38  60  90 127 176 232 275 337 402
#     4  10  23  46  76 107 136 178 228 285 347 422
#
# _framework density 24.223379000000001
#
# number of rings (size 3 to 8) (size 9 to 14) (size 15 to 20)
#    0.000    1.750    0.000    2.250    8.750    8.000 
#    0.000    5.000    0.000    0.000    0.000    0.000 
#    0.000    0.000    0.000    0.000    0.000    0.000 
#
# Total GULP energy -89110.309077 kJ/mol
# GULP energy per Si atom -5569.394317 kJ/mol
# Density = 2.416825 g / cm^3
# Si number density = 24.223379 Si / 1000 Ang^3
#
#
#
# Elastic Constant Matrix: (Units=GPa)
#
#
# Indices 1 2 3 4 5 6 
#
# 1 78.3825 5.8830 17.2595 -9.3331 -5.1213 8.1651
# 2 5.8830 54.4952 29.3895 -24.8427 -5.6257 9.0402
# 3 17.2595 29.3895 156.3146 -26.6271 -0.9565 13.9451
# 4 -9.3331 -24.8427 -26.6271 51.1394 3.4092 -2.5653
# 5 -5.1213 -5.6257 -0.9565 3.4092 40.3513 -4.2732
# 6 8.1651 9.0402 13.9451 -2.5653 -4.2732 21.4480
#
#
#
# Elastic Compliance Matrix: (Units=1/GPa)
#
#
# Indices 1 2 3 4 5 6 
#
# 1 0.013692 0.000849 -0.000899 0.002139 0.001178 -0.004495
# 2 0.000849 0.026132 -0.002388 0.011074 0.001903 -0.008081
# 3 -0.000899 -0.002388 0.007690 0.002561 -0.000853 -0.003515
# 4 0.002139 0.011074 0.002561 0.026503 -0.000801 -0.004136
# 5 0.001178 0.001903 -0.000853 -0.000801 0.025703 0.004329
# 6 -0.004495 -0.008081 -0.003515 -0.004136 0.004329 0.054395
#
#
# Mechanical properties :
#
#
# Convention : Reuss Voigt Hill
#
# Bulk Modulus (GPa) = 23.45285 43.80624 33.62955
# Shear Modulus (GPa) = 28.86776 38.36507 33.61642
#
# Velocity S-wave (km/s) = 3.45589 3.98402 3.72932
# Velocity P-wave (km/s) = 5.06233 6.26792 5.69710
#
# Compressibility (1/GPa) = 0.04263874
#
# Stress axis : x y z
#
# Youngs Moduli (GPa) = 73.03468 38.26782 130.03721
#
# Poissons Ratio (x) = -0.03250 0.11688
# Poissons Ratio (y) = -0.06202 0.31053
# Poissons Ratio (z) = 0.06564 0.09138
#
# Static dielectric constant tensor:
#      x y z
#    x 2.093520 -0.044090 0.012130 
#    y -0.044090 2.047310 -0.032150 
#    z 0.012130 -0.032150 1.935390 
# 
# From -- ./inp_files/139207.got.cif
#   From: 2010.05.17/outbox.cif.g08.bks.cpg/sg2_70_cif.got.tgz:139207.got - 2010.06.03 11:33:40.
