data_PCOD9021474
_publ_section_title
;
Structure prediction by ZEFSAII (Michael W. Deem and Ramdas Pophale) SiO2 
 PCOD9021474
Probable space group: P -1
;
_chemical_formula_sum "Si O2"
_cell_formula_units_Z 16
_cell_length_a 12.793466
_cell_length_b 11.411782
_cell_length_c 5.764567
_cell_angle_alpha 121.977501
_cell_angle_beta 76.558243
_cell_angle_gamma 77.544816
_cell_volume 633.099795
_symmetry_space_group_name_H-M "P -1"
_symmetry_group_IT_number 2
_symmetry_cell_setting 'triclinic'
loop_
_space_group_symop_operation_xyz
x,y,z
-x,-y,-z
loop_
_atom_site_type_symbol
_atom_site_label
_atom_site_fract_x
_atom_site_fract_y
_atom_site_fract_z
Si Si1 0.890879 0.802762 0.350530
Si Si2 0.691575 0.307427 0.179149
Si Si3 0.558421 0.875183 0.146051
Si Si4 0.851174 0.452041 0.047207
Si Si5 0.875877 0.484594 0.559005
Si Si6 0.322300 0.002997 0.118043
Si Si7 0.029293 0.142645 0.126417
Si Si8 0.551516 0.565812 0.841579
O O1 0.912279 0.853050 0.652399
O O2 0.750227 0.870084 0.521949
O O3 0.905037 0.868680 0.163281
O O4 0.007067 0.644368 0.118580
O O5 0.782715 0.341483 0.000241
O O6 0.662171 0.424377 0.531595
O O7 0.562132 0.367063 0.195367
O O8 0.723339 0.131660 0.031983
O O9 0.455584 0.912318 0.045347
O O10 0.500000 0.000000 0.500000
O O11 0.584243 0.705353 0.032778
O O12 0.665416 0.906576 0.017649
O O13 0.818973 0.549385 0.404817
O O14 0.825407 0.532523 0.894620
O O15 0.000000 0.500000 0.500000
O O16 0.915447 0.302803 0.340883
O O17 0.000000 0.000000 0.000000
O O18 0.500000 0.500000 0.000000
#
# Coordination Sequence:
#
# PCOD9021474 Si02
#       8
#     2   2   2   2   2   2   2   2
#     4  10  23  40  62 100 133 171 213 276 326 393
#     4  10  23  41  67  96 125 178 220 279 334 398
#     4  10  22  44  66  98 128 171 221 280 339 398
#     4  10  23  42  66  99 137 174 223 272 334 400
#     4  10  22  42  62  88 133 182 218 268 322 398
#     4  10  23  40  68  93 132 170 224 275 340 397
#     4  10  22  38  62  88 131 172 217 263 324 382
#     4  10  22  44  67  95 131 168 227 278 334 399
#
# _framework density 25.272476999999999
#
# number of rings (size 3 to 8) (size 9 to 14) (size 15 to 20)
#    0.000    2.000    0.000    1.500   10.500    1.000 
#    9.000    0.000    0.000    0.000    0.000    0.000 
#    0.000    0.000    0.000    0.000    0.000    0.000 
#
# Total GULP energy -89234.743087 kJ/mol
# GULP energy per Si atom -5577.171443 kJ/mol
# Density = 2.521496 g / cm^3
# Si number density = 25.272477 Si / 1000 Ang^3
#
#
#
# Elastic Constant Matrix: (Units=GPa)
#
#
# Indices 1 2 3 4 5 6 
#
# 1 79.4216 48.7800 34.5127 -3.1206 -7.0527 5.0386
# 2 48.7800 175.0269 106.3763 0.3322 -1.3731 34.0714
# 3 34.5127 106.3763 174.2852 -33.2252 -7.6110 18.3637
# 4 -3.1206 0.3322 -33.2252 59.0880 -8.7120 1.4556
# 5 -7.0527 -1.3731 -7.6110 -8.7120 47.6817 -5.9610
# 6 5.0386 34.0714 18.3637 1.4556 -5.9610 47.1516
#
#
#
# Elastic Compliance Matrix: (Units=1/GPa)
#
#
# Indices 1 2 3 4 5 6 
#
# 1 0.015660 -0.004650 -0.000154 0.001102 0.002615 0.002043
# 2 -0.004650 0.012446 -0.007050 -0.004580 -0.003041 -0.005994
# 3 -0.000154 -0.007050 0.011423 0.006870 0.002956 0.000823
# 4 0.001102 -0.004580 0.006870 0.021617 0.005140 0.000499
# 5 0.002615 -0.003041 0.002956 0.005140 0.023124 0.003532
# 6 0.002043 -0.005994 0.000823 0.000499 0.003532 0.025431
#
#
# Mechanical properties :
#
#
# Convention : Reuss Voigt Hill
#
# Bulk Modulus (GPa) = 63.20775 89.78574 76.49674
# Shear Modulus (GPa) = 36.05361 46.72191 41.38776
#
# Velocity S-wave (km/s) = 3.78113 4.30435 4.05119
# Velocity P-wave (km/s) = 6.64284 7.76578 7.22616
#
# Compressibility (1/GPa) = 0.01582085
#
# Stress axis : x y z
#
# Youngs Moduli (GPa) = 63.85753 80.34829 87.54076
#
# Poissons Ratio (x) = 0.37364 0.01346
# Poissons Ratio (y) = 0.29696 0.61716
# Poissons Ratio (z) = 0.00982 0.56646
#
# Static dielectric constant tensor:
#      x y z
#    x 2.237880 -0.077040 0.032020 
#    y -0.077040 2.633610 0.142930 
#    z 0.032020 0.142930 2.042950 
# 
# From -- ./inp_files/84246.got.cif
#   From: 2010.05.17/outbox.cif.g08.bks.cpg/sg2_43_cif.got.tgz:84246.got - 2010.06.03 11:33:40.
