data_PCOD9021146
_publ_section_title
;
Structure prediction by ZEFSAII (Michael W. Deem and Ramdas Pophale) SiO2 
 PCOD9021146
Probable space group: P -1
;
_chemical_formula_sum "Si O2"
_cell_formula_units_Z 14
_cell_length_a 24.314164
_cell_length_b 7.222927
_cell_length_c 5.334592
_cell_angle_alpha 79.658216
_cell_angle_beta 117.422743
_cell_angle_gamma 139.072259
_cell_volume 521.420128
_symmetry_space_group_name_H-M "P -1"
_symmetry_group_IT_number 2
_symmetry_cell_setting 'triclinic'
loop_
_space_group_symop_operation_xyz
x,y,z
-x,-y,-z
loop_
_atom_site_type_symbol
_atom_site_label
_atom_site_fract_x
_atom_site_fract_y
_atom_site_fract_z
Si Si1 0.001668 0.713511 0.066059
Si Si2 0.161619 0.950059 0.671733
Si Si3 0.368233 0.520902 0.805775
Si Si4 0.526027 0.283789 0.513683
Si Si5 0.830116 0.733326 0.026894
Si Si6 0.342711 0.863744 0.501035
Si Si7 0.178243 0.610122 0.522404
O O1 0.058893 0.806639 0.419986
O O2 0.000000 0.500000 0.000000
O O3 0.893465 0.527921 0.829295
O O4 0.071978 0.017172 0.985959
O O5 0.251721 0.225349 0.620598
O O6 0.188495 0.096359 0.961091
O O7 0.157571 0.721063 0.659266
O O8 0.424438 0.555116 0.685808
O O9 0.386970 0.790450 0.764918
O O10 0.402963 0.531404 0.145356
O O11 0.500000 0.000000 0.500000
O O12 0.425003 0.140362 0.427170
O O13 0.840668 0.630876 0.321895
O O14 0.739875 0.427800 0.771870
O O15 0.286625 0.863713 0.577835
#
# Coordination Sequence:
#
# PCOD9021146 Si02
#       7
#     2   2   2   2   2   2   2
#     4  10  24  44  68  98 140 181 233 289 360 426
#     4  11  24  44  70  98 141 183 240 284 359 422
#     4  11  21  42  70 103 139 194 235 295 357 428
#     4  10  22  37  72 103 140 186 244 287 361 428
#     4  12  23  43  70  97 141 182 234 290 358 419
#     4  11  23  41  67 103 139 178 235 294 351 427
#     4  11  26  42  67 104 137 181 237 295 353 426
#
# _framework density 26.849747000000001
#
# number of rings (size 3 to 8) (size 9 to 14) (size 15 to 20)
#    0.000    1.143    2.857    3.857    2.000    8.000 
#    0.000    1.429    0.000    0.000    0.000    0.000 
#    0.000    0.000    0.000    0.000    0.000    0.000 
#
# Total GULP energy -78417.127559 kJ/mol
# GULP energy per Si atom -5601.223397 kJ/mol
# Density = 2.678864 g / cm^3
# Si number density = 26.849747 Si / 1000 Ang^3
#
#
#
# Elastic Constant Matrix: (Units=GPa)
#
#
# Indices 1 2 3 4 5 6 
#
# 1 125.4727 30.1842 37.5864 -8.9860 1.0656 9.9525
# 2 30.1842 101.5754 24.5795 -1.9834 6.1299 17.6203
# 3 37.5864 24.5795 125.6508 5.6084 -7.4747 4.6375
# 4 -8.9860 -1.9834 5.6084 21.2931 8.3534 -7.3059
# 5 1.0656 6.1299 -7.4747 8.3534 36.0539 11.6850
# 6 9.9525 17.6203 4.6375 -7.3059 11.6850 56.5654
#
#
#
# Elastic Compliance Matrix: (Units=1/GPa)
#
#
# Indices 1 2 3 4 5 6 
#
# 1 0.009705 -0.002010 -0.002878 0.005500 -0.001899 0.000257
# 2 -0.002010 0.011399 -0.001620 0.000238 -0.001379 -0.002749
# 3 -0.002878 -0.001620 0.009715 -0.006092 0.004257 -0.001452
# 4 0.005500 0.000238 -0.006092 0.062650 -0.019751 0.011629
# 5 -0.001899 -0.001379 0.004257 -0.019751 0.036630 -0.009703
# 6 0.000257 -0.002749 -0.001452 0.011629 -0.009703 0.022115
#
#
# Mechanical properties :
#
#
# Convention : Reuss Voigt Hill
#
# Bulk Modulus (GPa) = 56.16868 59.71100 57.93984
# Shear Modulus (GPa) = 29.21170 40.13906 34.67538
#
# Velocity S-wave (km/s) = 3.30202 3.87065 3.59759
# Velocity P-wave (km/s) = 5.95842 6.50101 6.23562
#
# Compressibility (1/GPa) = 0.01780352
#
# Stress axis : x y z
#
# Youngs Moduli (GPa) = 103.03814 87.72801 102.93369
#
# Poissons Ratio (x) = 0.17635 0.29623
# Poissons Ratio (y) = 0.20713 0.16672
# Poissons Ratio (z) = 0.29653 0.14209
#
# Static dielectric constant tensor:
#      x y z
#    x 2.115190 0.008620 0.048970 
#    y 0.008620 2.074150 0.008250 
#    z 0.048970 0.008250 2.095760 
# 
# From -- ./inp_files/126425.got.cif
#   From: 2010.05.17/outbox.cif.g08.bks.cpg/sg2_64_cif.got.tgz:126425.got - 2010.06.03 11:33:40.
