data_PCOD9021041
_publ_section_title
;
Structure prediction by ZEFSAII (Michael W. Deem and Ramdas Pophale) SiO2 
 PCOD9021041
Probable space group: P -1
;
_chemical_formula_sum "Si O2"
_cell_formula_units_Z 16
_cell_length_a 21.676461
_cell_length_b 4.972869
_cell_length_c 10.385718
_cell_angle_alpha 101.299175
_cell_angle_beta 38.945698
_cell_angle_gamma 113.448577
_cell_volume 632.958220
_symmetry_space_group_name_H-M "P -1"
_symmetry_group_IT_number 2
_symmetry_cell_setting 'triclinic'
loop_
_space_group_symop_operation_xyz
x,y,z
-x,-y,-z
loop_
_atom_site_type_symbol
_atom_site_label
_atom_site_fract_x
_atom_site_fract_y
_atom_site_fract_z
Si Si1 0.022050 0.076816 0.197361
Si Si2 0.947157 0.310714 0.693945
Si Si3 0.397041 0.108893 0.322869
Si Si4 0.614516 0.058098 0.378158
Si Si5 0.617633 0.361400 0.912246
Si Si6 0.770327 0.267206 0.819135
Si Si7 0.208437 0.100923 0.466479
Si Si8 0.249287 0.306986 0.903549
O O1 0.045680 0.428016 0.193331
O O2 0.999512 0.898392 0.353901
O O3 0.141235 0.084403 0.984159
O O4 0.906210 0.909275 0.304091
O O5 0.827137 0.135801 0.819076
O O6 0.000000 0.500000 0.500000
O O7 0.399995 0.843894 0.203237
O O8 0.393012 0.011652 0.465586
O O9 0.290695 0.146071 0.452887
O O10 0.508128 0.386140 0.133306
O O11 0.335243 0.167767 0.778079
O O12 0.500000 0.000000 0.500000
O O13 0.691596 0.396520 0.250335
O O14 0.649168 0.190889 0.962384
O O15 0.719643 0.658870 0.734883
O O16 0.816062 0.209128 0.602048
O O17 0.789013 0.568165 0.896149
#
# Coordination Sequence:
#
# PCOD9021041 Si02
#       8
#     2   2   2   2   2   2   2   2
#     4  11  24  39  66 100 149 185 236 279 349 416
#     4  11  20  35  57  99 143 186 219 277 337 417
#     4  10  25  46  68 101 133 180 242 296 355 417
#     4  12  27  52  77 101 134 187 241 297 349 414
#     4  10  22  43  70 102 138 178 230 300 358 425
#     4  10  22  37  65 105 142 176 233 274 358 410
#     4  11  23  40  71 102 142 192 225 287 362 423
#     4  11  26  46  70 109 142 188 236 294 339 416
#
# _framework density 25.278130999999998
#
# number of rings (size 3 to 8) (size 9 to 14) (size 15 to 20)
#    0.000    1.250    1.250    4.125    8.750    0.000 
#    0.000    1.250    0.000    0.000    0.000    0.000 
#    0.000    0.000    0.000    0.000    0.000    0.000 
#
# Total GULP energy -89185.138164 kJ/mol
# GULP energy per Si atom -5574.071135 kJ/mol
# Density = 2.522060 g / cm^3
# Si number density = 25.278131 Si / 1000 Ang^3
#
#
#
# Elastic Constant Matrix: (Units=GPa)
#
#
# Indices 1 2 3 4 5 6 
#
# 1 137.5104 17.8061 41.4349 -1.8025 -41.3927 -15.4289
# 2 17.8061 89.0675 34.8578 -10.9019 -4.0618 -19.5776
# 3 41.4349 34.8578 106.6213 -16.5423 -34.6935 -5.9630
# 4 -1.8025 -10.9019 -16.5423 38.5937 -9.7338 -5.0067
# 5 -41.3927 -4.0618 -34.6935 -9.7338 46.1435 6.4119
# 6 -15.4289 -19.5776 -5.9630 -5.0067 6.4119 29.1799
#
#
#
# Elastic Compliance Matrix: (Units=1/GPa)
#
#
# Indices 1 2 3 4 5 6 
#
# 1 0.010745 -0.000395 -0.000214 0.003212 0.009590 0.003817
# 2 -0.000395 0.015859 -0.005291 0.002599 -0.003867 0.010646
# 3 -0.000214 -0.005291 0.017278 0.009346 0.014544 -0.001725
# 4 0.003212 0.002599 0.009346 0.036020 0.016641 0.007876
# 5 0.009590 -0.003867 0.014544 0.016641 0.044587 -0.001494
# 6 0.003817 0.010646 -0.001725 0.007876 -0.001494 0.044758
#
#
# Mechanical properties :
#
#
# Convention : Reuss Voigt Hill
#
# Bulk Modulus (GPa) = 31.17045 57.93298 44.55172
# Shear Modulus (GPa) = 26.07694 38.72346 32.40020
#
# Velocity S-wave (km/s) = 3.21534 3.91819 3.58404
# Velocity P-wave (km/s) = 5.11295 6.59072 5.89830
#
# Compressibility (1/GPa) = 0.03208166
#
# Stress axis : x y z
#
# Youngs Moduli (GPa) = 93.06674 63.05603 57.87730
#
# Poissons Ratio (x) = 0.02489 0.01240
# Poissons Ratio (y) = 0.03674 0.30623
# Poissons Ratio (z) = 0.01994 0.33363
#
# Static dielectric constant tensor:
#      x y z
#    x 2.026530 0.012720 -0.049840 
#    y 0.012720 2.073410 -0.070430 
#    z -0.049840 -0.070430 2.180180 
# 
# From -- ./inp_files/468079.got.cif
#   From: 2010.05.17/outbox.cif.g08.bks.cpg/sg2_235_cif.got.tgz:468079.got - 2010.06.03 11:33:40.
