data_PCOD9021151
_publ_section_title
;
Structure prediction by ZEFSAII (Michael W. Deem and Ramdas Pophale) SiO2 
 PCOD9021151
Probable space group: P -1
;
_chemical_formula_sum "Si O2"
_cell_formula_units_Z 13
_cell_length_a 11.414372
_cell_length_b 9.679144
_cell_length_c 9.772623
_cell_angle_alpha 133.038104
_cell_angle_beta 40.642626
_cell_angle_gamma 140.661412
_cell_volume 433.667205
_symmetry_space_group_name_H-M "P -1"
_symmetry_group_IT_number 2
_symmetry_cell_setting 'triclinic'
loop_
_space_group_symop_operation_xyz
x,y,z
-x,-y,-z
loop_
_atom_site_type_symbol
_atom_site_label
_atom_site_fract_x
_atom_site_fract_y
_atom_site_fract_z
Si Si1 0.702808 0.602297 0.293028
Si Si2 0.684050 0.162869 0.626215
Si Si3 0.918611 0.776236 0.826364
Si Si4 0.325603 0.088207 0.049776
Si Si5 0.031073 0.591188 0.854200
Si Si6 0.000000 0.000000 0.500000
Si Si7 0.404449 0.650298 0.424263
O O1 0.500000 0.500000 0.500000
O O2 0.586401 0.599394 0.253043
O O3 0.836080 0.488086 0.064679
O O4 0.872773 0.840574 0.369988
O O5 0.661941 0.325681 0.651302
O O6 0.914120 0.202273 0.423427
O O7 0.530918 0.907707 0.537047
O O8 0.569861 0.159524 0.865126
O O9 0.726667 0.759361 0.897767
O O10 0.933489 0.614465 0.813686
O O11 0.000000 0.000000 0.000000
O O12 0.230368 0.075523 0.273492
O O13 0.188387 0.842756 0.937429
O O14 0.187340 0.508315 0.613351
#
# Coordination Sequence:
#
# PCOD9021151 Si02
#       7
#     2   2   2   2   2   1   2
#     4  11  22  37  56  77 109 148 179 218 270 320
#     4   9  15  26  51  83 104 134 182 224 272 321
#     4   9  14  24  47  76 106 134 172 228 272 310
#     4   9  16  28  46  72 108 139 173 222 265 314
#     4   8  16  29  49  78 102 132 181 222 263 319
#     4  10  22  38  52  78 112 144 188 220 256 330
#     4   9  16  29  52  81 107 134 178 227 268 316
#
# _framework density 29.976901999999999
#
# number of rings (size 3 to 8) (size 9 to 14) (size 15 to 20)
#    0.000    2.769    0.000    6.462    0.000    0.615 
#    0.000   12.308    0.000    3.692    0.000   15.077 
#    0.000    0.000    0.000    0.000    0.000    0.000 
#
# Total GULP energy -72518.718280 kJ/mol
# GULP energy per Si atom -5578.362945 kJ/mol
# Density = 2.990867 g / cm^3
# Si number density = 29.976902 Si / 1000 Ang^3
#
#
#
# Elastic Constant Matrix: (Units=GPa)
#
#
# Indices 1 2 3 4 5 6 
#
# 1 118.9487 40.5636 45.4600 15.6815 -37.0466 13.9943
# 2 40.5636 94.5100 37.8591 2.6264 6.2549 31.7058
# 3 45.4600 37.8591 284.2384 -46.6066 -30.0419 14.9957
# 4 15.6815 2.6264 -46.6066 55.4026 3.8425 14.7177
# 5 -37.0466 6.2549 -30.0419 3.8425 47.1855 12.2915
# 6 13.9943 31.7058 14.9957 14.7177 12.2915 56.1897
#
#
#
# Elastic Compliance Matrix: (Units=1/GPa)
#
#
# Indices 1 2 3 4 5 6 
#
# 1 0.016502 -0.006915 -0.001127 -0.005882 0.014007 -0.001431
# 2 -0.006915 0.016533 -0.001071 0.002466 -0.006816 -0.006476
# 3 -0.001127 -0.001071 0.005091 0.005103 0.002709 -0.002403
# 4 -0.005882 0.002466 0.005103 0.026067 -0.001808 -0.007720
# 5 0.014007 -0.006816 0.002709 -0.001808 0.037049 -0.007996
# 6 -0.001431 -0.006476 -0.002403 -0.007720 -0.007996 0.026220
#
#
# Mechanical properties :
#
#
# Convention : Reuss Voigt Hill
#
# Bulk Modulus (GPa) = 50.24915 82.82916 66.53916
# Shear Modulus (GPa) = 32.82590 56.67652 44.75121
#
# Velocity S-wave (km/s) = 3.31273 4.35290 3.86794
# Velocity P-wave (km/s) = 5.60636 7.27700 6.49561
#
# Compressibility (1/GPa) = 0.01990083
#
# Stress axis : x y z
#
# Youngs Moduli (GPa) = 60.59838 60.48639 196.43455
#
# Poissons Ratio (x) = 0.41826 0.22136
# Poissons Ratio (y) = 0.41903 0.21030
# Poissons Ratio (z) = 0.06829 0.06476
#
# Static dielectric constant tensor:
#      x y z
#    x 2.456340 -0.095310 0.041850 
#    y -0.095310 2.435960 -0.006110 
#    z 0.041850 -0.006110 2.305610 
# 
# From -- ./inp_files/454060.got.cif
#   From: 2010.05.17/outbox.cif.g08.bks.cpg/sg2_228_cif.got.tgz:454060.got - 2010.06.03 11:33:40.
