data_PCOD9021697
_publ_section_title
;
Structure prediction by ZEFSAII (Michael W. Deem and Ramdas Pophale) SiO2 
 PCOD9021697
Probable space group: P -1
;
_chemical_formula_sum "Si O2"
_cell_formula_units_Z 16
_cell_length_a 13.672316
_cell_length_b 8.843755
_cell_length_c 5.560235
_cell_angle_alpha 83.534152
_cell_angle_beta 74.284635
_cell_angle_gamma 76.097091
_cell_volume 627.409113
_symmetry_space_group_name_H-M "P -1"
_symmetry_group_IT_number 2
_symmetry_cell_setting 'triclinic'
loop_
_space_group_symop_operation_xyz
x,y,z
-x,-y,-z
loop_
_atom_site_type_symbol
_atom_site_label
_atom_site_fract_x
_atom_site_fract_y
_atom_site_fract_z
Si Si1 0.091570 0.364929 0.677395
Si Si2 0.408966 0.823529 0.652895
Si Si3 0.876188 0.564463 0.864017
Si Si4 0.745190 0.068960 0.630840
Si Si5 0.579447 0.606942 0.852156
Si Si6 0.746490 0.332918 0.902174
Si Si7 0.390574 0.100297 0.950475
Si Si8 0.955605 0.950808 0.287547
O O1 0.155754 0.372957 0.392646
O O2 0.028780 0.233389 0.695248
O O3 0.002401 0.521291 0.754126
O O4 0.150152 0.332729 0.898262
O O5 0.364686 0.831292 0.414288
O O6 0.523245 0.723119 0.659196
O O7 0.332287 0.735778 0.865348
O O8 0.391103 0.004732 0.717168
O O9 0.826739 0.414962 0.969508
O O10 0.794919 0.184957 0.737223
O O11 0.707612 0.937878 0.833140
O O12 0.829572 0.009636 0.380813
O O13 0.680442 0.472737 0.758652
O O14 0.604671 0.721192 0.027487
O O15 0.500000 0.500000 0.000000
O O16 0.500000 0.000000 0.000000
O O17 0.000000 0.000000 0.500000
O O18 0.000000 0.000000 0.000000
#
# Coordination Sequence:
#
# PCOD9021697 Si02
#       8
#     2   2   2   2   2   2   2   2
#     4  10  23  42  63 100 130 178 226 289 348 415
#     4   9  21  40  63  93 131 174 232 275 350 417
#     4  10  22  40  68  92 137 171 227 285 353 404
#     4  11  25  40  68  98 134 184 235 285 355 421
#     4   9  19  39  64  94 131 176 221 285 350 420
#     4  10  22  38  64  93 132 179 226 288 339 420
#     4   9  20  40  65  94 136 174 224 289 348 417
#     4  12  28  46  73 102 143 189 242 296 350 421
#
# _framework density 25.501701000000001
#
# number of rings (size 3 to 8) (size 9 to 14) (size 15 to 20)
#    0.000    2.000    0.000    2.250    8.750    4.500 
#    0.000    2.500    0.000    0.000    0.000    0.000 
#    0.000    0.000    0.000    0.000    0.000    0.000 
#
# Total GULP energy -89313.640987 kJ/mol
# GULP energy per Si atom -5582.102562 kJ/mol
# Density = 2.544366 g / cm^3
# Si number density = 25.501701 Si / 1000 Ang^3
#
#
#
# Elastic Constant Matrix: (Units=GPa)
#
#
# Indices 1 2 3 4 5 6 
#
# 1 93.3342 34.8103 35.1889 1.6852 2.3463 19.7083
# 2 34.8103 129.3739 46.7911 0.0289 -2.7599 35.1626
# 3 35.1889 46.7911 146.8535 -2.1239 0.6976 21.0549
# 4 1.6852 0.0289 -2.1239 30.7430 3.7210 3.9812
# 5 2.3463 -2.7599 0.6976 3.7210 42.1540 8.5088
# 6 19.7083 35.1626 21.0549 3.9812 8.5088 59.6319
#
#
#
# Elastic Compliance Matrix: (Units=1/GPa)
#
#
# Indices 1 2 3 4 5 6 
#
# 1 0.012757 -0.002098 -0.002084 -0.000521 -0.000331 -0.002161
# 2 -0.002098 0.010460 -0.002114 0.000389 0.001814 -0.005013
# 3 -0.002084 -0.002114 0.008136 0.000810 -0.000029 -0.000987
# 4 -0.000521 0.000389 0.000810 0.033194 -0.002443 -0.002210
# 5 -0.000331 0.001814 -0.000029 -0.002443 0.024953 -0.004348
# 6 -0.002161 -0.005013 -0.000987 -0.002210 -0.004348 0.021556
#
#
# Mechanical properties :
#
#
# Convention : Reuss Voigt Hill
#
# Bulk Modulus (GPa) = 53.30867 67.01579 60.16223
# Shear Modulus (GPa) = 38.49064 43.35722 40.92393
#
# Velocity S-wave (km/s) = 3.88923 4.12778 4.01028
# Velocity P-wave (km/s) = 6.41229 7.00387 6.71460
#
# Compressibility (1/GPa) = 0.01875868
#
# Stress axis : x y z
#
# Youngs Moduli (GPa) = 78.39093 95.60477 122.91091
#
# Poissons Ratio (x) = 0.20059 0.25619
# Poissons Ratio (y) = 0.16448 0.25987
# Poissons Ratio (z) = 0.16339 0.20214
#
# Static dielectric constant tensor:
#      x y z
#    x 2.049540 -0.034240 0.117200 
#    y -0.034240 2.042910 0.018230 
#    z 0.117200 0.018230 1.765800 
# 
# From -- ./inp_files/90020.got.cif
#   From: 2010.05.17/outbox.cif.g08.bks.cpg/sg2_46_cif.got.tgz:90020.got - 2010.06.03 11:33:40.
