data_PCOD9021900
_publ_section_title
;
Structure prediction by ZEFSAII (Michael W. Deem and Ramdas Pophale) SiO2 
 PCOD9021900
Probable space group: P -1
;
_chemical_formula_sum "Si O2"
_cell_formula_units_Z 14
_cell_length_a 7.885591
_cell_length_b 5.222613
_cell_length_c 17.323933
_cell_angle_alpha 57.060386
_cell_angle_beta 71.507793
_cell_angle_gamma 82.276970
_cell_volume 567.199138
_symmetry_space_group_name_H-M "P -1"
_symmetry_group_IT_number 2
_symmetry_cell_setting 'triclinic'
loop_
_space_group_symop_operation_xyz
x,y,z
-x,-y,-z
loop_
_atom_site_type_symbol
_atom_site_label
_atom_site_fract_x
_atom_site_fract_y
_atom_site_fract_z
Si Si1 0.617546 0.818852 0.923759
Si Si2 0.175043 0.177931 0.384571
Si Si3 0.301120 0.279957 0.914106
Si Si4 0.763226 0.694978 0.250662
Si Si5 0.969853 0.778247 0.350584
Si Si6 0.466567 0.129374 0.234947
Si Si7 0.705181 0.032827 0.441149
O O1 0.668437 0.852674 0.821440
O O2 0.480379 0.088281 0.910214
O O3 0.500000 0.500000 0.000000
O O4 0.757480 0.814089 0.975104
O O5 0.223301 0.249472 0.572819
O O6 0.192372 0.971303 0.491220
O O7 0.069556 0.010340 0.357214
O O8 0.370859 0.225062 0.310426
O O9 0.194296 0.241766 0.856075
O O10 0.369950 0.630646 0.846413
O O11 0.909559 0.855328 0.260053
O O12 0.750395 0.338930 0.335145
O O13 0.566041 0.816566 0.276159
O O14 0.092816 0.492258 0.370344
O O15 0.500000 0.000000 0.500000
#
# Coordination Sequence:
#
# PCOD9021900 Si02
#       7
#     2   2   2   2   2   2   2
#     4   8  16  32  60  96 129 160 211 272 323 374
#     4  12  28  44  67  92 139 173 221 262 332 393
#     4   9  17  35  61  98 127 164 214 275 319 376
#     4  11  23  41  65  96 131 169 225 265 328 380
#     4  12  27  47  63  94 131 182 214 269 329 390
#     4  10  22  38  66  99 127 172 217 273 321 385
#     4  12  27  46  69  96 127 172 225 276 320 382
#
# _framework density 24.682690999999998
#
# number of rings (size 3 to 8) (size 9 to 14) (size 15 to 20)
#    0.000    1.429    1.429    3.429    8.000    1.143 
#    0.000    0.000    0.000    1.714    0.000    0.000 
#    0.000    0.000    0.000    0.000    0.000    0.000 
#
# Total GULP energy -78179.509110 kJ/mol
# GULP energy per Si atom -5584.250651 kJ/mol
# Density = 2.462651 g / cm^3
# Si number density = 24.682691 Si / 1000 Ang^3
#
#
#
# Elastic Constant Matrix: (Units=GPa)
#
#
# Indices 1 2 3 4 5 6 
#
# 1 81.2220 36.9165 39.9669 7.5618 38.3680 10.9711
# 2 36.9165 151.3865 51.9768 3.3938 21.4114 -14.6024
# 3 39.9669 51.9768 138.9062 19.5196 53.4981 -1.3352
# 4 7.5618 3.3938 19.5196 39.8767 7.9578 14.0255
# 5 38.3680 21.4114 53.4981 7.9578 44.9309 15.3171
# 6 10.9711 -14.6024 -1.3352 14.0255 15.3171 43.3891
#
#
#
# Elastic Compliance Matrix: (Units=1/GPa)
#
#
# Indices 1 2 3 4 5 6 
#
# 1 0.022466 -0.003379 0.003604 -0.001930 -0.022111 0.001722
# 2 -0.003379 0.008517 -0.002268 -0.000321 0.000345 0.003633
# 3 0.003604 -0.002268 0.018186 -0.007956 -0.025848 0.010582
# 4 -0.001930 -0.000321 -0.007956 0.032201 0.010314 -0.013915
# 5 -0.022111 0.000345 -0.025848 0.010314 0.078878 -0.026268
# 6 0.001722 0.003633 0.010582 -0.013915 -0.026268 0.037931
#
#
# Mechanical properties :
#
#
# Convention : Reuss Voigt Hill
#
# Bulk Modulus (GPa) = 22.18155 69.91501 46.04828
# Shear Modulus (GPa) = 23.01050 41.81630 32.41340
#
# Velocity S-wave (km/s) = 3.05659 4.12048 3.62775
# Velocity P-wave (km/s) = 4.63284 7.14316 6.02030
#
# Compressibility (1/GPa) = 0.04508250
#
# Stress axis : x y z
#
# Youngs Moduli (GPa) = 44.51105 117.41249 54.98860
#
# Poissons Ratio (x) = 0.39677 -0.19817
# Poissons Ratio (y) = 0.15041 0.12470
# Poissons Ratio (z) = -0.16041 0.26626
#
# Static dielectric constant tensor:
#      x y z
#    x 2.060520 0.018160 0.018090 
#    y 0.018160 2.052570 0.002010 
#    z 0.018090 0.002010 1.983020 
# 
# From -- ./inp_files/553151.got.cif
#   From: 2010.05.17/outbox.cif.g08.bks.cpg/sg2_277_cif.got.tgz:553151.got - 2010.06.03 11:33:40.
