data_PCOD9021206
_publ_section_title
;
Structure prediction by ZEFSAII (Michael W. Deem and Ramdas Pophale) SiO2 
 PCOD9021206
Probable space group: P -1
;
_chemical_formula_sum "Si O2"
_cell_formula_units_Z 14
_cell_length_a 19.623208
_cell_length_b 8.813669
_cell_length_c 16.382158
_cell_angle_alpha 133.363678
_cell_angle_beta 161.427004
_cell_angle_gamma 38.356877
_cell_volume 536.492415
_symmetry_space_group_name_H-M "P -1"
_symmetry_group_IT_number 2
_symmetry_cell_setting 'triclinic'
loop_
_space_group_symop_operation_xyz
x,y,z
-x,-y,-z
loop_
_atom_site_type_symbol
_atom_site_label
_atom_site_fract_x
_atom_site_fract_y
_atom_site_fract_z
Si Si1 0.341554 0.411678 0.360299
Si Si2 0.939529 0.156616 0.669688
Si Si3 0.107910 0.207792 0.117264
Si Si4 0.144749 0.046453 0.279854
Si Si5 0.958822 0.271008 0.558065
Si Si6 0.542931 0.790121 0.203644
Si Si7 0.776439 0.772786 0.308134
O O1 0.630270 0.249795 0.593819
O O2 0.240848 0.649903 0.392696
O O3 0.131994 0.517352 0.088815
O O4 0.339427 0.203838 0.336195
O O5 0.921866 0.317172 0.629745
O O6 0.839242 0.979595 0.472290
O O7 0.249697 0.965636 0.968749
O O8 0.094414 0.975662 0.982874
O O9 0.090155 0.198179 0.190315
O O10 0.270292 0.132468 0.518616
O O11 0.695559 0.496148 0.295983
O O12 0.188031 0.260690 0.762185
O O13 0.000000 0.000000 0.500000
O O14 0.537082 0.833660 0.115438
O O15 0.000000 0.500000 0.500000
#
# Coordination Sequence:
#
# PCOD9021206 Si02
#       7
#     2   2   2   2   2   2   2
#     4  11  22  38  60  89 124 162 201 243 294 354
#     4  11  23  39  63  91 121 160 201 245 300 358
#     4  10  22  38  58  83 122 165 201 243 293 342
#     4  11  23  39  60  89 126 163 200 246 293 354
#     4   9  21  41  62  89 119 149 198 254 301 359
#     4  11  22  39  64  89 120 161 200 244 303 359
#     4   9  21  41  63  88 118 152 199 252 302 359
#
# _framework density 26.095428999999999
#
# number of rings (size 3 to 8) (size 9 to 14) (size 15 to 20)
#    0.000    1.714    0.000    4.286    0.000    8.000 
#    0.000    4.286    0.000    0.000    0.000    0.000 
#    0.000    0.000    0.000    0.000    0.000    0.000 
#
# Total GULP energy -78291.208750 kJ/mol
# GULP energy per Si atom -5592.229196 kJ/mol
# Density = 2.603604 g / cm^3
# Si number density = 26.095429 Si / 1000 Ang^3
#
#
#
# Elastic Constant Matrix: (Units=GPa)
#
#
# Indices 1 2 3 4 5 6 
#
# 1 183.8529 33.7223 22.8191 -20.2519 -4.9627 19.1930
# 2 33.7223 131.6015 26.8989 -6.2952 6.6028 14.3673
# 3 22.8191 26.8989 50.1686 0.8931 -3.2163 0.6217
# 4 -20.2519 -6.2952 0.8931 45.1855 16.6999 0.6731
# 5 -4.9627 6.6028 -3.2163 16.6999 42.2158 -12.1498
# 6 19.1930 14.3673 0.6217 0.6731 -12.1498 48.3069
#
#
#
# Elastic Compliance Matrix: (Units=1/GPa)
#
#
# Indices 1 2 3 4 5 6 
#
# 1 0.006530 -0.000541 -0.002809 0.003533 -0.001578 -0.002844
# 2 -0.000541 0.009512 -0.005119 0.002740 -0.004064 -0.003609
# 3 -0.002809 -0.005119 0.024316 -0.004400 0.005121 0.003675
# 4 0.003533 0.002740 -0.004400 0.029329 -0.013680 -0.006011
# 5 -0.001578 -0.004064 0.005121 -0.013680 0.032884 0.010231
# 6 -0.002844 -0.003609 0.003675 -0.006011 0.010231 0.025514
#
#
# Mechanical properties :
#
#
# Convention : Reuss Voigt Hill
#
# Bulk Modulus (GPa) = 42.69582 59.16704 50.93143
# Shear Modulus (GPa) = 32.71592 45.95382 39.33487
#
# Velocity S-wave (km/s) = 3.54461 4.20097 3.88667
# Velocity P-wave (km/s) = 5.75754 6.80099 6.30090
#
# Compressibility (1/GPa) = 0.02342150
#
# Stress axis : x y z
#
# Youngs Moduli (GPa) = 153.13117 105.12539 41.12458
#
# Poissons Ratio (x) = 0.05683 0.11553
# Poissons Ratio (y) = 0.08278 0.21052
# Poissons Ratio (z) = 0.43019 0.53813
#
# Static dielectric constant tensor:
#      x y z
#    x 2.160930 -0.032760 0.013330 
#    y -0.032760 2.045060 0.019440 
#    z 0.013330 0.019440 2.113580 
# 
# From -- ./inp_files/577274.got.cif
#   From: 2010.05.17/outbox.cif.g08.bks.cpg/sg2_289_cif.got.tgz:577274.got - 2010.06.03 11:33:40.
