data_PCOD9021138
_publ_section_title
;
Structure prediction by ZEFSAII (Michael W. Deem and Ramdas Pophale) SiO2 
 PCOD9021138
Probable space group: P -1
;
_chemical_formula_sum "Si O2"
_cell_formula_units_Z 14
_cell_length_a 12.024695
_cell_length_b 5.137473
_cell_length_c 14.671409
_cell_angle_alpha 110.308508
_cell_angle_beta 47.101964
_cell_angle_gamma 123.705406
_cell_volume 551.650631
_symmetry_space_group_name_H-M "P -1"
_symmetry_group_IT_number 2
_symmetry_cell_setting 'triclinic'
loop_
_space_group_symop_operation_xyz
x,y,z
-x,-y,-z
loop_
_atom_site_type_symbol
_atom_site_label
_atom_site_fract_x
_atom_site_fract_y
_atom_site_fract_z
Si Si1 0.182813 0.285260 0.958945
Si Si2 0.687147 0.014383 0.003662
Si Si3 0.400389 0.253462 0.666086
Si Si4 0.867026 0.723167 0.602499
Si Si5 0.652930 0.976843 0.804059
Si Si6 0.706212 0.445006 0.390862
Si Si7 0.018793 0.567735 0.638940
O O1 0.182546 0.616871 0.011473
O O2 0.318998 0.317124 0.809014
O O3 0.248280 0.198433 0.005022
O O4 0.000000 0.000000 0.000000
O O5 0.506791 0.984290 0.136813
O O6 0.647637 0.930848 0.909770
O O7 0.588287 0.457053 0.541296
O O8 0.283180 0.297881 0.656407
O O9 0.386983 0.907502 0.641296
O O10 0.682951 0.702642 0.710187
O O11 0.865773 0.435017 0.512771
O O12 0.957330 0.808589 0.662233
O O13 0.000000 0.000000 0.500000
O O14 0.829909 0.277839 0.718579
O O15 0.876221 0.443649 0.334909
#
# Coordination Sequence:
#
# PCOD9021138 Si02
#       7
#     2   2   2   2   2   2   2
#     4  12  28  47  73 100 138 186 237 289 342 401
#     4  11  28  46  71 101 139 185 232 286 339 412
#     4  10  24  44  63 100 131 174 234 278 341 405
#     4   9  21  39  59 101 132 169 224 272 339 423
#     4  10  25  43  68 101 139 182 228 279 351 413
#     4  10  23  41  69  96 134 176 220 286 345 402
#     4  10  22  37  69  98 135 177 220 282 352 421
#
# _framework density 25.378378999999999
#
# number of rings (size 3 to 8) (size 9 to 14) (size 15 to 20)
#    0.000    1.714    0.000    1.286   14.000    3.429 
#    0.000    0.000    0.000    0.000    0.000    0.000 
#    0.000    0.000    0.000    0.000    0.000    0.000 
#
# Total GULP energy -78170.115429 kJ/mol
# GULP energy per Si atom -5583.579673 kJ/mol
# Density = 2.532062 g / cm^3
# Si number density = 25.378379 Si / 1000 Ang^3
#
#
#
# Elastic Constant Matrix: (Units=GPa)
#
#
# Indices 1 2 3 4 5 6 
#
# 1 105.4948 -2.6146 6.3100 -28.8909 1.8409 -12.3088
# 2 -2.6146 44.8663 10.1623 -4.5948 3.4874 -14.9984
# 3 6.3100 10.1623 81.1889 -2.6252 -1.8817 -2.5254
# 4 -28.8909 -4.5948 -2.6252 30.8462 2.7559 -4.2912
# 5 1.8409 3.4874 -1.8817 2.7559 40.2900 -9.5223
# 6 -12.3088 -14.9984 -2.5254 -4.2912 -9.5223 39.2188
#
#
#
# Elastic Compliance Matrix: (Units=1/GPa)
#
#
# Indices 1 2 3 4 5 6 
#
# 1 0.015091 0.005646 -0.001102 0.016093 -0.000320 0.008508
# 2 0.005646 0.029191 -0.003306 0.011322 -0.000439 0.013855
# 3 -0.001102 -0.003306 0.012796 -0.000600 0.000821 -0.000652
# 4 0.016093 0.011322 -0.000600 0.051309 -0.001823 0.014513
# 5 -0.000320 -0.000439 0.000821 -0.001823 0.026456 0.006009
# 6 0.008508 0.013855 -0.000652 0.014513 0.006009 0.036472
#
#
# Mechanical properties :
#
#
# Convention : Reuss Voigt Hill
#
# Bulk Modulus (GPa) = 16.79143 28.80727 22.79935
# Shear Modulus (GPa) = 26.49860 36.58381 31.54121
#
# Velocity S-wave (km/s) = 3.23482 3.80087 3.52921
# Velocity P-wave (km/s) = 4.53684 5.53515 5.06067
#
# Compressibility (1/GPa) = 0.05955420
#
# Stress axis : x y z
#
# Youngs Moduli (GPa) = 66.26675 34.25665 78.15108
#
# Poissons Ratio (x) = -0.19341 0.08612
# Poissons Ratio (y) = -0.37414 0.25835
# Poissons Ratio (z) = 0.07302 0.11325
#
# Static dielectric constant tensor:
#      x y z
#    x 2.089430 0.041820 0.026930 
#    y 0.041820 2.172340 0.065970 
#    z 0.026930 0.065970 1.999640 
# 
# From -- ./inp_files/510419.got.cif
#   From: 2010.05.17/outbox.cif.g08.bks.cpg/sg2_256_cif.got.tgz:510419.got - 2010.06.03 11:33:40.
