data_PCOD9021937
_publ_section_title
;
Structure prediction by ZEFSAII (Michael W. Deem and Ramdas Pophale) SiO2 
 PCOD9021937
Probable space group: P -1
;
_chemical_formula_sum "Si O2"
_cell_formula_units_Z 16
_cell_length_a 19.384284
_cell_length_b 5.578901
_cell_length_c 9.406056
_cell_angle_alpha 115.602646
_cell_angle_beta 57.979594
_cell_angle_gamma 97.447936
_cell_volume 771.147575
_symmetry_space_group_name_H-M "P -1"
_symmetry_group_IT_number 2
_symmetry_cell_setting 'triclinic'
loop_
_space_group_symop_operation_xyz
x,y,z
-x,-y,-z
loop_
_atom_site_type_symbol
_atom_site_label
_atom_site_fract_x
_atom_site_fract_y
_atom_site_fract_z
Si Si1 0.460603 0.797241 0.166187
Si Si2 0.829735 0.232114 0.230433
Si Si3 0.381642 0.040844 0.023146
Si Si4 0.299869 0.626635 0.353349
Si Si5 0.988244 0.346240 0.247326
Si Si6 0.765887 0.221235 0.836688
Si Si7 0.932612 0.856128 0.618214
Si Si8 0.157612 0.401858 0.963350
O O1 0.381943 0.759467 0.337843
O O2 0.540019 0.937337 0.158017
O O3 0.500000 0.500000 0.000000
O O4 0.420874 0.943085 0.106625
O O5 0.762299 0.370973 0.449568
O O6 0.822301 0.411729 0.142287
O O7 0.920629 0.237271 0.197500
O O8 0.818815 0.917504 0.156577
O O9 0.315627 0.843188 0.009686
O O10 0.331915 0.332411 0.181661
O O11 0.253703 0.779343 0.309123
O O12 0.041215 0.146803 0.247045
O O13 0.940733 0.564233 0.462551
O O14 0.059213 0.458859 0.108765
O O15 0.842240 0.001493 0.731652
O O16 0.796027 0.495474 0.925048
O O17 0.000000 0.000000 0.500000
#
# Coordination Sequence:
#
# PCOD9021937 Si02
#       8
#     2   2   2   2   2   2   2   2
#     4   8  16  34  60 104 124 155 198 271 319 370
#     4  12  28  44  65  92 130 177 220 267 325 383
#     4   9  18  34  66  95 129 156 209 265 318 378
#     4  10  22  38  67  95 126 165 218 266 314 385
#     4  11  25  42  63  90 123 175 221 274 325 380
#     4  11  23  39  64  92 126 170 215 269 323 382
#     4  11  22  38  66  94 123 158 224 282 320 367
#     4  12  28  44  62  91 135 176 216 270 326 389
#
# _framework density 20.748298999999999
#
# number of rings (size 3 to 8) (size 9 to 14) (size 15 to 20)
#    0.000    1.500    1.250    3.000   12.250    0.000 
#    0.000    0.000    0.000    1.500    0.000    0.000 
#    0.000    0.000    0.000    0.000    0.000    0.000 
#
# Total GULP energy -89325.929265 kJ/mol
# GULP energy per Si atom -5582.870579 kJ/mol
# Density = 2.070108 g / cm^3
# Si number density = 20.748299 Si / 1000 Ang^3
#
#
#
# Elastic Constant Matrix: (Units=GPa)
#
#
# Indices 1 2 3 4 5 6 
#
# 1 89.0977 28.6824 33.7893 -9.5716 -28.2635 13.2233
# 2 28.6824 78.0382 19.4741 -9.5540 -4.2660 -0.4505
# 3 33.7893 19.4741 59.0347 -21.8411 -7.0395 5.8470
# 4 -9.5716 -9.5540 -21.8411 35.8582 7.3867 -2.8508
# 5 -28.2635 -4.2660 -7.0395 7.3867 23.3212 -6.6116
# 6 13.2233 -0.4505 5.8470 -2.8508 -6.6116 50.5531
#
#
#
# Elastic Compliance Matrix: (Units=1/GPa)
#
#
# Indices 1 2 3 4 5 6 
#
# 1 0.026836 -0.006119 -0.012736 -0.008503 0.029627 -0.002206
# 2 -0.006119 0.015452 -0.001300 0.002938 -0.005535 0.001330
# 3 -0.012736 -0.001300 0.029427 0.016647 -0.012276 -0.000750
# 4 -0.008503 0.002938 0.016647 0.040143 -0.017368 0.000317
# 5 0.029627 -0.005535 -0.012276 -0.017368 0.080466 0.003165
# 6 -0.002206 0.001330 -0.000750 0.000317 0.003165 0.020889
#
#
# Mechanical properties :
#
#
# Convention : Reuss Voigt Hill
#
# Bulk Modulus (GPa) = 31.84154 43.34026 37.59090
# Shear Modulus (GPa) = 18.94009 31.56148 25.25079
#
# Velocity S-wave (km/s) = 3.02462 3.90444 3.49234
# Velocity P-wave (km/s) = 5.25144 6.42340 5.86676
#
# Compressibility (1/GPa) = 0.03140552
#
# Stress axis : x y z
#
# Youngs Moduli (GPa) = 37.26397 64.71462 33.98253
#
# Poissons Ratio (x) = 0.39600 0.43279
# Poissons Ratio (y) = 0.22803 0.04417
# Poissons Ratio (z) = 0.47458 0.08411
#
# Static dielectric constant tensor:
#      x y z
#    x 1.744060 0.013010 -0.021420 
#    y 0.013010 1.833880 -0.008180 
#    z -0.021420 -0.008180 1.737860 
# 
# From -- ./inp_files/52532.got.cif
#   From: 2010.05.17/outbox.cif.g08.bks.cpg/sg2_27_cif.got.tgz:52532.got - 2010.06.03 11:33:40.
