data_PCOD9021049
_publ_section_title
;
Structure prediction by ZEFSAII (Michael W. Deem and Ramdas Pophale) SiO2 
 PCOD9021049
Probable space group: P -1
;
_chemical_formula_sum "Si O2"
_cell_formula_units_Z 16
_cell_length_a 11.866418
_cell_length_b 14.989977
_cell_length_c 17.004484
_cell_angle_alpha 149.006224
_cell_angle_beta 43.850223
_cell_angle_gamma 151.379534
_cell_volume 740.038058
_symmetry_space_group_name_H-M "P -1"
_symmetry_group_IT_number 2
_symmetry_cell_setting 'triclinic'
loop_
_space_group_symop_operation_xyz
x,y,z
-x,-y,-z
loop_
_atom_site_type_symbol
_atom_site_label
_atom_site_fract_x
_atom_site_fract_y
_atom_site_fract_z
Si Si1 0.103560 0.205124 0.313813
Si Si2 0.939399 0.217406 0.250800
Si Si3 0.154343 0.275212 0.816309
Si Si4 0.333312 0.318232 0.599158
Si Si5 0.551033 0.843266 0.040456
Si Si6 0.249110 0.772696 0.494302
Si Si7 0.484849 0.779077 0.844130
Si Si8 0.724886 0.019632 0.748335
O O1 0.050018 0.168102 0.219419
O O2 0.378426 0.457794 0.383459
O O3 0.947420 0.246764 0.454841
O O4 0.987422 0.947550 0.217861
O O5 0.149877 0.503453 0.331493
O O6 0.767085 0.197319 0.380969
O O7 0.783577 0.030378 0.116989
O O8 0.256756 0.233709 0.663850
O O9 0.370976 0.559835 0.950444
O O10 0.963848 0.251611 0.850777
O O11 0.273324 0.473174 0.724789
O O12 0.234160 0.092960 0.423324
O O13 0.416415 0.924483 0.169587
O O14 0.592645 0.836064 0.921315
O O15 0.500000 0.000000 0.500000
O O16 0.580688 0.813370 0.734831
O O17 0.500000 0.000000 0.000000
#
# Coordination Sequence:
#
# PCOD9021049 Si02
#       8
#     2   2   2   2   2   2   2   2
#     4  10  22  37  65  93 130 165 208 272 314 384
#     4   9  21  41  63  92 131 168 211 257 329 377
#     4  11  24  39  62  96 132 169 221 263 327 380
#     4  11  22  40  65  96 129 170 215 273 327 378
#     4  10  22  42  64  91 132 180 208 268 327 388
#     4   9  20  39  64  94 128 163 213 265 315 383
#     4   9  20  38  60  88 126 168 212 260 322 385
#     4  11  21  40  67  91 129 169 223 272 318 384
#
# _framework density 21.620508000000001
#
# number of rings (size 3 to 8) (size 9 to 14) (size 15 to 20)
#    0.750    1.250    1.250    1.875    1.750    0.500 
#    2.250    2.500    0.000    0.000    0.000    0.000 
#    0.000    0.000    0.000    0.000    0.000    0.000 
#
# Total GULP energy -89083.719226 kJ/mol
# GULP energy per Si atom -5567.732452 kJ/mol
# Density = 2.157130 g / cm^3
# Si number density = 21.620508 Si / 1000 Ang^3
#
#
#
# Elastic Constant Matrix: (Units=GPa)
#
#
# Indices 1 2 3 4 5 6 
#
# 1 87.1001 17.2873 35.5088 21.8208 -10.5175 -4.6750
# 2 17.2873 113.4764 22.0560 26.7832 -7.1474 -11.7657
# 3 35.5088 22.0560 110.1246 12.1191 6.0126 -11.1304
# 4 21.8208 26.7832 12.1191 32.9157 3.2901 -6.0438
# 5 -10.5175 -7.1474 6.0126 3.2901 28.2949 3.4921
# 6 -4.6750 -11.7657 -11.1304 -6.0438 3.4921 22.7237
#
#
#
# Elastic Compliance Matrix: (Units=1/GPa)
#
#
# Indices 1 2 3 4 5 6 
#
# 1 0.017555 0.001653 -0.005466 -0.012527 0.009940 -0.003069
# 2 0.001653 0.011845 -0.001842 -0.010159 0.004918 0.002113
# 3 -0.005466 -0.001842 0.011808 0.002328 -0.005923 0.005235
# 4 -0.012527 -0.010159 0.002328 0.049121 -0.014490 0.008594
# 5 0.009940 0.004918 -0.005923 -0.014490 0.044330 -0.008976
# 6 -0.003069 0.002113 0.005235 0.008594 -0.008976 0.050699
#
#
# Mechanical properties :
#
#
# Convention : Reuss Voigt Hill
#
# Bulk Modulus (GPa) = 33.44712 51.15613 42.30162
# Shear Modulus (GPa) = 24.19711 32.51014 28.35363
#
# Velocity S-wave (km/s) = 3.34904 3.88193 3.62529
# Velocity P-wave (km/s) = 5.51891 6.61852 6.09357
#
# Compressibility (1/GPa) = 0.02989794
#
# Stress axis : x y z
#
# Youngs Moduli (GPa) = 56.96312 84.42039 84.68639
#
# Poissons Ratio (x) = -0.13951 0.46288
# Poissons Ratio (y) = -0.09413 0.15601
# Poissons Ratio (z) = 0.31135 0.15552
#
# Static dielectric constant tensor:
#      x y z
#    x 1.852270 0.066990 -0.059380 
#    y 0.066990 1.829140 -0.061330 
#    z -0.059380 -0.061330 1.796440 
# 
# From -- ./inp_files/569971.got.cif
#   From: 2010.05.17/outbox.cif.g08.bks.cpg/sg2_285_cif.got.tgz:569971.got - 2010.06.03 11:33:40.
