data_PCOD9021602
_publ_section_title
;
Structure prediction by ZEFSAII (Michael W. Deem and Ramdas Pophale) SiO2 
 PCOD9021602
Probable space group: P -1
;
_chemical_formula_sum "Si O2"
_cell_formula_units_Z 16
_cell_length_a 18.464652
_cell_length_b 5.231069
_cell_length_c 8.078189
_cell_angle_alpha 76.279377
_cell_angle_beta 124.845967
_cell_angle_gamma 106.819304
_cell_volume 610.398501
_symmetry_space_group_name_H-M "P -1"
_symmetry_group_IT_number 2
_symmetry_cell_setting 'triclinic'
loop_
_space_group_symop_operation_xyz
x,y,z
-x,-y,-z
loop_
_atom_site_type_symbol
_atom_site_label
_atom_site_fract_x
_atom_site_fract_y
_atom_site_fract_z
Si Si1 0.077933 0.402593 0.514812
Si Si2 0.050029 0.732004 0.908342
Si Si3 0.636447 0.658651 0.310669
Si Si4 0.845323 0.694913 0.036535
Si Si5 0.466390 0.408985 0.286207
Si Si6 0.399532 0.883125 0.952852
Si Si7 0.759665 0.331525 0.485233
Si Si8 0.676952 0.899743 0.674779
O O1 0.139371 0.291231 0.746707
O O2 0.143370 0.643689 0.468204
O O3 0.000000 0.500000 0.500000
O O4 0.024218 0.218097 0.331368
O O5 0.122118 0.573863 0.939887
O O6 0.093701 0.023961 0.990423
O O7 0.000000 0.500000 0.000000
O O8 0.551612 0.416436 0.273059
O O9 0.738769 0.621224 0.455111
O O10 0.630651 0.814097 0.451040
O O11 0.626662 0.823290 0.107352
O O12 0.744893 0.711506 0.850302
O O13 0.500000 0.500000 0.500000
O O14 0.399959 0.125645 0.283120
O O15 0.414080 0.640648 0.123288
O O16 0.318009 0.755079 0.741565
O O17 0.500000 0.000000 0.000000
O O18 0.737228 0.176809 0.651341
#
# Coordination Sequence:
#
# PCOD9021602 Si02
#       8
#     2   2   2   2   2   2   2   2
#     4  10  24  46  66  93 135 178 228 289 351 415
#     4  11  24  44  71 100 134 178 230 292 357 416
#     4   9  21  38  62  94 124 175 217 283 327 410
#     4  11  24  44  67 101 137 179 230 288 353 419
#     4   9  18  38  60  88 132 170 213 270 339 409
#     4   9  19  38  61  90 130 166 214 267 333 401
#     4  11  22  41  65  93 128 168 232 273 347 404
#     4  10  22  38  63  93 133 170 224 274 343 413
#
# _framework density 26.212385000000001
#
# number of rings (size 3 to 8) (size 9 to 14) (size 15 to 20)
#    0.000    2.000    0.000    3.000    3.500    3.500 
#   15.750    2.500    0.000    0.000    0.000    0.000 
#    0.000    0.000    0.000    0.000    0.000    0.000 
#
# Total GULP energy -89180.412104 kJ/mol
# GULP energy per Si atom -5573.775757 kJ/mol
# Density = 2.615272 g / cm^3
# Si number density = 26.212385 Si / 1000 Ang^3
#
#
#
# Elastic Constant Matrix: (Units=GPa)
#
#
# Indices 1 2 3 4 5 6 
#
# 1 98.8335 37.5060 13.2226 -11.4939 4.8669 25.5487
# 2 37.5060 81.2881 18.3933 -6.9175 -4.0047 19.2293
# 3 13.2226 18.3933 136.0905 -8.8961 5.9637 7.1855
# 4 -11.4939 -6.9175 -8.8961 47.1555 2.0130 0.4709
# 5 4.8669 -4.0047 5.9637 2.0130 33.9064 -6.6843
# 6 25.5487 19.2293 7.1855 0.4709 -6.6843 38.2391
#
#
#
# Elastic Compliance Matrix: (Units=1/GPa)
#
#
# Indices 1 2 3 4 5 6 
#
# 1 0.014631 -0.004775 0.000059 0.003150 -0.004479 -0.008207
# 2 -0.004775 0.016021 -0.001506 0.000861 0.001953 -0.004252
# 3 0.000059 -0.001506 0.007772 0.001349 -0.001847 -0.001082
# 4 0.003150 0.000861 0.001349 0.022502 -0.002619 -0.003526
# 5 -0.004479 0.001953 -0.001847 -0.002619 0.032436 0.008060
# 6 -0.008207 -0.004252 -0.001082 -0.003526 0.008060 0.035429
#
#
# Mechanical properties :
#
#
# Convention : Reuss Voigt Hill
#
# Bulk Modulus (GPa) = 38.49080 50.49513 44.49297
# Shear Modulus (GPa) = 33.35672 40.33287 36.84480
#
# Velocity S-wave (km/s) = 3.57116 3.92688 3.75323
# Velocity P-wave (km/s) = 5.63208 6.31396 5.98274
#
# Compressibility (1/GPa) = 0.02598023
#
# Stress axis : x y z
#
# Youngs Moduli (GPa) = 68.34990 62.41638 128.66482
#
# Poissons Ratio (x) = 0.29805 -0.00764
# Poissons Ratio (y) = 0.32638 0.19379
# Poissons Ratio (z) = -0.00406 0.09401
#
# Static dielectric constant tensor:
#      x y z
#    x 2.142080 -0.094340 -0.005740 
#    y -0.094340 2.487490 0.041330 
#    z -0.005740 0.041330 2.137180 
# 
# From -- ./inp_files/340195.got.cif
#   From: 2010.05.17/outbox.cif.g08.bks.cpg/sg2_171_cif.got.tgz:340195.got - 2010.06.03 11:33:40.
