data_PCOD9021610
_publ_section_title
;
Structure prediction by ZEFSAII (Michael W. Deem and Ramdas Pophale) SiO2 
 PCOD9021610
Probable space group: P -1
;
_chemical_formula_sum "Si O2"
_cell_formula_units_Z 16
_cell_length_a 20.123319
_cell_length_b 12.347514
_cell_length_c 15.429680
_cell_angle_alpha 45.718210
_cell_angle_beta 153.470071
_cell_angle_gamma 153.075280
_cell_volume 675.046563
_symmetry_space_group_name_H-M "P -1"
_symmetry_group_IT_number 2
_symmetry_cell_setting 'triclinic'
loop_
_space_group_symop_operation_xyz
x,y,z
-x,-y,-z
loop_
_atom_site_type_symbol
_atom_site_label
_atom_site_fract_x
_atom_site_fract_y
_atom_site_fract_z
Si Si1 0.771888 0.428799 0.791903
Si Si2 0.224893 0.397668 0.029237
Si Si3 0.546820 0.908628 0.231335
Si Si4 0.923668 0.851635 0.293737
Si Si5 0.246300 0.361669 0.496498
Si Si6 0.707728 0.435321 0.392715
Si Si7 0.888215 0.047401 0.993277
Si Si8 0.916337 0.469725 0.321218
O O1 0.547435 0.164337 0.738412
O O2 0.682096 0.438602 0.595498
O O3 0.000000 0.500000 0.000000
O O4 0.904719 0.672563 0.868970
O O5 0.333383 0.636130 0.076993
O O6 0.483287 0.510523 0.249702
O O7 0.103807 0.373613 0.816420
O O8 0.008480 0.139356 0.986311
O O9 0.813913 0.032723 0.469526
O O10 0.625220 0.139944 0.160049
O O11 0.699343 0.550265 0.240382
O O12 0.013569 0.062664 0.346898
O O13 0.875004 0.884358 0.125701
O O14 0.158683 0.360347 0.485735
O O15 0.878558 0.440097 0.555062
O O16 0.411544 0.139609 0.245361
O O17 0.000000 0.500000 0.500000
#
# Coordination Sequence:
#
# PCOD9021610 Si02
#       8
#     2   2   2   2   2   2   2   2
#     4  10  22  39  64  95 125 162 208 256 307 366
#     4  10  22  43  65  91 124 165 212 253 307 373
#     4   9  20  40  65  88 120 167 208 252 303 374
#     4   9  19  41  63  93 126 162 207 252 309 372
#     4  10  22  40  66  95 123 165 208 258 306 367
#     4  11  24  39  61  93 128 165 205 259 308 367
#     4  10  22  38  63  94 127 164 203 257 312 367
#     4  11  26  42  61  89 126 169 207 257 315 368
#
# _framework density 23.702069000000002
#
# number of rings (size 3 to 8) (size 9 to 14) (size 15 to 20)
#    0.000    2.000    0.000    1.875    5.250    8.000 
#    2.250    0.000    0.000    0.000    0.000    0.000 
#    0.000    0.000    0.000    0.000    0.000    0.000 
#
# Total GULP energy -89491.413561 kJ/mol
# GULP energy per Si atom -5593.213348 kJ/mol
# Density = 2.364812 g / cm^3
# Si number density = 23.702069 Si / 1000 Ang^3
#
#
#
# Elastic Constant Matrix: (Units=GPa)
#
#
# Indices 1 2 3 4 5 6 
#
# 1 117.1102 42.0396 35.7237 -22.5884 8.9270 5.9742
# 2 42.0396 73.6064 28.7860 -8.7853 -2.7190 25.3396
# 3 35.7237 28.7860 78.3933 -26.7524 -0.3544 10.2858
# 4 -22.5884 -8.7853 -26.7524 43.8673 5.3857 -2.5523
# 5 8.9270 -2.7190 -0.3544 5.3857 29.0315 0.8727
# 6 5.9742 25.3396 10.2858 -2.5523 0.8727 24.7810
#
#
#
# Elastic Compliance Matrix: (Units=1/GPa)
#
#
# Indices 1 2 3 4 5 6 
#
# 1 0.013543 -0.009210 -0.002111 0.005058 -0.006225 0.007769
# 2 -0.009210 0.029645 -0.004486 -0.003977 0.007100 -0.026891
# 3 -0.002111 -0.004486 0.018846 0.009564 -0.001264 -0.001697
# 4 0.005058 -0.003977 0.009564 0.031525 -0.007731 0.002397
# 5 -0.006225 0.007100 -0.001264 -0.007731 0.038665 -0.007393
# 6 0.007769 -0.026891 -0.001697 0.002397 -0.007393 0.067190
#
#
# Mechanical properties :
#
#
# Convention : Reuss Voigt Hill
#
# Bulk Modulus (GPa) = 32.87196 53.57869 43.22533
# Shear Modulus (GPa) = 20.73240 30.37334 25.55287
#
# Velocity S-wave (km/s) = 2.96076 3.58364 3.28698
# Velocity P-wave (km/s) = 5.05836 6.30693 5.71684
#
# Compressibility (1/GPa) = 0.03042106
#
# Stress axis : x y z
#
# Youngs Moduli (GPa) = 73.83972 33.73213 53.06115
#
# Poissons Ratio (x) = 0.31068 0.11201
# Poissons Ratio (y) = 0.68008 0.23801
# Poissons Ratio (z) = 0.15587 0.15131
#
# Static dielectric constant tensor:
#      x y z
#    x 1.895300 -0.051750 -0.045670 
#    y -0.051750 1.839820 0.061520 
#    z -0.045670 0.061520 1.876160 
# 
# From -- ./inp_files/239341.got.cif
#   From: 2010.05.17/outbox.cif.g08.bks.cpg/sg2_120_cif.got.tgz:239341.got - 2010.06.03 11:33:40.
