data_PCOD9021390
_publ_section_title
;
Structure prediction by ZEFSAII (Michael W. Deem and Ramdas Pophale) SiO2 
 PCOD9021390
Probable space group: P -1
;
_chemical_formula_sum "Si O2"
_cell_formula_units_Z 14
_cell_length_a 6.346780
_cell_length_b 14.337643
_cell_length_c 21.414818
_cell_angle_alpha 21.146368
_cell_angle_beta 102.519614
_cell_angle_gamma 100.890648
_cell_volume 685.796577
_symmetry_space_group_name_H-M "P -1"
_symmetry_group_IT_number 2
_symmetry_cell_setting 'triclinic'
loop_
_space_group_symop_operation_xyz
x,y,z
-x,-y,-z
loop_
_atom_site_type_symbol
_atom_site_label
_atom_site_fract_x
_atom_site_fract_y
_atom_site_fract_z
Si Si1 0.519498 0.842992 0.035312
Si Si2 0.252543 0.079051 0.118213
Si Si3 0.827249 0.781947 0.274675
Si Si4 0.737545 0.507658 0.044308
Si Si5 0.029379 0.066896 0.289090
Si Si6 0.647212 0.408129 0.399541
Si Si7 0.358092 0.247333 0.593615
O O1 0.550204 0.551445 0.242929
O O2 0.713981 0.915977 0.957079
O O3 0.500000 0.000000 0.000000
O O4 0.315889 0.955334 0.913133
O O5 0.451146 0.947418 0.250500
O O6 0.256688 0.370770 0.962180
O O7 0.054409 0.899120 0.231016
O O8 0.811451 0.595575 0.329979
O O9 0.724255 0.632222 0.420622
O O10 0.881630 0.241027 0.218607
O O11 0.500000 0.500000 0.000000
O O12 0.864382 0.720893 0.880215
O O13 0.224224 0.856497 0.445941
O O14 0.847664 0.905872 0.344605
O O15 0.456234 0.385663 0.453158
#
# Coordination Sequence:
#
# PCOD9021390 Si02
#       7
#     2   2   2   2   2   2   2
#     4   9  23  40  59  85 125 169 200 242 297 367
#     4  11  21  40  63  91 118 161 211 247 295 365
#     4  10  22  38  61  88 123 164 204 244 301 359
#     4  11  21  40  63  90 119 156 204 255 305 358
#     4  11  22  35  63  90 121 155 201 254 310 345
#     4  11  22  38  56  92 126 162 198 248 300 361
#     4  11  20  37  58  93 121 157 200 250 305 355
#
# _framework density 20.414216
#
# number of rings (size 3 to 8) (size 9 to 14) (size 15 to 20)
#    0.000    1.429    4.286    0.429    0.000    9.143 
#    0.000    0.714    0.000    4.286    0.000    0.000 
#    0.000    0.000    0.000    0.000    0.000    0.000 
#
# Total GULP energy -77966.584363 kJ/mol
# GULP energy per Si atom -5569.041740 kJ/mol
# Density = 2.036775 g / cm^3
# Si number density = 20.414216 Si / 1000 Ang^3
#
#
#
# Elastic Constant Matrix: (Units=GPa)
#
#
# Indices 1 2 3 4 5 6 
#
# 1 99.7277 31.7384 43.3921 4.0791 -3.8269 -1.5588
# 2 31.7384 49.8575 15.5027 -11.4090 0.3089 -12.6631
# 3 43.3921 15.5027 114.2633 4.0881 19.8860 -8.2785
# 4 4.0791 -11.4090 4.0881 32.4369 -12.5567 0.1234
# 5 -3.8269 0.3089 19.8860 -12.5567 33.9550 -5.0410
# 6 -1.5588 -12.6631 -8.2785 0.1234 -5.0410 31.6774
#
#
#
# Elastic Compliance Matrix: (Units=1/GPa)
#
#
# Indices 1 2 3 4 5 6 
#
# 1 0.015850 -0.010438 -0.005283 -0.003855 0.002912 -0.004295
# 2 -0.010438 0.034515 -0.001632 0.016576 0.007676 0.014014
# 3 -0.005283 -0.001632 0.012993 -0.005449 -0.010071 0.000901
# 4 -0.003855 0.016576 -0.005449 0.045839 0.020766 0.008139
# 5 0.002912 0.007676 -0.010071 0.020766 0.044410 0.007566
# 6 -0.004295 0.014014 0.000901 0.008139 0.007566 0.038367
#
#
# Mechanical properties :
#
#
# Convention : Reuss Voigt Hill
#
# Bulk Modulus (GPa) = 34.90446 49.45722 42.18084
# Shear Modulus (GPa) = 21.16573 31.16155 26.16364
#
# Velocity S-wave (km/s) = 3.22345 3.91124 3.58388
# Velocity P-wave (km/s) = 5.56681 6.68405 6.15085
#
# Compressibility (1/GPa) = 0.02864964
#
# Stress axis : x y z
#
# Youngs Moduli (GPa) = 63.09016 28.97321 76.96742
#
# Poissons Ratio (x) = 0.30243 0.40663
# Poissons Ratio (y) = 0.65856 0.12564
# Poissons Ratio (z) = 0.33331 0.04730
#
# Static dielectric constant tensor:
#      x y z
#    x 1.808030 -0.075940 0.024310 
#    y -0.075940 1.784560 -0.023290 
#    z 0.024310 -0.023290 1.749650 
# 
# From -- ./inp_files/37494.got.cif
#   From: 2010.05.17/outbox.cif.g08.bks.cpg/sg2_19_cif.got.tgz:37494.got - 2010.06.03 11:33:40.
