data_PCOD9021426
_publ_section_title
;
Structure prediction by ZEFSAII (Michael W. Deem and Ramdas Pophale) SiO2 
 PCOD9021426
Probable space group: P -1
;
_chemical_formula_sum "Si O2"
_cell_formula_units_Z 16
_cell_length_a 5.326684
_cell_length_b 24.155447
_cell_length_c 13.739281
_cell_angle_alpha 22.453166
_cell_angle_beta 87.250557
_cell_angle_gamma 87.610876
_cell_volume 674.383568
_symmetry_space_group_name_H-M "P -1"
_symmetry_group_IT_number 2
_symmetry_cell_setting 'triclinic'
loop_
_space_group_symop_operation_xyz
x,y,z
-x,-y,-z
loop_
_atom_site_type_symbol
_atom_site_label
_atom_site_fract_x
_atom_site_fract_y
_atom_site_fract_z
Si Si1 0.501082 0.182745 0.911181
Si Si2 0.190659 0.853839 0.837970
Si Si3 0.527670 0.172176 0.721282
Si Si4 0.507755 0.661498 0.026397
Si Si5 0.640139 0.144492 0.551779
Si Si6 0.856789 0.824030 0.619886
Si Si7 0.862246 0.573291 0.294989
Si Si8 0.803234 0.611161 0.533844
O O1 0.666754 0.178711 0.010057
O O2 0.660564 0.193956 0.788682
O O3 0.311076 0.313609 0.684451
O O4 0.344535 0.031521 0.157593
O O5 0.967209 0.737930 0.022749
O O6 0.359939 0.808370 0.815999
O O7 0.125645 0.021934 0.574263
O O8 0.646201 0.209343 0.555134
O O9 0.266546 0.260604 0.597738
O O10 0.500000 0.000000 0.000000
O O11 0.747526 0.705365 0.888092
O O12 0.573675 0.597083 0.236820
O O13 0.353916 0.529701 0.197850
O O14 0.366905 0.167136 0.470961
O O15 0.873450 0.201639 0.391598
O O16 0.000000 0.500000 0.500000
O O17 0.944337 0.464977 0.381294
#
# Coordination Sequence:
#
# PCOD9021426 Si02
#       8
#     2   2   2   2   2   2   2   2
#     4   8  17  38  65  92 128 156 207 271 327 375
#     4  10  22  38  61  92 125 171 212 264 316 389
#     4   8  17  39  68  92 126 160 213 274 333 379
#     4  11  24  41  58  92 131 176 210 262 321 387
#     4  10  22  44  66 100 121 170 219 275 322 375
#     4  11  26  41  69  90 136 169 227 263 312 383
#     4  11  23  34  62  93 127 171 212 262 328 389
#     4   9  20  39  60  90 131 159 212 261 334 379
#
# _framework density 23.725370000000002
#
# number of rings (size 3 to 8) (size 9 to 14) (size 15 to 20)
#    0.750    1.500    0.000    1.875    8.750    2.500 
#    2.250   11.250    0.000    0.000    0.000    0.000 
#    0.000    0.000    0.000    0.000    0.000    0.000 
#
# Total GULP energy -89147.280258 kJ/mol
# GULP energy per Si atom -5571.705016 kJ/mol
# Density = 2.367137 g / cm^3
# Si number density = 23.725370 Si / 1000 Ang^3
#
#
#
# Elastic Constant Matrix: (Units=GPa)
#
#
# Indices 1 2 3 4 5 6 
#
# 1 39.9538 21.7734 4.2256 -0.4294 -5.4726 -5.1906
# 2 21.7734 106.0735 24.8962 -5.2289 0.5373 -16.6073
# 3 4.2256 24.8962 69.5494 -3.3375 7.5048 5.3268
# 4 -0.4294 -5.2289 -3.3375 37.8601 -5.7672 4.4170
# 5 -5.4726 0.5373 7.5048 -5.7672 33.0617 -3.9200
# 6 -5.1906 -16.6073 5.3268 4.4170 -3.9200 20.2212
#
#
#
# Elastic Compliance Matrix: (Units=1/GPa)
#
#
# Indices 1 2 3 4 5 6 
#
# 1 0.029291 -0.005089 -0.000939 -0.000139 0.005679 0.004718
# 2 -0.005089 0.013613 -0.005619 0.000219 0.001628 0.011622
# 3 -0.000939 -0.005619 0.017899 0.001266 -0.005193 -0.010854
# 4 -0.000139 0.000219 0.001266 0.027787 0.003880 -0.005507
# 5 0.005679 0.001628 -0.005193 0.003880 0.034195 0.009944
# 6 0.004718 0.011622 -0.010854 -0.005507 0.009944 0.066199
#
#
# Mechanical properties :
#
#
# Convention : Reuss Voigt Hill
#
# Bulk Modulus (GPa) = 26.66003 35.26302 30.96152
# Shear Modulus (GPa) = 22.24398 29.20738 25.72568
#
# Velocity S-wave (km/s) = 3.06528 3.51245 3.29646
# Velocity P-wave (km/s) = 4.87742 5.59866 5.25044
#
# Compressibility (1/GPa) = 0.03750934
#
# Stress axis : x y z
#
# Youngs Moduli (GPa) = 34.14031 73.45937 55.86855
#
# Poissons Ratio (x) = 0.37384 0.05244
# Poissons Ratio (y) = 0.17374 0.31393
# Poissons Ratio (z) = 0.03205 0.41277
#
# Static dielectric constant tensor:
#      x y z
#    x 1.966210 0.008670 0.008380 
#    y 0.008670 1.991450 0.057220 
#    z 0.008380 0.057220 1.915420 
# 
# From -- ./inp_files/486133.got.cif
#   From: 2010.05.17/outbox.cif.g08.bks.cpg/sg2_244_cif.got.tgz:486133.got - 2010.06.03 11:33:40.
