data_PCOD9021873
_publ_section_title
;
Structure prediction by ZEFSAII (Michael W. Deem and Ramdas Pophale) SiO2 
 PCOD9021873
Probable space group: P -1
;
_chemical_formula_sum "Si O2"
_cell_formula_units_Z 14
_cell_length_a 9.787550
_cell_length_b 5.159143
_cell_length_c 21.614597
_cell_angle_alpha 68.702661
_cell_angle_beta 143.943620
_cell_angle_gamma 119.213834
_cell_volume 559.642599
_symmetry_space_group_name_H-M "P -1"
_symmetry_group_IT_number 2
_symmetry_cell_setting 'triclinic'
loop_
_space_group_symop_operation_xyz
x,y,z
-x,-y,-z
loop_
_atom_site_type_symbol
_atom_site_label
_atom_site_fract_x
_atom_site_fract_y
_atom_site_fract_z
Si Si1 0.758345 0.947078 0.610549
Si Si2 0.524967 0.511185 0.752283
Si Si3 0.979421 0.510056 0.417790
Si Si4 0.566712 0.662207 0.409664
Si Si5 0.818054 0.082428 0.756090
Si Si6 0.244145 0.777705 0.045771
Si Si7 0.267969 0.424623 0.967570
O O1 0.926376 0.151969 0.601691
O O2 0.895606 0.060198 0.716209
O O3 0.500000 0.000000 0.500000
O O4 0.649369 0.592321 0.609487
O O5 0.456089 0.397786 0.666842
O O6 0.560761 0.261506 0.829964
O O7 0.309604 0.613081 0.693332
O O8 0.774275 0.794186 0.807273
O O9 0.166425 0.352368 0.474489
O O10 0.000000 0.500000 0.500000
O O11 0.465530 0.928638 0.356693
O O12 0.014302 0.352670 0.841002
O O13 0.304230 0.685482 0.007384
O O14 0.000000 0.500000 0.000000
O O15 0.241839 0.110502 0.018057
O O16 0.500000 0.500000 0.000000
#
# Coordination Sequence:
#
# PCOD9021873 Si02
#       7
#     2   2   2   2   2   2   2
#     4   9  20  38  61  89 128 169 219 269 345 413
#     4  10  22  38  66  94 131 175 227 286 346 414
#     4   9  19  38  61  93 127 168 219 282 339 421
#     4   9  20  39  63  91 132 170 220 277 350 421
#     4  11  23  40  66  93 133 179 226 281 357 418
#     4  12  25  48  76 104 143 189 247 301 360 423
#     4  12  29  47  72 108 147 191 245 303 358 428
#
# _framework density 25.015964
#
# number of rings (size 3 to 8) (size 9 to 14) (size 15 to 20)
#    0.000    1.714    1.429    2.571    6.000    4.000 
#    0.000    2.857    0.000    0.000    0.000    0.000 
#    0.000    0.000    0.000    0.000    0.000    0.000 
#
# Total GULP energy -78183.917481 kJ/mol
# GULP energy per Si atom -5584.565534 kJ/mol
# Density = 2.495903 g / cm^3
# Si number density = 25.015964 Si / 1000 Ang^3
#
#
#
# Elastic Constant Matrix: (Units=GPa)
#
#
# Indices 1 2 3 4 5 6 
#
# 1 92.9847 21.7539 18.8283 1.9610 -6.9832 16.9383
# 2 21.7539 80.2060 20.9013 -25.4042 -11.2879 14.0385
# 3 18.8283 20.9013 101.7255 -15.9705 -6.2877 3.9799
# 4 1.9610 -25.4042 -15.9705 32.8604 -4.3248 -4.5944
# 5 -6.9832 -11.2879 -6.2877 -4.3248 37.0033 0.3296
# 6 16.9383 14.0385 3.9799 -4.5944 0.3296 44.2259
#
#
#
# Elastic Compliance Matrix: (Units=1/GPa)
#
#
# Indices 1 2 3 4 5 6 
#
# 1 0.013013 -0.003898 -0.002283 -0.005437 0.000280 -0.004108
# 2 -0.003898 0.020409 -0.000317 0.016365 0.007378 -0.003312
# 3 -0.002283 -0.000317 0.011326 0.005742 0.002063 0.000537
# 4 -0.005437 0.016365 0.005742 0.047757 0.010512 0.001254
# 5 0.000280 0.007378 0.002063 0.010512 0.030923 -0.001773
# 6 -0.004108 -0.003312 0.000537 0.001254 -0.001773 0.025331
#
#
# Mechanical properties :
#
#
# Convention : Reuss Voigt Hill
#
# Bulk Modulus (GPa) = 31.49499 44.20926 37.85213
# Shear Modulus (GPa) = 29.01232 37.04677 33.02954
#
# Velocity S-wave (km/s) = 3.40921 3.85245 3.63759
# Velocity P-wave (km/s) = 5.30228 6.12367 5.72772
#
# Compressibility (1/GPa) = 0.03175108
#
# Stress axis : x y z
#
# Youngs Moduli (GPa) = 76.84763 48.99738 88.29104
#
# Poissons Ratio (x) = 0.19101 0.20159
# Poissons Ratio (y) = 0.29957 0.02799
# Poissons Ratio (z) = 0.17546 0.01554
#
# Static dielectric constant tensor:
#      x y z
#    x 2.036260 -0.009000 0.011040 
#    y -0.009000 2.048350 -0.024640 
#    z 0.011040 -0.024640 2.055690 
# 
# From -- ./inp_files/37996.got.cif
#   From: 2010.05.17/outbox.cif.g08.bks.cpg/sg2_19_cif.got.tgz:37996.got - 2010.06.03 11:33:40.
