data_PCOD9021210
_publ_section_title
;
Structure prediction by ZEFSAII (Michael W. Deem and Ramdas Pophale) SiO2 
 PCOD9021210
Probable space group: P -1
;
_chemical_formula_sum "Si O2"
_cell_formula_units_Z 14
_cell_length_a 11.940256
_cell_length_b 16.217579
_cell_length_c 8.788709
_cell_angle_alpha 43.227514
_cell_angle_beta 98.032890
_cell_angle_gamma 131.120578
_cell_volume 661.284921
_symmetry_space_group_name_H-M "P -1"
_symmetry_group_IT_number 2
_symmetry_cell_setting 'triclinic'
loop_
_space_group_symop_operation_xyz
x,y,z
-x,-y,-z
loop_
_atom_site_type_symbol
_atom_site_label
_atom_site_fract_x
_atom_site_fract_y
_atom_site_fract_z
Si Si1 0.784868 0.397557 0.214682
Si Si2 0.853821 0.183281 0.125377
Si Si3 0.307006 0.036809 0.295822
Si Si4 0.952869 0.614575 0.661575
Si Si5 0.052912 0.873630 0.072702
Si Si6 0.693908 0.743324 0.169335
Si Si7 0.533669 0.037506 0.135986
O O1 0.909750 0.382323 0.285444
O O2 0.577275 0.179497 0.535210
O O3 0.774659 0.428923 0.993405
O O4 0.922554 0.607092 0.054289
O O5 0.760696 0.223513 0.979946
O O6 0.717834 0.035170 0.443714
O O7 0.854861 0.090431 0.114690
O O8 0.436522 0.065166 0.169577
O O9 0.361957 0.222245 0.031613
O O10 0.078268 0.829554 0.476962
O O11 0.958614 0.674597 0.412813
O O12 0.874988 0.810055 0.093295
O O13 0.223507 0.091411 0.908419
O O14 0.500000 0.500000 0.500000
O O15 0.500000 0.000000 0.000000
#
# Coordination Sequence:
#
# PCOD9021210 Si02
#       7
#     2   2   2   2   2   2   2
#     4   9  19  34  54  82 115 151 179 217 282 340
#     4  11  22  36  58  87 117 147 184 232 287 339
#     4   9  20  38  57  82 116 150 188 237 281 326
#     4   8  16  35  56  78 114 149 184 225 272 336
#     4  10  22  38  58  85 113 146 192 239 278 330
#     4  10  22  41  61  79 107 152 196 236 283 330
#     4  11  22  36  57  86 120 150 186 230 275 340
#
# _framework density 21.170905000000001
#
# number of rings (size 3 to 8) (size 9 to 14) (size 15 to 20)
#    0.000    2.286    0.000    3.857    0.000    7.429 
#    0.000    0.714    0.000    0.000    0.000    0.000 
#    0.000    0.000    0.000    0.000    0.000    0.000 
#
# Total GULP energy -77935.427670 kJ/mol
# GULP energy per Si atom -5566.816262 kJ/mol
# Density = 2.112272 g / cm^3
# Si number density = 21.170905 Si / 1000 Ang^3
#
#
#
# Elastic Constant Matrix: (Units=GPa)
#
#
# Indices 1 2 3 4 5 6 
#
# 1 70.6985 26.1079 28.4224 13.0753 2.1273 -7.6573
# 2 26.1079 76.1980 44.9996 19.6710 -4.0339 5.8534
# 3 28.4224 44.9996 93.4506 9.8021 4.6381 -15.8053
# 4 13.0753 19.6710 9.8021 35.5819 0.6182 -7.8094
# 5 2.1273 -4.0339 4.6381 0.6182 29.4983 1.2477
# 6 -7.6573 5.8534 -15.8053 -7.8094 1.2477 22.8366
#
#
#
# Elastic Compliance Matrix: (Units=1/GPa)
#
#
# Indices 1 2 3 4 5 6 
#
# 1 0.017725 -0.005047 -0.001734 -0.002017 -0.001884 0.005451
# 2 -0.005047 0.032508 -0.017576 -0.017746 0.009161 -0.028758
# 3 -0.001734 -0.017576 0.023032 0.009272 -0.007085 0.023422
# 4 -0.002017 -0.017746 0.009272 0.041652 -0.005663 0.024843
# 5 -0.001884 0.009161 -0.007085 -0.005663 0.037022 -0.011843
# 6 0.005451 -0.028758 0.023422 0.024843 -0.011843 0.078341
#
#
# Mechanical properties :
#
#
# Convention : Reuss Voigt Hill
#
# Bulk Modulus (GPa) = 40.73022 48.82299 44.77660
# Shear Modulus (GPa) = 17.41076 26.97118 22.19097
#
# Velocity S-wave (km/s) = 2.87085 3.57315 3.24108
# Velocity P-wave (km/s) = 5.50178 6.33519 5.93313
#
# Compressibility (1/GPa) = 0.02455179
#
# Stress axis : x y z
#
# Youngs Moduli (GPa) = 56.41601 30.76168 43.41811
#
# Poissons Ratio (x) = 0.15526 0.07528
# Poissons Ratio (y) = 0.28475 0.76310
# Poissons Ratio (z) = 0.09781 0.54066
#
# Static dielectric constant tensor:
#      x y z
#    x 1.805260 0.017540 0.015880 
#    y 0.017540 1.864420 -0.012440 
#    z 0.015880 -0.012440 1.851840 
# 
# From -- ./inp_files/201961.got.cif
#   From: 2010.05.17/outbox.cif.g08.bks.cpg/sg2_101_cif.got.tgz:201961.got - 2010.06.03 11:33:40.
