data_PCOD9021124
_publ_section_title
;
Structure prediction by ZEFSAII (Michael W. Deem and Ramdas Pophale) SiO2 
 PCOD9021124
Probable space group: P -1
;
_chemical_formula_sum "Si O2"
_cell_formula_units_Z 16
_cell_length_a 9.311038
_cell_length_b 8.646408
_cell_length_c 11.686669
_cell_angle_alpha 86.864151
_cell_angle_beta 123.315508
_cell_angle_gamma 106.923181
_cell_volume 745.652097
_symmetry_space_group_name_H-M "P -1"
_symmetry_group_IT_number 2
_symmetry_cell_setting 'triclinic'
loop_
_space_group_symop_operation_xyz
x,y,z
-x,-y,-z
loop_
_atom_site_type_symbol
_atom_site_label
_atom_site_fract_x
_atom_site_fract_y
_atom_site_fract_z
Si Si1 0.819096 0.034451 0.879159
Si Si2 0.413402 0.199344 0.057372
Si Si3 0.934233 0.312060 0.089052
Si Si4 0.495906 0.639601 0.400107
Si Si5 0.256960 0.926045 0.825736
Si Si6 0.206618 0.029826 0.556228
Si Si7 0.301916 0.868614 0.404524
Si Si8 0.712100 0.530594 0.903287
O O1 0.813508 0.076089 0.744043
O O2 0.644110 0.885697 0.840988
O O3 0.812566 0.185528 0.947791
O O4 0.000000 0.000000 0.000000
O O5 0.598562 0.174383 0.097294
O O6 0.379436 0.369844 0.056597
O O7 0.277950 0.076945 0.914635
O O8 0.922825 0.213973 0.206129
O O9 0.133663 0.364572 0.121637
O O10 0.836406 0.450269 0.037472
O O11 0.500000 0.500000 0.500000
O O12 0.679000 0.796514 0.457660
O O13 0.341860 0.709997 0.381561
O O14 0.436015 0.575383 0.247297
O O15 0.292000 0.005833 0.714747
O O16 0.210822 0.879681 0.483727
O O17 0.000000 0.000000 0.500000
O O18 0.500000 0.000000 0.500000
#
# Coordination Sequence:
#
# PCOD9021124 Si02
#       8
#     2   2   2   2   2   2   2   2
#     4  11  20  37  68  97 125 171 240 276 324 382
#     4  10  22  37  68  92 129 173 211 274 336 403
#     4  10  23  40  65  99 131 170 212 291 323 409
#     4  11  26  44  69  97 135 176 227 280 336 408
#     4  10  24  43  63  95 131 172 229 262 332 404
#     4  11  27  45  68  94 133 177 231 271 328 407
#     4  10  23  43  68  94 133 183 233 272 325 413
#     4  11  23  41  65 100 133 165 225 272 354 381
#
# _framework density 21.457726999999998
#
# number of rings (size 3 to 8) (size 9 to 14) (size 15 to 20)
#    0.000    1.500    2.500    1.500   14.000    0.500 
#    0.000    0.625    0.000    0.000    0.000    0.000 
#    0.000    0.000    0.000    0.000    0.000    0.000 
#
# Total GULP energy -89133.406893 kJ/mol
# GULP energy per Si atom -5570.837931 kJ/mol
# Density = 2.140889 g / cm^3
# Si number density = 21.457727 Si / 1000 Ang^3
#
#
#
# Elastic Constant Matrix: (Units=GPa)
#
#
# Indices 1 2 3 4 5 6 
#
# 1 113.8805 51.5354 25.2924 -1.3292 -6.7516 -20.6996
# 2 51.5354 82.5393 28.6308 -3.8817 -8.1814 -16.7967
# 3 25.2924 28.6308 69.8144 -9.5358 -11.0612 -13.3054
# 4 -1.3292 -3.8817 -9.5358 24.8554 -0.9857 -13.2691
# 5 -6.7516 -8.1814 -11.0612 -0.9857 37.0094 2.0558
# 6 -20.6996 -16.7967 -13.3054 -13.2691 2.0558 55.2481
#
#
#
# Elastic Compliance Matrix: (Units=1/GPa)
#
#
# Indices 1 2 3 4 5 6 
#
# 1 0.012650 -0.006947 -0.001155 0.000469 0.000303 0.002451
# 2 -0.006947 0.018664 -0.004054 0.002452 0.001566 0.002626
# 3 -0.001155 -0.004054 0.019462 0.009725 0.004681 0.005183
# 4 0.000469 0.002452 0.009725 0.052988 0.004065 0.015838
# 5 0.000303 0.001566 0.004681 0.004065 0.028839 0.001620
# 6 0.002451 0.002626 0.005183 0.015838 0.001620 0.024809
#
#
# Mechanical properties :
#
#
# Convention : Reuss Voigt Hill
#
# Bulk Modulus (GPa) = 37.78527 53.01683 45.40105
# Shear Modulus (GPa) = 26.24040 34.14097 30.19069
#
# Velocity S-wave (km/s) = 3.50078 3.99316 3.75505
# Velocity P-wave (km/s) = 5.82992 6.78393 6.32494
#
# Compressibility (1/GPa) = 0.02646534
#
# Stress axis : x y z
#
# Youngs Moduli (GPa) = 79.04898 53.57868 51.38142
#
# Poissons Ratio (x) = 0.37222 0.05934
# Poissons Ratio (y) = 0.54916 0.20829
# Poissons Ratio (z) = 0.09129 0.21720
#
# Static dielectric constant tensor:
#      x y z
#    x 1.789560 0.010980 0.017250 
#    y 0.010980 1.889680 -0.028140 
#    z 0.017250 -0.028140 1.795040 
# 
# From -- ./inp_files/379319.got.cif
#   From: 2010.05.17/outbox.cif.g08.bks.cpg/sg2_190_cif.got.tgz:379319.got - 2010.06.03 11:33:40.
