data_PCOD9021286
_publ_section_title
;
Structure prediction by ZEFSAII (Michael W. Deem and Ramdas Pophale) SiO2 
 PCOD9021286
Probable space group: P -1
;
_chemical_formula_sum "Si O2"
_cell_formula_units_Z 15
_cell_length_a 11.985249
_cell_length_b 15.072128
_cell_length_c 11.698398
_cell_angle_alpha 37.166408
_cell_angle_beta 152.522950
_cell_angle_gamma 131.800927
_cell_volume 582.814023
_symmetry_space_group_name_H-M "P -1"
_symmetry_group_IT_number 2
_symmetry_cell_setting 'triclinic'
loop_
_space_group_symop_operation_xyz
x,y,z
-x,-y,-z
loop_
_atom_site_type_symbol
_atom_site_label
_atom_site_fract_x
_atom_site_fract_y
_atom_site_fract_z
Si Si1 0.361764 0.449282 0.817166
Si Si2 0.000000 0.000000 0.500000
Si Si3 0.710114 0.217247 0.665804
Si Si4 0.777668 0.751227 0.922843
Si Si5 0.757738 0.339589 0.938355
Si Si6 0.044622 0.477157 0.875989
Si Si7 0.528345 0.963780 0.199477
Si Si8 0.363440 0.280264 0.790467
O O1 0.277177 0.606759 0.518067
O O2 0.195207 0.341695 0.838883
O O3 0.503189 0.343253 0.958717
O O4 0.500000 0.500000 0.000000
O O5 0.817553 0.948212 0.487698
O O6 0.091169 0.823192 0.731953
O O7 0.601656 0.168902 0.737100
O O8 0.997367 0.154653 0.975984
O O9 0.504936 0.175649 0.431383
O O10 0.808687 0.632590 0.967625
O O11 0.808195 0.465050 0.945386
O O12 0.844217 0.392245 0.842580
O O13 0.481018 0.317509 0.737830
O O14 0.901313 0.625502 0.536680
O O15 0.500000 0.000000 0.000000
O O16 0.388916 0.105101 0.993391
#
# Coordination Sequence:
#
# PCOD9021286 Si02
#       8
#     2   1   2   2   2   2   2   2
#     4  10  22  44  71 101 136 179 241 298 351 407
#     4  10  22  40  60  86 136 180 224 272 342 414
#     4  11  24  43  72 102 136 185 237 285 355 420
#     4  11  24  43  75 102 135 183 238 294 351 413
#     4  10  22  38  59  95 130 178 225 287 349 423
#     4  11  22  37  64  94 133 171 234 283 349 420
#     4  11  26  42  67  98 144 186 230 284 356 430
#     4  11  23  40  63  96 133 177 229 288 351 412
#
# _framework density 25.737199
#
# number of rings (size 3 to 8) (size 9 to 14) (size 15 to 20)
#    0.000    1.333    1.333    4.000    5.600    3.200 
#    0.000    3.333    0.000    0.000    0.000    0.000 
#    0.000    0.000    0.000    0.000    0.000    0.000 
#
# Total GULP energy -83514.034108 kJ/mol
# GULP energy per Si atom -5567.602274 kJ/mol
# Density = 2.567862 g / cm^3
# Si number density = 25.737199 Si / 1000 Ang^3
#
#
#
# Elastic Constant Matrix: (Units=GPa)
#
#
# Indices 1 2 3 4 5 6 
#
# 1 147.6002 30.2361 15.3654 1.9344 -20.9481 34.2420
# 2 30.2361 84.6599 31.6272 -0.0198 -3.2683 12.9326
# 3 15.3654 31.6272 72.1398 8.3518 -1.0639 7.0306
# 4 1.9344 -0.0198 8.3518 30.6109 3.4243 10.4353
# 5 -20.9481 -3.2683 -1.0639 3.4243 38.5979 3.2359
# 6 34.2420 12.9326 7.0306 10.4353 3.2359 58.5875
#
#
#
# Elastic Compliance Matrix: (Units=1/GPa)
#
#
# Indices 1 2 3 4 5 6 
#
# 1 0.009208 -0.002075 -0.000551 0.000789 0.005180 -0.005284
# 2 -0.002075 0.015195 -0.006332 0.002499 -0.000083 -0.001822
# 3 -0.000551 -0.006332 0.017269 -0.004858 0.000029 0.000512
# 4 0.000789 0.002499 -0.004858 0.036510 -0.002162 -0.006813
# 5 0.005180 -0.000083 0.000029 -0.002162 0.029261 -0.004243
# 6 -0.005284 -0.001822 0.000512 -0.006813 -0.004243 0.021946
#
#
# Mechanical properties :
#
#
# Convention : Reuss Voigt Hill
#
# Bulk Modulus (GPa) = 42.10004 50.98416 46.54210
# Shear Modulus (GPa) = 32.21159 40.70403 36.45781
#
# Velocity S-wave (km/s) = 3.54157 3.98115 3.76778
# Velocity P-wave (km/s) = 5.75472 6.40198 6.08696
#
# Compressibility (1/GPa) = 0.02375295
#
# Stress axis : x y z
#
# Youngs Moduli (GPa) = 108.59809 65.81327 57.90819
#
# Poissons Ratio (x) = 0.13658 0.03193
# Poissons Ratio (y) = 0.22538 0.36670
# Poissons Ratio (z) = 0.05989 0.41676
#
# Static dielectric constant tensor:
#      x y z
#    x 2.038810 0.029930 -0.011100 
#    y 0.029930 2.088160 0.142250 
#    z -0.011100 0.142250 2.245950 
# 
# From -- ./inp_files/432514.got.cif
#   From: 2010.05.17/outbox.cif.g08.bks.cpg/sg2_217_cif.got.tgz:432514.got - 2010.06.03 11:33:40.
