data_PCOD9021793
_publ_section_title
;
Structure prediction by ZEFSAII (Michael W. Deem and Ramdas Pophale) SiO2 
 PCOD9021793
Probable space group: P -1
;
_chemical_formula_sum "Si O2"
_cell_formula_units_Z 12
_cell_length_a 13.375005
_cell_length_b 11.105496
_cell_length_c 18.957561
_cell_angle_alpha 147.568853
_cell_angle_beta 17.433838
_cell_angle_gamma 144.143594
_cell_volume 452.198432
_symmetry_space_group_name_H-M "P -1"
_symmetry_group_IT_number 2
_symmetry_cell_setting 'triclinic'
loop_
_space_group_symop_operation_xyz
x,y,z
-x,-y,-z
loop_
_atom_site_type_symbol
_atom_site_label
_atom_site_fract_x
_atom_site_fract_y
_atom_site_fract_z
Si Si1 0.319769 0.451484 0.212931
Si Si2 0.525161 0.409748 0.557521
Si Si3 0.788341 0.524498 0.054156
Si Si4 0.042827 0.995798 0.150038
Si Si5 0.422741 0.955404 0.374798
Si Si6 0.283619 0.159110 0.416553
O O1 0.612595 0.396371 0.044259
O O2 0.181766 0.243457 0.156116
O O3 0.444455 0.690677 0.215974
O O4 0.000000 0.500000 0.500000
O O5 0.476550 0.481514 0.706375
O O6 0.749107 0.575703 0.441064
O O7 0.671162 0.160252 0.334426
O O8 0.140151 0.428119 0.795593
O O9 0.846271 0.798143 0.139731
O O10 0.846540 0.024966 0.369955
O O11 0.390952 0.877647 0.868561
O O12 0.346058 0.065800 0.405673
O O13 0.000000 0.000000 0.500000
#
# Coordination Sequence:
#
# PCOD9021793 Si02
#       6
#     2   2   2   2   2   2
#     4  10  22  38  65  96 124 166 207 252 314 375
#     4   9  20  39  63  90 124 163 206 262 304 367
#     4   9  19  40  66  92 123 166 208 252 316 363
#     4   9  22  42  62  92 125 163 205 256 307 368
#     4  10  22  41  62  93 122 161 210 249 317 367
#     4  11  24  38  61  96 123 161 211 257 311 366
#
# _framework density 26.537023999999999
#
# number of rings (size 3 to 8) (size 9 to 14) (size 15 to 20)
#    0.000    2.333    0.000    1.500    7.000    7.333 
#    0.000    3.333    0.000    0.000    0.000    0.000 
#    0.000    0.000    0.000    0.000    0.000    0.000 
#
# Total GULP energy -66910.351993 kJ/mol
# GULP energy per Si atom -5575.862666 kJ/mol
# Density = 2.647662 g / cm^3
# Si number density = 26.537024 Si / 1000 Ang^3
#
#
#
# Elastic Constant Matrix: (Units=GPa)
#
#
# Indices 1 2 3 4 5 6 
#
# 1 68.8321 47.1254 4.6993 -5.6631 -4.2585 10.3061
# 2 47.1254 208.4119 4.5603 24.1570 3.9671 -14.8485
# 3 4.6993 4.5603 47.9783 -4.7515 -1.8358 4.9499
# 4 -5.6631 24.1570 -4.7515 49.7034 5.9968 -8.0774
# 5 -4.2585 3.9671 -1.8358 5.9968 20.6119 1.3305
# 6 10.3061 -14.8485 4.9499 -8.0774 1.3305 39.9929
#
#
#
# Elastic Compliance Matrix: (Units=1/GPa)
#
#
# Indices 1 2 3 4 5 6 
#
# 1 0.019771 -0.005395 -0.000251 0.003230 0.004585 -0.006567
# 2 -0.005395 0.006680 -0.000839 -0.003177 -0.001770 0.003391
# 3 -0.000251 -0.000839 0.021457 0.001808 0.001662 -0.002593
# 4 0.003230 -0.003177 0.001808 0.023300 -0.005510 0.002654
# 5 0.004585 -0.001770 0.001662 -0.005510 0.051870 -0.004883
# 6 -0.006567 0.003391 -0.002593 0.002654 -0.004883 0.028975
#
#
# Mechanical properties :
#
#
# Convention : Reuss Voigt Hill
#
# Bulk Modulus (GPa) = 28.62069 48.66581 38.64325
# Shear Modulus (GPa) = 28.30149 39.98415 34.14282
#
# Velocity S-wave (km/s) = 3.26926 3.88587 3.59083
# Velocity P-wave (km/s) = 5.00593 6.20580 5.63788
#
# Compressibility (1/GPa) = 0.03493976
#
# Stress axis : x y z
#
# Youngs Moduli (GPa) = 50.57818 149.70285 46.60440
#
# Poissons Ratio (x) = 0.80760 0.01169
# Poissons Ratio (y) = 0.27285 0.03909
# Poissons Ratio (z) = 0.01269 0.12556
#
# Static dielectric constant tensor:
#      x y z
#    x 2.012220 0.000400 -0.071400 
#    y 0.000400 2.214800 0.106490 
#    z -0.071400 0.106490 2.110140 
# 
# From -- ./inp_files/146772.got.cif
#   From: 2010.05.17/outbox.cif.g08.bks.cpg/sg2_74_cif.got.tgz:146772.got - 2010.06.03 11:33:40.
