data_PCOD9021358
_publ_section_title
;
Structure prediction by ZEFSAII (Michael W. Deem and Ramdas Pophale) SiO2 
 PCOD9021358
Probable space group: P -1
;
_chemical_formula_sum "Si O2"
_cell_formula_units_Z 16
_cell_length_a 21.861226
_cell_length_b 26.974218
_cell_length_c 8.987275
_cell_angle_alpha 28.564150
_cell_angle_beta 38.849538
_cell_angle_gamma 18.602899
_cell_volume 756.817301
_symmetry_space_group_name_H-M "P -1"
_symmetry_group_IT_number 2
_symmetry_cell_setting 'triclinic'
loop_
_space_group_symop_operation_xyz
x,y,z
-x,-y,-z
loop_
_atom_site_type_symbol
_atom_site_label
_atom_site_fract_x
_atom_site_fract_y
_atom_site_fract_z
Si Si1 0.524779 0.358873 0.765248
Si Si2 0.978810 0.635240 0.387383
Si Si3 0.664806 0.045928 0.702917
Si Si4 0.256244 0.482751 0.500661
Si Si5 0.834654 0.069611 0.168593
Si Si6 0.320749 0.244261 0.251397
Si Si7 0.612363 0.445771 0.792762
Si Si8 0.367128 0.299707 0.335060
O O1 0.500000 0.500000 0.500000
O O2 0.512305 0.373418 0.573341
O O3 0.738845 0.125619 0.045301
O O4 0.369549 0.421687 0.969712
O O5 0.894769 0.612707 0.689097
O O6 0.077102 0.620244 0.363170
O O7 0.160590 0.454521 0.398913
O O8 0.778039 0.863792 0.079785
O O9 0.473182 0.279317 0.535494
O O10 0.843877 0.956430 0.543838
O O11 0.552193 0.106057 0.611220
O O12 0.229409 0.619096 0.269401
O O13 0.282541 0.370314 0.872172
O O14 0.691449 0.274339 0.003095
O O15 0.000000 0.000000 0.000000
O O16 0.390590 0.224519 0.329958
O O17 0.500000 0.000000 0.500000
O O18 0.500000 0.500000 0.000000
#
# Coordination Sequence:
#
# PCOD9021358 Si02
#       8
#     2   2   2   2   2   2   2   2
#     4   9  20  38  63  89 126 169 202 253 322 380
#     4  11  25  43  68  93 125 177 215 265 321 385
#     4  10  22  43  65  96 132 166 216 264 319 383
#     4  11  23  45  65  94 135 168 214 269 326 384
#     4  10  22  38  60  95 129 164 213 261 312 387
#     4  12  24  46  67  95 131 169 216 277 327 369
#     4  11  21  39  65  91 126 172 208 255 328 381
#     4  10  23  44  68  93 129 171 216 264 319 391
#
# _framework density 21.141168
#
# number of rings (size 3 to 8) (size 9 to 14) (size 15 to 20)
#    0.000    1.500    3.750    0.750    5.250    0.500 
#   11.250    1.250    0.000    0.000    0.000    0.000 
#    0.000    0.000    0.000    0.000    0.000    0.000 
#
# Total GULP energy -89177.292959 kJ/mol
# GULP energy per Si atom -5573.580810 kJ/mol
# Density = 2.109305 g / cm^3
# Si number density = 21.141168 Si / 1000 Ang^3
#
#
#
# Elastic Constant Matrix: (Units=GPa)
#
#
# Indices 1 2 3 4 5 6 
#
# 1 129.2451 25.1995 31.0588 5.2270 19.2530 3.5219
# 2 25.1995 102.9493 28.5881 34.7550 7.0612 -9.9661
# 3 31.0588 28.5881 73.8488 27.3506 11.4619 -3.7747
# 4 5.2270 34.7550 27.3506 39.5403 -1.7990 -1.2613
# 5 19.2530 7.0612 11.4619 -1.7990 35.5407 9.8520
# 6 3.5219 -9.9661 -3.7747 -1.2613 9.8520 25.4749
#
#
#
# Elastic Compliance Matrix: (Units=1/GPa)
#
#
# Indices 1 2 3 4 5 6 
#
# 1 0.009463 -0.002301 -0.003975 0.003344 -0.002787 -0.001554
# 2 -0.002301 0.016023 0.001515 -0.014814 -0.005443 0.008182
# 3 -0.003975 0.001515 0.022279 -0.016367 -0.008029 0.006738
# 4 0.003344 -0.014814 -0.016367 0.049386 0.011916 -0.010846
# 5 -0.002787 -0.005443 -0.008029 0.011916 0.038721 -0.017319
# 6 -0.001554 0.008182 0.006738 -0.010846 -0.017319 0.049829
#
#
# Mechanical properties :
#
#
# Convention : Reuss Voigt Hill
#
# Bulk Modulus (GPa) = 26.14914 52.85955 39.50434
# Shear Modulus (GPa) = 24.04180 34.85765 29.44972
#
# Velocity S-wave (km/s) = 3.37590 4.06495 3.73635
# Velocity P-wave (km/s) = 5.25274 6.86216 6.11067
#
# Compressibility (1/GPa) = 0.03824218
#
# Stress axis : x y z
#
# Youngs Moduli (GPa) = 105.67093 62.41202 44.88618
#
# Poissons Ratio (x) = 0.14361 0.17841
# Poissons Ratio (y) = 0.24314 -0.06798
# Poissons Ratio (z) = 0.42001 -0.09452
#
# Static dielectric constant tensor:
#      x y z
#    x 1.789530 -0.011600 0.009930 
#    y -0.011600 1.794530 0.013250 
#    z 0.009930 0.013250 1.822830 
# 
# From -- ./inp_files/214898.got.cif
#   From: 2010.05.17/outbox.cif.g08.bks.cpg/sg2_108_cif.got.tgz:214898.got - 2010.06.03 11:33:40.
