data_PCOD9021460
_publ_section_title
;
Structure prediction by ZEFSAII (Michael W. Deem and Ramdas Pophale) SiO2 
 PCOD9021460
Probable space group: P -1
;
_chemical_formula_sum "Si O2"
_cell_formula_units_Z 16
_cell_length_a 5.085954
_cell_length_b 5.372301
_cell_length_c 23.965802
_cell_angle_alpha 81.333767
_cell_angle_beta 99.597238
_cell_angle_gamma 87.165693
_cell_volume 636.417265
_symmetry_space_group_name_H-M "P -1"
_symmetry_group_IT_number 2
_symmetry_cell_setting 'triclinic'
loop_
_space_group_symop_operation_xyz
x,y,z
-x,-y,-z
loop_
_atom_site_type_symbol
_atom_site_label
_atom_site_fract_x
_atom_site_fract_y
_atom_site_fract_z
Si Si1 0.291242 0.040499 0.269850
Si Si2 0.466668 0.606812 0.355501
Si Si3 0.161935 0.138194 0.564309
Si Si4 0.539301 0.902651 0.846214
Si Si5 0.833947 0.516787 0.937323
Si Si6 0.156152 0.766378 0.674310
Si Si7 0.310306 0.394151 0.877069
Si Si8 0.727723 0.612710 0.542267
O O1 0.260931 0.762965 0.303395
O O2 0.284692 0.054257 0.203119
O O3 0.591536 0.107051 0.293731
O O4 0.078434 0.219799 0.289815
O O5 0.560928 0.799078 0.398647
O O6 0.716634 0.505004 0.330841
O O7 0.374944 0.380367 0.398192
O O8 0.211179 0.138156 0.499203
O O9 0.969884 0.394386 0.557408
O O10 0.077455 0.915257 0.608646
O O11 0.733498 0.803210 0.906959
O O12 0.364946 0.659303 0.840007
O O13 0.361864 0.154090 0.847455
O O14 0.557832 0.379453 0.931014
O O15 0.029178 0.413239 0.897840
O O16 0.000000 0.500000 0.000000
O O17 0.500000 0.500000 0.500000
#
# Coordination Sequence:
#
# PCOD9021460 Si02
#       8
#     2   2   2   2   2   2   2   2
#     4  11  26  42  63  91 128 162 218 274 322 392
#     4  10  22  38  62  85 120 162 205 263 327 394
#     4   9  19  38  56  86 121 153 202 261 318 394
#     4  10  27  44  71 100 142 185 237 285 344 404
#     4  10  24  44  71 107 145 186 233 286 342 406
#     4  11  25  41  64  91 120 165 213 263 333 391
#     4  10  25  43  70 102 141 186 233 281 345 403
#     4   9  17  35  60  83 120 155 197 261 319 388
#
# _framework density 25.140739
#
# number of rings (size 3 to 8) (size 9 to 14) (size 15 to 20)
#    0.750    1.250    1.250    0.375    7.000    1.500 
#    0.000    5.625    0.000    0.000    0.000    0.000 
#    0.000    0.000    0.000    0.000    0.000    0.000 
#
# Total GULP energy -89435.061109 kJ/mol
# GULP energy per Si atom -5589.691319 kJ/mol
# Density = 2.508352 g / cm^3
# Si number density = 25.140739 Si / 1000 Ang^3
#
#
#
# Elastic Constant Matrix: (Units=GPa)
#
#
# Indices 1 2 3 4 5 6 
#
# 1 77.5101 20.1435 -6.4800 -4.6150 -11.9101 -0.1051
# 2 20.1435 110.3230 16.3243 4.4964 -13.9681 -16.7818
# 3 -6.4800 16.3243 77.4517 -11.6947 -10.0260 -0.6830
# 4 -4.6150 4.4964 -11.6947 20.0688 -9.0235 -10.3223
# 5 -11.9101 -13.9681 -10.0260 -9.0235 35.5560 11.4085
# 6 -0.1051 -16.7818 -0.6830 -10.3223 11.4085 38.8537
#
#
#
# Elastic Compliance Matrix: (Units=1/GPa)
#
#
# Indices 1 2 3 4 5 6 
#
# 1 0.016000 -0.003110 0.004635 0.010366 0.008371 -0.000923
# 2 -0.003110 0.010796 -0.002827 -0.002610 0.000535 0.003754
# 3 0.004635 -0.002827 0.017616 0.016564 0.009372 0.000750
# 4 0.010366 -0.002610 0.016564 0.079805 0.022994 0.013642
# 5 0.008371 0.000535 0.009372 0.022994 0.041426 -0.005636
# 6 -0.000923 0.003754 0.000750 0.013642 -0.005636 0.032649
#
#
# Mechanical properties :
#
#
# Convention : Reuss Voigt Hill
#
# Bulk Modulus (GPa) = 23.91992 36.14004 30.02998
# Shear Modulus (GPa) = 23.27409 34.58219 28.92814
#
# Velocity S-wave (km/s) = 3.04592 3.71286 3.39580
# Velocity P-wave (km/s) = 4.68030 5.72597 5.22934
#
# Compressibility (1/GPa) = 0.04180615
#
# Stress axis : x y z
#
# Youngs Moduli (GPa) = 62.50171 92.62946 56.76706
#
# Poissons Ratio (x) = 0.28808 -0.26311
# Poissons Ratio (y) = 0.19438 0.16050
# Poissons Ratio (z) = -0.28969 0.26189
#
# Static dielectric constant tensor:
#      x y z
#    x 2.073430 0.087950 0.021230 
#    y 0.087950 2.020580 -0.016050 
#    z 0.021230 -0.016050 1.984650 
# 
# From -- ./inp_files/602901.got.cif
#   From: 2010.05.17/outbox.cif.g08.bks.cpg/sg2_302_cif.got.tgz:602901.got - 2010.06.03 11:33:40.
