data_PCOD9021941
_publ_section_title
;
Structure prediction by ZEFSAII (Michael W. Deem and Ramdas Pophale) SiO2 
 PCOD9021941
Probable space group: P -1
;
_chemical_formula_sum "Si O2"
_cell_formula_units_Z 14
_cell_length_a 11.935552
_cell_length_b 15.468292
_cell_length_c 9.489255
_cell_angle_alpha 35.904992
_cell_angle_beta 35.763744
_cell_angle_gamma 39.958047
_cell_volume 569.134736
_symmetry_space_group_name_H-M "P -1"
_symmetry_group_IT_number 2
_symmetry_cell_setting 'triclinic'
loop_
_space_group_symop_operation_xyz
x,y,z
-x,-y,-z
loop_
_atom_site_type_symbol
_atom_site_label
_atom_site_fract_x
_atom_site_fract_y
_atom_site_fract_z
Si Si1 0.014861 0.169438 0.243033
Si Si2 0.535742 0.039061 0.571002
Si Si3 0.148070 0.795448 0.935459
Si Si4 0.813365 0.500309 0.092047
Si Si5 0.963403 0.425473 0.489210
Si Si6 0.451774 0.323175 0.436371
Si Si7 0.422586 0.207559 0.908031
O O1 0.216815 0.181345 0.093814
O O2 0.000000 0.000000 0.500000
O O3 0.001619 0.187145 0.064742
O O4 0.840213 0.319387 0.285307
O O5 0.395645 0.211930 0.527086
O O6 0.500000 0.000000 0.500000
O O7 0.500355 0.920907 0.879490
O O8 0.757812 0.064193 0.327559
O O9 0.057869 0.742044 0.235389
O O10 0.649469 0.346185 0.133483
O O11 0.622696 0.625807 0.189880
O O12 0.866079 0.567879 0.802288
O O13 0.000000 0.500000 0.000000
O O14 0.742292 0.533850 0.517243
O O15 0.000000 0.500000 0.500000
O O16 0.526624 0.216457 0.640396
#
# Coordination Sequence:
#
# PCOD9021941 Si02
#       7
#     2   2   2   2   2   2   2
#     4  11  19  40  67  96 128 170 220 270 316 394
#     4  10  24  40  65  96 136 170 218 275 331 381
#     4  10  23  38  65 100 125 173 223 264 332 385
#     4  10  22  38  67  95 129 166 221 262 327 378
#     4  12  21  40  68  92 130 173 215 272 327 388
#     4  10  22  41  67  90 133 173 219 259 332 393
#     4  11  21  44  69  93 130 178 222 267 326 395
#
# _framework density 24.598744
#
# number of rings (size 3 to 8) (size 9 to 14) (size 15 to 20)
#    0.857    0.571    5.714    0.857    2.000    0.000 
#    0.000    7.143    0.000    0.000    0.000    0.000 
#    0.000    0.000    0.000    0.000    0.000    0.000 
#
# Total GULP energy -78168.996382 kJ/mol
# GULP energy per Si atom -5583.499742 kJ/mol
# Density = 2.454276 g / cm^3
# Si number density = 24.598744 Si / 1000 Ang^3
#
#
#
# Elastic Constant Matrix: (Units=GPa)
#
#
# Indices 1 2 3 4 5 6 
#
# 1 97.6410 14.7929 18.8175 2.7155 7.4699 17.5588
# 2 14.7929 86.0581 38.3880 -8.3068 -2.4770 19.9594
# 3 18.8175 38.3880 86.2269 -13.7676 7.8655 13.9613
# 4 2.7155 -8.3068 -13.7676 38.9144 4.0173 2.7724
# 5 7.4699 -2.4770 7.8655 4.0173 46.3475 3.8705
# 6 17.5588 19.9594 13.9613 2.7724 3.8705 37.2365
#
#
#
# Elastic Compliance Matrix: (Units=1/GPa)
#
#
# Indices 1 2 3 4 5 6 
#
# 1 0.011533 -0.000322 -0.001723 -0.001052 -0.001123 -0.004425
# 2 -0.000322 0.016095 -0.005992 0.001566 0.002344 -0.006589
# 3 -0.001723 -0.005992 0.016043 0.004975 -0.003025 -0.002047
# 4 -0.001052 0.001566 0.004975 0.028434 -0.002718 -0.004043
# 5 -0.001123 0.002344 -0.003025 -0.002718 0.022778 -0.001758
# 6 -0.004425 -0.006589 -0.002047 -0.004043 -0.001758 0.033725
#
#
# Mechanical properties :
#
#
# Convention : Reuss Voigt Hill
#
# Bulk Modulus (GPa) = 36.23463 45.99142 41.11303
# Shear Modulus (GPa) = 32.49277 37.69486 35.09381
#
# Velocity S-wave (km/s) = 3.63838 3.91882 3.78120
# Velocity P-wave (km/s) = 5.69321 6.26207 5.98440
#
# Compressibility (1/GPa) = 0.02759791
#
# Stress axis : x y z
#
# Youngs Moduli (GPa) = 86.70571 62.13082 62.33362
#
# Poissons Ratio (x) = 0.01998 0.10739
# Poissons Ratio (y) = 0.02788 0.37352
# Poissons Ratio (z) = 0.14938 0.37230
#
# Static dielectric constant tensor:
#      x y z
#    x 1.962260 -0.061120 0.002260 
#    y -0.061120 1.995600 -0.027470 
#    z 0.002260 -0.027470 2.004280 
# 
# From -- ./inp_files/271443.got.cif
#   From: 2010.05.17/outbox.cif.g08.bks.cpg/sg2_136_cif.got.tgz:271443.got - 2010.06.03 11:33:40.
