data_PCOD9021782
_publ_section_title
;
Structure prediction by ZEFSAII (Michael W. Deem and Ramdas Pophale) SiO2 
 PCOD9021782
Probable space group: P -1
;
_chemical_formula_sum "Si O2"
_cell_formula_units_Z 16
_cell_length_a 13.430858
_cell_length_b 11.232683
_cell_length_c 8.132289
_cell_angle_alpha 99.089204
_cell_angle_beta 144.748280
_cell_angle_gamma 91.676350
_cell_volume 671.724902
_symmetry_space_group_name_H-M "P -1"
_symmetry_group_IT_number 2
_symmetry_cell_setting 'triclinic'
loop_
_space_group_symop_operation_xyz
x,y,z
-x,-y,-z
loop_
_atom_site_type_symbol
_atom_site_label
_atom_site_fract_x
_atom_site_fract_y
_atom_site_fract_z
Si Si1 0.919595 0.504535 0.715606
Si Si2 0.129023 0.057759 0.840241
Si Si3 0.389155 0.666420 0.896308
Si Si4 0.759424 0.721999 0.524634
Si Si5 0.596677 0.687240 0.668372
Si Si6 0.724418 0.468402 0.950314
Si Si7 0.225981 0.003496 0.499420
Si Si8 0.605072 0.049799 0.943352
O O1 0.731588 0.398410 0.430117
O O2 0.897426 0.641153 0.677190
O O3 0.000000 0.500000 0.000000
O O4 0.066242 0.478902 0.786991
O O5 0.252313 0.961726 0.006731
O O6 0.288380 0.185352 0.065165
O O7 0.000000 0.000000 0.500000
O O8 0.979100 0.081379 0.770710
O O9 0.380662 0.806271 0.959136
O O10 0.594907 0.668541 0.165603
O O11 0.308348 0.578061 0.920356
O O12 0.678768 0.696330 0.595012
O O13 0.811921 0.867944 0.583931
O O14 0.636093 0.576529 0.802440
O O15 0.383678 0.649878 0.335718
O O16 0.324854 0.008293 0.812001
O O17 0.392362 0.985867 0.609668
#
# Coordination Sequence:
#
# PCOD9021782 Si02
#       8
#     2   2   2   2   2   2   2   2
#     4  12  24  40  65 104 130 173 224 276 337 400
#     4  10  22  38  65  94 127 174 222 270 332 398
#     4  10  23  42  69  92 138 173 221 279 325 411
#     4  10  22  43  64  95 135 171 220 273 342 391
#     4  10  22  45  63  93 136 170 223 282 326 399
#     4  10  23  43  66  92 132 181 215 275 340 389
#     4   9  20  39  62  89 129 168 214 273 326 388
#     4   9  20  41  62  98 127 168 227 268 331 395
#
# _framework density 23.819275000000001
#
# number of rings (size 3 to 8) (size 9 to 14) (size 15 to 20)
#    0.000    2.000    1.250    0.750    5.250    2.500 
#   13.500    5.625    0.000    0.000    0.000    0.000 
#    0.000    0.000    0.000    0.000    0.000    0.000 
#
# Total GULP energy -89213.498860 kJ/mol
# GULP energy per Si atom -5575.843679 kJ/mol
# Density = 2.376506 g / cm^3
# Si number density = 23.819275 Si / 1000 Ang^3
#
#
#
# Elastic Constant Matrix: (Units=GPa)
#
#
# Indices 1 2 3 4 5 6 
#
# 1 29.6008 10.3622 12.1173 -15.2309 5.8672 -0.8670
# 2 10.3622 82.7137 32.3221 -11.8863 -6.1450 2.8657
# 3 12.1173 32.3221 130.3947 -2.2048 1.2735 -8.3292
# 4 -15.2309 -11.8863 -2.2048 35.4541 -7.9022 9.3040
# 5 5.8672 -6.1450 1.2735 -7.9022 38.6473 -10.9080
# 6 -0.8670 2.8657 -8.3292 9.3040 -10.9080 28.6143
#
#
#
# Elastic Compliance Matrix: (Units=1/GPa)
#
#
# Indices 1 2 3 4 5 6 
#
# 1 0.047458 -0.001459 -0.004184 0.020632 -0.005458 -0.008423
# 2 -0.001459 0.014861 -0.003694 0.005651 0.002921 -0.003332
# 3 -0.004184 -0.003694 0.009176 -0.003505 0.000194 0.004128
# 4 0.020632 0.005651 -0.003505 0.043006 0.002753 -0.013895
# 5 -0.005458 0.002921 0.000194 0.002753 0.030657 0.010390
# 6 -0.008423 -0.003332 0.004128 -0.013895 0.010390 0.044706
#
#
# Mechanical properties :
#
#
# Convention : Reuss Voigt Hill
#
# Bulk Modulus (GPa) = 18.93218 39.14581 29.03900
# Shear Modulus (GPa) = 22.10973 33.07031 27.59002
#
# Velocity S-wave (km/s) = 3.04999 3.73015 3.40708
# Velocity P-wave (km/s) = 4.51318 5.91795 5.26265
#
# Compressibility (1/GPa) = 0.05282011
#
# Stress axis : x y z
#
# Youngs Moduli (GPa) = 21.07136 67.29173 108.97982
#
# Poissons Ratio (x) = 0.09817 0.45601
# Poissons Ratio (y) = 0.03074 0.40256
# Poissons Ratio (z) = 0.08817 0.24857
#
# Static dielectric constant tensor:
#      x y z
#    x 2.078710 -0.031600 -0.079470 
#    y -0.031600 1.887820 0.058070 
#    z -0.079470 0.058070 2.021550 
# 
# From -- ./inp_files/307857.got.cif
#   From: 2010.05.17/outbox.cif.g08.bks.cpg/sg2_154_cif.got.tgz:307857.got - 2010.06.03 11:33:40.
