data_PCOD9021828
_publ_section_title
;
Structure prediction by ZEFSAII (Michael W. Deem and Ramdas Pophale) SiO2 
 PCOD9021828
Probable space group: P -1
;
_chemical_formula_sum "Si O2"
_cell_formula_units_Z 15
_cell_length_a 19.094695
_cell_length_b 4.938210
_cell_length_c 9.609439
_cell_angle_alpha 106.505310
_cell_angle_beta 139.579115
_cell_angle_gamma 85.695559
_cell_volume 548.579989
_symmetry_space_group_name_H-M "P -1"
_symmetry_group_IT_number 2
_symmetry_cell_setting 'triclinic'
loop_
_space_group_symop_operation_xyz
x,y,z
-x,-y,-z
loop_
_atom_site_type_symbol
_atom_site_label
_atom_site_fract_x
_atom_site_fract_y
_atom_site_fract_z
Si Si1 0.599087 0.757606 0.131335
Si Si2 0.500000 0.000000 0.500000
Si Si3 0.969011 0.953136 0.608419
Si Si4 0.157886 0.174177 0.153410
Si Si5 0.328362 0.454625 0.230579
Si Si6 0.219175 0.520209 0.784953
Si Si7 0.402103 0.994527 0.118778
Si Si8 0.810165 0.205006 0.601060
O O1 0.694218 0.593765 0.199764
O O2 0.679734 0.040963 0.366257
O O3 0.500000 0.500000 0.000000
O O4 0.555762 0.889840 0.946740
O O5 0.390131 0.786101 0.382258
O O6 0.533877 0.202815 0.727325
O O7 0.876671 0.105053 0.558922
O O8 0.904601 0.615051 0.464706
O O9 0.000000 0.000000 0.500000
O O10 0.070131 0.053319 0.881716
O O11 0.268111 0.319459 0.257097
O O12 0.149139 0.448975 0.275555
O O13 0.156076 0.916261 0.219422
O O14 0.411347 0.236390 0.291566
O O15 0.244641 0.443532 0.971381
O O16 0.271411 0.859516 0.899189
#
# Coordination Sequence:
#
# PCOD9021828 Si02
#       8
#     2   1   2   2   2   2   2   2
#     4  10  24  44  69 100 143 200 241 297 375 450
#     4  10  22  38  66 100 146 184 250 312 364 432
#     4  11  23  49  79 106 141 199 251 307 375 447
#     4  12  27  49  74 109 153 193 246 312 384 437
#     4  10  22  40  67 101 141 191 237 306 371 440
#     4   9  21  43  67 103 136 179 251 304 354 442
#     4  10  22  41  69 101 142 181 256 306 366 442
#     4  11  29  49  73 110 156 189 247 315 374 449
#
# _framework density 27.343323000000002
#
# number of rings (size 3 to 8) (size 9 to 14) (size 15 to 20)
#    0.000    1.600    1.333    1.200    9.333    3.733 
#    4.800    3.333    0.000    0.000    0.000    0.000 
#    0.000    0.000    0.000    0.000    0.000    0.000 
#
# Total GULP energy -83747.837207 kJ/mol
# GULP energy per Si atom -5583.189147 kJ/mol
# Density = 2.728109 g / cm^3
# Si number density = 27.343323 Si / 1000 Ang^3
#
#
#
# Elastic Constant Matrix: (Units=GPa)
#
#
# Indices 1 2 3 4 5 6 
#
# 1 125.0791 16.4427 47.2394 -12.4722 -5.3645 31.5547
# 2 16.4427 66.9299 32.0933 -10.0633 6.4739 29.2214
# 3 47.2394 32.0933 204.9791 0.6767 10.2299 20.7604
# 4 -12.4722 -10.0633 0.6767 46.6766 15.6111 -8.1788
# 5 -5.3645 6.4739 10.2299 15.6111 37.3615 4.6298
# 6 31.5547 29.2214 20.7604 -8.1788 4.6298 46.2567
#
#
#
# Elastic Compliance Matrix: (Units=1/GPa)
#
#
# Indices 1 2 3 4 5 6 
#
# 1 0.010630 0.001528 -0.002065 0.001169 0.002244 -0.007308
# 2 0.001528 0.022299 -0.002383 0.003979 -0.003037 -0.013052
# 3 -0.002065 -0.002383 0.005757 -0.000685 -0.001215 0.000331
# 4 0.001169 0.003979 -0.000685 0.027163 -0.012057 0.003006
# 5 0.002244 -0.003037 -0.001215 -0.012057 0.033549 -0.004557
# 6 -0.007308 -0.013052 0.000331 0.003006 -0.004557 0.035688
#
#
# Mechanical properties :
#
#
# Convention : Reuss Voigt Hill
#
# Bulk Modulus (GPa) = 30.44502 65.39321 47.91912
# Shear Modulus (GPa) = 32.92185 46.13983 39.53084
#
# Velocity S-wave (km/s) = 3.47366 4.11229 3.80639
# Velocity P-wave (km/s) = 5.21986 6.82022 6.07299
#
# Compressibility (1/GPa) = 0.03284610
#
# Stress axis : x y z
#
# Youngs Moduli (GPa) = 94.07007 44.84550 173.70480
#
# Poissons Ratio (x) = -0.06852 0.35866
# Poissons Ratio (y) = -0.14372 0.41395
# Poissons Ratio (z) = 0.19423 0.10687
#
# Static dielectric constant tensor:
#      x y z
#    x 2.185940 0.105050 -0.147650 
#    y 0.105050 0.027980 1.498460 
#    z -0.147650 1.498460 1.209350 
# 
# From -- ./inp_files/339486.got.cif
#   From: 2010.05.17/outbox.cif.g08.bks.cpg/sg2_170_cif.got.tgz:339486.got - 2010.06.03 11:33:40.
