data_PCOD9021770
_publ_section_title
;
Structure prediction by ZEFSAII (Michael W. Deem and Ramdas Pophale) SiO2 
 PCOD9021770
Probable space group: P -1
;
_chemical_formula_sum "Si O2"
_cell_formula_units_Z 16
_cell_length_a 14.396221
_cell_length_b 4.880037
_cell_length_c 10.245883
_cell_angle_alpha 77.917423
_cell_angle_beta 119.551057
_cell_angle_gamma 94.380075
_cell_volume 612.001930
_symmetry_space_group_name_H-M "P -1"
_symmetry_group_IT_number 2
_symmetry_cell_setting 'triclinic'
loop_
_space_group_symop_operation_xyz
x,y,z
-x,-y,-z
loop_
_atom_site_type_symbol
_atom_site_label
_atom_site_fract_x
_atom_site_fract_y
_atom_site_fract_z
Si Si1 0.934435 0.699164 0.837905
Si Si2 0.581737 0.594178 0.159476
Si Si3 0.137981 0.729505 0.814466
Si Si4 0.560900 0.657841 0.720746
Si Si5 0.725512 0.831508 0.036875
Si Si6 0.232809 0.873403 0.609027
Si Si7 0.190389 0.770388 0.309299
Si Si8 0.375337 0.109078 0.500956
O O1 0.833817 0.523228 0.740437
O O2 0.016870 0.744037 0.773609
O O3 0.889872 0.993781 0.830492
O O4 0.000000 0.500000 0.000000
O O5 0.506254 0.591069 0.235831
O O6 0.644760 0.839948 0.105695
O O7 0.673615 0.355524 0.269889
O O8 0.500000 0.500000 0.000000
O O9 0.214906 0.877844 0.958234
O O10 0.159114 0.900821 0.680028
O O11 0.183199 0.412928 0.859046
O O12 0.655573 0.738283 0.875408
O O13 0.478177 0.923422 0.630914
O O14 0.599038 0.634892 0.600245
O O15 0.297688 0.137080 0.570699
O O16 0.167462 0.766455 0.449769
O O17 0.306145 0.902289 0.381449
#
# Coordination Sequence:
#
# PCOD9021770 Si02
#       8
#     2   2   2   2   2   2   2   2
#     4  12  27  44  68  95 124 165 219 265 329 377
#     4   8  15  33  58  94 127 167 203 253 299 371
#     4  11  24  41  64  94 125 169 211 265 312 379
#     4   9  16  35  66  94 128 169 212 249 318 381
#     4  10  22  38  65  93 133 165 208 259 314 370
#     4   8  19  38  60  93 129 164 211 254 316 370
#     4  10  24  44  68  92 131 167 204 276 312 376
#     4   8  18  37  63  95 128 166 209 260 311 380
#
# _framework density 26.143708
#
# number of rings (size 3 to 8) (size 9 to 14) (size 15 to 20)
#    0.750    1.750    0.000    1.125    3.500    3.000 
#    0.000   23.750    0.000    5.250    0.000    0.000 
#    0.000    0.000    0.000    0.000    0.000    0.000 
#
# Total GULP energy -89479.567079 kJ/mol
# GULP energy per Si atom -5592.472942 kJ/mol
# Density = 2.608420 g / cm^3
# Si number density = 26.143708 Si / 1000 Ang^3
#
#
#
# Elastic Constant Matrix: (Units=GPa)
#
#
# Indices 1 2 3 4 5 6 
#
# 1 130.4621 33.7347 7.8933 -4.1563 -24.3982 9.0256
# 2 33.7347 99.6919 18.1916 9.3476 8.9921 2.5919
# 3 7.8933 18.1916 85.6674 -21.4820 -1.6162 1.5207
# 4 -4.1563 9.3476 -21.4820 26.9461 6.3031 11.0944
# 5 -24.3982 8.9921 -1.6162 6.3031 45.2991 -0.5000
# 6 9.0256 2.5919 1.5207 11.0944 -0.5000 27.6556
#
#
#
# Elastic Compliance Matrix: (Units=1/GPa)
#
#
# Indices 1 2 3 4 5 6 
#
# 1 0.010370 -0.004659 0.001515 0.005117 0.005797 -0.004979
# 2 -0.004659 0.013841 -0.005404 -0.010908 -0.003878 0.004826
# 3 0.001515 -0.005404 0.017904 0.020214 -0.000386 -0.009088
# 4 0.005117 -0.010908 0.020214 0.071442 -0.004635 -0.030503
# 5 0.005797 -0.003878 -0.000386 -0.004635 0.026608 0.000833
# 6 -0.004979 0.004826 -0.009088 -0.030503 0.000833 0.050083
#
#
# Mechanical properties :
#
#
# Convention : Reuss Voigt Hill
#
# Bulk Modulus (GPa) = 39.97055 48.38454 44.17754
# Shear Modulus (GPa) = 23.18226 37.04694 30.11460
#
# Velocity S-wave (km/s) = 2.98102 3.76846 3.39763
# Velocity P-wave (km/s) = 5.21255 6.12228 5.68564
#
# Compressibility (1/GPa) = 0.02501842
#
# Stress axis : x y z
#
# Youngs Moduli (GPa) = 96.43582 72.25161 55.85385
#
# Poissons Ratio (x) = 0.33659 -0.08460
# Poissons Ratio (y) = 0.44925 0.30183
# Poissons Ratio (z) = -0.14607 0.39044
#
# Static dielectric constant tensor:
#      x y z
#    x 2.083530 0.042990 -0.062820 
#    y 0.042990 1.991620 0.027320 
#    z -0.062820 0.027320 2.093390 
# 
# From -- ./inp_files/467908.got.cif
#   From: 2010.05.17/outbox.cif.g08.bks.cpg/sg2_234_cif.got.tgz:467908.got - 2010.06.03 11:33:40.
