data_PCOD9021773
_publ_section_title
;
Structure prediction by ZEFSAII (Michael W. Deem and Ramdas Pophale) SiO2 
 PCOD9021773
Probable space group: P -1
;
_chemical_formula_sum "Si O2"
_cell_formula_units_Z 13
_cell_length_a 8.264634
_cell_length_b 5.212859
_cell_length_c 13.315494
_cell_angle_alpha 88.499811
_cell_angle_beta 60.267338
_cell_angle_gamma 92.621024
_cell_volume 496.828561
_symmetry_space_group_name_H-M "P -1"
_symmetry_group_IT_number 2
_symmetry_cell_setting 'triclinic'
loop_
_space_group_symop_operation_xyz
x,y,z
-x,-y,-z
loop_
_atom_site_type_symbol
_atom_site_label
_atom_site_fract_x
_atom_site_fract_y
_atom_site_fract_z
Si Si1 0.856395 0.671234 0.395773
Si Si2 0.500000 0.000000 0.000000
Si Si3 0.215958 0.074182 0.957984
Si Si4 0.801245 0.421842 0.114948
Si Si5 0.703379 0.181464 0.351321
Si Si6 0.279573 0.682663 0.240818
Si Si7 0.310894 0.183036 0.363359
O O1 0.742527 0.396087 0.422012
O O2 0.856572 0.753173 0.511397
O O3 0.059218 0.644903 0.287161
O O4 0.764337 0.903282 0.364346
O O5 0.708994 0.868450 0.955643
O O6 0.401151 0.785760 0.108688
O O7 0.282154 0.302192 0.860667
O O8 0.309890 0.802510 0.913563
O O9 0.000000 0.000000 0.000000
O O10 0.818161 0.294889 0.218204
O O11 0.000000 0.500000 0.000000
O O12 0.491768 0.177460 0.379042
O O13 0.335158 0.417686 0.275641
O O14 0.291621 0.914881 0.315296
#
# Coordination Sequence:
#
# PCOD9021773 Si02
#       7
#     2   1   2   2   2   2   2
#     4  12  26  45  74 108 139 191 246 302 357 431
#     4  12  28  46  74 110 146 188 250 282 376 442
#     4  10  23  42  64  95 139 187 224 290 335 431
#     4  10  22  38  65  93 142 178 224 277 360 419
#     4  12  24  42  74 109 138 187 247 300 359 430
#     4  12  28  46  74 104 148 191 236 304 362 441
#     4  12  25  51  71 103 147 192 242 299 368 424
#
# _framework density 26.165969
#
# number of rings (size 3 to 8) (size 9 to 14) (size 15 to 20)
#    0.000    0.615    0.000    7.385    8.615    2.462 
#    0.000    0.000    0.000    0.000    0.000    0.000 
#    0.000    0.000    0.000    0.000    0.000    0.000 
#
# Total GULP energy -72560.750753 kJ/mol
# GULP energy per Si atom -5581.596212 kJ/mol
# Density = 2.610641 g / cm^3
# Si number density = 26.165969 Si / 1000 Ang^3
#
#
#
# Elastic Constant Matrix: (Units=GPa)
#
#
# Indices 1 2 3 4 5 6 
#
# 1 114.7829 5.2646 4.6014 -20.4446 -22.0012 -22.3101
# 2 5.2646 112.2976 -39.6238 -13.5135 -1.9884 -1.9300
# 3 4.6014 -39.6238 83.1341 -16.7028 -6.8856 -8.0062
# 4 -20.4446 -13.5135 -16.7028 42.1301 -1.1454 11.7033
# 5 -22.0012 -1.9884 -6.8856 -1.1454 39.0924 -3.6899
# 6 -22.3101 -1.9300 -8.0062 11.7033 -3.6899 39.3468
#
#
#
# Elastic Compliance Matrix: (Units=1/GPa)
#
#
# Indices 1 2 3 4 5 6 
#
# 1 0.012476 0.001205 0.002370 0.005749 0.008299 0.006683
# 2 0.001205 0.012563 0.007769 0.007519 0.002993 0.000925
# 3 0.002370 0.007769 0.018407 0.010275 0.005549 0.002934
# 4 0.005749 0.007519 0.010275 0.034260 0.006063 -0.003902
# 5 0.008299 0.002993 0.005549 0.006063 0.032238 0.007202
# 6 0.006683 0.000925 0.002934 -0.003902 0.007202 0.031683
#
#
# Mechanical properties :
#
#
# Convention : Reuss Voigt Hill
#
# Bulk Modulus (GPa) = 15.12075 27.85543 21.48809
# Shear Modulus (GPa) = 35.46481 46.77869 41.12175
#
# Velocity S-wave (km/s) = 3.68554 4.23279 3.96861
# Velocity P-wave (km/s) = 4.88900 5.87856 5.40646
#
# Compressibility (1/GPa) = 0.06613429
#
# Stress axis : x y z
#
# Youngs Moduli (GPa) = 80.15585 79.59629 54.32665
#
# Poissons Ratio (x) = -0.09592 -0.12875
# Poissons Ratio (y) = -0.09659 -0.42206
# Poissons Ratio (z) = -0.18997 -0.61838
#
# Static dielectric constant tensor:
#      x y z
#    x 0.950920 0.378760 0.478900 
#    y 0.378760 1.985890 -0.246010 
#    z 0.478900 -0.246010 1.374720 
# 
# From -- ./inp_files/486971.got.cif
#   From: 2010.05.17/outbox.cif.g08.bks.cpg/sg2_244_cif.got.tgz:486971.got - 2010.06.03 11:33:40.
