data_PCOD9021255
_publ_section_title
;
Structure prediction by ZEFSAII (Michael W. Deem and Ramdas Pophale) SiO2 
 PCOD9021255
Probable space group: P -1
;
_chemical_formula_sum "Si O2"
_cell_formula_units_Z 12
_cell_length_a 19.417415
_cell_length_b 6.242803
_cell_length_c 7.081126
_cell_angle_alpha 70.942594
_cell_angle_beta 133.326587
_cell_angle_gamma 89.505499
_cell_volume 555.381825
_symmetry_space_group_name_H-M "P -1"
_symmetry_group_IT_number 2
_symmetry_cell_setting 'triclinic'
loop_
_space_group_symop_operation_xyz
x,y,z
-x,-y,-z
loop_
_atom_site_type_symbol
_atom_site_label
_atom_site_fract_x
_atom_site_fract_y
_atom_site_fract_z
Si Si1 0.924899 0.227726 0.404065
Si Si2 0.595299 0.083863 0.614438
Si Si3 0.466984 0.399781 0.777408
Si Si4 0.647857 0.944170 0.319852
Si Si5 0.785901 0.944023 0.271020
Si Si6 0.016616 0.508867 0.251439
O O1 0.967147 0.264741 0.678767
O O2 0.929196 0.449340 0.220089
O O3 0.821992 0.173184 0.245205
O O4 0.000000 0.000000 0.500000
O O5 0.562229 0.374120 0.481212
O O6 0.500000 0.000000 0.500000
O O7 0.633129 0.012109 0.491864
O O8 0.560841 0.157294 0.983185
O O9 0.375787 0.302421 0.674231
O O10 0.310123 0.038362 0.039951
O O11 0.500000 0.500000 0.000000
O O12 0.752343 0.928392 0.427861
O O13 0.878311 0.709129 0.457203
O O14 0.000000 0.500000 0.000000
#
# Coordination Sequence:
#
# PCOD9021255 Si02
#       6
#     2   2   2   2   2   2
#     4   9  22  43  65  93 126 162 212 269 329 395
#     4  11  24  40  61  91 131 174 216 265 317 379
#     4   9  19  38  58  80 119 166 212 261 311 366
#     4  10  22  38  59  88 122 165 217 265 318 377
#     4  11  24  38  61  96 126 164 217 265 323 391
#     4  10  23  43  67  93 128 168 211 270 334 393
#
# _framework density 21.606755
#
# number of rings (size 3 to 8) (size 9 to 14) (size 15 to 20)
#    0.000    2.000    0.000    3.000    0.000   17.333 
#    0.000    0.000    0.000    0.000    0.000    0.000 
#    0.000    0.000    0.000    0.000    0.000    0.000 
#
# Total GULP energy -66981.685346 kJ/mol
# GULP energy per Si atom -5581.807112 kJ/mol
# Density = 2.155758 g / cm^3
# Si number density = 21.606755 Si / 1000 Ang^3
#
#
#
# Elastic Constant Matrix: (Units=GPa)
#
#
# Indices 1 2 3 4 5 6 
#
# 1 152.2841 46.7084 32.2447 16.2369 -15.8557 21.0251
# 2 46.7084 106.0814 37.3049 10.9216 -0.1383 15.4364
# 3 32.2447 37.3049 106.1679 18.4131 -5.9024 -2.3387
# 4 16.2369 10.9216 18.4131 40.7493 -4.5678 -3.3002
# 5 -15.8557 -0.1383 -5.9024 -4.5678 29.3433 9.7058
# 6 21.0251 15.4364 -2.3387 -3.3002 9.7058 32.9335
#
#
#
# Elastic Compliance Matrix: (Units=1/GPa)
#
#
# Indices 1 2 3 4 5 6 
#
# 1 0.009605 -0.002393 -0.001444 -0.002351 0.006971 -0.007403
# 2 -0.002393 0.012531 -0.003601 -0.001218 -0.000649 -0.004532
# 3 -0.001444 -0.003601 0.011806 -0.003543 0.000003 0.003092
# 4 -0.002351 -0.001218 -0.003543 0.027859 0.000911 0.004344
# 5 0.006971 -0.000649 0.000003 0.000911 0.043574 -0.016896
# 6 -0.007403 -0.004532 0.003092 0.004344 -0.016896 0.042849
#
#
# Mechanical properties :
#
#
# Convention : Reuss Voigt Hill
#
# Bulk Modulus (GPa) = 52.45060 66.33884 59.39472
# Shear Modulus (GPa) = 29.50648 37.15689 33.33169
#
# Velocity S-wave (km/s) = 3.69943 4.15141 3.93192
# Velocity P-wave (km/s) = 6.52499 7.33133 6.93988
#
# Compressibility (1/GPa) = 0.01906556
#
# Stress axis : x y z
#
# Youngs Moduli (GPa) = 104.11242 79.80413 84.70465
#
# Poissons Ratio (x) = 0.19096 0.12232
# Poissons Ratio (y) = 0.24913 0.30502
# Poissons Ratio (z) = 0.15034 0.28737
#
# Static dielectric constant tensor:
#      x y z
#    x 1.812900 -0.004130 -0.036600 
#    y -0.004130 1.817260 -0.016830 
#    z -0.036600 -0.016830 1.828810 
# 
# From -- ./inp_files/102438.got.cif
#   From: 2010.05.17/outbox.cif.g08.bks.cpg/sg2_52_cif.got.tgz:102438.got - 2010.06.03 11:33:40.
