data_PCOD9021969
_publ_section_title
;
Structure prediction by ZEFSAII (Michael W. Deem and Ramdas Pophale) SiO2 
 PCOD9021969
Probable space group: P -1
;
_chemical_formula_sum "Si O2"
_cell_formula_units_Z 12
_cell_length_a 15.605426
_cell_length_b 23.364326
_cell_length_c 5.398849
_cell_angle_alpha 52.426114
_cell_angle_beta 63.263995
_cell_angle_gamma 19.009540
_cell_volume 442.825932
_symmetry_space_group_name_H-M "P -1"
_symmetry_group_IT_number 2
_symmetry_cell_setting 'triclinic'
loop_
_space_group_symop_operation_xyz
x,y,z
-x,-y,-z
loop_
_atom_site_type_symbol
_atom_site_label
_atom_site_fract_x
_atom_site_fract_y
_atom_site_fract_z
Si Si1 0.771881 0.730450 0.713261
Si Si2 0.033391 0.596743 0.233772
Si Si3 0.581471 0.129220 0.959805
Si Si4 0.959840 0.151250 0.257027
Si Si5 0.321074 0.801235 0.023160
Si Si6 0.335500 0.529255 0.881306
O O1 0.817287 0.741474 0.371629
O O2 0.465039 0.907455 0.712151
O O3 0.000000 0.500000 0.000000
O O4 0.867184 0.705211 0.901900
O O5 0.290709 0.349922 0.576344
O O6 0.192754 0.560934 0.111572
O O7 0.571775 0.209559 0.921072
O O8 0.887181 0.907928 0.990537
O O9 0.882483 0.249339 0.349792
O O10 0.657437 0.327058 0.103777
O O11 0.225204 0.905218 0.613225
O O12 0.568815 0.564075 0.272166
O O13 0.000000 0.000000 0.000000
#
# Coordination Sequence:
#
# PCOD9021969 Si02
#       6
#     2   2   2   2   2   2
#     4  10  22  38  68 102 132 181 232 279 339 401
#     4  11  22  41  69  99 135 184 227 280 339 409
#     4  11  22  41  67  98 135 173 231 279 336 410
#     4  11  25  42  65 102 134 174 224 285 343 402
#     4  12  23  41  68  99 131 181 222 276 343 411
#     4  11  23  45  65  98 139 172 227 281 343 404
#
# _framework density 27.098686000000001
#
# number of rings (size 3 to 8) (size 9 to 14) (size 15 to 20)
#    0.000    1.000    3.333    5.500    2.333    0.667 
#    6.000    1.667    0.000    0.000    0.000    0.000 
#    0.000    0.000    0.000    0.000    0.000    0.000 
#
# Total GULP energy -67249.776543 kJ/mol
# GULP energy per Si atom -5604.148045 kJ/mol
# Density = 2.703701 g / cm^3
# Si number density = 27.098686 Si / 1000 Ang^3
#
#
#
# Elastic Constant Matrix: (Units=GPa)
#
#
# Indices 1 2 3 4 5 6 
#
# 1 145.4523 96.2004 35.4075 4.4706 11.6677 5.6450
# 2 96.2004 180.1681 58.8401 50.1141 -8.0519 -8.0528
# 3 35.4075 58.8401 71.9192 2.5198 3.4860 0.8752
# 4 4.4706 50.1141 2.5198 52.0993 3.8976 -13.2010
# 5 11.6677 -8.0519 3.4860 3.8976 39.9012 1.9545
# 6 5.6450 -8.0528 0.8752 -13.2010 1.9545 57.3638
#
#
#
# Elastic Compliance Matrix: (Units=1/GPa)
#
#
# Indices 1 2 3 4 5 6 
#
# 1 0.014369 -0.011800 0.002597 0.010466 -0.007811 -0.000436
# 2 -0.011800 0.021885 -0.011901 -0.020449 0.010937 -0.000664
# 3 0.002597 -0.011901 0.022281 0.010713 -0.006174 0.000409
# 4 0.010466 -0.020449 0.010713 0.039761 -0.012276 0.005504
# 5 -0.007811 0.010937 -0.006174 -0.012276 0.031365 -0.001496
# 6 -0.000436 -0.000664 0.000409 0.005504 -0.001496 0.018694
#
#
# Mechanical properties :
#
#
# Convention : Reuss Voigt Hill
#
# Bulk Modulus (GPa) = 61.24635 86.49284 73.86959
# Shear Modulus (GPa) = 25.50949 43.67897 34.59423
#
# Velocity S-wave (km/s) = 3.07148 4.01914 3.57683
# Velocity P-wave (km/s) = 5.93540 7.31608 6.66160
#
# Compressibility (1/GPa) = 0.01632750
#
# Stress axis : x y z
#
# Youngs Moduli (GPa) = 69.59294 45.69363 44.88053
#
# Poissons Ratio (x) = 0.53920 -0.11657
# Poissons Ratio (y) = 0.82122 0.53412
# Poissons Ratio (z) = -0.18075 0.54380
#
# Static dielectric constant tensor:
#      x y z
#    x 2.066190 -0.034970 0.045560 
#    y -0.034970 2.149600 0.053310 
#    z 0.045560 0.053310 2.184150 
# 
# From -- ./inp_files/33332.got.cif
#   From: 2010.05.17/outbox.cif.g08.bks.cpg/sg2_17_cif.got.tgz:33332.got - 2010.06.03 11:33:40.
