data_PCOD9021540
_publ_section_title
;
Structure prediction by ZEFSAII (Michael W. Deem and Ramdas Pophale) SiO2 
 PCOD9021540
Probable space group: P -1
;
_chemical_formula_sum "Si O2"
_cell_formula_units_Z 15
_cell_length_a 8.299004
_cell_length_b 15.136634
_cell_length_c 19.199440
_cell_angle_alpha 156.472306
_cell_angle_beta 47.796950
_cell_angle_gamma 131.741154
_cell_volume 702.987943
_symmetry_space_group_name_H-M "P -1"
_symmetry_group_IT_number 2
_symmetry_cell_setting 'triclinic'
loop_
_space_group_symop_operation_xyz
x,y,z
-x,-y,-z
loop_
_atom_site_type_symbol
_atom_site_label
_atom_site_fract_x
_atom_site_fract_y
_atom_site_fract_z
Si Si1 0.500000 0.000000 0.500000
Si Si2 0.009597 0.928022 0.765896
Si Si3 0.250945 0.676807 0.401742
Si Si4 0.565014 0.765038 0.170016
Si Si5 0.675478 0.153836 0.938830
Si Si6 0.821864 0.815362 0.883468
Si Si7 0.795873 0.022919 0.656448
Si Si8 0.749575 0.690943 0.314740
O O1 0.256728 0.814110 0.429029
O O2 0.608579 0.862533 0.305550
O O3 0.917404 0.790369 0.760902
O O4 0.103303 0.763350 0.565714
O O5 0.815885 0.042749 0.873331
O O6 0.217399 0.129551 0.861236
O O7 0.209595 0.412709 0.227818
O O8 0.523443 0.755587 0.392011
O O9 0.365791 0.857175 0.257448
O O10 0.500000 0.500000 0.000000
O O11 0.723514 0.046979 0.773746
O O12 0.415780 0.110761 0.998501
O O13 0.741969 0.426245 0.116318
O O14 0.000000 0.000000 0.000000
O O15 0.038256 0.164847 0.677616
O O16 0.760990 0.775198 0.452471
#
# Coordination Sequence:
#
# PCOD9021540 Si02
#       8
#     1   2   2   2   2   2   2   2
#     4  10  22  38  62  98 130 160 214 256 342 362
#     4  11  23  45  64  97 129 174 223 268 336 386
#     4  10  23  42  70  93 137 173 211 280 329 397
#     4  11  24  36  66  98 135 168 219 275 318 401
#     4  11  25  42  67  92 134 171 220 278 327 388
#     4  11  25  45  70  93 127 180 227 270 330 394
#     4  11  22  39  63  98 133 175 223 257 337 398
#     4  10  22  39  63  95 135 178 205 270 330 400
#
# _framework density 21.337492000000001
#
# number of rings (size 3 to 8) (size 9 to 14) (size 15 to 20)
#    0.000    1.333    2.667    2.800    9.333    0.000 
#    2.400    0.667    0.000    0.000    0.000    0.000 
#    0.000    0.000    0.000    0.000    0.000    0.000 
#
# Total GULP energy -83609.263007 kJ/mol
# GULP energy per Si atom -5573.950867 kJ/mol
# Density = 2.128893 g / cm^3
# Si number density = 21.337492 Si / 1000 Ang^3
#
#
#
# Elastic Constant Matrix: (Units=GPa)
#
#
# Indices 1 2 3 4 5 6 
#
# 1 70.9749 29.6814 19.4711 13.4682 -13.3264 18.1937
# 2 29.6814 133.5648 36.5565 -7.4544 -0.8036 15.1161
# 3 19.4711 36.5565 74.0563 -4.6121 2.9263 1.6196
# 4 13.4682 -7.4544 -4.6121 39.0648 -5.2017 2.6439
# 5 -13.3264 -0.8036 2.9263 -5.2017 27.3146 -6.0336
# 6 18.1937 15.1161 1.6196 2.6439 -6.0336 38.9325
#
#
#
# Elastic Compliance Matrix: (Units=1/GPa)
#
#
# Indices 1 2 3 4 5 6 
#
# 1 0.021176 -0.002986 -0.004687 -0.006906 0.007919 -0.006845
# 2 -0.002986 0.009576 -0.003700 0.002473 -0.000853 -0.002469
# 3 -0.004687 -0.003700 0.016784 0.002305 -0.003254 0.002268
# 4 -0.006906 0.002473 0.002305 0.028966 0.002089 0.000528
# 5 0.007919 -0.000853 -0.003254 0.002089 0.041883 0.003115
# 6 -0.006845 -0.002469 0.002268 0.000528 0.003115 0.030195
#
#
# Mechanical properties :
#
#
# Convention : Reuss Voigt Hill
#
# Bulk Modulus (GPa) = 40.33863 50.00156 45.17009
# Shear Modulus (GPa) = 27.84112 33.92152 30.88132
#
# Velocity S-wave (km/s) = 3.61612 3.99151 3.80844
# Velocity P-wave (km/s) = 6.03168 6.68785 6.36822
#
# Compressibility (1/GPa) = 0.02479013
#
# Stress axis : x y z
#
# Youngs Moduli (GPa) = 47.22288 104.43261 59.57894
#
# Poissons Ratio (x) = 0.31185 0.27924
# Poissons Ratio (y) = 0.14101 0.22044
# Poissons Ratio (z) = 0.22133 0.38639
#
# Static dielectric constant tensor:
#      x y z
#    x 1.415100 0.331360 0.128810 
#    y 0.331360 1.498780 -0.107960 
#    z 0.128810 -0.107960 1.780410 
# 
# From -- ./inp_files/277824.got.cif
#   From: 2010.05.17/outbox.cif.g08.bks.cpg/sg2_139_cif.got.tgz:277824.got - 2010.06.03 11:33:40.
