data_PCOD9021569
_publ_section_title
;
Structure prediction by ZEFSAII (Michael W. Deem and Ramdas Pophale) SiO2 
 PCOD9021569
Probable space group: P -1
;
_chemical_formula_sum "Si O2"
_cell_formula_units_Z 16
_cell_length_a 16.836478
_cell_length_b 14.983660
_cell_length_c 5.528662
_cell_angle_alpha 111.689053
_cell_angle_beta 72.155332
_cell_angle_gamma 143.391169
_cell_volume 772.738448
_symmetry_space_group_name_H-M "P -1"
_symmetry_group_IT_number 2
_symmetry_cell_setting 'triclinic'
loop_
_space_group_symop_operation_xyz
x,y,z
-x,-y,-z
loop_
_atom_site_type_symbol
_atom_site_label
_atom_site_fract_x
_atom_site_fract_y
_atom_site_fract_z
Si Si1 0.050567 0.939009 0.845262
Si Si2 0.009922 0.449495 0.190242
Si Si3 0.545463 0.778631 0.153302
Si Si4 0.790589 0.627899 0.583734
Si Si5 0.607853 0.644462 0.718296
Si Si6 0.258374 0.531754 0.031529
Si Si7 0.176336 0.897912 0.006492
Si Si8 0.709410 0.889223 0.506807
O O1 0.072628 0.885506 0.993115
O O2 0.945118 0.797388 0.618777
O O3 0.198732 0.078726 0.743008
O O4 0.000000 0.000000 0.000000
O O5 0.891567 0.264589 0.127853
O O6 0.000000 0.500000 0.500000
O O7 0.000000 0.500000 0.000000
O O8 0.149682 0.517993 0.112937
O O9 0.569696 0.798745 0.438564
O O10 0.678940 0.952174 0.103870
O O11 0.541376 0.659894 0.980089
O O12 0.412337 0.701649 0.088414
O O13 0.701629 0.643461 0.714928
O O14 0.757296 0.545486 0.277888
O O15 0.767462 0.546760 0.769014
O O16 0.500000 0.500000 0.500000
O O17 0.692126 0.795190 0.632989
O O18 0.208812 0.948034 0.304855
#
# Coordination Sequence:
#
# PCOD9021569 Si02
#       8
#     2   2   2   2   2   2   2   2
#     4  11  23  37  61  98 138 190 232 278 334 412
#     4  12  28  51  79 103 132 175 233 303 374 416
#     4  10  23  40  68  98 144 191 228 279 344 407
#     4  12  25  39  68  98 147 185 234 282 333 399
#     4  11  22  37  57  99 143 195 235 276 322 409
#     4  12  26  46  70 104 135 179 232 292 348 419
#     4  10  23  45  67  99 137 180 228 285 350 421
#     4  10  22  38  63  89 143 187 233 273 343 397
#
# _framework density 20.705583000000001
#
# number of rings (size 3 to 8) (size 9 to 14) (size 15 to 20)
#    0.000    1.000    2.500    4.500    8.750    2.000 
#    0.000    1.250    0.000    0.000    0.000    0.000 
#    0.000    0.000    0.000    0.000    0.000    0.000 
#
# Total GULP energy -89283.383568 kJ/mol
# GULP energy per Si atom -5580.211473 kJ/mol
# Density = 2.065846 g / cm^3
# Si number density = 20.705583 Si / 1000 Ang^3
#
#
#
# Elastic Constant Matrix: (Units=GPa)
#
#
# Indices 1 2 3 4 5 6 
#
# 1 139.0810 61.6640 58.0101 11.5159 16.8253 9.2679
# 2 61.6640 94.8388 45.7762 21.9280 -1.3089 7.0170
# 3 58.0101 45.7762 130.9745 19.7347 5.5601 -7.9808
# 4 11.5159 21.9280 19.7347 40.4169 1.0621 6.2088
# 5 16.8253 -1.3089 5.5601 1.0621 30.0464 1.7496
# 6 9.2679 7.0170 -7.9808 6.2088 1.7496 38.5831
#
#
#
# Elastic Compliance Matrix: (Units=1/GPa)
#
#
# Indices 1 2 3 4 5 6 
#
# 1 0.012405 -0.006930 -0.003305 0.002395 -0.006576 -0.002490
# 2 -0.006930 0.017943 -0.002541 -0.006458 0.005438 -0.001331
# 3 -0.003305 -0.002541 0.010788 -0.003564 -0.000368 0.004078
# 4 0.002395 -0.006458 -0.003564 0.030103 -0.001741 -0.004903
# 5 -0.006576 0.005438 -0.000368 -0.001741 0.037383 -0.000900
# 6 -0.002490 -0.001331 0.004078 -0.004903 -0.000900 0.028432
#
#
# Mechanical properties :
#
#
# Convention : Reuss Voigt Hill
#
# Bulk Modulus (GPa) = 64.17071 77.31056 70.74064
# Shear Modulus (GPa) = 29.79717 35.10555 32.45136
#
# Velocity S-wave (km/s) = 3.79765 4.12207 3.96318
# Velocity P-wave (km/s) = 7.09146 7.75076 7.42843
#
# Compressibility (1/GPa) = 0.01558343
#
# Stress axis : x y z
#
# Youngs Moduli (GPa) = 80.61560 55.73085 92.69420
#
# Poissons Ratio (x) = 0.38623 0.30639
# Poissons Ratio (y) = 0.55869 0.23551
# Poissons Ratio (z) = 0.26647 0.14160
#
# Static dielectric constant tensor:
#      x y z
#    x 1.745230 0.014680 0.040500 
#    y 0.014680 1.796810 -0.043820 
#    z 0.040500 -0.043820 1.891180 
# 
# From -- ./inp_files/98581.got.cif
#   From: 2010.05.17/outbox.cif.g08.bks.cpg/sg2_50_cif.got.tgz:98581.got - 2010.06.03 11:33:40.
