data_PCOD9021666
_publ_section_title
;
Structure prediction by ZEFSAII (Michael W. Deem and Ramdas Pophale) SiO2 
 PCOD9021666
Probable space group: P -1
;
_chemical_formula_sum "Si O2"
_cell_formula_units_Z 14
_cell_length_a 15.469582
_cell_length_b 8.032548
_cell_length_c 13.164494
_cell_angle_alpha 115.603469
_cell_angle_beta 152.506038
_cell_angle_gamma 53.493292
_cell_volume 586.523907
_symmetry_space_group_name_H-M "P -1"
_symmetry_group_IT_number 2
_symmetry_cell_setting 'triclinic'
loop_
_space_group_symop_operation_xyz
x,y,z
-x,-y,-z
loop_
_atom_site_type_symbol
_atom_site_label
_atom_site_fract_x
_atom_site_fract_y
_atom_site_fract_z
Si Si1 0.483854 0.259733 0.991827
Si Si2 0.024674 0.572397 0.325564
Si Si3 0.953813 0.172666 0.173801
Si Si4 0.125470 0.725629 0.665403
Si Si5 0.483508 0.268664 0.642203
Si Si6 0.402919 0.871472 0.493740
Si Si7 0.418925 0.139886 0.117790
O O1 0.734925 0.193723 0.227401
O O2 0.447575 0.216557 0.057575
O O3 0.312968 0.503011 0.851252
O O4 0.462441 0.114736 0.843850
O O5 0.998769 0.667960 0.436754
O O6 0.272831 0.473448 0.523221
O O7 0.977246 0.377493 0.225491
O O8 0.840351 0.755862 0.112333
O O9 0.002099 0.132972 0.334295
O O10 0.712305 0.222130 0.913184
O O11 0.143310 0.977400 0.257206
O O12 0.495741 0.282512 0.536829
O O13 0.454726 0.064456 0.581816
O O14 0.496727 0.786885 0.680566
#
# Coordination Sequence:
#
# PCOD9021666 Si02
#       7
#     2   2   2   2   2   2   2
#     4  10  22  38  64  89 135 163 210 249 315 372
#     4  11  24  37  65  93 130 162 208 255 317 368
#     4  11  21  40  67  93 119 169 213 259 299 383
#     4  11  21  40  64  93 121 175 208 248 303 392
#     4  10  22  44  67  90 119 172 220 250 302 384
#     4  10  23  42  66  91 126 164 213 263 308 363
#     4  11  23  40  58 101 133 159 199 270 316 364
#
# _framework density 23.869446
#
# number of rings (size 3 to 8) (size 9 to 14) (size 15 to 20)
#    0.000    1.429    1.429    5.143    4.000    1.143 
#    2.571    0.714    0.000    0.000    0.000    0.000 
#    0.000    0.000    0.000    0.000    0.000    0.000 
#
# Total GULP energy -78374.663543 kJ/mol
# GULP energy per Si atom -5598.190253 kJ/mol
# Density = 2.381512 g / cm^3
# Si number density = 23.869446 Si / 1000 Ang^3
#
#
#
# Elastic Constant Matrix: (Units=GPa)
#
#
# Indices 1 2 3 4 5 6 
#
# 1 104.9645 25.5535 49.4368 -0.9774 4.1246 -37.1695
# 2 25.5535 30.2419 9.1782 3.6474 0.1534 -16.1874
# 3 49.4368 9.1782 127.1021 1.7153 11.9400 -18.7675
# 4 -0.9774 3.6474 1.7153 21.5646 -7.2376 -0.0795
# 5 4.1246 0.1534 11.9400 -7.2376 48.5042 8.0713
# 6 -37.1695 -16.1874 -18.7675 -0.0795 8.0713 25.0042
#
#
#
# Elastic Compliance Matrix: (Units=1/GPa)
#
#
# Indices 1 2 3 4 5 6 
#
# 1 0.023906 -0.000199 -0.003405 -0.000892 -0.007179 0.035168
# 2 -0.000199 0.056126 0.003266 -0.012903 -0.009815 0.041618
# 3 -0.003405 0.003266 0.010198 -0.002708 -0.003611 0.005864
# 4 -0.000892 -0.012903 -0.002708 0.052407 0.011122 -0.015135
# 5 -0.007179 -0.009815 -0.003611 0.011122 0.028623 -0.028941
# 6 0.035168 0.041618 0.005864 -0.015135 -0.028941 0.132910
#
#
# Mechanical properties :
#
#
# Convention : Reuss Voigt Hill
#
# Bulk Modulus (GPa) = 11.16639 47.84949 29.50794
# Shear Modulus (GPa) = 14.93891 30.89060 22.91476
#
# Velocity S-wave (km/s) = 2.50443 3.60133 3.10175
# Velocity P-wave (km/s) = 3.61264 6.11413 5.02164
#
# Compressibility (1/GPa) = 0.08955449
#
# Stress axis : x y z
#
# Youngs Moduli (GPa) = 41.82992 17.81703 98.06007
#
# Poissons Ratio (x) = 0.00354 0.33388
# Poissons Ratio (y) = 0.00832 -0.32024
# Poissons Ratio (z) = 0.14242 -0.05819
#
# Static dielectric constant tensor:
#      x y z
#    x 1.928670 0.046360 0.028280 
#    y 0.046360 1.929140 0.002820 
#    z 0.028280 0.002820 1.910780 
# 
# From -- ./inp_files/180796.got.cif
#   From: 2010.05.17/outbox.cif.g08.bks.cpg/sg2_91_cif.got.tgz:180796.got - 2010.06.03 11:33:40.
