data_PCOD9021917
_publ_section_title
;
Structure prediction by ZEFSAII (Michael W. Deem and Ramdas Pophale) SiO2 
 PCOD9021917
Probable space group: P -1
;
_chemical_formula_sum "Si O2"
_cell_formula_units_Z 12
_cell_length_a 5.678228
_cell_length_b 12.393291
_cell_length_c 10.906597
_cell_angle_alpha 131.070136
_cell_angle_beta 57.204577
_cell_angle_gamma 122.383467
_cell_volume 466.435763
_symmetry_space_group_name_H-M "P -1"
_symmetry_group_IT_number 2
_symmetry_cell_setting 'triclinic'
loop_
_space_group_symop_operation_xyz
x,y,z
-x,-y,-z
loop_
_atom_site_type_symbol
_atom_site_label
_atom_site_fract_x
_atom_site_fract_y
_atom_site_fract_z
Si Si1 0.821230 0.897253 0.814437
Si Si2 0.804896 0.455800 0.643176
Si Si3 0.755139 0.646435 0.007318
Si Si4 0.311134 0.359740 0.529132
Si Si5 0.563439 0.946382 0.309981
Si Si6 0.299497 0.831513 0.072852
O O1 0.690886 0.787112 0.656708
O O2 0.787960 0.061013 0.920515
O O3 0.624088 0.836898 0.942835
O O4 0.169339 0.927704 0.735102
O O5 0.480397 0.372830 0.621033
O O6 0.000000 0.500000 0.500000
O O7 0.978281 0.371074 0.620911
O O8 0.819749 0.608642 0.822282
O O9 0.645291 0.789743 0.175175
O O10 0.061747 0.673776 0.012411
O O11 0.500000 0.500000 0.000000
O O12 0.500000 0.500000 0.500000
O O13 0.297088 0.906163 0.260507
O O14 0.500000 0.000000 0.500000
#
# Coordination Sequence:
#
# PCOD9021917 Si02
#       6
#     2   2   2   2   2   2
#     4  10  23  42  72 102 135 189 235 303 355 432
#     4  10  23  41  68 104 140 181 235 297 362 425
#     4  11  27  45  69 104 139 189 235 299 361 432
#     4  10  22  38  67 106 141 177 232 295 364 421
#     4  11  27  45  69 101 142 191 235 293 365 436
#     4  10  23  46  70  99 139 181 248 293 362 428
#
# _framework density 25.727017
#
# number of rings (size 3 to 8) (size 9 to 14) (size 15 to 20)
#    0.000    1.667    0.000    2.500   11.667    4.667 
#    0.000    0.000    0.000    0.000    0.000    0.000 
#    0.000    0.000    0.000    0.000    0.000    0.000 
#
# Total GULP energy -67067.498280 kJ/mol
# GULP energy per Si atom -5588.958190 kJ/mol
# Density = 2.566846 g / cm^3
# Si number density = 25.727017 Si / 1000 Ang^3
#
#
#
# Elastic Constant Matrix: (Units=GPa)
#
#
# Indices 1 2 3 4 5 6 
#
# 1 134.5162 34.5912 49.7737 -1.0028 26.0438 26.9174
# 2 34.5912 113.2039 43.8759 7.1097 4.5332 37.9860
# 3 49.7737 43.8759 190.5857 9.1772 27.6283 15.2516
# 4 -1.0028 7.1097 9.1772 34.2406 5.7033 4.9785
# 5 26.0438 4.5332 27.6283 5.7033 47.6228 22.7479
# 6 26.9174 37.9860 15.2516 4.9785 22.7479 35.4664
#
#
#
# Elastic Compliance Matrix: (Units=1/GPa)
#
#
# Indices 1 2 3 4 5 6 
#
# 1 0.009641 -0.000758 -0.001747 0.001947 -0.002221 -0.004603
# 2 -0.000758 0.019255 -0.004035 -0.001333 0.014042 -0.027131
# 3 -0.001747 -0.004035 0.006990 -0.001078 -0.005652 0.006418
# 4 0.001947 -0.001333 -0.001078 0.030617 -0.003062 -0.001921
# 5 -0.002221 0.014042 -0.005652 -0.003062 0.042580 -0.037804
# 6 -0.004603 -0.027131 0.006418 -0.001921 -0.037804 0.082504
#
#
# Mechanical properties :
#
#
# Convention : Reuss Voigt Hill
#
# Bulk Modulus (GPa) = 43.84796 77.19859 60.52328
# Shear Modulus (GPa) = 23.55514 44.13696 33.84605
#
# Velocity S-wave (km/s) = 3.02914 4.14646 3.63103
# Velocity P-wave (km/s) = 5.41431 7.27984 6.41525
#
# Compressibility (1/GPa) = 0.02280608
#
# Stress axis : x y z
#
# Youngs Moduli (GPa) = 103.72478 51.93583 143.06537
#
# Poissons Ratio (x) = 0.03936 0.24990
# Poissons Ratio (y) = 0.07860 0.57727
# Poissons Ratio (z) = 0.18118 0.20956
#
# Static dielectric constant tensor:
#      x y z
#    x 2.201370 -0.037330 0.093060 
#    y -0.037330 2.100000 -0.223640 
#    z 0.093060 -0.223640 2.487860 
# 
# From -- ./inp_files/28985.got.cif
#   From: 2010.05.17/outbox.cif.g08.bks.cpg/sg2_15_cif.got.tgz:28985.got - 2010.06.03 11:33:40.
