data_PCOD9021563
_publ_section_title
;
Structure prediction by ZEFSAII (Michael W. Deem and Ramdas Pophale) SiO2 
 PCOD9021563
Probable space group: P -1
;
_chemical_formula_sum "Si O2"
_cell_formula_units_Z 16
_cell_length_a 5.160106
_cell_length_b 17.868532
_cell_length_c 9.570182
_cell_angle_alpha 113.606218
_cell_angle_beta 105.541083
_cell_angle_gamma 52.303236
_cell_volume 639.459233
_symmetry_space_group_name_H-M "P -1"
_symmetry_group_IT_number 2
_symmetry_cell_setting 'triclinic'
loop_
_space_group_symop_operation_xyz
x,y,z
-x,-y,-z
loop_
_atom_site_type_symbol
_atom_site_label
_atom_site_fract_x
_atom_site_fract_y
_atom_site_fract_z
Si Si1 0.542719 0.208482 0.002258
Si Si2 0.611588 0.581408 0.975967
Si Si3 0.070805 0.703203 0.180639
Si Si4 0.768286 0.040323 0.702254
Si Si5 0.025407 0.121921 0.575963
Si Si6 0.145457 0.305166 0.555519
Si Si7 0.414273 0.729220 0.648591
Si Si8 0.708461 0.522276 0.644672
O O1 0.500461 0.305273 0.994768
O O2 0.762248 0.099194 0.881251
O O3 0.172791 0.240841 0.943380
O O4 0.646867 0.206503 0.174230
O O5 0.375920 0.601635 0.086464
O O6 0.555246 0.546346 0.794831
O O7 0.000000 0.500000 0.000000
O O8 0.871800 0.703058 0.285342
O O9 0.191796 0.765838 0.314202
O O10 0.392549 0.088285 0.641089
O O11 0.925536 0.070229 0.630876
O O12 0.940838 0.922721 0.608228
O O13 0.876857 0.283110 0.447864
O O14 0.052531 0.417022 0.615739
O O15 0.431692 0.246275 0.438784
O O16 0.694360 0.616913 0.661047
O O17 0.500000 0.500000 0.500000
#
# Coordination Sequence:
#
# PCOD9021563 Si02
#       8
#     2   2   2   2   2   2   2   2
#     4  10  22  38  63  88 120 155 207 251 296 350
#     4  11  23  38  57  89 122 155 200 252 302 349
#     4  11  24  38  62  88 126 156 201 249 309 357
#     4   9  17  33  58  91 117 150 192 249 297 349
#     4   9  18  33  58  88 122 149 191 243 305 356
#     4  11  24  40  59  83 120 163 198 244 305 358
#     4  10  24  40  61  84 116 161 205 248 292 356
#     4   9  21  40  60  78 112 157 209 246 289 350
#
# _framework density 25.021142999999999
#
# number of rings (size 3 to 8) (size 9 to 14) (size 15 to 20)
#    0.000    2.000    1.250    1.125    8.750    2.000 
#    0.000    0.000    0.000    1.500    0.000    0.000 
#    0.000    0.000    0.000    0.000    0.000    0.000 
#
# Total GULP energy -89174.511263 kJ/mol
# GULP energy per Si atom -5573.406954 kJ/mol
# Density = 2.496419 g / cm^3
# Si number density = 25.021143 Si / 1000 Ang^3
#
#
#
# Elastic Constant Matrix: (Units=GPa)
#
#
# Indices 1 2 3 4 5 6 
#
# 1 122.0527 13.0222 66.5456 -4.5223 -24.1845 -2.8384
# 2 13.0222 42.1644 51.5904 25.6209 -8.9599 -12.4118
# 3 66.5456 51.5904 278.6472 25.0700 -4.4710 -10.1835
# 4 -4.5223 25.6209 25.0700 58.9441 -5.0146 -4.3084
# 5 -24.1845 -8.9599 -4.4710 -5.0146 42.5096 7.5170
# 6 -2.8384 -12.4118 -10.1835 -4.3084 7.5170 29.8167
#
#
#
# Elastic Compliance Matrix: (Units=1/GPa)
#
#
# Indices 1 2 3 4 5 6 
#
# 1 0.011101 -0.000933 -0.002684 0.002839 0.006430 -0.001459
# 2 -0.000933 0.046642 -0.006379 -0.016265 0.004285 0.013718
# 3 -0.002684 -0.006379 0.005351 0.000065 -0.002210 -0.000517
# 4 0.002839 -0.016265 0.000065 0.024115 0.001641 -0.003407
# 5 0.006430 0.004285 -0.002210 0.001641 0.029008 -0.005435
# 6 -0.001459 0.013718 -0.000517 -0.003407 -0.005435 0.039811
#
#
# Mechanical properties :
#
#
# Convention : Reuss Voigt Hill
#
# Bulk Modulus (GPa) = 23.20104 78.35341 50.77722
# Shear Modulus (GPa) = 26.26220 47.03449 36.64834
#
# Velocity S-wave (km/s) = 3.24327 4.34036 3.83129
# Velocity P-wave (km/s) = 4.82885 7.51672 6.31739
#
# Compressibility (1/GPa) = 0.04310152
#
# Stress axis : x y z
#
# Youngs Moduli (GPa) = 90.07825 21.43992 186.89316
#
# Poissons Ratio (x) = 0.02000 0.50164
# Poissons Ratio (y) = 0.08403 1.19226
# Poissons Ratio (z) = 0.24178 0.13677
#
# Static dielectric constant tensor:
#      x y z
#    x 2.045140 -0.009310 0.018200 
#    y -0.009310 2.161790 0.025470 
#    z 0.018200 0.025470 1.973300 
# 
# From -- ./inp_files/140788.got.cif
#   From: 2010.05.17/outbox.cif.g08.bks.cpg/sg2_71_cif.got.tgz:140788.got - 2010.06.03 11:33:40.
