data_PCOD9021394
_publ_section_title
;
Structure prediction by ZEFSAII (Michael W. Deem and Ramdas Pophale) SiO2 
 PCOD9021394
Probable space group: P -1
;
_chemical_formula_sum "Si O2"
_cell_formula_units_Z 16
_cell_length_a 11.229016
_cell_length_b 11.218561
_cell_length_c 11.428290
_cell_angle_alpha 138.813432
_cell_angle_beta 120.772222
_cell_angle_gamma 49.303602
_cell_volume 718.146112
_symmetry_space_group_name_H-M "P -1"
_symmetry_group_IT_number 2
_symmetry_cell_setting 'triclinic'
loop_
_space_group_symop_operation_xyz
x,y,z
-x,-y,-z
loop_
_atom_site_type_symbol
_atom_site_label
_atom_site_fract_x
_atom_site_fract_y
_atom_site_fract_z
Si Si1 0.532343 0.445061 0.665168
Si Si2 0.191295 0.657573 0.110299
Si Si3 0.037320 0.919608 0.784734
Si Si4 0.146186 0.172562 0.185989
Si Si5 0.896433 0.583222 0.293720
Si Si6 0.938936 0.841769 0.307007
Si Si7 0.290893 0.786587 0.649031
Si Si8 0.373075 0.174622 0.478372
O O1 0.637667 0.437010 0.820717
O O2 0.425523 0.670917 0.726353
O O3 0.645486 0.327057 0.525472
O O4 0.439587 0.321699 0.567426
O O5 0.071652 0.674766 0.166849
O O6 0.179828 0.535410 0.904218
O O7 0.120168 0.894088 0.209025
O O8 0.143968 0.777329 0.630297
O O9 0.985978 0.811826 0.776276
O O10 0.134886 0.023473 0.971793
O O11 0.310532 0.094556 0.277660
O O12 0.073338 0.405261 0.276384
O O13 0.896283 0.748471 0.326299
O O14 0.785267 0.691869 0.427659
O O15 0.786077 0.974637 0.247881
O O16 0.000000 0.000000 0.500000
O O17 0.500000 0.000000 0.500000
#
# Coordination Sequence:
#
# PCOD9021394 Si02
#       8
#     2   2   2   2   2   2   2   2
#     4  11  23  39  58  90 125 166 202 241 307 367
#     4  10  22  41  65  90 126 158 205 255 299 369
#     4   9  20  40  65  91 116 163 205 252 314 347
#     4  10  22  40  64  91 124 154 207 260 298 371
#     4  11  25  41  63  95 118 163 209 257 306 352
#     4  11  22  39  67  89 119 157 207 261 303 353
#     4  10  22  38  61  89 117 163 207 244 304 363
#     4  12  26  38  60  91 129 162 202 248 307 374
#
# _framework density 22.279588
#
# number of rings (size 3 to 8) (size 9 to 14) (size 15 to 20)
#    0.000    1.500    1.250    3.000    5.250    1.500 
#    0.000    1.250    0.000    0.000    0.000    0.000 
#    0.000    0.000    0.000    0.000    0.000    0.000 
#
# Total GULP energy -89379.545126 kJ/mol
# GULP energy per Si atom -5586.221570 kJ/mol
# Density = 2.222888 g / cm^3
# Si number density = 22.279588 Si / 1000 Ang^3
#
#
#
# Elastic Constant Matrix: (Units=GPa)
#
#
# Indices 1 2 3 4 5 6 
#
# 1 53.0349 27.6284 11.8165 10.0826 -11.7848 24.4699
# 2 27.6284 147.8453 29.1967 -25.7151 26.7826 -4.7824
# 3 11.8165 29.1967 62.9878 -14.7801 6.0981 -1.7698
# 4 10.0826 -25.7151 -14.7801 32.1145 -1.8880 3.8619
# 5 -11.7848 26.7826 6.0981 -1.8880 26.4322 -7.7045
# 6 24.4699 -4.7824 -1.7698 3.8619 -7.7045 36.4930
#
#
#
# Elastic Compliance Matrix: (Units=1/GPa)
#
#
# Indices 1 2 3 4 5 6 
#
# 1 0.083686 -0.033062 -0.019776 -0.053172 0.058945 -0.043335
# 2 -0.033062 0.023117 0.005604 0.027659 -0.032938 0.015589
# 3 -0.019776 0.005604 0.023313 0.019330 -0.015643 0.009777
# 4 -0.053172 0.027659 0.019330 0.073499 -0.044208 0.023105
# 5 0.058945 -0.032938 -0.015643 -0.044208 0.091962 -0.020506
# 6 -0.043335 0.015589 0.009777 0.023105 -0.020506 0.052203
#
#
# Mechanical properties :
#
#
# Convention : Reuss Voigt Hill
#
# Bulk Modulus (GPa) = 28.05053 44.57236 36.31144
# Shear Modulus (GPa) = 11.01005 32.02302 21.51654
#
# Velocity S-wave (km/s) = 2.22542 3.79532 3.11103
# Velocity P-wave (km/s) = 4.38416 6.26540 5.40723
#
# Compressibility (1/GPa) = 0.03564995
#
# Stress axis : x y z
#
# Youngs Moduli (GPa) = 11.94941 43.25759 42.89364
#
# Poissons Ratio (x) = 1.43017 0.84825
# Poissons Ratio (y) = 0.39507 -0.24037
# Poissons Ratio (z) = 0.23631 -0.24240
#
# Static dielectric constant tensor:
#      x y z
#    x 1.803780 -0.020380 0.016090 
#    y -0.020380 1.850870 -0.012940 
#    z 0.016090 -0.012940 1.840020 
# 
# From -- ./inp_files/427010.got.cif
#   From: 2010.05.17/outbox.cif.g08.bks.cpg/sg2_214_cif.got.tgz:427010.got - 2010.06.03 11:33:40.
