data_PCOD9021682
_publ_section_title
;
Structure prediction by ZEFSAII (Michael W. Deem and Ramdas Pophale) SiO2 
 PCOD9021682
Probable space group: P -1
;
_chemical_formula_sum "Si O2"
_cell_formula_units_Z 14
_cell_length_a 10.774470
_cell_length_b 17.168746
_cell_length_c 9.544503
_cell_angle_alpha 63.428992
_cell_angle_beta 90.236940
_cell_angle_gamma 36.325163
_cell_volume 678.814709
_symmetry_space_group_name_H-M "P -1"
_symmetry_group_IT_number 2
_symmetry_cell_setting 'triclinic'
loop_
_space_group_symop_operation_xyz
x,y,z
-x,-y,-z
loop_
_atom_site_type_symbol
_atom_site_label
_atom_site_fract_x
_atom_site_fract_y
_atom_site_fract_z
Si Si1 0.233681 0.898266 0.677762
Si Si2 0.248952 0.384502 0.257048
Si Si3 0.737492 0.600167 0.447611
Si Si4 0.201984 0.637281 0.421076
Si Si5 0.244479 0.218933 0.194216
Si Si6 0.801236 0.056613 0.034158
Si Si7 0.109668 0.178974 0.451857
O O1 0.547893 0.686338 0.783955
O O2 0.158080 0.047081 0.538049
O O3 0.232685 0.886252 0.853694
O O4 0.000000 0.000000 0.500000
O O5 0.375899 0.300788 0.479328
O O6 0.232141 0.302049 0.247385
O O7 0.932561 0.628268 0.057144
O O8 0.809955 0.450628 0.578242
O O9 0.498201 0.760660 0.196975
O O10 0.000000 0.500000 0.500000
O O11 0.500000 0.500000 0.500000
O O12 0.144133 0.650879 0.573951
O O13 0.955837 0.863987 0.198138
O O14 0.089900 0.237022 0.255265
O O15 0.578283 0.986810 0.351708
O O16 0.000000 0.000000 0.000000
#
# Coordination Sequence:
#
# PCOD9021682 Si02
#       7
#     2   2   2   2   2   2   2
#     4  10  22  40  66  92 125 168 222 269 325 402
#     4  10  22  38  64  92 129 159 224 261 331 396
#     4  12  27  43  68 104 136 180 228 280 337 409
#     4  11  24  43  69  96 134 182 230 271 338 420
#     4   9  19  40  64  89 125 173 202 281 333 389
#     4  11  24  46  71  94 141 184 218 280 350 396
#     4   9  20  38  64  90 126 163 221 266 337 386
#
# _framework density 20.624182999999999
#
# number of rings (size 3 to 8) (size 9 to 14) (size 15 to 20)
#    0.000    1.714    1.429    1.714   12.000    0.571 
#   10.286    0.714    0.000    0.000    0.000    0.000 
#    0.000    0.000    0.000    0.000    0.000    0.000 
#
# Total GULP energy -78089.642075 kJ/mol
# GULP energy per Si atom -5577.831577 kJ/mol
# Density = 2.057724 g / cm^3
# Si number density = 20.624183 Si / 1000 Ang^3
#
#
#
# Elastic Constant Matrix: (Units=GPa)
#
#
# Indices 1 2 3 4 5 6 
#
# 1 113.2116 35.2665 35.7595 12.8448 4.1184 -21.6157
# 2 35.2665 84.6090 33.8342 14.5770 7.5589 -21.6946
# 3 35.7595 33.8342 110.4036 13.3979 12.7626 -0.6957
# 4 12.8448 14.5770 13.3979 33.3436 1.3435 -3.2754
# 5 4.1184 7.5589 12.7626 1.3435 27.8720 3.3020
# 6 -21.6157 -21.6946 -0.6957 -3.2754 3.3020 30.6220
#
#
#
# Elastic Compliance Matrix: (Units=1/GPa)
#
#
# Indices 1 2 3 4 5 6 
#
# 1 0.011861 -0.001518 -0.003011 -0.001970 -0.000708 0.007094
# 2 -0.001518 0.018169 -0.003996 -0.004443 -0.004041 0.011670
# 3 -0.003011 -0.003996 0.011870 -0.002180 -0.003260 -0.004569
# 4 -0.001970 -0.004443 -0.002180 0.033417 0.001017 -0.001123
# 5 -0.000708 -0.004041 -0.003260 0.001017 0.039421 -0.007579
# 6 0.007094 0.011670 -0.004569 -0.001123 -0.007579 0.046525
#
#
# Mechanical properties :
#
#
# Convention : Reuss Voigt Hill
#
# Bulk Modulus (GPa) = 40.24284 57.54942 48.89613
# Shear Modulus (GPa) = 26.79588 31.92511 29.36050
#
# Velocity S-wave (km/s) = 3.60842 3.93866 3.77715
# Velocity P-wave (km/s) = 6.07583 6.97485 6.54080
#
# Compressibility (1/GPa) = 0.02484914
#
# Stress axis : x y z
#
# Youngs Moduli (GPa) = 84.31228 55.03928 84.24409
#
# Poissons Ratio (x) = 0.08356 0.25364
# Poissons Ratio (y) = 0.12800 0.33667
# Poissons Ratio (z) = 0.25385 0.21996
#
# Static dielectric constant tensor:
#      x y z
#    x 1.712020 -0.074570 -0.071800 
#    y -0.074570 1.764320 -0.098370 
#    z -0.071800 -0.098370 1.612690 
# 
# From -- ./inp_files/277702.got.cif
#   From: 2010.05.17/outbox.cif.g08.bks.cpg/sg2_139_cif.got.tgz:277702.got - 2010.06.03 11:33:40.
