data_PCOD9021975
_publ_section_title
;
Structure prediction by ZEFSAII (Michael W. Deem and Ramdas Pophale) SiO2 
 PCOD9021975
Probable space group: P -1
;
_chemical_formula_sum "Si O2"
_cell_formula_units_Z 15
_cell_length_a 11.520867
_cell_length_b 11.012248
_cell_length_c 9.326325
_cell_angle_alpha 43.766204
_cell_angle_beta 120.856727
_cell_angle_gamma 92.970716
_cell_volume 592.941645
_symmetry_space_group_name_H-M "P -1"
_symmetry_group_IT_number 2
_symmetry_cell_setting 'triclinic'
loop_
_space_group_symop_operation_xyz
x,y,z
-x,-y,-z
loop_
_atom_site_type_symbol
_atom_site_label
_atom_site_fract_x
_atom_site_fract_y
_atom_site_fract_z
Si Si1 0.464471 0.509417 0.302099
Si Si2 0.132156 0.558110 0.088664
Si Si3 0.155192 0.498828 0.745493
Si Si4 0.669324 0.903442 0.610593
Si Si5 0.680367 0.016921 0.211692
Si Si6 0.000000 0.000000 0.500000
Si Si7 0.210033 0.322963 0.632808
Si Si8 0.340043 0.694926 0.662086
O O1 0.500000 0.500000 0.500000
O O2 0.308433 0.494563 0.187942
O O3 0.613220 0.338890 0.446949
O O4 0.429402 0.736964 0.046631
O O5 0.179592 0.475421 0.351579
O O6 0.000000 0.500000 0.000000
O O7 0.042873 0.803910 0.802310
O O8 0.247728 0.383300 0.756634
O O9 0.204533 0.662885 0.666385
O O10 0.966853 0.630917 0.492108
O O11 0.211916 0.317900 0.051966
O O12 0.661557 0.902649 0.434371
O O13 0.708800 0.077784 0.518739
O O14 0.500000 0.000000 0.500000
O O15 0.855883 0.979986 0.356878
O O16 0.672016 0.908472 0.154045
O O17 0.500000 0.500000 0.000000
#
# Coordination Sequence:
#
# PCOD9021975 Si02
#       8
#     2   2   2   2   2   1   2   2
#     4  11  26  46  70 107 149 189 235 297 369 428
#     4  11  23  41  72 102 136 183 239 291 343 422
#     4  11  27  49  67 106 146 187 235 292 372 415
#     4  12  26  44  73 104 138 186 238 294 359 424
#     4  11  24  43  74 107 132 190 245 290 358 432
#     4  10  22  38  68 104 132 168 238 296 342 402
#     4  11  26  47  73 100 148 187 232 306 353 428
#     4  12  25  46  71 101 144 186 234 293 348 436
#
# _framework density 25.297599999999999
#
# number of rings (size 3 to 8) (size 9 to 14) (size 15 to 20)
#    0.000    0.800    4.000    1.600    7.467    0.000 
#    0.000    3.333    0.000    0.000    0.000    0.000 
#    0.000    0.000    0.000    0.000    0.000    0.000 
#
# Total GULP energy -83698.487011 kJ/mol
# GULP energy per Si atom -5579.899134 kJ/mol
# Density = 2.524002 g / cm^3
# Si number density = 25.297600 Si / 1000 Ang^3
#
#
#
# Elastic Constant Matrix: (Units=GPa)
#
#
# Indices 1 2 3 4 5 6 
#
# 1 136.2208 30.5114 23.8556 -12.3545 -8.1386 9.8264
# 2 30.5114 115.4493 43.8296 -12.7611 -29.9397 -9.8886
# 3 23.8556 43.8296 87.5990 -6.7087 -29.0765 15.0818
# 4 -12.3545 -12.7611 -6.7087 45.1006 -0.0467 -17.0740
# 5 -8.1386 -29.9397 -29.0765 -0.0467 49.5598 -6.0977
# 6 9.8264 -9.8886 15.0818 -17.0740 -6.0977 48.6249
#
#
#
# Elastic Compliance Matrix: (Units=1/GPa)
#
#
# Indices 1 2 3 4 5 6 
#
# 1 0.008119 -0.001883 -0.001173 0.000988 -0.000663 -0.001396
# 2 -0.001883 0.014011 -0.005418 0.005523 0.005916 0.007591
# 3 -0.001173 -0.005418 0.017348 -0.001556 0.005967 -0.006044
# 4 0.000988 0.005523 -0.001556 0.028261 0.004069 0.011840
# 5 -0.000663 0.005916 0.005967 0.004069 0.027687 0.004387
# 6 -0.001396 0.007591 -0.006044 0.011840 0.004387 0.028974
#
#
# Mechanical properties :
#
#
# Convention : Reuss Voigt Hill
#
# Bulk Modulus (GPa) = 44.38519 59.51805 51.95162
# Shear Modulus (GPa) = 33.58914 44.72855 39.15884
#
# Velocity S-wave (km/s) = 3.64780 4.20943 3.93864
# Velocity P-wave (km/s) = 5.94350 6.87052 6.42375
#
# Compressibility (1/GPa) = 0.02253004
#
# Stress axis : x y z
#
# Youngs Moduli (GPa) = 123.17062 71.37182 57.64317
#
# Poissons Ratio (x) = 0.13437 0.06762
# Poissons Ratio (y) = 0.23190 0.31232
# Poissons Ratio (z) = 0.14449 0.38670
#
# Static dielectric constant tensor:
#      x y z
#    x 2.090370 -0.059220 0.030160 
#    y -0.059220 2.090150 0.048200 
#    z 0.030160 0.048200 1.955820 
# 
# From -- ./inp_files/256073.got.cif
#   From: 2010.05.17/outbox.cif.g08.bks.cpg/sg2_129_cif.got.tgz:256073.got - 2010.06.03 11:33:40.
