data_PCOD9021980
_publ_section_title
;
Structure prediction by ZEFSAII (Michael W. Deem and Ramdas Pophale) SiO2 
 PCOD9021980
Probable space group: P -1
;
_chemical_formula_sum "Si O2"
_cell_formula_units_Z 14
_cell_length_a 14.581579
_cell_length_b 12.010164
_cell_length_c 20.193535
_cell_angle_alpha 33.808674
_cell_angle_beta 18.910537
_cell_angle_gamma 44.003110
_cell_volume 592.431970
_symmetry_space_group_name_H-M "P -1"
_symmetry_group_IT_number 2
_symmetry_cell_setting 'triclinic'
loop_
_space_group_symop_operation_xyz
x,y,z
-x,-y,-z
loop_
_atom_site_type_symbol
_atom_site_label
_atom_site_fract_x
_atom_site_fract_y
_atom_site_fract_z
Si Si1 0.719215 0.884668 0.057836
Si Si2 0.730091 0.213347 0.704629
Si Si3 0.658747 0.331596 0.457483
Si Si4 0.222142 0.355894 0.469615
Si Si5 0.613987 0.677928 0.777570
Si Si6 0.208826 0.706844 0.858804
Si Si7 0.319410 0.982207 0.775074
O O1 0.966052 0.766377 0.950811
O O2 0.455978 0.772433 0.240085
O O3 0.519009 0.850903 0.278022
O O4 0.921175 0.137048 0.783807
O O5 0.809196 0.430534 0.586034
O O6 0.047965 0.178424 0.498846
O O7 0.500000 0.000000 0.000000
O O8 0.500000 0.500000 0.500000
O O9 0.574214 0.211988 0.504374
O O10 0.010538 0.480127 0.142429
O O11 0.344646 0.389033 0.293597
O O12 0.477227 0.318352 0.360787
O O13 0.389816 0.805614 0.858295
O O14 0.500000 0.500000 0.000000
O O15 0.309971 0.897014 0.749875
O O16 0.000000 0.000000 0.000000
#
# Coordination Sequence:
#
# PCOD9021980 Si02
#       7
#     2   2   2   2   2   2   2
#     4  11  24  42  71 102 141 185 232 286 362 418
#     4  12  28  48  68  99 147 187 233 287 353 427
#     4  10  22  38  68 108 140 177 232 287 352 416
#     4  11  26  47  72  98 148 183 232 292 354 418
#     4  11  28  47  75 106 137 191 242 286 358 425
#     4  10  24  42  70 110 135 182 240 291 349 420
#     4  11  22  44  74 102 147 174 236 302 351 401
#
# _framework density 23.631405999999998
#
# number of rings (size 3 to 8) (size 9 to 14) (size 15 to 20)
#    0.000    1.143    4.286    0.857    8.000    2.857 
#    0.000    1.429    0.000    0.000    0.000    0.000 
#    0.000    0.000    0.000    0.000    0.000    0.000 
#
# Total GULP energy -78186.365291 kJ/mol
# GULP energy per Si atom -5584.740378 kJ/mol
# Density = 2.357762 g / cm^3
# Si number density = 23.631406 Si / 1000 Ang^3
#
#
#
# Elastic Constant Matrix: (Units=GPa)
#
#
# Indices 1 2 3 4 5 6 
#
# 1 118.2376 38.8921 29.4902 1.0321 -17.1408 -19.8060
# 2 38.8921 103.9863 23.1013 -3.4022 -11.8352 -21.1410
# 3 29.4902 23.1013 146.4051 -12.9188 -4.8286 -6.3874
# 4 1.0321 -3.4022 -12.9188 31.5660 -8.2616 -16.3178
# 5 -17.1408 -11.8352 -4.8286 -8.2616 43.7247 2.9772
# 6 -19.8060 -21.1410 -6.3874 -16.3178 2.9772 47.2515
#
#
#
# Elastic Compliance Matrix: (Units=1/GPa)
#
#
# Indices 1 2 3 4 5 6 
#
# 1 0.010697 -0.002561 -0.001356 0.001496 0.003398 0.003457
# 2 -0.002561 0.012406 -0.000654 0.004951 0.002814 0.005921
# 3 -0.001356 -0.000654 0.007665 0.004124 0.000812 0.001548
# 4 0.001496 0.004951 0.004124 0.046086 0.009816 0.018696
# 5 0.003398 0.002814 0.000812 0.009816 0.026601 0.004507
# 6 0.003457 0.005921 0.001548 0.018696 0.004507 0.031643
#
#
# Mechanical properties :
#
#
# Convention : Reuss Voigt Hill
#
# Bulk Modulus (GPa) = 46.23969 61.28847 53.76408
# Shear Modulus (GPa) = 33.01468 42.98480 37.99974
#
# Velocity S-wave (km/s) = 3.74179 4.26956 4.01436
# Velocity P-wave (km/s) = 6.18688 7.09204 6.65487
#
# Compressibility (1/GPa) = 0.02162644
#
# Stress axis : x y z
#
# Youngs Moduli (GPa) = 93.48736 80.60770 130.46707
#
# Poissons Ratio (x) = 0.20644 0.17687
# Poissons Ratio (y) = 0.23943 0.08528
# Poissons Ratio (z) = 0.12674 0.05269
#
# Static dielectric constant tensor:
#      x y z
#    x 2.134900 -0.077000 0.023990 
#    y -0.077000 1.956190 0.001900 
#    z 0.023990 0.001900 1.914690 
# 
# From -- ./inp_files/597924.got.cif
#   From: 2010.05.17/outbox.cif.g08.bks.cpg/sg2_299_cif.got.tgz:597924.got - 2010.06.03 11:33:40.
