data_PCOD9021177
_publ_section_title
;
Structure prediction by ZEFSAII (Michael W. Deem and Ramdas Pophale) SiO2 
 PCOD9021177
Probable space group: P -1
;
_chemical_formula_sum "Si O2"
_cell_formula_units_Z 16
_cell_length_a 17.412453
_cell_length_b 12.558922
_cell_length_c 7.350293
_cell_angle_alpha 37.102590
_cell_angle_beta 135.367364
_cell_angle_gamma 126.954471
_cell_volume 679.081469
_symmetry_space_group_name_H-M "P -1"
_symmetry_group_IT_number 2
_symmetry_cell_setting 'triclinic'
loop_
_space_group_symop_operation_xyz
x,y,z
-x,-y,-z
loop_
_atom_site_type_symbol
_atom_site_label
_atom_site_fract_x
_atom_site_fract_y
_atom_site_fract_z
Si Si1 0.948021 0.055237 0.147436
Si Si2 0.463189 0.284095 0.578053
Si Si3 0.844010 0.670748 0.522354
Si Si4 0.184800 0.604655 0.442632
Si Si5 0.907187 0.633080 0.104900
Si Si6 0.590571 0.622043 0.242617
Si Si7 0.602726 0.169971 0.520721
Si Si8 0.579237 0.011006 0.337619
O O1 0.888393 0.864148 0.255116
O O2 0.872273 0.216898 0.842588
O O3 0.000000 0.000000 0.500000
O O4 0.044516 0.164978 0.044486
O O5 0.521392 0.436560 0.346216
O O6 0.405701 0.355675 0.561522
O O7 0.387826 0.148161 0.513987
O O8 0.567095 0.186620 0.963851
O O9 0.874420 0.511207 0.659905
O O10 0.711750 0.656345 0.325399
O O11 0.881944 0.638596 0.839028
O O12 0.190930 0.464169 0.809855
O O13 0.304090 0.682752 0.474188
O O14 0.000000 0.500000 0.500000
O O15 0.507374 0.753227 0.842728
O O16 0.550653 0.044341 0.760024
O O17 0.641729 0.062103 0.558153
#
# Coordination Sequence:
#
# PCOD9021177 Si02
#       8
#     2   2   2   2   2   2   2   2
#     4   9  22  45  68  96 128 158 215 282 330 391
#     4   9  19  35  56  80 122 175 211 255 312 358
#     4  11  24  42  69  98 131 176 217 262 333 392
#     4  11  24  42  69  98 131 176 217 262 333 392
#     4   9  22  45  68  96 128 158 215 282 330 391
#     4  10  22  38  56  91 136 169 214 264 301 380
#     4  10  22  38  56  91 136 169 214 264 301 380
#     4   9  19  35  56  80 122 175 211 255 312 358
#
# _framework density 23.561236999999998
#
# number of rings (size 3 to 8) (size 9 to 14) (size 15 to 20)
#    0.000    2.250    0.000    0.750   10.500    7.000 
#    0.000    3.750    0.000    0.000    0.000    0.000 
#    0.000    0.000    0.000    0.000    0.000    0.000 
#
# Total GULP energy -89192.373040 kJ/mol
# GULP energy per Si atom -5574.523315 kJ/mol
# Density = 2.350761 g / cm^3
# Si number density = 23.561237 Si / 1000 Ang^3
#
#
#
# Elastic Constant Matrix: (Units=GPa)
#
#
# Indices 1 2 3 4 5 6 
#
# 1 39.0373 10.7827 4.7144 -2.4667 -6.9751 -9.8137
# 2 10.7827 113.1742 25.0589 -28.1606 -1.4898 -8.4465
# 3 4.7144 25.0589 88.7170 -18.4189 -13.5991 7.9028
# 4 -2.4667 -28.1606 -18.4189 40.2179 6.5477 -7.9058
# 5 -6.9751 -1.4898 -13.5991 6.5477 28.9324 0.5293
# 6 -9.8137 -8.4465 7.9028 -7.9058 0.5293 41.0787
#
#
#
# Elastic Compliance Matrix: (Units=1/GPa)
#
#
# Indices 1 2 3 4 5 6 
#
# 1 0.029070 -0.001973 -0.000501 0.000426 0.006453 0.006634
# 2 -0.001973 0.011901 -0.002320 0.008430 -0.002936 0.004082
# 3 -0.000501 -0.002320 0.013703 0.003192 0.005528 -0.002690
# 4 0.000426 0.008430 0.003192 0.034801 -0.005985 0.007996
# 5 0.006453 -0.002936 0.005528 -0.005985 0.039953 -0.001792
# 6 0.006634 0.004082 -0.002690 0.007996 -0.001792 0.028847
#
#
# Mechanical properties :
#
#
# Convention : Reuss Voigt Hill
#
# Bulk Modulus (GPa) = 22.17952 35.78228 28.98090
# Shear Modulus (GPa) = 27.33838 35.40399 31.37118
#
# Velocity S-wave (km/s) = 3.41003 3.88059 3.65290
# Velocity P-wave (km/s) = 4.99384 5.94126 5.48803
#
# Compressibility (1/GPa) = 0.04508664
#
# Stress axis : x y z
#
# Youngs Moduli (GPa) = 34.40012 84.02436 72.97470
#
# Poissons Ratio (x) = 0.16575 0.03656
# Poissons Ratio (y) = 0.06786 0.16932
# Poissons Ratio (z) = 0.01723 0.19496
#
# Static dielectric constant tensor:
#      x y z
#    x 2.031300 -0.014170 0.017980 
#    y -0.014170 1.948560 -0.026170 
#    z 0.017980 -0.026170 1.888510 
# 
# From -- ./inp_files/347451.got.cif
#   From: 2010.05.17/outbox.cif.g08.bks.cpg/sg2_174_cif.got.tgz:347451.got - 2010.06.03 11:33:40.
