data_PCOD9021162
_publ_section_title
;
Structure prediction by ZEFSAII (Michael W. Deem and Ramdas Pophale) SiO2 
 PCOD9021162
Probable space group: P -1
;
_chemical_formula_sum "Si O2"
_cell_formula_units_Z 16
_cell_length_a 9.478670
_cell_length_b 8.071744
_cell_length_c 13.491163
_cell_angle_alpha 57.562430
_cell_angle_beta 67.979871
_cell_angle_gamma 97.246754
_cell_volume 733.569982
_symmetry_space_group_name_H-M "P -1"
_symmetry_group_IT_number 2
_symmetry_cell_setting 'triclinic'
loop_
_space_group_symop_operation_xyz
x,y,z
-x,-y,-z
loop_
_atom_site_type_symbol
_atom_site_label
_atom_site_fract_x
_atom_site_fract_y
_atom_site_fract_z
Si Si1 0.184862 0.318552 0.717474
Si Si2 0.378334 0.766813 0.479701
Si Si3 0.288539 0.923893 0.641263
Si Si4 0.194574 0.050334 0.429662
Si Si5 0.384574 0.493078 0.125667
Si Si6 0.304915 0.221614 0.928490
Si Si7 0.140917 0.720586 0.091301
Si Si8 0.980243 0.181696 0.117740
O O1 0.316017 0.515248 0.556256
O O2 0.027094 0.372905 0.768444
O O3 0.101465 0.080130 0.769806
O O4 0.265827 0.288211 0.809001
O O5 0.571267 0.935214 0.360985
O O6 0.251482 0.862271 0.439989
O O7 0.359172 0.786070 0.598707
O O8 0.257095 0.075957 0.519262
O O9 0.112112 0.764190 0.784947
O O10 0.291857 0.255213 0.270858
O O11 0.000000 0.000000 0.500000
O O12 0.491230 0.355814 0.871687
O O13 0.248362 0.583815 0.107307
O O14 0.500000 0.500000 0.000000
O O15 0.176828 0.259412 0.026976
O O16 0.251195 0.965181 0.021696
O O17 0.084546 0.752690 0.986054
#
# Coordination Sequence:
#
# PCOD9021162 Si02
#       8
#     2   2   2   2   2   2   2   2
#     4   9  17  36  61  82 106 149 188 226 287 336
#     4   9  19  34  55  75 112 148 180 225 284 330
#     4   9  20  34  56  76 115 144 184 228 285 317
#     4  10  22  38  55  77 117 151 181 224 283 329
#     4  12  25  35  60  86 112 150 196 225 274 337
#     4   9  20  37  57  82 116 143 186 233 287 327
#     4   9  20  37  57  83 114 148 177 237 285 331
#     4   9  19  35  60  86 108 140 192 238 275 329
#
# _framework density 21.811143999999999
#
# number of rings (size 3 to 8) (size 9 to 14) (size 15 to 20)
#    0.750    1.750    0.000    3.375    3.500    0.500 
#    0.000    2.500    2.750    2.250    0.000    0.000 
#    0.000    0.000    0.000    0.000    0.000    0.000 
#
# Total GULP energy -89293.047509 kJ/mol
# GULP energy per Si atom -5580.815469 kJ/mol
# Density = 2.176150 g / cm^3
# Si number density = 21.811144 Si / 1000 Ang^3
#
#
#
# Elastic Constant Matrix: (Units=GPa)
#
#
# Indices 1 2 3 4 5 6 
#
# 1 104.0432 18.3537 15.6291 -15.4262 -5.0545 -14.3728
# 2 18.3537 37.2308 10.7474 -13.1270 0.0599 -4.7863
# 3 15.6291 10.7474 71.8233 -16.5357 -16.2011 -2.4428
# 4 -15.4262 -13.1270 -16.5357 38.7389 -2.6274 -7.8345
# 5 -5.0545 0.0599 -16.2011 -2.6274 19.3381 -2.3605
# 6 -14.3728 -4.7863 -2.4428 -7.8345 -2.3605 27.1924
#
#
#
# Elastic Compliance Matrix: (Units=1/GPa)
#
#
# Indices 1 2 3 4 5 6 
#
# 1 0.012419 -0.003037 0.000825 0.006373 0.005843 0.008447
# 2 -0.003037 0.033641 -0.001529 0.011045 0.000223 0.007381
# 3 0.000825 -0.001529 0.021707 0.011990 0.020937 0.007389
# 4 0.006373 0.011045 0.011990 0.042698 0.019971 0.020425
# 5 0.005843 0.000223 0.020937 0.019971 0.075607 0.017326
# 6 0.008447 0.007381 0.007389 0.020425 0.017326 0.050591
#
#
# Mechanical properties :
#
#
# Convention : Reuss Voigt Hill
#
# Bulk Modulus (GPa) = 16.58805 33.61754 25.10279
# Shear Modulus (GPa) = 18.92229 28.27837 23.60033
#
# Velocity S-wave (km/s) = 2.94862 3.60461 3.29299
# Velocity P-wave (km/s) = 4.38341 5.72458 5.09829
#
# Compressibility (1/GPa) = 0.06028437
#
# Stress axis : x y z
#
# Youngs Moduli (GPa) = 80.52274 29.72590 46.06846
#
# Poissons Ratio (x) = 0.09027 -0.03798
# Poissons Ratio (y) = 0.24452 0.07043
# Poissons Ratio (z) = -0.06639 0.04545
#
# Static dielectric constant tensor:
#      x y z
#    x 1.797290 0.015510 -0.032340 
#    y 0.015510 1.885070 0.020690 
#    z -0.032340 0.020690 1.779370 
# 
# From -- ./inp_files/494354.got.cif
#   From: 2010.05.17/outbox.cif.g08.bks.cpg/sg2_248_cif.got.tgz:494354.got - 2010.06.03 11:33:40.
