data_PCOD9021713
_publ_section_title
;
Structure prediction by ZEFSAII (Michael W. Deem and Ramdas Pophale) SiO2 
 PCOD9021713
Probable space group: P -1
;
_chemical_formula_sum "Si O2"
_cell_formula_units_Z 16
_cell_length_a 19.107270
_cell_length_b 5.104687
_cell_length_c 7.623323
_cell_angle_alpha 60.717573
_cell_angle_beta 96.765448
_cell_angle_gamma 80.339615
_cell_volume 621.830518
_symmetry_space_group_name_H-M "P -1"
_symmetry_group_IT_number 2
_symmetry_cell_setting 'triclinic'
loop_
_space_group_symop_operation_xyz
x,y,z
-x,-y,-z
loop_
_atom_site_type_symbol
_atom_site_label
_atom_site_fract_x
_atom_site_fract_y
_atom_site_fract_z
Si Si1 0.523168 0.143785 0.686496
Si Si2 0.159694 0.715599 0.934228
Si Si3 0.747408 0.896404 0.304789
Si Si4 0.397176 0.133243 0.854641
Si Si5 0.794611 0.258738 0.652826
Si Si6 0.989619 0.857355 0.352636
Si Si7 0.649492 0.162091 0.496920
Si Si8 0.078845 0.233071 0.100948
O O1 0.500000 0.500000 0.500000
O O2 0.449899 0.030236 0.732850
O O3 0.590951 0.011681 0.621671
O O4 0.559629 0.074076 0.909571
O O5 0.220629 0.810947 0.807595
O O6 0.089346 0.003960 0.797807
O O7 0.183873 0.708750 0.147549
O O8 0.128300 0.430688 0.954173
O O9 0.684073 0.903953 0.144742
O O10 0.801730 0.557653 0.447156
O O11 0.700293 0.929099 0.455964
O O12 0.386142 0.508490 0.721540
O O13 0.711106 0.236891 0.620150
O O14 0.851391 0.947613 0.694660
O O15 0.000000 0.500000 0.500000
O O16 0.000000 0.000000 0.500000
O O17 0.044347 0.937030 0.199248
O O18 0.000000 0.500000 0.000000
#
# Coordination Sequence:
#
# PCOD9021713 Si02
#       8
#     2   2   2   2   2   2   2   2
#     4   9  18  39  65  95 134 180 226 281 345 413
#     4  11  26  42  68  96 137 180 232 293 364 434
#     4  11  24  42  65  99 136 181 233 290 356 425
#     4   9  20  39  64  94 136 179 225 283 346 419
#     4  11  24  43  68  94 136 181 233 296 357 438
#     4  11  27  46  74 104 141 187 240 303 371 448
#     4  10  22  38  64  95 134 176 234 286 349 420
#     4  10  25  44  69 100 135 176 236 291 366 433
#
# _framework density 25.730483
#
# number of rings (size 3 to 8) (size 9 to 14) (size 15 to 20)
#    0.000    1.750    0.000    2.250    8.750    5.500 
#    0.000    5.625    0.000    0.000    0.000    0.000 
#    0.000    0.000    0.000    0.000    0.000    0.000 
#
# Total GULP energy -89091.761411 kJ/mol
# GULP energy per Si atom -5568.235088 kJ/mol
# Density = 2.567192 g / cm^3
# Si number density = 25.730483 Si / 1000 Ang^3
#
#
#
# Elastic Constant Matrix: (Units=GPa)
#
#
# Indices 1 2 3 4 5 6 
#
# 1 66.9902 17.6090 72.1050 -42.2394 1.0052 -27.4814
# 2 17.6090 68.8567 41.0806 -13.5585 1.0664 13.2476
# 3 72.1050 41.0806 160.7734 -9.6772 12.9050 11.0781
# 4 -42.2394 -13.5585 -9.6772 39.1993 10.9050 -11.1238
# 5 1.0052 1.0664 12.9050 10.9050 57.0193 5.6423
# 6 -27.4814 13.2476 11.0781 -11.1238 5.6423 17.2805
#
#
#
# Elastic Compliance Matrix: (Units=1/GPa)
#
#
# Indices 1 2 3 4 5 6 
#
# 1 -0.006249 0.001659 0.002825 -0.013113 0.004207 -0.022836
# 2 0.001659 0.019187 -0.004955 0.005639 0.000182 -0.005324
# 3 0.002825 -0.004955 0.006236 0.006637 -0.003602 0.009742
# 4 -0.013113 0.005639 0.006637 0.008377 -0.000620 -0.023838
# 5 0.004207 0.000182 -0.003602 -0.000620 0.018143 0.002538
# 6 -0.022836 -0.005324 0.009742 -0.023838 0.002538 0.003214
#
#
# Mechanical properties :
#
#
# Convention : Reuss Voigt Hill
#
# Bulk Modulus (GPa) = 54.84781 62.02326 58.43554
# Shear Modulus (GPa) = 89.40246 33.75486 61.57866
#
# Velocity S-wave (km/s) = 5.90095 3.62589 4.89736
# Velocity P-wave (km/s) = 8.23352 6.45653 7.39857
#
# Compressibility (1/GPa) = 0.01823227
#
# Stress axis : x y z
#
# Youngs Moduli (GPa) = -160.02064 52.11948 160.35537
#
# Poissons Ratio (x) = -0.08645 -0.45306
# Poissons Ratio (y) = 0.26543 0.79453
# Poissons Ratio (z) = 0.45211 0.25824
#
# Static dielectric constant tensor:
#      x y z
#    x 2.174420 -0.203290 0.044300 
#    y -0.203290 2.642010 0.077950 
#    z 0.044300 0.077950 1.981920 
# 
# From -- ./inp_files/323193.got.cif
#   From: 2010.05.17/outbox.cif.g08.bks.cpg/sg2_162_cif.got.tgz:323193.got - 2010.06.03 11:33:40.
