data_PCOD9021035
_publ_section_title
;
Structure prediction by ZEFSAII (Michael W. Deem and Ramdas Pophale) SiO2 
 PCOD9021035
Probable space group: P -1
;
_chemical_formula_sum "Si O2"
_cell_formula_units_Z 16
_cell_length_a 22.916775
_cell_length_b 14.786695
_cell_length_c 13.704040
_cell_angle_alpha 29.150676
_cell_angle_beta 21.329385
_cell_angle_gamma 33.047590
_cell_volume 814.734396
_symmetry_space_group_name_H-M "P -1"
_symmetry_group_IT_number 2
_symmetry_cell_setting 'triclinic'
loop_
_space_group_symop_operation_xyz
x,y,z
-x,-y,-z
loop_
_atom_site_type_symbol
_atom_site_label
_atom_site_fract_x
_atom_site_fract_y
_atom_site_fract_z
Si Si1 0.990840 0.885124 0.859715
Si Si2 0.633173 0.740795 0.110862
Si Si3 0.031528 0.199404 0.806311
Si Si4 0.989857 0.324185 0.451214
Si Si5 0.576863 0.516276 0.607052
Si Si6 0.637162 0.179438 0.702521
Si Si7 0.123804 0.422051 0.795205
Si Si8 0.794660 0.479006 0.801766
O O1 0.183655 0.817106 0.621815
O O2 0.965841 0.108147 0.679549
O O3 0.931472 0.829094 0.110827
O O4 0.910173 0.780434 0.998118
O O5 0.600618 0.629269 0.363919
O O6 0.501111 0.729727 0.242509
O O7 0.816181 0.674053 0.852156
O O8 0.619409 0.962104 0.948621
O O9 0.171866 0.305857 0.439996
O O10 0.871266 0.346412 0.894874
O O11 0.000000 0.000000 0.000000
O O12 0.916155 0.444341 0.361369
O O13 0.899389 0.403041 0.615610
O O14 0.624112 0.298942 0.708663
O O15 0.697547 0.575755 0.443678
O O16 0.390551 0.542014 0.902946
O O17 0.000000 0.500000 0.000000
#
# Coordination Sequence:
#
# PCOD9021035 Si02
#       8
#     2   2   2   2   2   2   2   2
#     4  11  22  42  68  96 128 171 221 270 318 387
#     4  10  22  39  64  93 129 163 214 266 334 382
#     4  11  23  43  70  99 134 170 206 263 335 397
#     4  11  23  43  67  95 127 174 222 262 322 393
#     4  12  25  41  63  93 132 170 216 272 320 373
#     4  10  22  37  64  98 126 163 212 276 323 386
#     4  12  24  44  66  90 129 180 226 267 316 375
#     4  11  26  40  68 102 130 166 216 265 330 396
#
# _framework density 19.638301999999999
#
# number of rings (size 3 to 8) (size 9 to 14) (size 15 to 20)
#    0.000    1.000    5.000    1.125    3.500    4.000 
#    0.000    0.625    0.000    0.000    0.000    0.000 
#    0.000    0.000    0.000    0.000    0.000    0.000 
#
# Total GULP energy -89454.024366 kJ/mol
# GULP energy per Si atom -5590.876523 kJ/mol
# Density = 1.959360 g / cm^3
# Si number density = 19.638302 Si / 1000 Ang^3
#
#
#
# Elastic Constant Matrix: (Units=GPa)
#
#
# Indices 1 2 3 4 5 6 
#
# 1 72.8975 30.3592 38.6694 -7.9144 -14.5312 13.2233
# 2 30.3592 80.9489 53.2739 -15.2964 -2.5171 7.8938
# 3 38.6694 53.2739 122.1259 0.2191 -25.5090 -0.0945
# 4 -7.9144 -15.2964 0.2191 29.9204 6.2576 -6.5685
# 5 -14.5312 -2.5171 -25.5090 6.2576 36.7568 -0.3884
# 6 13.2233 7.8938 -0.0945 -6.5685 -0.3884 31.3516
#
#
#
# Elastic Compliance Matrix: (Units=1/GPa)
#
#
# Indices 1 2 3 4 5 6 
#
# 1 0.019556 -0.004230 -0.003310 0.000445 0.004994 -0.007038
# 2 -0.004230 0.023366 -0.010928 0.012606 -0.009820 -0.001612
# 3 -0.003310 -0.010928 0.016244 -0.008237 0.010646 0.002603
# 4 0.000445 0.012606 -0.008237 0.043809 -0.012076 0.005642
# 5 0.004994 -0.009820 0.010646 -0.012076 0.037934 -0.001662
# 6 -0.007038 -0.001612 0.002603 0.005642 -0.001662 0.036440
#
#
# Mechanical properties :
#
#
# Convention : Reuss Voigt Hill
#
# Bulk Modulus (GPa) = 44.98604 57.84191 51.41398
# Shear Modulus (GPa) = 22.55341 29.85041 26.20191
#
# Velocity S-wave (km/s) = 3.39254 3.90296 3.65667
# Velocity P-wave (km/s) = 6.18893 7.05892 6.63819
#
# Compressibility (1/GPa) = 0.02222912
#
# Stress axis : x y z
#
# Youngs Moduli (GPa) = 51.13544 42.79688 61.56166
#
# Poissons Ratio (x) = 0.18105 0.20375
# Poissons Ratio (y) = 0.21632 0.67276
# Poissons Ratio (z) = 0.16924 0.46770
#
# Static dielectric constant tensor:
#      x y z
#    x 1.666860 0.014140 -0.002980 
#    y 0.014140 1.707700 -0.017920 
#    z -0.002980 -0.017920 1.700330 
# 
# From -- ./inp_files/454403.got.cif
#   From: 2010.05.17/outbox.cif.g08.bks.cpg/sg2_228_cif.got.tgz:454403.got - 2010.06.03 11:33:40.
