data_PCOD9021695
_publ_section_title
;
Structure prediction by ZEFSAII (Michael W. Deem and Ramdas Pophale) SiO2 
 PCOD9021695
Probable space group: P -1
;
_chemical_formula_sum "Si O2"
_cell_formula_units_Z 16
_cell_length_a 18.895045
_cell_length_b 19.490952
_cell_length_c 8.365029
_cell_angle_alpha 41.053793
_cell_angle_beta 128.226824
_cell_angle_gamma 158.410483
_cell_volume 699.852564
_symmetry_space_group_name_H-M "P -1"
_symmetry_group_IT_number 2
_symmetry_cell_setting 'triclinic'
loop_
_space_group_symop_operation_xyz
x,y,z
-x,-y,-z
loop_
_atom_site_type_symbol
_atom_site_label
_atom_site_fract_x
_atom_site_fract_y
_atom_site_fract_z
Si Si1 0.845653 0.496126 0.469146
Si Si2 0.979482 0.423293 0.941130
Si Si3 0.700878 0.746072 0.448193
Si Si4 0.492696 0.737813 0.150745
Si Si5 0.101698 0.270041 0.645865
Si Si6 0.356595 0.746273 0.726988
Si Si7 0.880406 0.885666 0.792250
Si Si8 0.557310 0.939213 0.162621
O O1 0.973146 0.711148 0.378305
O O2 0.784243 0.420052 0.332737
O O3 0.624703 0.301426 0.573691
O O4 0.927650 0.465327 0.676974
O O5 0.185368 0.580793 0.913550
O O6 0.000000 0.500000 0.000000
O O7 0.782174 0.146029 0.167760
O O8 0.500000 0.500000 0.500000
O O9 0.669293 0.837545 0.243854
O O10 0.728923 0.740044 0.683749
O O11 0.902560 0.920985 0.326697
O O12 0.288674 0.487134 0.400271
O O13 0.554442 0.907336 0.031028
O O14 0.466137 0.750778 0.911530
O O15 0.171969 0.256818 0.898795
O O16 0.927039 0.037168 0.697842
O O17 0.500000 0.000000 0.500000
O O18 0.500000 0.000000 0.000000
#
# Coordination Sequence:
#
# PCOD9021695 Si02
#       8
#     2   2   2   2   2   2   2   2
#     4  10  22  38  64  93 130 172 228 278 340 419
#     4  11  21  38  64  90 129 175 218 284 335 407
#     4  11  24  45  71 103 135 177 228 290 354 404
#     4  11  24  42  68  93 134 181 227 277 348 414
#     4  10  22  44  65 102 132 182 229 279 347 412
#     4  12  25  41  63  97 140 178 229 289 343 404
#     4  10  24  45  72  97 143 172 229 298 340 417
#     4   9  19  40  60  89 125 166 218 270 332 403
#
# _framework density 22.861955999999999
#
# number of rings (size 3 to 8) (size 9 to 14) (size 15 to 20)
#    0.000    1.500    1.250    4.875    1.750    4.500 
#    0.000    1.250    0.000    0.000    0.000    0.000 
#    0.000    0.000    0.000    0.000    0.000    0.000 
#
# Total GULP energy -89103.516721 kJ/mol
# GULP energy per Si atom -5568.969795 kJ/mol
# Density = 2.280992 g / cm^3
# Si number density = 22.861956 Si / 1000 Ang^3
#
#
#
# Elastic Constant Matrix: (Units=GPa)
#
#
# Indices 1 2 3 4 5 6 
#
# 1 83.3080 22.1631 8.2607 8.0022 12.8778 -17.5001
# 2 22.1631 116.5505 32.4116 22.5844 -1.0713 -13.5539
# 3 8.2607 32.4116 72.2663 24.8686 6.5895 -7.8427
# 4 8.0022 22.5844 24.8686 42.1072 -3.2488 -8.0531
# 5 12.8778 -1.0713 6.5895 -3.2488 27.0495 2.0652
# 6 -17.5001 -13.5539 -7.8427 -8.0531 2.0652 40.3960
#
#
#
# Elastic Compliance Matrix: (Units=1/GPa)
#
#
# Indices 1 2 3 4 5 6 
#
# 1 0.015247 -0.002264 0.001384 -0.001972 -0.008392 0.006150
# 2 -0.002264 0.010725 -0.003636 -0.002783 0.001958 0.001257
# 3 0.001384 -0.003636 0.019589 -0.010125 -0.006907 0.001517
# 4 -0.001972 -0.002783 -0.010125 0.032595 0.007028 0.002385
# 5 -0.008392 0.001958 -0.006907 0.007028 0.043963 -0.005166
# 6 0.006150 0.001257 0.001517 0.002385 -0.005166 0.028875
#
#
# Mechanical properties :
#
#
# Convention : Reuss Voigt Hill
#
# Bulk Modulus (GPa) = 27.37524 44.19949 35.78737
# Shear Modulus (GPa) = 29.03554 35.86316 32.44935
#
# Velocity S-wave (km/s) = 3.56762 3.96496 3.77153
# Velocity P-wave (km/s) = 5.38245 6.35109 5.88673
#
# Compressibility (1/GPa) = 0.03652936
#
# Stress axis : x y z
#
# Youngs Moduli (GPa) = 65.58484 93.23932 51.04955
#
# Poissons Ratio (x) = 0.21110 -0.07064
# Poissons Ratio (y) = 0.14849 0.18560
# Poissons Ratio (z) = -0.09075 0.33899
#
# Static dielectric constant tensor:
#      x y z
#    x 1.915110 -0.105510 0.097800 
#    y -0.105510 2.093750 -0.073430 
#    z 0.097800 -0.073430 2.010310 
# 
# From -- ./inp_files/349428.got.cif
#   From: 2010.05.17/outbox.cif.g08.bks.cpg/sg2_175_cif.got.tgz:349428.got - 2010.06.03 11:33:40.
