data_PCOD9021551
_publ_section_title
;
Structure prediction by ZEFSAII (Michael W. Deem and Ramdas Pophale) SiO2 
 PCOD9021551
Probable space group: P -1
;
_chemical_formula_sum "Si O2"
_cell_formula_units_Z 16
_cell_length_a 10.310319
_cell_length_b 8.668559
_cell_length_c 8.916952
_cell_angle_alpha 84.925567
_cell_angle_beta 113.527102
_cell_angle_gamma 95.705148
_cell_volume 726.049017
_symmetry_space_group_name_H-M "P -1"
_symmetry_group_IT_number 2
_symmetry_cell_setting 'triclinic'
loop_
_space_group_symop_operation_xyz
x,y,z
-x,-y,-z
loop_
_atom_site_type_symbol
_atom_site_label
_atom_site_fract_x
_atom_site_fract_y
_atom_site_fract_z
Si Si1 0.038018 0.794897 0.449026
Si Si2 0.762063 0.754866 0.540240
Si Si3 0.274730 0.592007 0.483702
Si Si4 0.048094 0.058599 0.180668
Si Si5 0.539601 0.137551 0.622530
Si Si6 0.383433 0.058022 0.054040
Si Si7 0.439877 0.635739 0.863881
Si Si8 0.799557 0.146890 0.190502
O O1 0.117665 0.645256 0.445459
O O2 0.153756 0.870815 0.615065
O O3 0.890695 0.768658 0.475350
O O4 0.031396 0.912641 0.298949
O O5 0.737456 0.574201 0.585095
O O6 0.804128 0.856971 0.699203
O O7 0.612690 0.805649 0.402893
O O8 0.361194 0.725360 0.417275
O O9 0.365933 0.578982 0.680150
O O10 0.942224 0.191763 0.163281
O O11 0.000000 0.000000 0.000000
O O12 0.500000 0.000000 0.500000
O O13 0.620677 0.061058 0.801239
O O14 0.433536 0.230098 0.112497
O O15 0.500000 0.000000 0.000000
O O16 0.247838 0.017342 0.893639
O O17 0.316478 0.727675 0.880276
O O18 0.500000 0.500000 0.000000
#
# Coordination Sequence:
#
# PCOD9021551 Si02
#       8
#     2   2   2   2   2   2   2   2
#     4  10  23  46  74  93 132 187 231 276 334 418
#     4  11  25  44  69  99 137 179 232 273 348 405
#     4  11  24  44  70 103 138 179 226 286 351 395
#     4  11  25  41  71 100 130 178 234 284 334 402
#     4  12  25  43  70 100 139 182 227 287 340 405
#     4  10  23  39  67  96 132 177 236 268 334 401
#     4  10  22  38  63 101 139 174 221 279 339 404
#     4   9  21  40  65  95 129 174 233 270 326 400
#
# _framework density 22.037077
#
# number of rings (size 3 to 8) (size 9 to 14) (size 15 to 20)
#    0.000    1.500    1.250    3.000   14.000    0.000 
#    0.000    0.625    2.750    0.000    0.000    0.000 
#    0.000    0.000    0.000    0.000    0.000    0.000 
#
# Total GULP energy -89288.736598 kJ/mol
# GULP energy per Si atom -5580.546037 kJ/mol
# Density = 2.198692 g / cm^3
# Si number density = 22.037077 Si / 1000 Ang^3
#
#
#
# Elastic Constant Matrix: (Units=GPa)
#
#
# Indices 1 2 3 4 5 6 
#
# 1 100.4613 35.7698 32.0744 -16.2953 9.4615 -4.1794
# 2 35.7698 117.8489 58.7771 -13.4135 -1.2234 5.7071
# 3 32.0744 58.7771 133.0111 -13.2930 -4.0474 -8.6764
# 4 -16.2953 -13.4135 -13.2930 36.3656 -1.6657 -0.9986
# 5 9.4615 -1.2234 -4.0474 -1.6657 31.7329 -5.4916
# 6 -4.1794 5.7071 -8.6764 -0.9986 -5.4916 26.6520
#
#
#
# Elastic Compliance Matrix: (Units=1/GPa)
#
#
# Indices 1 2 3 4 5 6 
#
# 1 0.012402 -0.002727 -0.001404 0.003918 -0.003518 0.001494
# 2 -0.002727 0.012110 -0.004859 0.001340 -0.000059 -0.004565
# 3 -0.001404 -0.004859 0.010564 0.001688 0.002505 0.004839
# 4 0.003918 0.001340 0.001688 0.030477 0.001087 0.002243
# 5 -0.003518 -0.000059 0.002505 0.001087 0.034211 0.007366
# 6 0.001494 -0.004565 0.004839 0.002243 0.007366 0.041909
#
#
# Mechanical properties :
#
#
# Convention : Reuss Voigt Hill
#
# Bulk Modulus (GPa) = 58.49156 67.17379 62.83267
# Shear Modulus (GPa) = 30.23840 33.93012 32.08426
#
# Velocity S-wave (km/s) = 3.70829 3.92814 3.81979
# Velocity P-wave (km/s) = 6.70337 7.14997 6.93027
#
# Compressibility (1/GPa) = 0.01709648
#
# Stress axis : x y z
#
# Youngs Moduli (GPa) = 80.63043 82.57811 94.65710
#
# Poissons Ratio (x) = 0.22521 0.13286
# Poissons Ratio (y) = 0.21990 0.45996
# Poissons Ratio (z) = 0.11317 0.40126
#
# Static dielectric constant tensor:
#      x y z
#    x 2.921780 0.358830 0.365480 
#    y 0.358830 1.922660 0.152970 
#    z 0.365480 0.152970 1.945120 
# 
# From -- ./inp_files/238722.got.cif
#   From: 2010.05.17/outbox.cif.g08.bks.cpg/sg2_120_cif.got.tgz:238722.got - 2010.06.03 11:33:40.
