data_PCOD9021912
_publ_section_title
;
Structure prediction by ZEFSAII (Michael W. Deem and Ramdas Pophale) SiO2 
 PCOD9021912
Probable space group: P -1
;
_chemical_formula_sum "Si O2"
_cell_formula_units_Z 12
_cell_length_a 5.087175
_cell_length_b 9.077211
_cell_length_c 10.951600
_cell_angle_alpha 69.967388
_cell_angle_beta 87.332690
_cell_angle_gamma 76.077719
_cell_volume 460.804283
_symmetry_space_group_name_H-M "P -1"
_symmetry_group_IT_number 2
_symmetry_cell_setting 'triclinic'
loop_
_space_group_symop_operation_xyz
x,y,z
-x,-y,-z
loop_
_atom_site_type_symbol
_atom_site_label
_atom_site_fract_x
_atom_site_fract_y
_atom_site_fract_z
Si Si1 0.825276 0.370827 0.970663
Si Si2 0.910086 0.803089 0.544362
Si Si3 0.841093 0.452677 0.219569
Si Si4 0.441385 0.159060 0.034276
Si Si5 0.568628 0.006304 0.332521
Si Si6 0.641972 0.638457 0.410199
O O1 0.731049 0.432260 0.091802
O O2 0.629494 0.270568 0.949964
O O3 0.126716 0.252669 0.013524
O O4 0.872185 0.509377 0.838878
O O5 0.643634 0.877629 0.608533
O O6 0.868766 0.656735 0.499820
O O7 0.133832 0.713030 0.659380
O O8 0.868778 0.948218 0.404888
O O9 0.725705 0.589516 0.283541
O O10 0.553250 0.100158 0.181554
O O11 0.500000 0.000000 0.000000
O O12 0.489955 0.831683 0.361553
O O13 0.500000 0.500000 0.500000
#
# Coordination Sequence:
#
# PCOD9021912 Si02
#       6
#     2   2   2   2   2   2
#     4  11  28  44  77 107 149 200 240 309 370 439
#     4   9  20  42  64  98 145 183 238 297 371 423
#     4  11  23  44  69 111 148 190 250 303 369 445
#     4  12  25  50  72 108 145 198 250 303 368 444
#     4   9  21  42  68  97 148 182 245 297 370 431
#     4  10  22  38  67 103 138 192 240 304 362 434
#
# _framework density 26.041423999999999
#
# number of rings (size 3 to 8) (size 9 to 14) (size 15 to 20)
#    1.000    0.667    1.667    2.000    2.333    5.333 
#    3.000    1.667    0.000    0.000    0.000    0.000 
#    0.000    0.000    0.000    0.000    0.000    0.000 
#
# Total GULP energy -66998.397505 kJ/mol
# GULP energy per Si atom -5583.199792 kJ/mol
# Density = 2.598215 g / cm^3
# Si number density = 26.041424 Si / 1000 Ang^3
#
#
#
# Elastic Constant Matrix: (Units=GPa)
#
#
# Indices 1 2 3 4 5 6 
#
# 1 87.5832 34.8575 33.9620 3.2452 1.4367 0.6658
# 2 34.8575 193.7161 41.6729 14.8436 -14.0336 -3.0979
# 3 33.9620 41.6729 133.6853 14.1717 16.0971 -2.1475
# 4 3.2452 14.8436 14.1717 61.0465 -6.3340 -3.8710
# 5 1.4367 -14.0336 16.0971 -6.3340 38.5760 -12.2546
# 6 0.6658 -3.0979 -2.1475 -3.8710 -12.2546 42.2030
#
#
#
# Elastic Compliance Matrix: (Units=1/GPa)
#
#
# Indices 1 2 3 4 5 6 
#
# 1 0.013229 -0.001810 -0.002835 0.000359 -0.000058 -0.000470
# 2 -0.001810 0.006184 -0.001797 -0.000554 0.003398 0.001327
# 3 -0.002835 -0.001797 0.009629 -0.002292 -0.005378 -0.001369
# 4 0.000359 -0.000554 -0.002292 0.017674 0.004524 0.002772
# 5 -0.000058 0.003398 -0.005378 0.004524 0.033349 0.010075
# 6 -0.000470 0.001327 -0.001369 0.002772 0.010075 0.026910
#
#
# Mechanical properties :
#
#
# Convention : Reuss Voigt Hill
#
# Bulk Modulus (GPa) = 61.88842 70.66327 66.27585
# Shear Modulus (GPa) = 39.92196 48.66457 44.29326
#
# Velocity S-wave (km/s) = 3.91962 4.32758 4.12864
# Velocity P-wave (km/s) = 6.65594 7.22250 6.94500
#
# Compressibility (1/GPa) = 0.01615811
#
# Stress axis : x y z
#
# Youngs Moduli (GPa) = 75.59406 161.70169 103.85017
#
# Poissons Ratio (x) = 0.29263 0.29443
# Poissons Ratio (y) = 0.13680 0.18663
# Poissons Ratio (z) = 0.21432 0.29060
#
# Static dielectric constant tensor:
#      x y z
#    x 2.173640 0.049530 0.075210 
#    y 0.049530 2.106930 -0.059730 
#    z 0.075210 -0.059730 2.073510 
# 
# From -- ./inp_files/360066.got.cif
#   From: 2010.05.17/outbox.cif.g08.bks.cpg/sg2_181_cif.got.tgz:360066.got - 2010.06.03 11:33:40.
