data_PCOD9021214
_publ_section_title
;
Structure prediction by ZEFSAII (Michael W. Deem and Ramdas Pophale) SiO2 
 PCOD9021214
Probable space group: P -1
;
_chemical_formula_sum "Si O2"
_cell_formula_units_Z 16
_cell_length_a 15.213915
_cell_length_b 15.913025
_cell_length_c 15.238800
_cell_angle_alpha 36.584561
_cell_angle_beta 19.738392
_cell_angle_gamma 35.139585
_cell_volume 706.561537
_symmetry_space_group_name_H-M "P -1"
_symmetry_group_IT_number 2
_symmetry_cell_setting 'triclinic'
loop_
_space_group_symop_operation_xyz
x,y,z
-x,-y,-z
loop_
_atom_site_type_symbol
_atom_site_label
_atom_site_fract_x
_atom_site_fract_y
_atom_site_fract_z
Si Si1 0.835734 0.840328 0.738865
Si Si2 0.595190 0.176181 0.698744
Si Si3 0.974475 0.581873 0.329427
Si Si4 0.153382 0.454501 0.103733
Si Si5 0.291932 0.894361 0.852235
Si Si6 0.523619 0.838451 0.497025
Si Si7 0.281535 0.609544 0.177739
Si Si8 0.508392 0.629280 0.536743
O O1 0.803040 0.717812 0.805643
O O2 0.152924 0.816337 0.482978
O O3 0.698298 0.011026 0.698503
O O4 0.673317 0.815984 0.999140
O O5 0.542152 0.300778 0.570553
O O6 0.213174 0.489597 0.118853
O O7 0.016293 0.630867 0.346330
O O8 0.837613 0.737200 0.281196
O O9 0.783652 0.475304 0.606525
O O10 0.832062 0.541523 0.315251
O O11 0.336569 0.518682 0.813871
O O12 0.418504 0.806375 0.718163
O O13 0.470670 0.994765 0.637254
O O14 0.296958 0.774900 0.022923
O O15 0.000000 0.000000 0.000000
O O16 0.407231 0.768554 0.584125
O O17 0.500000 0.500000 0.000000
#
# Coordination Sequence:
#
# PCOD9021214 Si02
#       8
#     2   2   2   2   2   2   2   2
#     4  10  22  43  66  93 130 165 200 252 312 370
#     4  10  22  43  66  93 130 165 200 252 312 370
#     4  10  22  38  58  86 123 160 203 258 311 356
#     4  11  24  41  65  94 125 164 207 258 309 366
#     4  11  21  38  61  84 118 164 209 254 303 367
#     4  10  22  38  58  86 123 160 203 258 311 356
#     4  11  21  38  61  84 118 164 209 254 303 367
#     4  11  24  41  65  94 125 164 207 258 309 366
#
# _framework density 22.644877999999999
#
# number of rings (size 3 to 8) (size 9 to 14) (size 15 to 20)
#    0.000    1.500    2.500    2.250    3.500    3.000 
#    4.500    1.250    0.000    0.000    0.000    0.000 
#    0.000    0.000    0.000    0.000    0.000    0.000 
#
# Total GULP energy -89225.156265 kJ/mol
# GULP energy per Si atom -5576.572267 kJ/mol
# Density = 2.259334 g / cm^3
# Si number density = 22.644878 Si / 1000 Ang^3
#
#
#
# Elastic Constant Matrix: (Units=GPa)
#
#
# Indices 1 2 3 4 5 6 
#
# 1 10.3229 2.4165 -11.8106 -6.4511 -1.1043 3.5710
# 2 2.4165 64.5127 5.3399 -18.5313 -4.6298 13.3389
# 3 -11.8106 5.3399 97.9868 -11.2892 -1.2765 -12.8038
# 4 -6.4511 -18.5313 -11.2892 40.4865 -3.3840 1.2722
# 5 -1.1043 -4.6298 -1.2765 -3.3840 22.0011 -6.1009
# 6 3.5710 13.3389 -12.8038 1.2722 -6.1009 25.6159
#
#
#
# Elastic Compliance Matrix: (Units=1/GPa)
#
#
# Indices 1 2 3 4 5 6 
#
# 1 0.142826 0.005551 0.019140 0.031936 0.010975 -0.012207
# 2 0.005551 0.021227 -0.000748 0.011026 0.003065 -0.012019
# 3 0.019140 -0.000748 0.014102 0.006818 0.004175 0.005426
# 4 0.031936 0.011026 0.006818 0.037636 0.008253 -0.006689
# 5 0.010975 0.003065 0.004175 0.008253 0.051135 0.010729
# 6 -0.012207 -0.012019 0.005426 -0.006689 0.010729 0.052598
#
#
# Mechanical properties :
#
#
# Convention : Reuss Voigt Hill
#
# Bulk Modulus (GPa) = 4.42398 18.30156 11.36277
# Shear Modulus (GPa) = 14.40988 29.41249 21.91119
#
# Velocity S-wave (km/s) = 2.52532 3.60788 3.11400
# Velocity P-wave (km/s) = 3.23432 5.04532 4.23769
#
# Compressibility (1/GPa) = 0.22604088
#
# Stress axis : x y z
#
# Youngs Moduli (GPa) = 7.00155 47.10993 70.91167
#
# Poissons Ratio (x) = -0.26151 -1.35725
# Poissons Ratio (y) = -0.03887 0.05304
# Poissons Ratio (z) = -0.13401 0.03523
#
# Static dielectric constant tensor:
#      x y z
#    x 1.979470 -0.021270 -0.075060 
#    y -0.021270 1.863700 0.018410 
#    z -0.075060 0.018410 1.965080 
# 
# From -- ./inp_files/50891.got.cif
#   From: 2010.05.17/outbox.cif.g08.bks.cpg/sg2_26_cif.got.tgz:50891.got - 2010.06.03 11:33:40.
