data_PCOD9021502
_publ_section_title
;
Structure prediction by ZEFSAII (Michael W. Deem and Ramdas Pophale) SiO2 
 PCOD9021502
Probable space group: P -1
;
_chemical_formula_sum "Si O2"
_cell_formula_units_Z 15
_cell_length_a 14.436822
_cell_length_b 8.190422
_cell_length_c 22.780877
_cell_angle_alpha 134.765815
_cell_angle_beta 158.046540
_cell_angle_gamma 54.438614
_cell_volume 688.510949
_symmetry_space_group_name_H-M "P -1"
_symmetry_group_IT_number 2
_symmetry_cell_setting 'triclinic'
loop_
_space_group_symop_operation_xyz
x,y,z
-x,-y,-z
loop_
_atom_site_type_symbol
_atom_site_label
_atom_site_fract_x
_atom_site_fract_y
_atom_site_fract_z
Si Si1 0.896598 0.926127 0.734370
Si Si2 0.500000 0.500000 0.500000
Si Si3 0.049635 0.120082 0.995322
Si Si4 0.070848 0.588094 0.180778
Si Si5 0.533984 0.067635 0.969488
Si Si6 0.173763 0.591159 0.426444
Si Si7 0.592001 0.061273 0.257992
Si Si8 0.674178 0.489762 0.025437
O O1 0.827273 0.147370 0.719151
O O2 0.767943 0.650278 0.574872
O O3 0.879687 0.952583 0.802131
O O4 0.188429 0.948817 0.892162
O O5 0.283913 0.526264 0.331385
O O6 0.389669 0.672822 0.524648
O O7 0.002104 0.379334 0.038884
O O8 0.340032 0.146921 0.150495
O O9 0.000000 0.000000 0.000000
O O10 0.820088 0.563848 0.068009
O O11 0.354600 0.915630 0.774414
O O12 0.486957 0.327935 0.006207
O O13 0.500000 0.000000 0.000000
O O14 0.183909 0.784956 0.530937
O O15 0.905944 0.514913 0.214648
O O16 0.499740 0.780233 0.146733
#
# Coordination Sequence:
#
# PCOD9021502 Si02
#       8
#     2   1   2   2   2   2   2   2
#     4  11  24  40  67  96 133 170 217 276 325 387
#     4  10  22  38  62  92 138 168 210 260 318 402
#     4  11  19  39  64  96 129 168 219 267 319 395
#     4  11  21  39  67  96 129 177 213 266 334 388
#     4  11  23  45  67  93 132 171 218 278 328 378
#     4  11  23  41  64 100 130 170 220 263 325 393
#     4  11  23  40  69  96 126 173 222 265 323 396
#     4  11  22  42  70  90 129 175 218 272 324 381
#
# _framework density 21.786144
#
# number of rings (size 3 to 8) (size 9 to 14) (size 15 to 20)
#    0.000    1.067    6.667    1.600    0.000    1.067 
#    0.000    3.333    0.000    0.000    0.000    0.000 
#    0.000    0.000    0.000    0.000    0.000    0.000 
#
# Total GULP energy -83528.506619 kJ/mol
# GULP energy per Si atom -5568.567108 kJ/mol
# Density = 2.173656 g / cm^3
# Si number density = 21.786144 Si / 1000 Ang^3
#
#
#
# Elastic Constant Matrix: (Units=GPa)
#
#
# Indices 1 2 3 4 5 6 
#
# 1 156.7500 46.9616 21.5045 10.0411 -18.7407 -4.5449
# 2 46.9616 127.6272 39.4389 11.0173 -16.7178 -12.1405
# 3 21.5045 39.4389 38.7463 10.3339 -14.6277 -2.9068
# 4 10.0411 11.0173 10.3339 34.6648 -16.6619 -1.3153
# 5 -18.7407 -16.7178 -14.6277 -16.6619 32.8109 2.9087
# 6 -4.5449 -12.1405 -2.9068 -1.3153 2.9087 39.1003
#
#
#
# Elastic Compliance Matrix: (Units=1/GPa)
#
#
# Indices 1 2 3 4 5 6 
#
# 1 0.007470 -0.002089 -0.000993 0.000162 0.002848 -0.000060
# 2 -0.002089 0.012316 -0.011242 0.000083 -0.000132 0.002758
# 3 -0.000993 -0.011242 0.042855 -0.003639 0.011084 -0.001367
# 4 0.000162 0.000083 -0.003639 0.038557 0.018117 -0.000277
# 5 0.002848 -0.000132 0.011084 0.018117 0.046331 -0.001723
# 6 -0.000060 0.002758 -0.001367 -0.000277 -0.001723 0.026442
#
#
# Mechanical properties :
#
#
# Convention : Reuss Voigt Hill
#
# Bulk Modulus (GPa) = 29.41651 59.88149 44.64900
# Shear Modulus (GPa) = 23.37024 35.66308 29.51666
#
# Velocity S-wave (km/s) = 3.27878 4.05033 3.68480
# Velocity P-wave (km/s) = 5.27878 7.02988 6.21630
#
# Compressibility (1/GPa) = 0.03399451
#
# Stress axis : x y z
#
# Youngs Moduli (GPa) = 133.87227 81.19803 23.33462
#
# Poissons Ratio (x) = 0.16959 0.02316
# Poissons Ratio (y) = 0.27960 0.26232
# Poissons Ratio (z) = 0.13289 0.91279
#
# Static dielectric constant tensor:
#      x y z
#    x 1.886440 0.062200 0.022600 
#    y 0.062200 1.829010 0.030640 
#    z 0.022600 0.030640 1.907770 
# 
# From -- ./inp_files/470792.got.cif
#   From: 2010.05.17/outbox.cif.g08.bks.cpg/sg2_236_cif.got.tgz:470792.got - 2010.06.03 11:33:40.
