data_PCOD9021454
_publ_section_title
;
Structure prediction by ZEFSAII (Michael W. Deem and Ramdas Pophale) SiO2 
 PCOD9021454
Probable space group: P -1
;
_chemical_formula_sum "Si O2"
_cell_formula_units_Z 11
_cell_length_a 11.839565
_cell_length_b 8.063982
_cell_length_c 14.462208
_cell_angle_alpha 136.090783
_cell_angle_beta 151.912408
_cell_angle_gamma 58.175086
_cell_volume 425.345696
_symmetry_space_group_name_H-M "P -1"
_symmetry_group_IT_number 2
_symmetry_cell_setting 'triclinic'
loop_
_space_group_symop_operation_xyz
x,y,z
-x,-y,-z
loop_
_atom_site_type_symbol
_atom_site_label
_atom_site_fract_x
_atom_site_fract_y
_atom_site_fract_z
Si Si1 0.853076 0.299078 0.013640
Si Si2 0.365784 0.500203 0.545517
Si Si3 0.226786 0.170177 0.794684
Si Si4 0.740290 0.289258 0.253919
Si Si5 0.000000 0.500000 0.000000
Si Si6 0.368897 0.813217 0.491349
O O1 0.590802 0.071483 0.741846
O O2 0.807357 0.558554 0.112671
O O3 0.092790 0.287423 0.242883
O O4 0.950289 0.329984 0.991777
O O5 0.363627 0.600997 0.686420
O O6 0.385977 0.705611 0.561890
O O7 0.595282 0.393493 0.643709
O O8 0.224559 0.971027 0.794494
O O9 0.518540 0.235624 0.996369
O O10 0.000000 0.000000 0.500000
O O11 0.000000 0.500000 0.500000
O O12 0.086640 0.769985 0.237915
#
# Coordination Sequence:
#
# PCOD9021454 Si02
#       6
#     2   2   2   2   1   2
#     4  11  22  40  69  97 137 183 228 288 349 412
#     4  10  22  43  64 100 136 176 235 286 340 423
#     4  11  25  48  69 101 142 185 243 285 342 425
#     4  11  26  46  72 102 139 190 235 293 354 414
#     4  10  22  38  62 102 130 168 230 284 346 412
#     4  10  22  40  70  97 136 183 224 289 349 411
#
# _framework density 25.861317
#
# number of rings (size 3 to 8) (size 9 to 14) (size 15 to 20)
#    0.000    1.455    1.818    2.182    0.000    8.000 
#    0.000    0.000    0.000    0.000    0.000    0.000 
#    0.000    0.000    0.000    0.000    0.000    0.000 
#
# Total GULP energy -61344.343584 kJ/mol
# GULP energy per Si atom -5576.758508 kJ/mol
# Density = 2.580246 g / cm^3
# Si number density = 25.861317 Si / 1000 Ang^3
#
#
#
# Elastic Constant Matrix: (Units=GPa)
#
#
# Indices 1 2 3 4 5 6 
#
# 1 81.0160 25.0348 38.7716 16.8059 3.8809 -12.6739
# 2 25.0348 72.9637 26.7571 -0.0650 0.2039 -20.7767
# 3 38.7716 26.7571 205.7124 20.8868 27.0525 18.3588
# 4 16.8059 -0.0650 20.8868 53.4098 11.1174 1.9042
# 5 3.8809 0.2039 27.0525 11.1174 46.5159 1.4616
# 6 -12.6739 -20.7767 18.3588 1.9042 1.4616 33.5174
#
#
#
# Elastic Compliance Matrix: (Units=1/GPa)
#
#
# Indices 1 2 3 4 5 6 
#
# 1 0.016521 -0.002733 -0.003042 -0.004507 0.001278 0.006420
# 2 -0.002733 0.019610 -0.003528 0.001506 0.001428 0.012907
# 3 -0.003042 -0.003528 0.007053 -0.000846 -0.003410 -0.007004
# 4 -0.004507 0.001506 -0.000846 0.021398 -0.004211 -0.001340
# 5 0.001278 0.001428 -0.003410 -0.004211 0.024299 0.002416
# 6 0.006420 0.012907 -0.007004 -0.001340 0.002416 0.044070
#
#
# Mechanical properties :
#
#
# Convention : Reuss Voigt Hill
#
# Bulk Modulus (GPa) = 40.68646 60.09102 50.38874
# Shear Modulus (GPa) = 31.29900 44.63053 37.96477
#
# Velocity S-wave (km/s) = 3.48266 4.15874 3.83562
# Velocity P-wave (km/s) = 5.65142 6.80782 6.25640
#
# Compressibility (1/GPa) = 0.02457820
#
# Stress axis : x y z
#
# Youngs Moduli (GPa) = 60.52740 50.99539 141.78889
#
# Poissons Ratio (x) = 0.13936 0.43129
# Poissons Ratio (y) = 0.16541 0.50026
# Poissons Ratio (z) = 0.18411 0.17992
#
# Static dielectric constant tensor:
#      x y z
#    x 2.114310 0.049490 -0.448160 
#    y 0.049490 1.857430 0.284030 
#    z -0.448160 0.284030 1.937670 
# 
# From -- ./inp_files/58210.got.cif
#   From: 2010.05.17/outbox.cif.g08.bks.cpg/sg2_30_cif.got.tgz:58210.got - 2010.06.03 11:33:40.
