data_PCOD9021062
_publ_section_title
;
Structure prediction by ZEFSAII (Michael W. Deem and Ramdas Pophale) SiO2 
 PCOD9021062
Probable space group: P -1
;
_chemical_formula_sum "Si O2"
_cell_formula_units_Z 16
_cell_length_a 9.861846
_cell_length_b 9.092900
_cell_length_c 11.674135
_cell_angle_alpha 130.226671
_cell_angle_beta 112.093325
_cell_angle_gamma 54.550067
_cell_volume 651.098878
_symmetry_space_group_name_H-M "P -1"
_symmetry_group_IT_number 2
_symmetry_cell_setting 'triclinic'
loop_
_space_group_symop_operation_xyz
x,y,z
-x,-y,-z
loop_
_atom_site_type_symbol
_atom_site_label
_atom_site_fract_x
_atom_site_fract_y
_atom_site_fract_z
Si Si1 0.082841 0.621126 0.846577
Si Si2 0.473297 0.996272 0.853002
Si Si3 0.939606 0.305167 0.675624
Si Si4 0.637063 0.529390 0.982945
Si Si5 0.790220 0.876634 0.739863
Si Si6 0.556057 0.524437 0.686828
Si Si7 0.237325 0.496783 0.592496
Si Si8 0.040914 0.047232 0.353437
O O1 0.190716 0.641945 0.991256
O O2 0.206142 0.483538 0.711307
O O3 0.979217 0.502543 0.797278
O O4 0.941603 0.835963 0.850161
O O5 0.632249 0.959703 0.810582
O O6 0.464217 0.770215 0.727577
O O7 0.349757 0.241751 0.893956
O O8 0.500000 0.000000 0.000000
O O9 0.743160 0.393791 0.631053
O O10 0.049841 0.146767 0.529271
O O11 0.980959 0.160747 0.729647
O O12 0.500000 0.500000 0.000000
O O13 0.591005 0.526472 0.834774
O O14 0.819672 0.648603 0.575137
O O15 0.797023 0.009112 0.698636
O O16 0.426854 0.430819 0.590571
O O17 0.117294 0.751335 0.652843
#
# Coordination Sequence:
#
# PCOD9021062 Si02
#       8
#     2   2   2   2   2   2   2   2
#     4  11  21  43  67  92 130 173 212 271 319 387
#     4  10  24  45  67  92 135 170 222 263 322 388
#     4  11  22  41  63 100 133 165 219 268 324 381
#     4  11  25  45  67  92 128 174 222 270 318 381
#     4  11  21  44  67  99 129 176 216 259 336 385
#     4  11  24  44  64  96 133 173 218 267 328 379
#     4  11  21  41  69  97 135 172 212 266 329 388
#     4  10  22  37  65  98 136 165 214 266 326 393
#
# _framework density 24.573840000000001
#
# number of rings (size 3 to 8) (size 9 to 14) (size 15 to 20)
#    0.000    1.250    5.000    0.750    3.500    2.500 
#    2.250    1.875    0.000    0.000    0.000    0.000 
#    0.000    0.000    0.000    0.000    0.000    0.000 
#
# Total GULP energy -89401.105906 kJ/mol
# GULP energy per Si atom -5587.569119 kJ/mol
# Density = 2.451791 g / cm^3
# Si number density = 24.573840 Si / 1000 Ang^3
#
#
#
# Elastic Constant Matrix: (Units=GPa)
#
#
# Indices 1 2 3 4 5 6 
#
# 1 128.9602 15.2101 31.8701 -10.0775 -8.4691 26.5398
# 2 15.2101 98.7349 18.7675 -5.0590 7.1853 29.4363
# 3 31.8701 18.7675 73.4037 -14.1736 -6.6329 5.2104
# 4 -10.0775 -5.0590 -14.1736 30.2791 3.0647 -1.7266
# 5 -8.4691 7.1853 -6.6329 3.0647 45.2179 -12.7062
# 6 26.5398 29.4363 5.2104 -1.7266 -12.7062 40.8892
#
#
#
# Elastic Compliance Matrix: (Units=1/GPa)
#
#
# Indices 1 2 3 4 5 6 
#
# 1 0.010170 0.001628 -0.004130 0.001412 -0.001178 -0.007554
# 2 0.001628 0.015191 -0.004016 0.001096 -0.006558 -0.013473
# 3 -0.004130 -0.004016 0.017597 0.006118 0.003330 0.004622
# 4 0.001412 0.001096 0.006118 0.036651 -0.001928 -0.001537
# 5 -0.001178 -0.006558 0.003330 -0.001928 0.027343 0.013477
# 6 -0.007554 -0.013473 0.004622 -0.001537 0.013477 0.042592
#
#
# Mechanical properties :
#
#
# Convention : Reuss Voigt Hill
#
# Bulk Modulus (GPa) = 33.41735 48.08824 40.75280
# Shear Modulus (GPa) = 28.97679 38.96066 33.96873
#
# Velocity S-wave (km/s) = 3.43763 3.98609 3.72198
# Velocity P-wave (km/s) = 5.42077 6.38722 5.92374
#
# Compressibility (1/GPa) = 0.02992457
#
# Stress axis : x y z
#
# Youngs Moduli (GPa) = 98.32486 65.83024 56.82733
#
# Poissons Ratio (x) = -0.10719 0.23467
# Poissons Ratio (y) = -0.16010 0.22819
# Poissons Ratio (z) = 0.40604 0.26434
#
# Static dielectric constant tensor:
#      x y z
#    x 1.960370 0.010830 -0.032970 
#    y 0.010830 2.000530 0.055920 
#    z -0.032970 0.055920 1.969120 
# 
# From -- ./inp_files/382077.got.cif
#   From: 2010.05.17/outbox.cif.g08.bks.cpg/sg2_192_cif.got.tgz:382077.got - 2010.06.03 11:33:40.
