data_PCOD9021694
_publ_section_title
;
Structure prediction by ZEFSAII (Michael W. Deem and Ramdas Pophale) SiO2 
 PCOD9021694
Probable space group: P -1
;
_chemical_formula_sum "Si O2"
_cell_formula_units_Z 14
_cell_length_a 5.062078
_cell_length_b 6.635813
_cell_length_c 18.465202
_cell_angle_alpha 86.070470
_cell_angle_beta 75.407791
_cell_angle_gamma 99.569519
_cell_volume 587.928931
_symmetry_space_group_name_H-M "P -1"
_symmetry_group_IT_number 2
_symmetry_cell_setting 'triclinic'
loop_
_space_group_symop_operation_xyz
x,y,z
-x,-y,-z
loop_
_atom_site_type_symbol
_atom_site_label
_atom_site_fract_x
_atom_site_fract_y
_atom_site_fract_z
Si Si1 0.645803 0.175451 0.392974
Si Si2 0.598169 0.217703 0.682836
Si Si3 0.847837 0.621376 0.564877
Si Si4 0.808283 0.928061 0.773189
Si Si5 0.728185 0.315259 0.236152
Si Si6 0.658720 0.109609 0.918203
Si Si7 0.722614 0.700522 0.149990
O O1 0.397026 0.261906 0.446303
O O2 0.758309 0.346464 0.318802
O O3 0.914867 0.196819 0.423490
O O4 0.535985 0.959614 0.362715
O O5 0.714986 0.433421 0.632031
O O6 0.395760 0.249979 0.763562
O O7 0.834360 0.122736 0.713069
O O8 0.000000 0.500000 0.500000
O O9 0.602245 0.754248 0.748461
O O10 0.080447 0.854145 0.782301
O O11 0.625414 0.962999 0.853994
O O12 0.813113 0.487144 0.167223
O O13 0.514705 0.293772 0.893210
O O14 0.991126 0.163071 0.901327
O O15 0.500000 0.000000 0.000000
#
# Coordination Sequence:
#
# PCOD9021694 Si02
#       7
#     2   2   2   2   2   2   2
#     4  11  24  42  68  97 135 176 223 282 337 396
#     4  10  24  45  70 101 133 179 231 281 339 395
#     4  12  27  44  67 102 140 176 223 278 338 412
#     4  10  22  38  64  93 127 166 219 277 325 389
#     4  11  21  40  65 100 122 160 231 281 315 385
#     4  11  23  41  61  92 134 178 216 263 341 403
#     4  11  23  40  68  96 125 175 223 275 328 389
#
# _framework density 23.812403
#
# number of rings (size 3 to 8) (size 9 to 14) (size 15 to 20)
#    0.000    1.143    1.429    6.000    4.000    5.714 
#    0.000    4.286    0.000    0.000    0.000    0.000 
#    0.000    0.000    0.000    0.000    0.000    0.000 
#
# Total GULP energy -78076.576100 kJ/mol
# GULP energy per Si atom -5576.898293 kJ/mol
# Density = 2.375820 g / cm^3
# Si number density = 23.812403 Si / 1000 Ang^3
#
#
#
# Elastic Constant Matrix: (Units=GPa)
#
#
# Indices 1 2 3 4 5 6 
#
# 1 124.6594 30.1421 14.6232 -5.1123 -10.8051 -5.9942
# 2 30.1421 74.5683 9.4171 -7.0422 -5.2429 -4.4345
# 3 14.6232 9.4171 61.3016 -7.2146 -24.6004 1.6727
# 4 -5.1123 -7.0422 -7.2146 19.8572 3.0726 0.2463
# 5 -10.8051 -5.2429 -24.6004 3.0726 33.3216 7.1020
# 6 -5.9942 -4.4345 1.6727 0.2463 7.1020 25.8738
#
#
#
# Elastic Compliance Matrix: (Units=1/GPa)
#
#
# Indices 1 2 3 4 5 6 
#
# 1 0.009157 -0.003342 -0.001120 0.000549 0.001297 0.001260
# 2 -0.003342 0.015411 -0.001314 0.004171 -0.000448 0.002035
# 3 -0.001120 -0.001314 0.025356 0.005576 0.019224 -0.007454
# 4 0.000549 0.004171 0.005576 0.054010 -0.000024 -0.000026
# 5 0.001297 -0.000448 0.019224 -0.000024 0.047555 -0.014072
# 6 0.001260 0.002035 -0.007454 -0.000026 -0.014072 0.043635
#
#
# Mechanical properties :
#
#
# Convention : Reuss Voigt Hill
#
# Bulk Modulus (GPa) = 26.06132 40.98822 33.52477
# Shear Modulus (GPa) = 22.78246 29.56698 26.17472
#
# Velocity S-wave (km/s) = 3.09649 3.52755 3.31902
# Velocity P-wave (km/s) = 4.87366 5.81737 5.36630
#
# Compressibility (1/GPa) = 0.03837104
#
# Stress axis : x y z
#
# Youngs Moduli (GPa) = 109.20776 64.88906 39.43801
#
# Poissons Ratio (x) = 0.21686 0.04417
# Poissons Ratio (y) = 0.36497 0.05184
# Poissons Ratio (z) = 0.12232 0.08530
#
# Static dielectric constant tensor:
#      x y z
#    x 1.922480 -0.007970 -0.004690 
#    y -0.007970 1.991950 0.015640 
#    z -0.004690 0.015640 1.932010 
# 
# From -- ./inp_files/545959.got.cif
#   From: 2010.05.17/outbox.cif.g08.bks.cpg/sg2_273_cif.got.tgz:545959.got - 2010.06.03 11:33:40.
