data_PCOD9021948
_publ_section_title
;
Structure prediction by ZEFSAII (Michael W. Deem and Ramdas Pophale) SiO2 
 PCOD9021948
Probable space group: P -1
;
_chemical_formula_sum "Si O2"
_cell_formula_units_Z 16
_cell_length_a 9.523184
_cell_length_b 14.559513
_cell_length_c 11.208523
_cell_angle_alpha 151.051043
_cell_angle_beta 110.883554
_cell_angle_gamma 65.793282
_cell_volume 686.077271
_symmetry_space_group_name_H-M "P -1"
_symmetry_group_IT_number 2
_symmetry_cell_setting 'triclinic'
loop_
_space_group_symop_operation_xyz
x,y,z
-x,-y,-z
loop_
_atom_site_type_symbol
_atom_site_label
_atom_site_fract_x
_atom_site_fract_y
_atom_site_fract_z
Si Si1 0.579020 0.898438 0.788550
Si Si2 0.158725 0.886940 0.869517
Si Si3 0.050837 0.937880 0.641417
Si Si4 0.291050 0.838993 0.254135
Si Si5 0.573109 0.854018 0.200593
Si Si6 0.090529 0.629914 0.094564
Si Si7 0.824038 0.689926 0.925949
Si Si8 0.354333 0.487659 0.524551
O O1 0.500644 0.008707 0.774642
O O2 0.586648 0.668800 0.532707
O O3 0.500000 0.000000 0.000000
O O4 0.743555 0.949091 0.907506
O O5 0.121501 0.823181 0.651221
O O6 0.255689 0.702680 0.760683
O O7 0.000000 0.000000 0.000000
O O8 0.055694 0.817548 0.384798
O O9 0.162550 0.087054 0.827970
O O10 0.873738 0.057348 0.737981
O O11 0.341701 0.013830 0.541677
O O12 0.252167 0.664764 0.126715
O O13 0.436749 0.780823 0.143831
O O14 0.703677 0.683195 0.989129
O O15 0.998144 0.600465 0.912329
O O16 0.000000 0.500000 0.000000
O O17 0.758453 0.611490 0.701346
O O18 0.500000 0.500000 0.500000
#
# Coordination Sequence:
#
# PCOD9021948 Si02
#       8
#     2   2   2   2   2   2   2   2
#     4  12  23  43  70 100 139 193 240 287 355 428
#     4  12  26  44  69 103 144 184 233 306 368 417
#     4  11  20  42  67  95 134 187 240 285 357 429
#     4  10  22  38  67  97 132 185 232 291 367 419
#     4  11  20  39  68  97 138 183 237 292 360 421
#     4  11  22  38  65  99 133 182 243 290 350 429
#     4  11  20  40  68  96 132 184 242 288 348 431
#     4  12  25  42  72 108 138 189 252 290 356 443
#
# _framework density 23.320989999999998
#
# number of rings (size 3 to 8) (size 9 to 14) (size 15 to 20)
#    0.000    0.750    6.250    2.250    0.000    1.500 
#    0.000    0.625   11.000    0.000    0.000    0.000 
#    0.000    0.000    0.000    0.000    0.000    0.000 
#
# Total GULP energy -89168.552999 kJ/mol
# GULP energy per Si atom -5573.034562 kJ/mol
# Density = 2.326791 g / cm^3
# Si number density = 23.320990 Si / 1000 Ang^3
#
#
#
# Elastic Constant Matrix: (Units=GPa)
#
#
# Indices 1 2 3 4 5 6 
#
# 1 171.0251 24.5572 15.2763 22.3643 21.6754 8.1874
# 2 24.5572 66.4494 8.3064 7.0488 17.0298 3.4130
# 3 15.2763 8.3064 61.4898 10.6869 24.4330 6.2334
# 4 22.3643 7.0488 10.6869 39.4974 -1.1488 13.9629
# 5 21.6754 17.0298 24.4330 -1.1488 41.1027 2.5986
# 6 8.1874 3.4130 6.2334 13.9629 2.5986 29.6818
#
#
#
# Elastic Compliance Matrix: (Units=1/GPa)
#
#
# Indices 1 2 3 4 5 6 
#
# 1 0.006958 -0.001304 0.000549 -0.004084 -0.003591 0.000351
# 2 -0.001304 0.017608 0.001478 -0.003071 -0.007580 0.000133
# 3 0.000549 0.001478 0.023084 -0.007054 -0.014786 -0.000556
# 4 -0.004084 -0.003071 -0.007054 0.035520 0.009534 -0.014583
# 5 -0.003591 -0.007580 -0.014786 0.009534 0.038603 -0.002897
# 6 0.000351 0.000133 -0.000556 -0.014583 -0.002897 0.040809
#
#
# Mechanical properties :
#
#
# Convention : Reuss Voigt Hill
#
# Bulk Modulus (GPa) = 20.36880 43.91602 32.14241
# Shear Modulus (GPa) = 28.16868 38.77803 33.47336
#
# Velocity S-wave (km/s) = 3.47921 4.08216 3.79269
# Velocity P-wave (km/s) = 4.98928 6.41020 5.74385
#
# Compressibility (1/GPa) = 0.04909468
#
# Stress axis : x y z
#
# Youngs Moduli (GPa) = 143.72470 56.79246 43.31917
#
# Poissons Ratio (x) = 0.07408 -0.02378
# Poissons Ratio (y) = 0.18747 -0.06402
# Poissons Ratio (z) = -0.07888 -0.08393
#
# Static dielectric constant tensor:
#      x y z
#    x 1.842770 0.014410 -0.050520 
#    y 0.014410 1.995380 -0.000850 
#    z -0.050520 -0.000850 1.845770 
# 
# From -- ./inp_files/273674.got.cif
#   From: 2010.05.17/outbox.cif.g08.bks.cpg/sg2_137_cif.got.tgz:273674.got - 2010.06.03 11:33:40.
