data_PCOD9021432
_publ_section_title
;
Structure prediction by ZEFSAII (Michael W. Deem and Ramdas Pophale) SiO2 
 PCOD9021432
Probable space group: P -1
;
_chemical_formula_sum "Si O2"
_cell_formula_units_Z 14
_cell_length_a 15.552673
_cell_length_b 11.045483
_cell_length_c 5.203839
_cell_angle_alpha 108.957248
_cell_angle_beta 96.245222
_cell_angle_gamma 134.528026
_cell_volume 522.256109
_symmetry_space_group_name_H-M "P -1"
_symmetry_group_IT_number 2
_symmetry_cell_setting 'triclinic'
loop_
_space_group_symop_operation_xyz
x,y,z
-x,-y,-z
loop_
_atom_site_type_symbol
_atom_site_label
_atom_site_fract_x
_atom_site_fract_y
_atom_site_fract_z
Si Si1 0.318028 0.112360 0.339303
Si Si2 0.411346 0.474737 0.164199
Si Si3 0.165427 0.172637 0.218833
Si Si4 0.582419 0.000199 0.331266
Si Si5 0.680449 0.418428 0.179977
Si Si6 0.168864 0.575560 0.165322
Si Si7 0.081282 0.688883 0.843637
O O1 0.468661 0.343022 0.466878
O O2 0.215964 0.113817 0.380481
O O3 0.360575 0.059502 0.538730
O O4 0.222003 0.923497 0.974292
O O5 0.266270 0.251488 0.067302
O O6 0.500000 0.500000 0.000000
O O7 0.363279 0.544609 0.049404
O O8 0.237511 0.390159 0.477058
O O9 0.000000 0.000000 0.000000
O O10 0.500000 0.000000 0.500000
O O11 0.711528 0.242800 0.471892
O O12 0.467559 0.820083 0.965362
O O13 0.782612 0.441173 0.082707
O O14 0.041423 0.362903 0.123887
O O15 0.126169 0.660420 0.085669
O O16 0.000000 0.500000 0.500000
#
# Coordination Sequence:
#
# PCOD9021432 Si02
#       7
#     2   2   2   2   2   2   2
#     4  10  22  42  65  96 134 172 229 277 327 407
#     4  11  24  46  68  95 131 181 231 277 332 400
#     4  12  28  42  65 105 138 178 227 276 345 409
#     4   8  17  39  68  96 124 171 224 278 332 391
#     4  10  22  40  68  92 135 170 224 279 336 395
#     4   9  20  39  61  95 128 167 219 278 328 399
#     4  10  22  38  61  92 131 173 217 267 343 392
#
# _framework density 26.806767000000001
#
# number of rings (size 3 to 8) (size 9 to 14) (size 15 to 20)
#    0.000    2.000    1.429    0.429    4.000    2.857 
#    5.143    0.000    0.000   10.286    0.000    0.000 
#    0.000    0.000    0.000    0.000    0.000    0.000 
#
# Total GULP energy -78056.380596 kJ/mol
# GULP energy per Si atom -5575.455757 kJ/mol
# Density = 2.674575 g / cm^3
# Si number density = 26.806767 Si / 1000 Ang^3
#
#
#
# Elastic Constant Matrix: (Units=GPa)
#
#
# Indices 1 2 3 4 5 6 
#
# 1 154.1401 45.2688 44.4269 11.0284 24.0458 13.1517
# 2 45.2688 102.3484 57.9445 29.8202 12.3585 30.1109
# 3 44.4269 57.9445 171.5713 42.8833 13.9492 21.3612
# 4 11.0284 29.8202 42.8833 43.0085 3.4896 8.7201
# 5 24.0458 12.3585 13.9492 3.4896 53.2282 2.0561
# 6 13.1517 30.1109 21.3612 8.7201 2.0561 44.8071
#
#
#
# Elastic Compliance Matrix: (Units=1/GPa)
#
#
# Indices 1 2 3 4 5 6 
#
# 1 0.008026 -0.002965 -0.001220 0.001421 -0.002713 0.000066
# 2 -0.002965 0.016826 -0.002025 -0.007159 -0.001257 -0.008021
# 3 -0.001220 -0.002025 0.008694 -0.006667 -0.000778 -0.001093
# 4 0.001421 -0.007159 -0.006667 0.034281 0.000486 0.000879
# 5 -0.002713 -0.001257 -0.000778 0.000486 0.020439 0.000980
# 6 0.000066 -0.008021 -0.001093 0.000879 0.000980 0.027993
#
#
# Mechanical properties :
#
#
# Convention : Reuss Voigt Hill
#
# Bulk Modulus (GPa) = 47.33349 80.37113 63.85231
# Shear Modulus (GPa) = 36.84077 46.90340 41.87208
#
# Velocity S-wave (km/s) = 3.71119 4.18746 3.95650
# Velocity P-wave (km/s) = 6.00496 7.30934 6.68902
#
# Compressibility (1/GPa) = 0.02112669
#
# Stress axis : x y z
#
# Youngs Moduli (GPa) = 124.59609 59.43349 115.02456
#
# Poissons Ratio (x) = 0.17623 0.14028
# Poissons Ratio (y) = 0.36946 0.23287
# Poissons Ratio (z) = 0.15195 0.12032
#
# Static dielectric constant tensor:
#      x y z
#    x 2.099250 -0.024560 0.008260 
#    y -0.024560 2.233290 0.047850 
#    z 0.008260 0.047850 2.171660 
# 
# From -- ./inp_files/95525.got.cif
#   From: 2010.05.17/outbox.cif.g08.bks.cpg/sg2_48_cif.got.tgz:95525.got - 2010.06.03 11:33:40.
