data_PCOD9021911
_publ_section_title
;
Structure prediction by ZEFSAII (Michael W. Deem and Ramdas Pophale) SiO2 
 PCOD9021911
Probable space group: P -1
;
_chemical_formula_sum "Si O2"
_cell_formula_units_Z 16
_cell_length_a 18.887102
_cell_length_b 9.584782
_cell_length_c 5.510651
_cell_angle_alpha 97.588832
_cell_angle_beta 67.332684
_cell_angle_gamma 129.068094
_cell_volume 706.095686
_symmetry_space_group_name_H-M "P -1"
_symmetry_group_IT_number 2
_symmetry_cell_setting 'triclinic'
loop_
_space_group_symop_operation_xyz
x,y,z
-x,-y,-z
loop_
_atom_site_type_symbol
_atom_site_label
_atom_site_fract_x
_atom_site_fract_y
_atom_site_fract_z
Si Si1 0.426167 0.559524 0.850335
Si Si2 0.370880 0.311377 0.271101
Si Si3 0.248217 0.162600 0.796152
Si Si4 0.031693 0.961380 0.199015
Si Si5 0.440988 0.899281 0.803471
Si Si6 0.714521 0.037966 0.999927
Si Si7 0.883843 0.403892 0.660077
Si Si8 0.924742 0.544314 0.142913
O O1 0.410329 0.500332 0.141531
O O2 0.538584 0.639803 0.671942
O O3 0.338568 0.364611 0.811515
O O4 0.415100 0.705366 0.816498
O O5 0.261867 0.204992 0.503979
O O6 0.352480 0.158247 0.083719
O O7 0.149907 0.088523 0.047274
O O8 0.263323 0.013199 0.786949
O O9 0.000000 0.000000 0.500000
O O10 0.984171 0.751462 0.189756
O O11 0.000000 0.000000 0.000000
O O12 0.500000 0.000000 0.500000
O O13 0.345884 0.888976 0.907985
O O14 0.500000 0.000000 0.000000
O O15 0.817402 0.192474 0.766481
O O16 0.854794 0.429325 0.439568
O O17 0.000000 0.500000 0.500000
O O18 0.876462 0.497251 0.927494
O O19 0.000000 0.500000 0.000000
#
# Coordination Sequence:
#
# PCOD9021911 Si02
#       8
#     2   2   2   2   2   2   2   2
#     4  10  23  43  69 107 146 186 242 296 371 431
#     4  10  22  42  74 103 141 191 247 303 357 445
#     4  11  25  44  75 103 142 196 251 295 367 446
#     4  12  29  49  75 108 153 194 248 313 377 437
#     4  12  27  46  70 104 148 187 233 302 365 426
#     4  11  25  42  73 108 138 194 249 295 367 432
#     4  10  22  38  67 103 138 179 236 300 349 421
#     4  10  22  43  70  98 139 184 236 293 359 425
#
# _framework density 22.659818000000001
#
# number of rings (size 3 to 8) (size 9 to 14) (size 15 to 20)
#    0.000    1.250    1.250    3.375   10.500    2.000 
#    0.000    0.000    0.000    0.000    0.000    0.000 
#    0.000    0.000    0.000    0.000    0.000    0.000 
#
# Total GULP energy -89246.207534 kJ/mol
# GULP energy per Si atom -5577.887971 kJ/mol
# Density = 2.260824 g / cm^3
# Si number density = 22.659818 Si / 1000 Ang^3
#
#
#
# Elastic Constant Matrix: (Units=GPa)
#
#
# Indices 1 2 3 4 5 6 
#
# 1 80.8364 42.4416 52.3869 -8.8457 -1.0360 -21.1589
# 2 42.4416 164.0627 65.2659 -20.5703 2.6850 -20.9859
# 3 52.3869 65.2659 158.0510 -12.3350 12.5766 -10.2324
# 4 -8.8457 -20.5703 -12.3350 44.0856 5.6433 7.3763
# 5 -1.0360 2.6850 12.5766 5.6433 24.7947 -3.1420
# 6 -21.1589 -20.9859 -10.2324 7.3763 -3.1420 41.2640
#
#
#
# Elastic Compliance Matrix: (Units=1/GPa)
#
#
# Indices 1 2 3 4 5 6 
#
# 1 0.018935 -0.001883 -0.005418 -0.000535 0.004863 0.007874
# 2 -0.001883 0.008109 -0.002400 0.002378 -0.000010 0.002138
# 3 -0.005418 -0.002400 0.009516 0.001542 -0.005439 -0.002328
# 4 -0.000535 0.002378 0.001542 0.025707 -0.007399 -0.003841
# 5 0.004863 -0.000010 -0.005439 -0.007399 0.045732 0.005944
# 6 0.007874 0.002138 -0.002328 -0.003841 0.005944 0.029921
#
#
# Mechanical properties :
#
#
# Convention : Reuss Voigt Hill
#
# Bulk Modulus (GPa) = 58.27502 80.34877 69.31190
# Shear Modulus (GPa) = 30.66764 38.21925 34.44344
#
# Velocity S-wave (km/s) = 3.68284 4.11134 3.90298
# Velocity P-wave (km/s) = 6.62251 7.62058 7.13901
#
# Compressibility (1/GPa) = 0.01716001
#
# Stress axis : x y z
#
# Youngs Moduli (GPa) = 52.81266 123.32642 105.08547
#
# Poissons Ratio (x) = 0.23217 0.56931
# Poissons Ratio (y) = 0.09942 0.25217
# Poissons Ratio (z) = 0.28612 0.29594
#
# Static dielectric constant tensor:
#      x y z
#    x -0.559320 0.470490 0.345470 
#    y 0.470490 1.736780 -0.004130 
#    z 0.345470 -0.004130 2.060650 
# 
# From -- ./inp_files/106986.got.cif
#   From: 2010.05.17/outbox.cif.g08.bks.cpg/sg2_54_cif.got.tgz:106986.got - 2010.06.03 11:33:40.
