data_PCOD9021113
_publ_section_title
;
Structure prediction by ZEFSAII (Michael W. Deem and Ramdas Pophale) SiO2 
 PCOD9021113
Probable space group: P -1
;
_chemical_formula_sum "Si O2"
_cell_formula_units_Z 16
_cell_length_a 9.044348
_cell_length_b 18.735270
_cell_length_c 14.356207
_cell_angle_alpha 158.589957
_cell_angle_beta 68.333992
_cell_angle_gamma 99.220271
_cell_volume 694.146543
_symmetry_space_group_name_H-M "P -1"
_symmetry_group_IT_number 2
_symmetry_cell_setting 'triclinic'
loop_
_space_group_symop_operation_xyz
x,y,z
-x,-y,-z
loop_
_atom_site_type_symbol
_atom_site_label
_atom_site_fract_x
_atom_site_fract_y
_atom_site_fract_z
Si Si1 0.932783 0.640301 0.780875
Si Si2 0.295498 0.629991 0.249824
Si Si3 0.816658 0.799230 0.706317
Si Si4 0.301628 0.408924 0.659977
Si Si5 0.888347 0.636010 0.094833
Si Si6 0.918917 0.045651 0.822844
Si Si7 0.209778 0.888714 0.269520
Si Si8 0.358526 0.933434 0.734229
O O1 0.000000 0.500000 0.500000
O O2 0.989723 0.439795 0.598753
O O3 0.724221 0.863391 0.077394
O O4 0.063150 0.744386 0.893762
O O5 0.299899 0.755928 0.496160
O O6 0.129726 0.852125 0.502504
O O7 0.500000 0.500000 0.000000
O O8 0.225674 0.457150 0.042765
O O9 0.674546 0.729264 0.609732
O O10 0.859408 0.934778 0.782881
O O11 0.734446 0.951427 0.004417
O O12 0.418831 0.218423 0.480473
O O13 0.340533 0.612196 0.919257
O O14 0.075964 0.556210 0.895739
O O15 0.754176 0.913307 0.469331
O O16 0.000000 0.500000 0.000000
O O17 0.793726 0.106747 0.836075
O O18 0.000000 0.000000 0.500000
#
# Coordination Sequence:
#
# PCOD9021113 Si02
#       8
#     2   2   2   2   2   2   2   2
#     4   9  21  40  66  97 134 181 224 282 346 410
#     4  11  23  39  67  95 134 176 224 290 350 391
#     4  11  21  42  76  97 134 188 231 273 353 425
#     4  11  21  41  70  96 138 180 227 284 347 413
#     4  11  20  39  67  94 126 187 233 272 344 418
#     4  11  21  41  69  99 129 180 235 276 340 419
#     4  10  22  37  68 100 131 182 235 276 336 420
#     4  10  24  40  66 105 136 176 224 294 350 397
#
# _framework density 23.049887999999999
#
# number of rings (size 3 to 8) (size 9 to 14) (size 15 to 20)
#    0.000    1.500    3.750    1.125    1.750    4.500 
#    0.000    1.250   35.750    0.000    0.000    0.000 
#    0.000    0.000    0.000    0.000    0.000    0.000 
#
# Total GULP energy -89109.015071 kJ/mol
# GULP energy per Si atom -5569.313442 kJ/mol
# Density = 2.299743 g / cm^3
# Si number density = 23.049888 Si / 1000 Ang^3
#
#
#
# Elastic Constant Matrix: (Units=GPa)
#
#
# Indices 1 2 3 4 5 6 
#
# 1 78.2205 1.7877 57.1204 9.4324 16.5755 -9.2966
# 2 1.7877 86.1628 31.5450 8.5848 2.7734 -4.8104
# 3 57.1204 31.5450 155.5096 6.0177 42.7013 -0.4970
# 4 9.4324 8.5848 6.0177 27.8881 -11.0181 3.1843
# 5 16.5755 2.7734 42.7013 -11.0181 50.6189 1.2601
# 6 -9.2966 -4.8104 -0.4970 3.1843 1.2601 26.3141
#
#
#
# Elastic Compliance Matrix: (Units=1/GPa)
#
#
# Indices 1 2 3 4 5 6 
#
# 1 0.020712 0.003668 -0.007118 -0.008874 -0.003136 0.009078
# 2 0.003668 0.013722 -0.003978 -0.005020 0.000203 0.004327
# 3 -0.007118 -0.003978 0.012121 -0.001880 -0.008025 -0.002402
# 4 -0.008874 -0.005020 -0.001880 0.048156 0.015514 -0.010659
# 5 -0.003136 0.000203 -0.008025 0.015514 0.031032 -0.004586
# 6 0.009078 0.004327 -0.002402 -0.010659 -0.004586 0.043465
#
#
# Mechanical properties :
#
#
# Convention : Reuss Voigt Hill
#
# Bulk Modulus (GPa) = 31.54802 55.64433 43.59618
# Shear Modulus (GPa) = 25.68963 36.26022 30.97492
#
# Velocity S-wave (km/s) = 3.34207 3.97056 3.66979
# Velocity P-wave (km/s) = 5.34875 6.72411 6.07548
#
# Compressibility (1/GPa) = 0.03169771
#
# Stress axis : x y z
#
# Youngs Moduli (GPa) = 48.28046 72.87796 82.50188
#
# Poissons Ratio (x) = -0.26734 0.58729
# Poissons Ratio (y) = -0.17711 0.32822
# Poissons Ratio (z) = 0.34368 0.28993
#
# Static dielectric constant tensor:
#      x y z
#    x 1.918090 0.034400 0.060300 
#    y 0.034400 1.932950 0.056060 
#    z 0.060300 0.056060 2.019500 
# 
# From -- ./inp_files/508003.got.cif
#   From: 2010.05.17/outbox.cif.g08.bks.cpg/sg2_255_cif.got.tgz:508003.got - 2010.06.03 11:33:40.
