data_PCOD9021683
_publ_section_title
;
Structure prediction by ZEFSAII (Michael W. Deem and Ramdas Pophale) SiO2 
 PCOD9021683
Probable space group: P -1
;
_chemical_formula_sum "Si O2"
_cell_formula_units_Z 15
_cell_length_a 12.271544
_cell_length_b 14.744850
_cell_length_c 14.287840
_cell_angle_alpha 159.911460
_cell_angle_beta 70.303738
_cell_angle_gamma 118.284058
_cell_volume 730.423223
_symmetry_space_group_name_H-M "P -1"
_symmetry_group_IT_number 2
_symmetry_cell_setting 'triclinic'
loop_
_space_group_symop_operation_xyz
x,y,z
-x,-y,-z
loop_
_atom_site_type_symbol
_atom_site_label
_atom_site_fract_x
_atom_site_fract_y
_atom_site_fract_z
Si Si1 0.086660 0.841999 0.345468
Si Si2 0.309154 0.781509 0.751494
Si Si3 0.670861 0.720705 0.425697
Si Si4 0.616083 0.607891 0.774583
Si Si5 0.952784 0.333533 0.604991
Si Si6 0.262155 0.743712 0.943053
Si Si7 0.107674 0.219354 0.044547
Si Si8 0.000000 0.500000 0.500000
O O1 0.103300 0.838274 0.448479
O O2 0.226605 0.044096 0.450179
O O3 0.000000 0.000000 0.500000
O O4 0.000000 0.500000 0.000000
O O5 0.374670 0.606566 0.513411
O O6 0.316746 0.763436 0.842695
O O7 0.155445 0.638227 0.624347
O O8 0.381758 0.115450 0.012277
O O9 0.516597 0.560813 0.289740
O O10 0.706605 0.463269 0.196848
O O11 0.689346 0.927457 0.710861
O O12 0.750337 0.720906 0.903757
O O13 0.878625 0.518041 0.775221
O O14 0.103630 0.578774 0.818745
O O15 0.952343 0.111101 0.307027
O O16 0.020831 0.263713 0.193246
#
# Coordination Sequence:
#
# PCOD9021683 Si02
#       8
#     2   2   2   2   2   2   2   1
#     4  12  23  43  69  99 125 166 218 275 335 378
#     4  11  24  39  62  97 128 175 216 258 321 381
#     4  12  25  45  65  92 134 171 216 266 327 396
#     4  11  26  43  61  91 136 181 211 251 324 399
#     4  12  23  41  66 102 129 157 220 282 327 365
#     4  12  24  39  68  98 129 168 214 274 326 375
#     4  11  24  41  65  96 133 170 213 268 318 382
#     4  10  22  38  64  92 130 168 212 262 308 376
#
# _framework density 20.53604
#
# number of rings (size 3 to 8) (size 9 to 14) (size 15 to 20)
#    0.000    0.533    4.000    4.800    1.867    4.800 
#    0.000    1.333    0.000    0.000    0.000    0.000 
#    0.000    0.000    0.000    0.000    0.000    0.000 
#
# Total GULP energy -83668.738736 kJ/mol
# GULP energy per Si atom -5577.915916 kJ/mol
# Density = 2.048930 g / cm^3
# Si number density = 20.536040 Si / 1000 Ang^3
#
#
#
# Elastic Constant Matrix: (Units=GPa)
#
#
# Indices 1 2 3 4 5 6 
#
# 1 100.6442 48.4334 15.8247 19.4147 -28.8856 16.9670
# 2 48.4334 56.1126 16.3940 33.3550 10.7216 26.2284
# 3 15.8247 16.3940 89.5443 -3.2238 -23.8739 8.1333
# 4 19.4147 33.3550 -3.2238 30.4430 -14.2087 2.2992
# 5 -28.8856 10.7216 -23.8739 -14.2087 33.4725 1.6971
# 6 16.9670 26.2284 8.1333 2.2992 1.6971 25.0303
#
#
#
# Elastic Compliance Matrix: (Units=1/GPa)
#
#
# Indices 1 2 3 4 5 6 
#
# 1 0.011132 0.009100 -0.003732 -0.017696 -0.002770 -0.014056
# 2 0.009100 -0.014835 0.010024 0.025645 0.030554 0.001692
# 3 -0.003732 0.010024 0.010164 -0.007617 -0.001885 -0.010449
# 4 -0.017696 0.025645 -0.007617 0.003509 -0.026876 -0.010902
# 5 -0.002770 0.030554 -0.001885 -0.026876 0.006339 -0.027488
# 6 -0.014056 0.001692 -0.010449 -0.010902 -0.027488 0.053967
#
#
# Mechanical properties :
#
#
# Convention : Reuss Voigt Hill
#
# Bulk Modulus (GPa) = 26.84977 45.28947 36.06962
# Shear Modulus (GPa) = 96.32522 28.83242 62.57882
#
# Velocity S-wave (km/s) = 6.85619 3.75105 5.52620
# Velocity P-wave (km/s) = 8.70513 6.39234 7.63680
#
# Compressibility (1/GPa) = 0.03724426
#
# Stress axis : x y z
#
# Youngs Moduli (GPa) = 89.83248 -67.40806 98.38374
#
# Poissons Ratio (x) = 0.61342 0.36718
# Poissons Ratio (y) = -0.81749 -0.98616
# Poissons Ratio (z) = 0.33527 0.67567
#
# Static dielectric constant tensor:
#      x y z
#    x 1.708780 -0.045010 -0.009880 
#    y -0.045010 2.109090 0.248820 
#    z -0.009880 0.248820 1.879160 
# 
# From -- ./inp_files/433771.got.cif
#   From: 2010.05.17/outbox.cif.g08.bks.cpg/sg2_217_cif.got.tgz:433771.got - 2010.06.03 11:33:40.
