data_PCOD9021739
_publ_section_title
;
Structure prediction by ZEFSAII (Michael W. Deem and Ramdas Pophale) SiO2 
 PCOD9021739
Probable space group: P -1
;
_chemical_formula_sum "Si O2"
_cell_formula_units_Z 16
_cell_length_a 8.837547
_cell_length_b 9.465455
_cell_length_c 11.619797
_cell_angle_alpha 112.917609
_cell_angle_beta 116.031145
_cell_angle_gamma 96.292768
_cell_volume 756.851918
_symmetry_space_group_name_H-M "P -1"
_symmetry_group_IT_number 2
_symmetry_cell_setting 'triclinic'
loop_
_space_group_symop_operation_xyz
x,y,z
-x,-y,-z
loop_
_atom_site_type_symbol
_atom_site_label
_atom_site_fract_x
_atom_site_fract_y
_atom_site_fract_z
Si Si1 0.637597 0.079837 0.338665
Si Si2 0.637871 0.457644 0.150366
Si Si3 0.090383 0.619567 0.961795
Si Si4 0.607168 0.398149 0.362087
Si Si5 0.062408 0.887403 0.397632
Si Si6 0.320086 0.232900 0.854344
Si Si7 0.720506 0.477147 0.684394
Si Si8 0.691618 0.143136 0.707959
O O1 0.665608 0.941265 0.223422
O O2 0.499531 0.977539 0.356011
O O3 0.560997 0.204332 0.291242
O O4 0.825914 0.180149 0.495485
O O5 0.767824 0.429046 0.085948
O O6 0.719821 0.459762 0.303672
O O7 0.600597 0.626306 0.170581
O O8 0.445508 0.314037 0.028602
O O9 0.916439 0.600477 0.821181
O O10 0.199967 0.786243 0.116003
O O11 0.000000 0.500000 0.000000
O O12 0.698254 0.460373 0.534115
O O13 0.436178 0.455255 0.310234
O O14 0.204928 0.951670 0.363564
O O15 0.887786 0.785785 0.235088
O O16 0.000000 0.000000 0.500000
O O17 0.690811 0.303550 0.685450
#
# Coordination Sequence:
#
# PCOD9021739 Si02
#       8
#     2   2   2   2   2   2   2   2
#     4  11  22  42  62  95 131 171 203 261 324 380
#     4  11  23  41  69  96 124 169 212 270 320 374
#     4  10  22  40  71  96 121 160 224 271 306 369
#     4  11  25  40  63  92 139 167 204 263 328 386
#     4  10  22  38  64  99 126 158 213 270 308 368
#     4  10  22  41  65  97 118 163 225 260 309 373
#     4  10  23  43  63  97 126 172 212 265 315 379
#     4  11  20  41  73  91 123 169 222 261 310 373
#
# _framework density 21.140198999999999
#
# number of rings (size 3 to 8) (size 9 to 14) (size 15 to 20)
#    0.000    1.500    2.500    2.625    7.000    1.000 
#    2.250    1.875    0.000    0.000    0.000    0.000 
#    0.000    0.000    0.000    0.000    0.000    0.000 
#
# Total GULP energy -89095.290145 kJ/mol
# GULP energy per Si atom -5568.455634 kJ/mol
# Density = 2.109208 g / cm^3
# Si number density = 21.140199 Si / 1000 Ang^3
#
#
#
# Elastic Constant Matrix: (Units=GPa)
#
#
# Indices 1 2 3 4 5 6 
#
# 1 83.5592 21.6247 53.3086 -1.7916 2.2964 -8.2874
# 2 21.6247 55.4021 29.0646 -6.0761 -7.4085 -20.2393
# 3 53.3086 29.0646 111.5198 -9.7028 2.5148 0.3030
# 4 -1.7916 -6.0761 -9.7028 23.0029 3.4035 -3.1875
# 5 2.2964 -7.4085 2.5148 3.4035 47.7414 1.1704
# 6 -8.2874 -20.2393 0.3030 -3.1875 1.1704 21.7710
#
#
#
# Elastic Compliance Matrix: (Units=1/GPa)
#
#
# Indices 1 2 3 4 5 6 
#
# 1 0.018300 -0.000352 -0.008782 -0.001380 -0.000535 0.006587
# 2 -0.000352 0.038187 -0.009067 0.010629 0.004761 0.036793
# 3 -0.008782 -0.009067 0.015791 0.002228 -0.001691 -0.011574
# 4 -0.001380 0.010629 0.002228 0.049782 -0.002361 0.016740
# 5 -0.000535 0.004761 -0.001691 -0.002361 0.021901 0.002722
# 6 0.006587 0.036793 -0.011574 0.016740 0.002722 0.085110
#
#
# Mechanical properties :
#
#
# Convention : Reuss Voigt Hill
#
# Bulk Modulus (GPa) = 27.87300 50.94190 39.40745
# Shear Modulus (GPa) = 18.02250 28.26861 23.14555
#
# Velocity S-wave (km/s) = 2.92297 3.66074 3.31246
# Velocity P-wave (km/s) = 4.96035 6.48209 5.77159
#
# Compressibility (1/GPa) = 0.03587701
#
# Stress axis : x y z
#
# Youngs Moduli (GPa) = 54.64581 26.18690 63.32627
#
# Poissons Ratio (x) = 0.00922 0.55611
# Poissons Ratio (y) = 0.01925 0.57415
# Poissons Ratio (z) = 0.47988 0.23742
#
# Static dielectric constant tensor:
#      x y z
#    x 1.814730 0.004230 -0.002500 
#    y 0.004230 1.763740 0.023270 
#    z -0.002500 0.023270 1.836570 
# 
# From -- ./inp_files/379695.got.cif
#   From: 2010.05.17/outbox.cif.g08.bks.cpg/sg2_190_cif.got.tgz:379695.got - 2010.06.03 11:33:40.
