data_PCOD9021355
_publ_section_title
;
Structure prediction by ZEFSAII (Michael W. Deem and Ramdas Pophale) SiO2 
 PCOD9021355
Probable space group: P -1
;
_chemical_formula_sum "Si O2"
_cell_formula_units_Z 14
_cell_length_a 12.066609
_cell_length_b 8.607083
_cell_length_c 11.760947
_cell_angle_alpha 69.592592
_cell_angle_beta 140.739004
_cell_angle_gamma 124.683657
_cell_volume 625.663229
_symmetry_space_group_name_H-M "P -1"
_symmetry_group_IT_number 2
_symmetry_cell_setting 'triclinic'
loop_
_space_group_symop_operation_xyz
x,y,z
-x,-y,-z
loop_
_atom_site_type_symbol
_atom_site_label
_atom_site_fract_x
_atom_site_fract_y
_atom_site_fract_z
Si Si1 0.406755 0.362944 0.349942
Si Si2 0.341207 0.662310 0.115689
Si Si3 0.175278 0.751759 0.643576
Si Si4 0.758243 0.906693 0.526234
Si Si5 0.263964 0.528520 0.605912
Si Si6 0.149567 0.884967 0.825617
Si Si7 0.584086 0.691694 0.089078
O O1 0.500000 0.500000 0.500000
O O2 0.281483 0.449799 0.165646
O O3 0.288530 0.152096 0.363839
O O4 0.582587 0.386284 0.398357
O O5 0.543859 0.800390 0.314964
O O6 0.408999 0.676637 0.035095
O O7 0.185481 0.740996 0.969091
O O8 0.312635 0.680672 0.707835
O O9 0.234622 0.887086 0.766041
O O10 0.975362 0.560698 0.579238
O O11 0.144833 0.873060 0.488796
O O12 0.919492 0.838471 0.642758
O O13 0.275050 0.343165 0.701560
O O14 0.283941 0.104316 0.917031
O O15 0.500000 0.500000 0.000000
#
# Coordination Sequence:
#
# PCOD9021355 Si02
#       7
#     2   2   2   2   2   2   2
#     4   9  20  40  61  89 126 170 202 248 310 373
#     4  10  22  38  61  91 123 163 207 251 313 367
#     4  11  21  37  64  97 124 160 210 261 306 366
#     4  11  22  39  66  91 126 164 210 250 306 373
#     4  10  22  38  60  94 129 162 204 256 314 360
#     4  12  22  38  65  96 122 161 212 258 308 367
#     4  11  21  35  57  92 128 158 200 264 317 358
#
# _framework density 22.376253999999999
#
# number of rings (size 3 to 8) (size 9 to 14) (size 15 to 20)
#    0.000    1.429    2.857    4.286    2.000    1.143 
#    0.000    0.000    0.000    3.429    0.000    0.000 
#    0.000    0.000    0.000    0.000    0.000    0.000 
#
# Total GULP energy -78031.732261 kJ/mol
# GULP energy per Si atom -5573.695161 kJ/mol
# Density = 2.232532 g / cm^3
# Si number density = 22.376254 Si / 1000 Ang^3
#
#
#
# Elastic Constant Matrix: (Units=GPa)
#
#
# Indices 1 2 3 4 5 6 
#
# 1 120.5018 46.5993 24.3343 -21.9171 7.8245 1.7316
# 2 46.5993 88.0911 33.7068 -21.2124 4.2089 13.1171
# 3 24.3343 33.7068 77.3512 -22.4055 19.5081 -2.0532
# 4 -21.9171 -21.2124 -22.4055 47.4897 -10.3277 -6.6014
# 5 7.8245 4.2089 19.5081 -10.3277 22.3285 -12.8543
# 6 1.7316 13.1171 -2.0532 -6.6014 -12.8543 33.7491
#
#
#
# Elastic Compliance Matrix: (Units=1/GPa)
#
#
# Indices 1 2 3 4 5 6 
#
# 1 0.010876 -0.005283 -0.000202 0.002782 -0.000237 0.001937
# 2 -0.005283 0.017783 -0.005918 0.002087 0.001076 -0.006182
# 3 -0.000202 -0.005918 0.020597 0.003057 -0.016650 -0.002180
# 4 0.002782 0.002087 0.003057 0.029804 0.016216 0.011238
# 5 -0.000237 0.001076 -0.016650 0.016216 0.086743 0.034791
# 6 0.001937 -0.006182 -0.002180 0.011238 0.034791 0.047251
#
#
# Mechanical properties :
#
#
# Convention : Reuss Voigt Hill
#
# Bulk Modulus (GPa) = 37.80816 55.02500 46.41658
# Shear Modulus (GPa) = 20.43506 32.80038 26.61772
#
# Velocity S-wave (km/s) = 3.02528 3.83280 3.45273
# Velocity P-wave (km/s) = 5.39781 6.65067 6.05672
#
# Compressibility (1/GPa) = 0.02644932
#
# Stress axis : x y z
#
# Youngs Moduli (GPa) = 91.94507 56.23402 48.54982
#
# Poissons Ratio (x) = 0.29709 0.00983
# Poissons Ratio (y) = 0.48576 0.28731
# Poissons Ratio (z) = 0.01862 0.33279
#
# Static dielectric constant tensor:
#      x y z
#    x 1.848260 -0.023180 0.025730 
#    y -0.023180 1.883070 -0.009560 
#    z 0.025730 -0.009560 2.022360 
# 
# From -- ./inp_files/416984.got.cif
#   From: 2010.05.17/outbox.cif.g08.bks.cpg/sg2_209_cif.got.tgz:416984.got - 2010.06.03 11:33:40.
