data_PCOD9021783
_publ_section_title
;
Structure prediction by ZEFSAII (Michael W. Deem and Ramdas Pophale) SiO2 
 PCOD9021783
Probable space group: P -1
;
_chemical_formula_sum "Si O2"
_cell_formula_units_Z 10
_cell_length_a 17.226333
_cell_length_b 12.355007
_cell_length_c 5.222259
_cell_angle_alpha 51.631092
_cell_angle_beta 66.808507
_cell_angle_gamma 32.265635
_cell_volume 441.806098
_symmetry_space_group_name_H-M "P -1"
_symmetry_group_IT_number 2
_symmetry_cell_setting 'triclinic'
loop_
_space_group_symop_operation_xyz
x,y,z
-x,-y,-z
loop_
_atom_site_type_symbol
_atom_site_label
_atom_site_fract_x
_atom_site_fract_y
_atom_site_fract_z
Si Si1 0.778398 0.074826 0.290049
Si Si2 0.632158 0.784799 0.441518
Si Si3 0.410945 0.893651 0.240002
Si Si4 0.903481 0.266465 0.656504
Si Si5 0.303987 0.639540 0.526094
O O1 0.687999 0.060819 0.504038
O O2 0.735016 0.242912 0.323383
O O3 0.729098 0.205987 0.888092
O O4 0.961690 0.808864 0.459902
O O5 0.534597 0.819767 0.330554
O O6 0.788065 0.484434 0.699132
O O7 0.500000 0.000000 0.500000
O O8 0.682072 0.866139 0.149911
O O9 0.519041 0.647328 0.292566
O O10 0.802547 0.346398 0.433939
O O11 0.000000 0.000000 0.000000
#
# Coordination Sequence:
#
# PCOD9021783 Si02
#       5
#     2   2   2   2   2
#     4  11  22  39  64  98 123 162 209 259 306 365
#     4  10  23  42  63  87 127 168 207 254 315 370
#     4  10  23  38  61  92 124 166 208 257 308 371
#     4   9  21  41  64  93 124 165 206 256 309 371
#     4  10  22  38  65  94 129 162 206 252 312 370
#
# _framework density 22.634361999999999
#
# number of rings (size 3 to 8) (size 9 to 14) (size 15 to 20)
#    0.000    2.000    0.000    1.800   11.200    0.800 
#   10.800    1.000    0.000    0.000    0.000    0.000 
#    0.000    0.000    0.000    0.000    0.000    0.000 
#
# Total GULP energy -55783.548488 kJ/mol
# GULP energy per Si atom -5578.354849 kJ/mol
# Density = 2.258285 g / cm^3
# Si number density = 22.634362 Si / 1000 Ang^3
#
#
#
# Elastic Constant Matrix: (Units=GPa)
#
#
# Indices 1 2 3 4 5 6 
#
# 1 56.7129 8.9474 22.1812 -1.1948 -14.3453 -20.0770
# 2 8.9474 143.8522 43.0567 -20.5410 -7.1583 -4.2313
# 3 22.1812 43.0567 94.8318 -2.5709 -22.1609 -10.1214
# 4 -1.1948 -20.5410 -2.5709 28.0735 1.2641 -0.1675
# 5 -14.3453 -7.1583 -22.1609 1.2641 27.8424 13.2099
# 6 -20.0770 -4.2313 -10.1214 -0.1675 13.2099 40.2676
#
#
#
# Elastic Compliance Matrix: (Units=1/GPa)
#
#
# Indices 1 2 3 4 5 6 
#
# 1 0.023486 0.000167 -0.003390 0.000640 0.005040 0.009225
# 2 0.000167 0.009065 -0.004285 0.006318 -0.001508 0.000480
# 3 -0.003390 -0.004285 0.015462 -0.002340 0.010352 -0.001660
# 4 0.000640 0.006318 -0.002340 0.040171 -0.002367 0.001338
# 5 0.005040 -0.001508 0.010352 -0.002367 0.052260 -0.012197
# 6 0.009225 0.000480 -0.001660 0.001338 -0.012197 0.033073
#
#
# Mechanical properties :
#
#
# Convention : Reuss Voigt Hill
#
# Bulk Modulus (GPa) = 30.30451 49.30750 39.80600
# Shear Modulus (GPa) = 25.05873 33.98415 29.52144
#
# Velocity S-wave (km/s) = 3.33094 3.87905 3.61539
# Velocity P-wave (km/s) = 5.31143 6.47258 5.92054
#
# Compressibility (1/GPa) = 0.03299839
#
# Stress axis : x y z
#
# Youngs Moduli (GPa) = 42.57852 110.31525 64.67498
#
# Poissons Ratio (x) = -0.01845 0.21922
# Poissons Ratio (y) = -0.00712 0.27712
# Poissons Ratio (z) = 0.14433 0.47268
#
# Static dielectric constant tensor:
#      x y z
#    x 1.874880 -0.004880 -0.018640 
#    y -0.004880 1.921650 -0.013610 
#    z -0.018640 -0.013610 1.929630 
# 
# From -- ./inp_files/16111.got.cif
#   From: 2010.05.17/outbox.cif.g08.bks.cpg/sg2_9_cif.got.tgz:16111.got - 2010.06.03 11:33:40.
