data_PCOD9021981
_publ_section_title
;
Structure prediction by ZEFSAII (Michael W. Deem and Ramdas Pophale) SiO2 
 PCOD9021981
Probable space group: P -1
;
_chemical_formula_sum "Si O2"
_cell_formula_units_Z 16
_cell_length_a 9.578864
_cell_length_b 10.978830
_cell_length_c 13.869040
_cell_angle_alpha 148.367571
_cell_angle_beta 119.749368
_cell_angle_gamma 69.854045
_cell_volume 654.301470
_symmetry_space_group_name_H-M "P -1"
_symmetry_group_IT_number 2
_symmetry_cell_setting 'triclinic'
loop_
_space_group_symop_operation_xyz
x,y,z
-x,-y,-z
loop_
_atom_site_type_symbol
_atom_site_label
_atom_site_fract_x
_atom_site_fract_y
_atom_site_fract_z
Si Si1 0.875338 0.727631 0.195013
Si Si2 0.763097 0.365031 0.748698
Si Si3 0.397710 0.953102 0.192275
Si Si4 0.912909 0.186593 0.383682
Si Si5 0.666536 0.145345 0.112218
Si Si6 0.283071 0.325022 0.542509
Si Si7 0.644004 0.389865 0.524462
Si Si8 0.618977 0.816691 0.321543
O O1 0.769071 0.751738 0.268346
O O2 0.050710 0.658380 0.230194
O O3 0.908209 0.974585 0.314973
O O4 0.779100 0.531069 0.958397
O O5 0.334588 0.579691 0.687175
O O6 0.684215 0.474560 0.704043
O O7 0.668697 0.097840 0.551157
O O8 0.305320 0.122162 0.337885
O O9 0.566294 0.114116 0.323237
O O10 0.461053 0.777391 0.171207
O O11 0.312865 0.876584 0.010817
O O12 0.815500 0.086515 0.186706
O O13 0.813478 0.382877 0.523940
O O14 0.096634 0.290077 0.488879
O O15 0.500000 0.000000 0.000000
O O16 0.390370 0.309612 0.664506
O O17 0.500000 0.500000 0.500000
#
# Coordination Sequence:
#
# PCOD9021981 Si02
#       8
#     2   2   2   2   2   2   2   2
#     4  11  21  41  73 110 144 196 244 299 363 441
#     4  10  22  38  68 109 142 187 244 298 357 429
#     4  11  26  45  72 108 143 199 241 297 371 446
#     4  12  24  48  77 107 153 193 248 310 367 434
#     4  12  27  49  74 104 144 195 251 299 369 449
#     4  12  28  47  74 108 152 189 243 317 373 430
#     4  11  23  42  72 105 146 196 245 293 365 441
#     4  11  22  45  71 103 153 194 243 301 373 434
#
# _framework density 24.453558000000001
#
# number of rings (size 3 to 8) (size 9 to 14) (size 15 to 20)
#    0.000    0.750    5.000    2.625    1.750    6.000 
#    2.250    0.000    0.000    0.000    0.000    0.000 
#    0.000    0.000    0.000    0.000    0.000    0.000 
#
# Total GULP energy -89674.869216 kJ/mol
# GULP energy per Si atom -5604.679326 kJ/mol
# Density = 2.439790 g / cm^3
# Si number density = 24.453558 Si / 1000 Ang^3
#
#
#
# Elastic Constant Matrix: (Units=GPa)
#
#
# Indices 1 2 3 4 5 6 
#
# 1 134.2687 38.4346 17.9436 2.7524 -6.2546 -18.9253
# 2 38.4346 108.9739 32.6132 -20.8008 -3.5950 1.0931
# 3 17.9436 32.6132 85.9962 -24.4312 -13.6190 2.1701
# 4 2.7524 -20.8008 -24.4312 46.5774 5.4752 0.4510
# 5 -6.2546 -3.5950 -13.6190 5.4752 44.6648 -4.0908
# 6 -18.9253 1.0931 2.1701 0.4510 -4.0908 35.2769
#
#
#
# Elastic Compliance Matrix: (Units=1/GPa)
#
#
# Indices 1 2 3 4 5 6 
#
# 1 0.009574 -0.003549 -0.001445 -0.003140 0.001508 0.005550
# 2 -0.003549 0.012053 -0.002720 0.004317 -0.001095 -0.002293
# 3 -0.001445 -0.002720 0.015389 0.006563 0.003345 -0.001334
# 4 -0.003140 0.004317 0.006563 0.027250 -0.001685 -0.002766
# 5 0.001508 -0.001095 0.003345 -0.001685 0.024054 0.003448
# 6 0.005550 -0.002293 -0.001334 -0.002766 0.003448 0.031913
#
#
# Mechanical properties :
#
#
# Convention : Reuss Voigt Hill
#
# Bulk Modulus (GPa) = 46.32158 56.35794 51.33976
# Shear Modulus (GPa) = 35.00011 41.32031 38.16021
#
# Velocity S-wave (km/s) = 3.78734 4.11511 3.95462
# Velocity P-wave (km/s) = 6.17326 6.75839 6.47244
#
# Compressibility (1/GPa) = 0.02158821
#
# Stress axis : x y z
#
# Youngs Moduli (GPa) = 104.45253 82.96565 64.98158
#
# Poissons Ratio (x) = 0.29448 0.09388
# Poissons Ratio (y) = 0.37075 0.17672
# Poissons Ratio (z) = 0.15091 0.22563
#
# Static dielectric constant tensor:
#      x y z
#    x 1.913980 0.002730 -0.028910 
#    y 0.002730 1.990060 -0.019220 
#    z -0.028910 -0.019220 1.958380 
# 
# From -- ./inp_files/415574.got.cif
#   From: 2010.05.17/outbox.cif.g08.bks.cpg/sg2_208_cif.got.tgz:415574.got - 2010.06.03 11:33:40.
