data_PCOD9021167
_publ_section_title
;
Structure prediction by ZEFSAII (Michael W. Deem and Ramdas Pophale) SiO2 
 PCOD9021167
Probable space group: P -1
;
_chemical_formula_sum "Si O2"
_cell_formula_units_Z 16
_cell_length_a 25.895444
_cell_length_b 13.984349
_cell_length_c 8.897343
_cell_angle_alpha 35.010420
_cell_angle_beta 56.722554
_cell_angle_gamma 32.088918
_cell_volume 863.368595
_symmetry_space_group_name_H-M "P -1"
_symmetry_group_IT_number 2
_symmetry_cell_setting 'triclinic'
loop_
_space_group_symop_operation_xyz
x,y,z
-x,-y,-z
loop_
_atom_site_type_symbol
_atom_site_label
_atom_site_fract_x
_atom_site_fract_y
_atom_site_fract_z
Si Si1 0.897644 0.618244 0.064791
Si Si2 0.440507 0.964071 0.688047
Si Si3 0.741199 0.803224 0.501877
Si Si4 0.515215 0.464135 0.343997
Si Si5 0.715067 0.166666 0.885634
Si Si6 0.748357 0.763627 0.873223
Si Si7 0.265168 0.488040 0.538674
Si Si8 0.087317 0.729245 0.321851
O O1 0.948457 0.343848 0.422145
O O2 0.824025 0.712276 0.923096
O O3 0.000000 0.500000 0.000000
O O4 0.810890 0.902495 0.951801
O O5 0.500000 0.000000 0.500000
O O6 0.374112 0.031111 0.567474
O O7 0.356050 0.201353 0.652182
O O8 0.518069 0.643849 0.040084
O O9 0.790057 0.652677 0.779760
O O10 0.820073 0.555671 0.566572
O O11 0.733031 0.017796 0.200285
O O12 0.500000 0.500000 0.500000
O O13 0.404344 0.627458 0.246861
O O14 0.628019 0.113922 0.587390
O O15 0.713140 0.367343 0.655746
O O16 0.736833 0.617322 0.171146
O O17 0.147825 0.726557 0.335576
O O18 0.000000 0.000000 0.000000
#
# Coordination Sequence:
#
# PCOD9021167 Si02
#       8
#     2   2   2   2   2   2   2   2
#     4  10  22  41  60  84 116 150 192 242 289 339
#     4  10  22  38  55  84 120 152 191 234 280 337
#     4   9  22  39  57  85 118 150 190 234 287 343
#     4  11  20  39  61  81 120 160 187 232 288 341
#     4  10  22  39  59  86 118 153 191 234 287 344
#     4  11  22  39  60  86 118 154 192 235 288 342
#     4  10  22  38  58  86 117 149 192 239 282 340
#     4   9  20  42  62  79 115 154 190 239 289 337
#
# _framework density 18.532062
#
# number of rings (size 3 to 8) (size 9 to 14) (size 15 to 20)
#    0.000    2.000    2.500    1.500    3.500    5.500 
#    2.250    5.000    0.000    0.000    0.000    0.000 
#    0.000    0.000    0.000    0.000    0.000    0.000 
#
# Total GULP energy -89239.073144 kJ/mol
# GULP energy per Si atom -5577.442071 kJ/mol
# Density = 1.848988 g / cm^3
# Si number density = 18.532062 Si / 1000 Ang^3
#
#
#
# Elastic Constant Matrix: (Units=GPa)
#
#
# Indices 1 2 3 4 5 6 
#
# 1 87.5383 32.5885 79.0910 21.6454 -15.8049 -4.1516
# 2 32.5885 49.4544 30.0890 23.0580 -1.8388 -16.3367
# 3 79.0910 30.0890 147.0524 17.6795 -0.0186 -18.5631
# 4 21.6454 23.0580 17.6795 34.1806 2.4675 4.7418
# 5 -15.8049 -1.8388 -0.0186 2.4675 32.1584 5.6328
# 6 -4.1516 -16.3367 -18.5631 4.7418 5.6328 31.5866
#
#
#
# Elastic Compliance Matrix: (Units=1/GPa)
#
#
# Indices 1 2 3 4 5 6 
#
# 1 0.040192 -0.020382 -0.020101 0.000006 0.022262 -0.021043
# 2 -0.020382 0.057141 0.008335 -0.034561 -0.010908 0.038907
# 3 -0.020101 0.008335 0.018227 -0.003555 -0.011748 0.015009
# 4 0.000006 -0.034561 -0.003555 0.058463 -0.001473 -0.028478
# 5 0.022262 -0.010908 -0.011748 -0.001473 0.044558 -0.017345
# 6 -0.021043 0.038907 0.015009 -0.028478 -0.017345 0.065205
#
#
# Mechanical properties :
#
#
# Convention : Reuss Voigt Hill
#
# Bulk Modulus (GPa) = 19.50635 63.06467 41.28551
# Shear Modulus (GPa) = 13.69233 29.07025 21.38129
#
# Velocity S-wave (km/s) = 2.72112 3.96491 3.40037
# Velocity P-wave (km/s) = 4.51899 7.42055 6.14353
#
# Compressibility (1/GPa) = 0.05126537
#
# Stress axis : x y z
#
# Youngs Moduli (GPa) = 24.88045 17.50061 54.86498
#
# Poissons Ratio (x) = 0.35669 1.10284
# Poissons Ratio (y) = 0.50710 -0.45732
# Poissons Ratio (z) = 0.50012 -0.14588
#
# Static dielectric constant tensor:
#      x y z
#    x 1.616730 0.139600 -0.032450 
#    y 0.139600 1.222250 0.186780 
#    z -0.032450 0.186780 1.566780 
# 
# From -- ./inp_files/178669.got.cif
#   From: 2010.05.17/outbox.cif.g08.bks.cpg/sg2_90_cif.got.tgz:178669.got - 2010.06.03 11:33:40.
