data_PCOD9021251
_publ_section_title
;
Structure prediction by ZEFSAII (Michael W. Deem and Ramdas Pophale) SiO2 
 PCOD9021251
Probable space group: P -1
;
_chemical_formula_sum "Si O2"
_cell_formula_units_Z 14
_cell_length_a 8.985602
_cell_length_b 15.092919
_cell_length_c 8.594862
_cell_angle_alpha 63.378102
_cell_angle_beta 34.440603
_cell_angle_gamma 64.308824
_cell_volume 584.597531
_symmetry_space_group_name_H-M "P -1"
_symmetry_group_IT_number 2
_symmetry_cell_setting 'triclinic'
loop_
_space_group_symop_operation_xyz
x,y,z
-x,-y,-z
loop_
_atom_site_type_symbol
_atom_site_label
_atom_site_fract_x
_atom_site_fract_y
_atom_site_fract_z
Si Si1 0.130352 0.323068 0.314559
Si Si2 0.295784 0.442457 0.314390
Si Si3 0.953695 0.538772 0.183107
Si Si4 0.123754 0.243658 0.031767
Si Si5 0.672843 0.119998 0.603897
Si Si6 0.202127 0.830200 0.194958
Si Si7 0.374504 0.065372 0.415261
O O1 0.293744 0.332706 0.327029
O O2 0.117823 0.438139 0.187951
O O3 0.188776 0.266824 0.141825
O O4 0.852961 0.283655 0.635353
O O5 0.309783 0.448171 0.487398
O O6 0.000000 0.500000 0.500000
O O7 0.500000 0.500000 0.000000
O O8 0.000000 0.500000 0.000000
O O9 0.994365 0.655078 0.035707
O O10 0.907943 0.167376 0.278611
O O11 0.397059 0.191723 0.765709
O O12 0.744667 0.121651 0.722403
O O13 0.648185 0.011030 0.646943
O O14 0.918003 0.881226 0.339396
O O15 0.434055 0.855118 0.864839
O O16 0.500000 0.000000 0.500000
#
# Coordination Sequence:
#
# PCOD9021251 Si02
#       7
#     2   2   2   2   2   2   2
#     4   9  21  40  63  93 129 169 219 263 320 397
#     4  10  22  38  59  86 124 172 217 265 323 384
#     4   9  20  40  63  94 132 171 216 270 322 382
#     4  10  22  39  65  96 128 172 219 272 324 383
#     4  11  23  43  66  95 130 172 221 267 328 403
#     4  11  23  43  68  93 126 174 215 264 330 401
#     4  12  26  43  66  97 128 164 215 279 337 390
#
# _framework density 23.948098999999999
#
# number of rings (size 3 to 8) (size 9 to 14) (size 15 to 20)
#    0.000    1.714    0.000    3.857    0.000   12.571 
#    0.000   10.714    0.000    0.000    0.000    0.000 
#    0.000    0.000    0.000    0.000    0.000    0.000 
#
# Total GULP energy -77943.627484 kJ/mol
# GULP energy per Si atom -5567.401963 kJ/mol
# Density = 2.389359 g / cm^3
# Si number density = 23.948099 Si / 1000 Ang^3
#
#
#
# Elastic Constant Matrix: (Units=GPa)
#
#
# Indices 1 2 3 4 5 6 
#
# 1 59.0231 29.2421 54.4551 -8.2129 0.0050 16.5504
# 2 29.2421 94.6689 38.4331 -1.9583 -19.0052 -0.7939
# 3 54.4551 38.4331 130.2553 -15.7033 -11.1019 18.1859
# 4 -8.2129 -1.9583 -15.7033 38.0920 -3.7530 -0.6128
# 5 0.0050 -19.0052 -11.1019 -3.7530 37.9835 3.3822
# 6 16.5504 -0.7939 18.1859 -0.6128 3.3822 42.2757
#
#
#
# Elastic Compliance Matrix: (Units=1/GPa)
#
#
# Indices 1 2 3 4 5 6 
#
# 1 0.032832 -0.006913 -0.010907 0.001530 -0.005805 -0.007805
# 2 -0.006913 0.014577 -0.001345 -0.000599 0.006573 0.003024
# 3 -0.010907 -0.001345 0.013653 0.003555 0.003838 -0.001884
# 4 0.001530 -0.000599 0.003555 0.028351 0.003721 -0.002026
# 5 -0.005805 0.006573 0.003838 0.003721 0.031258 -0.001702
# 6 -0.007805 0.003024 -0.001884 -0.002026 -0.001702 0.027684
#
#
# Mechanical properties :
#
#
# Convention : Reuss Voigt Hill
#
# Bulk Modulus (GPa) = 43.99144 58.68975 51.34060
# Shear Modulus (GPa) = 25.73861 34.45804 30.09833
#
# Velocity S-wave (km/s) = 3.28192 3.79735 3.54900
# Velocity P-wave (km/s) = 5.72457 6.61716 6.18698
#
# Compressibility (1/GPa) = 0.02273169
#
# Stress axis : x y z
#
# Youngs Moduli (GPa) = 30.45832 68.60094 73.24535
#
# Poissons Ratio (x) = 0.47421 0.79888
# Poissons Ratio (y) = 0.21055 0.09855
# Poissons Ratio (z) = 0.33220 0.09230
#
# Static dielectric constant tensor:
#      x y z
#    x 2.216520 -0.043150 0.116640 
#    y -0.043150 1.901580 0.019860 
#    z 0.116640 0.019860 1.923330 
# 
# From -- ./inp_files/216900.got.cif
#   From: 2010.05.17/outbox.cif.g08.bks.cpg/sg2_109_cif.got.tgz:216900.got - 2010.06.03 11:33:40.
