data_PCOD9021794
_publ_section_title
;
Structure prediction by ZEFSAII (Michael W. Deem and Ramdas Pophale) SiO2 
 PCOD9021794
Probable space group: P -1
;
_chemical_formula_sum "Si O2"
_cell_formula_units_Z 14
_cell_length_a 5.041746
_cell_length_b 8.896049
_cell_length_c 14.149128
_cell_angle_alpha 109.406318
_cell_angle_beta 112.549315
_cell_angle_gamma 101.317063
_cell_volume 513.222345
_symmetry_space_group_name_H-M "P -1"
_symmetry_group_IT_number 2
_symmetry_cell_setting 'triclinic'
loop_
_space_group_symop_operation_xyz
x,y,z
-x,-y,-z
loop_
_atom_site_type_symbol
_atom_site_label
_atom_site_fract_x
_atom_site_fract_y
_atom_site_fract_z
Si Si1 0.883908 0.901835 0.162433
Si Si2 0.766205 0.196682 0.478791
Si Si3 0.498302 0.586974 0.146488
Si Si4 0.884010 0.774324 0.939762
Si Si5 0.204054 0.652212 0.805625
Si Si6 0.377653 0.807911 0.327691
Si Si7 0.152506 0.259046 0.370432
O O1 0.933963 0.909372 0.058578
O O2 0.152935 0.852292 0.234521
O O3 0.574177 0.742576 0.116373
O O4 0.919527 0.076273 0.257224
O O5 0.058112 0.385902 0.317292
O O6 0.335904 0.009975 0.586188
O O7 0.491673 0.253551 0.412553
O O8 0.061790 0.277244 0.469496
O O9 0.208762 0.410431 0.055930
O O10 0.773032 0.513108 0.174066
O O11 0.473534 0.664678 0.261362
O O12 0.137305 0.771470 0.900101
O O13 0.556680 0.744022 0.836427
O O14 0.228448 0.770924 0.402762
#
# Coordination Sequence:
#
# PCOD9021794 Si02
#       7
#     2   2   2   2   2   2   2
#     4  11  23  38  68  93 124 161 211 253 309 363
#     4  10  23  40  66  93 123 159 207 261 310 356
#     4  10  22  40  63  91 130 162 201 257 303 370
#     4  10  24  40  64  92 126 167 203 249 307 367
#     4  10  24  42  61  88 134 163 203 250 305 369
#     4  10  22  38  65  96 125 155 208 261 310 361
#     4  11  23  43  65  92 124 164 207 256 306 364
#
# _framework density 27.278625999999999
#
# number of rings (size 3 to 8) (size 9 to 14) (size 15 to 20)
#    0.857    0.857    1.429    2.143    4.000    4.000 
#    0.000    1.429    0.000    0.000    0.000    0.000 
#    0.000    0.000    0.000    0.000    0.000    0.000 
#
# Total GULP energy -78419.952517 kJ/mol
# GULP energy per Si atom -5601.425180 kJ/mol
# Density = 2.721654 g / cm^3
# Si number density = 27.278626 Si / 1000 Ang^3
#
#
#
# Elastic Constant Matrix: (Units=GPa)
#
#
# Indices 1 2 3 4 5 6 
#
# 1 94.8756 18.5581 18.0450 5.1396 -15.5690 -21.4515
# 2 18.5581 78.1752 6.3829 9.7046 -7.9891 -17.3066
# 3 18.0450 6.3829 144.4842 -1.4988 -29.9087 -18.8974
# 4 5.1396 9.7046 -1.4988 37.2028 -6.9857 0.1266
# 5 -15.5690 -7.9891 -29.9087 -6.9857 53.9509 3.7784
# 6 -21.4515 -17.3066 -18.8974 0.1266 3.7784 31.9783
#
#
#
# Elastic Compliance Matrix: (Units=1/GPa)
#
#
# Indices 1 2 3 4 5 6 
#
# 1 0.013048 -0.000911 0.000054 -0.001032 0.002970 0.007944
# 2 -0.000911 0.015297 0.000726 -0.003603 0.001382 0.007947
# 3 0.000054 0.000726 0.008488 0.000995 0.004615 0.004896
# 4 -0.001032 -0.003603 0.000995 0.028690 0.003617 -0.002595
# 5 0.002970 0.001382 0.004615 0.003617 0.022427 0.002803
# 6 0.007944 0.007947 0.004896 -0.002595 0.002803 0.043474
#
#
# Mechanical properties :
#
#
# Convention : Reuss Voigt Hill
#
# Bulk Modulus (GPa) = 27.34497 44.83413 36.08955
# Shear Modulus (GPa) = 34.75199 42.92967 38.84083
#
# Velocity S-wave (km/s) = 3.57314 3.97135 3.77749
# Velocity P-wave (km/s) = 5.20280 6.12374 5.68196
#
# Compressibility (1/GPa) = 0.03656980
#
# Stress axis : x y z
#
# Youngs Moduli (GPa) = 76.64206 65.37376 117.80918
#
# Poissons Ratio (x) = 0.05958 -0.00635
# Poissons Ratio (y) = 0.06985 -0.08555
# Poissons Ratio (z) = -0.00413 -0.04747
#
# Static dielectric constant tensor:
#      x y z
#    x 2.093540 0.093210 0.041520 
#    y 0.093210 2.200500 -0.011990 
#    z 0.041520 -0.011990 2.058050 
# 
# From -- ./inp_files/66607.got.cif
#   From: 2010.05.17/outbox.cif.g08.bks.cpg/sg2_34_cif.got.tgz:66607.got - 2010.06.03 11:33:40.
