data_PCOD9021203
_publ_section_title
;
Structure prediction by ZEFSAII (Michael W. Deem and Ramdas Pophale) SiO2 
 PCOD9021203
Probable space group: P -1
;
_chemical_formula_sum "Si O2"
_cell_formula_units_Z 13
_cell_length_a 10.719334
_cell_length_b 10.300038
_cell_length_c 10.500165
_cell_angle_alpha 140.617101
_cell_angle_beta 99.500725
_cell_angle_gamma 59.626302
_cell_volume 578.141932
_symmetry_space_group_name_H-M "P -1"
_symmetry_group_IT_number 2
_symmetry_cell_setting 'triclinic'
loop_
_space_group_symop_operation_xyz
x,y,z
-x,-y,-z
loop_
_atom_site_type_symbol
_atom_site_label
_atom_site_fract_x
_atom_site_fract_y
_atom_site_fract_z
Si Si1 0.373815 0.582515 0.655419
Si Si2 0.000000 0.000000 0.000000
Si Si3 0.417046 0.967701 0.081028
Si Si4 0.036853 0.874581 0.667201
Si Si5 0.461844 0.959993 0.602868
Si Si6 0.126914 0.206078 0.835051
Si Si7 0.901716 0.638864 0.769031
O O1 0.500000 0.500000 0.500000
O O2 0.190966 0.753058 0.701638
O O3 0.427540 0.332728 0.551795
O O4 0.393810 0.759021 0.879342
O O5 0.092378 0.946343 0.113431
O O6 0.999144 0.258502 0.172067
O O7 0.509649 0.900362 0.176336
O O8 0.243071 0.237663 0.260731
O O9 0.500000 0.000000 0.000000
O O10 0.026300 0.659864 0.444966
O O11 0.060557 0.039428 0.701078
O O12 0.280499 0.065933 0.666984
O O13 0.500000 0.000000 0.500000
O O14 0.169860 0.229572 0.005335
O O15 0.000000 0.500000 0.000000
#
# Coordination Sequence:
#
# PCOD9021203 Si02
#       7
#     2   1   2   2   2   2   2
#     4  12  20  40  75 101 130 178 243 291 339 419
#     4  10  22  38  58 106 146 156 224 300 346 412
#     4  12  20  41  76 103 129 184 242 294 343 425
#     4  11  21  40  70 101 128 189 243 284 345 427
#     4  12  27  43  69 111 147 178 233 312 364 404
#     4  11  25  45  64  98 149 189 230 288 360 439
#     4  11  21  41  72 100 130 186 242 284 349 428
#
# _framework density 22.485825999999999
#
# number of rings (size 3 to 8) (size 9 to 14) (size 15 to 20)
#    0.000    0.615    9.231    0.462    0.000    3.692 
#    2.769    0.000    0.000    0.000    0.000    0.000 
#    0.000    0.000    0.000    0.000    0.000    0.000 
#
# Total GULP energy -72407.107174 kJ/mol
# GULP energy per Si atom -5569.777475 kJ/mol
# Density = 2.243465 g / cm^3
# Si number density = 22.485826 Si / 1000 Ang^3
#
#
#
# Elastic Constant Matrix: (Units=GPa)
#
#
# Indices 1 2 3 4 5 6 
#
# 1 102.9049 54.4930 50.7067 5.8757 7.1880 36.8446
# 2 54.4930 121.9415 32.6743 11.7232 0.7961 30.3406
# 3 50.7067 32.6743 115.0225 10.2644 30.1258 34.5881
# 4 5.8757 11.7232 10.2644 47.6514 18.3829 -2.0944
# 5 7.1880 0.7961 30.1258 18.3829 34.7540 2.8607
# 6 36.8446 30.3406 34.5881 -2.0944 2.8607 41.1012
#
#
#
# Elastic Compliance Matrix: (Units=1/GPa)
#
#
# Indices 1 2 3 4 5 6 
#
# 1 0.017084 -0.004250 -0.003792 -0.001103 0.001186 -0.009125
# 2 -0.004250 0.011815 -0.000625 -0.003841 0.003579 -0.004832
# 3 -0.003792 -0.000625 0.016827 0.002033 -0.014104 -0.009214
# 4 -0.001103 -0.003841 0.002033 0.028324 -0.016817 0.004727
# 5 0.001186 0.003579 -0.014104 -0.016817 0.049248 0.003879
# 6 -0.009125 -0.004832 -0.009214 0.004727 0.003879 0.043802
#
#
# Mechanical properties :
#
#
# Convention : Reuss Voigt Hill
#
# Bulk Modulus (GPa) = 35.22061 68.40187 51.81124
# Shear Modulus (GPa) = 25.78677 38.16765 31.97721
#
# Velocity S-wave (km/s) = 3.39012 4.12443 3.77517
# Velocity P-wave (km/s) = 5.56968 7.29159 6.48801
#
# Compressibility (1/GPa) = 0.02839247
#
# Stress axis : x y z
#
# Youngs Moduli (GPa) = 58.53387 84.63668 59.42971
#
# Poissons Ratio (x) = 0.35968 0.22538
# Poissons Ratio (y) = 0.24875 0.03713
# Poissons Ratio (z) = 0.22198 0.05287
#
# Static dielectric constant tensor:
#      x y z
#    x 1.585200 -0.052200 -0.012460 
#    y -0.052200 1.872350 -0.003470 
#    z -0.012460 -0.003470 1.668100 
# 
# From -- ./inp_files/246028.got.cif
#   From: 2010.05.17/outbox.cif.g08.bks.cpg/sg2_124_cif.got.tgz:246028.got - 2010.06.03 11:33:40.
