data_PCOD9021549
_publ_section_title
;
Structure prediction by ZEFSAII (Michael W. Deem and Ramdas Pophale) SiO2 
 PCOD9021549
Probable space group: P -1
;
_chemical_formula_sum "Si O2"
_cell_formula_units_Z 14
_cell_length_a 11.023924
_cell_length_b 9.721252
_cell_length_c 11.013674
_cell_angle_alpha 81.446181
_cell_angle_beta 103.816367
_cell_angle_gamma 152.560493
_cell_volume 522.861800
_symmetry_space_group_name_H-M "P -1"
_symmetry_group_IT_number 2
_symmetry_cell_setting 'triclinic'
loop_
_space_group_symop_operation_xyz
x,y,z
-x,-y,-z
loop_
_atom_site_type_symbol
_atom_site_label
_atom_site_fract_x
_atom_site_fract_y
_atom_site_fract_z
Si Si1 0.853354 0.546434 0.812490
Si Si2 0.611529 0.623793 0.376483
Si Si3 0.685269 0.257618 0.409409
Si Si4 0.320570 0.132526 0.211393
Si Si5 0.093939 0.512824 0.817514
Si Si6 0.027384 0.244780 0.447193
Si Si7 0.459281 0.186450 0.975132
O O1 0.857099 0.381077 0.824080
O O2 0.813309 0.567107 0.664865
O O3 0.646347 0.407772 0.876083
O O4 0.157380 0.867962 0.894567
O O5 0.500000 0.500000 0.500000
O O6 0.390638 0.345829 0.266885
O O7 0.862000 0.760759 0.429435
O O8 0.751803 0.911972 0.371461
O O9 0.496260 0.196717 0.323099
O O10 0.788507 0.300978 0.300197
O O11 0.945066 0.589040 0.489359
O O12 0.500000 0.000000 0.500000
O O13 0.414229 0.233543 0.080254
O O14 0.031675 0.766687 0.191365
O O15 0.349786 0.747494 0.934213
#
# Coordination Sequence:
#
# PCOD9021549 Si02
#       7
#     2   2   2   2   2   2   2
#     4  12  26  40  71  97 141 177 226 272 332 404
#     4  10  22  44  72  93 128 172 227 279 344 395
#     4  10  22  38  63 100 137 171 217 277 339 402
#     4  10  22  41  67  95 130 179 221 279 333 397
#     4  11  23  40  68  97 140 177 222 269 336 399
#     4  10  24  42  63 101 129 175 218 284 334 397
#     4  11  25  44  65 101 137 183 223 270 332 402
#
# _framework density 26.775717
#
# number of rings (size 3 to 8) (size 9 to 14) (size 15 to 20)
#    0.000    1.429    1.429    2.571    8.000    4.571 
#    0.000    1.429    0.000    0.000    0.000    0.000 
#    0.000    0.000    0.000    0.000    0.000    0.000 
#
# Total GULP energy -78193.758748 kJ/mol
# GULP energy per Si atom -5585.268482 kJ/mol
# Density = 2.671477 g / cm^3
# Si number density = 26.775717 Si / 1000 Ang^3
#
#
#
# Elastic Constant Matrix: (Units=GPa)
#
#
# Indices 1 2 3 4 5 6 
#
# 1 50.8399 54.1001 31.7580 0.0821 -12.0607 -8.9871
# 2 54.1001 162.7840 53.6455 21.6197 -24.7135 -4.7319
# 3 31.7580 53.6455 158.8179 -3.1055 -23.1750 -11.9613
# 4 0.0821 21.6197 -3.1055 54.5718 11.9559 -10.8302
# 5 -12.0607 -24.7135 -23.1750 11.9559 57.5475 10.9227
# 6 -8.9871 -4.7319 -11.9613 -10.8302 10.9227 41.0841
#
#
#
# Elastic Compliance Matrix: (Units=1/GPa)
#
#
# Indices 1 2 3 4 5 6 
#
# 1 0.034344 -0.011378 -0.002548 0.006092 -0.001392 0.007436
# 2 -0.011378 0.011834 -0.001561 -0.006582 0.004281 -0.004454
# 3 -0.002548 -0.001561 0.007663 0.001027 0.001404 0.001391
# 4 0.006092 -0.006582 0.001027 0.024634 -0.008059 0.009510
# 5 -0.001392 0.004281 0.001404 -0.008059 0.022594 -0.007534
# 6 0.007436 -0.004454 0.001391 0.009510 -0.007534 0.030369
#
#
# Mechanical properties :
#
#
# Convention : Reuss Voigt Hill
#
# Bulk Modulus (GPa) = 43.73464 72.38322 58.05893
# Shear Modulus (GPa) = 29.40564 46.16988 37.78776
#
# Velocity S-wave (km/s) = 3.31754 4.15700 3.76076
# Velocity P-wave (km/s) = 5.57170 7.08044 6.37089
#
# Compressibility (1/GPa) = 0.02286517
#
# Stress axis : x y z
#
# Youngs Moduli (GPa) = 29.11724 84.50315 130.49387
#
# Poissons Ratio (x) = 0.96152 0.33251
# Poissons Ratio (y) = 0.33131 0.20375
# Poissons Ratio (z) = 0.07419 0.13194
#
# Static dielectric constant tensor:
#      x y z
#    x 2.278600 -0.049980 0.055170 
#    y -0.049980 2.173720 -0.026530 
#    z 0.055170 -0.026530 2.094960 
# 
# From -- ./inp_files/94600.got.cif
#   From: 2010.05.17/outbox.cif.g08.bks.cpg/sg2_48_cif.got.tgz:94600.got - 2010.06.03 11:33:40.
