data_PCOD9021625
_publ_section_title
;
Structure prediction by ZEFSAII (Michael W. Deem and Ramdas Pophale) SiO2 
 PCOD9021625
Probable space group: P -1
;
_chemical_formula_sum "Si O2"
_cell_formula_units_Z 14
_cell_length_a 12.288413
_cell_length_b 13.847928
_cell_length_c 7.835695
_cell_angle_alpha 136.249075
_cell_angle_beta 73.488907
_cell_angle_gamma 137.846815
_cell_volume 520.230820
_symmetry_space_group_name_H-M "P -1"
_symmetry_group_IT_number 2
_symmetry_cell_setting 'triclinic'
loop_
_space_group_symop_operation_xyz
x,y,z
-x,-y,-z
loop_
_atom_site_type_symbol
_atom_site_label
_atom_site_fract_x
_atom_site_fract_y
_atom_site_fract_z
Si Si1 0.530606 0.336847 0.940346
Si Si2 0.488632 0.125501 0.340708
Si Si3 0.243213 0.254216 0.102955
Si Si4 0.099925 0.703042 0.086956
Si Si5 0.967633 0.850690 0.466300
Si Si6 0.292324 0.037886 0.976192
Si Si7 0.883234 0.556721 0.644718
O O1 0.409772 0.361996 0.037924
O O2 0.749101 0.582060 0.215206
O O3 0.955163 0.007924 0.214506
O O4 0.420316 0.134255 0.875051
O O5 0.536083 0.268286 0.667025
O O6 0.692219 0.269696 0.365000
O O7 0.311305 0.856869 0.144709
O O8 0.389984 0.102817 0.194973
O O9 0.214081 0.389349 0.279689
O O10 0.287248 0.203505 0.182848
O O11 0.107233 0.860265 0.375026
O O12 0.977048 0.617174 0.863636
O O13 0.000000 0.500000 0.000000
O O14 0.000000 0.000000 0.500000
O O15 0.077362 0.757293 0.700572
#
# Coordination Sequence:
#
# PCOD9021625 Si02
#       7
#     2   2   2   2   2   2   2
#     4  10  23  39  65  99 135 179 219 269 345 399
#     4  11  22  42  66  92 136 175 221 281 329 401
#     4  10  22  38  63  96 138 171 217 271 338 395
#     4  11  24  41  64 100 135 175 229 274 332 405
#     4  12  22  40  67 100 133 175 224 280 332 394
#     4   9  24  38  60 102 137 173 223 273 338 403
#     4  11  22  40  64  95 134 178 221 273 342 391
#
# _framework density 26.911131000000001
#
# number of rings (size 3 to 8) (size 9 to 14) (size 15 to 20)
#    0.857    0.571    4.286    0.429    4.000    2.286 
#    0.000    0.000    0.000   17.143    0.000    0.000 
#    0.000    0.000    0.000    0.000    0.000    0.000 
#
# Total GULP energy -78329.979256 kJ/mol
# GULP energy per Si atom -5594.998518 kJ/mol
# Density = 2.684988 g / cm^3
# Si number density = 26.911131 Si / 1000 Ang^3
#
#
#
# Elastic Constant Matrix: (Units=GPa)
#
#
# Indices 1 2 3 4 5 6 
#
# 1 129.5647 27.5949 37.2732 14.2704 7.6417 11.9111
# 2 27.5949 166.5999 63.3661 36.8495 11.5319 0.3253
# 3 37.2732 63.3661 117.2065 29.4080 43.8275 18.6517
# 4 14.2704 36.8495 29.4080 56.4483 14.7311 6.6228
# 5 7.6417 11.5319 43.8275 14.7311 55.4856 9.7583
# 6 11.9111 0.3253 18.6517 6.6228 9.7583 50.7036
#
#
#
# Elastic Compliance Matrix: (Units=1/GPa)
#
#
# Indices 1 2 3 4 5 6 
#
# 1 0.008688 -0.000317 -0.002746 -0.000799 0.001463 -0.001206
# 2 -0.000317 0.008591 -0.004916 -0.003925 0.002869 0.001788
# 3 -0.002746 -0.004916 0.017190 -0.001762 -0.011135 -0.003274
# 4 -0.000799 -0.003925 -0.001762 0.022450 -0.003393 -0.001418
# 5 0.001463 0.002869 -0.011135 -0.003393 0.027104 -0.001039
# 6 -0.001206 0.001788 -0.003274 -0.001418 -0.001039 0.021584
#
#
# Mechanical properties :
#
#
# Convention : Reuss Voigt Hill
#
# Bulk Modulus (GPa) = 54.02405 74.42662 64.22534
# Shear Modulus (GPa) = 39.14344 51.53664 45.34004
#
# Velocity S-wave (km/s) = 3.81799 4.38090 4.10909
# Velocity P-wave (km/s) = 6.28924 7.30111 6.81398
#
# Compressibility (1/GPa) = 0.01851027
#
# Stress axis : x y z
#
# Youngs Moduli (GPa) = 115.09768 116.40139 58.17337
#
# Poissons Ratio (x) = 0.03686 0.15977
# Poissons Ratio (y) = 0.03644 0.28601
# Poissons Ratio (z) = 0.31610 0.57228
#
# Static dielectric constant tensor:
#      x y z
#    x 2.117390 0.043450 -0.023460 
#    y 0.043450 2.152110 0.022670 
#    z -0.023460 0.022670 2.120720 
# 
# From -- ./inp_files/449285.got.cif
#   From: 2010.05.17/outbox.cif.g08.bks.cpg/sg2_225_cif.got.tgz:449285.got - 2010.06.03 11:33:40.
