data_PCOD9021816
_publ_section_title
;
Structure prediction by ZEFSAII (Michael W. Deem and Ramdas Pophale) SiO2 
 PCOD9021816
Probable space group: P -1
;
_chemical_formula_sum "Si O2"
_cell_formula_units_Z 16
_cell_length_a 8.877481
_cell_length_b 12.611873
_cell_length_c 18.182833
_cell_angle_alpha 40.262936
_cell_angle_beta 49.757884
_cell_angle_gamma 80.680466
_cell_volume 744.652148
_symmetry_space_group_name_H-M "P -1"
_symmetry_group_IT_number 2
_symmetry_cell_setting 'triclinic'
loop_
_space_group_symop_operation_xyz
x,y,z
-x,-y,-z
loop_
_atom_site_type_symbol
_atom_site_label
_atom_site_fract_x
_atom_site_fract_y
_atom_site_fract_z
Si Si1 0.673825 0.463710 0.320343
Si Si2 0.646944 0.440901 0.939862
Si Si3 0.216179 0.829793 0.507963
Si Si4 0.357413 0.699425 0.833423
Si Si5 0.907935 0.698784 0.966235
Si Si6 0.059233 0.861082 0.094870
Si Si7 0.945991 0.841369 0.312801
Si Si8 0.379986 0.978996 0.211343
O O1 0.674669 0.267189 0.431330
O O2 0.814764 0.611489 0.124881
O O3 0.370303 0.356538 0.473580
O O4 0.848468 0.619886 0.252017
O O5 0.899903 0.650437 0.707278
O O6 0.500000 0.500000 0.000000
O O7 0.745957 0.383480 0.007038
O O8 0.467797 0.218735 0.066759
O O9 0.306705 0.874877 0.370874
O O10 0.347295 0.064604 0.377993
O O11 0.320962 0.510888 0.900846
O O12 0.166508 0.734718 0.843717
O O13 0.981567 0.928660 0.814191
O O14 0.016379 0.849773 0.201193
O O15 0.359179 0.969862 0.926158
O O16 0.000000 0.000000 0.000000
O O17 0.130459 0.835338 0.311174
#
# Coordination Sequence:
#
# PCOD9021816 Si02
#       8
#     2   2   2   2   2   2   2   2
#     4  12  23  45  72 102 130 183 232 277 335 413
#     4  11  23  42  68  94 140 185 223 271 345 400
#     4  11  22  44  71  96 139 180 231 271 335 416
#     4  10  22  38  65  99 132 181 227 276 330 403
#     4  11  22  40  65  99 139 173 227 281 336 390
#     4  12  24  49  75  96 134 185 228 278 343 409
#     4  12  26  43  70 104 139 171 230 289 339 392
#     4  11  26  45  68 105 141 175 224 286 341 397
#
# _framework density 21.486543999999999
#
# number of rings (size 3 to 8) (size 9 to 14) (size 15 to 20)
#    0.000    0.750    5.000    3.000    0.000    6.500 
#    0.000    1.250    0.000    0.000    0.000    0.000 
#    0.000    0.000    0.000    0.000    0.000    0.000 
#
# Total GULP energy -89456.006449 kJ/mol
# GULP energy per Si atom -5591.000403 kJ/mol
# Density = 2.143764 g / cm^3
# Si number density = 21.486544 Si / 1000 Ang^3
#
#
#
# Elastic Constant Matrix: (Units=GPa)
#
#
# Indices 1 2 3 4 5 6 
#
# 1 79.5945 -2.3473 4.8040 7.2396 -24.8148 -5.8763
# 2 -2.3473 50.6513 -2.4711 2.9737 -13.9874 -0.8019
# 3 4.8040 -2.4711 75.2565 3.0489 -21.5471 -18.7186
# 4 7.2396 2.9737 3.0489 28.4317 -9.4516 -14.7612
# 5 -24.8148 -13.9874 -21.5471 -9.4516 31.9858 -0.5529
# 6 -5.8763 -0.8019 -18.7186 -14.7612 -0.5529 32.2579
#
#
#
# Elastic Compliance Matrix: (Units=1/GPa)
#
#
# Indices 1 2 3 4 5 6 
#
# 1 0.023964 0.011656 0.013958 0.013931 0.037550 0.019773
# 2 0.011656 0.030719 0.014974 0.014283 0.037108 0.018748
# 3 0.013958 0.014974 0.034869 0.026181 0.049224 0.035973
# 4 0.013931 0.014283 0.026181 0.073864 0.057430 0.052869
# 5 0.037550 0.037108 0.049224 0.057430 0.127873 0.064799
# 6 0.019773 0.018748 0.035973 0.052869 0.064799 0.081246
#
#
# Mechanical properties :
#
#
# Convention : Reuss Voigt Hill
#
# Bulk Modulus (GPa) = 5.85725 22.83041 14.34383
# Shear Modulus (GPa) = 14.35668 32.23618 23.29643
#
# Velocity S-wave (km/s) = 2.58770 3.87757 3.29634
# Velocity P-wave (km/s) = 3.41471 5.54039 4.60196
#
# Compressibility (1/GPa) = 0.17072868
#
# Stress axis : x y z
#
# Youngs Moduli (GPa) = 41.72841 32.55288 28.67867
#
# Poissons Ratio (x) = -0.37944 -0.40029
# Poissons Ratio (y) = -0.48639 -0.42943
# Poissons Ratio (z) = -0.58244 -0.48744
#
# Static dielectric constant tensor:
#      x y z
#    x 1.841780 -0.011640 -0.010210 
#    y -0.011640 1.781630 -0.042730 
#    z -0.010210 -0.042730 1.764910 
# 
# From -- ./inp_files/278912.got.cif
#   From: 2010.05.17/outbox.cif.g08.bks.cpg/sg2_140_cif.got.tgz:278912.got - 2010.06.03 11:33:40.
