data_PCOD9021420
_publ_section_title
;
Structure prediction by ZEFSAII (Michael W. Deem and Ramdas Pophale) SiO2 
 PCOD9021420
Probable space group: P -1
;
_chemical_formula_sum "Si O2"
_cell_formula_units_Z 14
_cell_length_a 13.912042
_cell_length_b 15.378015
_cell_length_c 9.496882
_cell_angle_alpha 93.845631
_cell_angle_beta 63.616819
_cell_angle_gamma 149.573554
_cell_volume 661.199669
_symmetry_space_group_name_H-M "P -1"
_symmetry_group_IT_number 2
_symmetry_cell_setting 'triclinic'
loop_
_space_group_symop_operation_xyz
x,y,z
-x,-y,-z
loop_
_atom_site_type_symbol
_atom_site_label
_atom_site_fract_x
_atom_site_fract_y
_atom_site_fract_z
Si Si1 0.181487 0.362234 0.070641
Si Si2 0.955321 0.505465 0.183668
Si Si3 0.885684 0.032436 0.478676
Si Si4 0.374854 0.354950 0.425908
Si Si5 0.353220 0.956145 0.980770
Si Si6 0.543614 0.945872 0.378012
Si Si7 0.457452 0.754511 0.950135
O O1 0.376686 0.593854 0.014966
O O2 0.073668 0.222275 0.256374
O O3 0.362259 0.452142 0.839626
O O4 0.881218 0.173891 0.183131
O O5 0.652300 0.271994 0.437811
O O6 0.172243 0.601242 0.134089
O O7 0.000000 0.500000 0.000000
O O8 0.049263 0.676249 0.126126
O O9 0.101885 0.185688 0.490581
O O10 0.750053 0.838449 0.489008
O O11 0.605859 0.871617 0.711534
O O12 0.500000 0.500000 0.500000
O O13 0.540081 0.099395 0.732568
O O14 0.322922 0.030471 0.064078
O O15 0.500000 0.000000 0.000000
O O16 0.500000 0.000000 0.500000
#
# Coordination Sequence:
#
# PCOD9021420 Si02
#       7
#     2   2   2   2   2   2   2
#     4  11  23  42  68  95 130 169 215 267 333 385
#     4  11  20  38  61  85 130 176 215 260 312 375
#     4  10  23  44  71  96 130 170 212 278 338 386
#     4  10  24  47  71  96 129 165 219 276 334 400
#     4  10  24  38  59  88 130 176 224 261 317 371
#     4  12  23  39  62  94 132 174 217 260 314 393
#     4  10  22  38  61  91 131 165 215 264 318 383
#
# _framework density 21.173634
#
# number of rings (size 3 to 8) (size 9 to 14) (size 15 to 20)
#    0.000    1.429    2.857    1.286    4.000    5.143 
#    2.571    0.000    0.000    0.000    0.000    0.000 
#    0.000    0.000    0.000    0.000    0.000    0.000 
#
# Total GULP energy -78040.820970 kJ/mol
# GULP energy per Si atom -5574.344355 kJ/mol
# Density = 2.112544 g / cm^3
# Si number density = 21.173634 Si / 1000 Ang^3
#
#
#
# Elastic Constant Matrix: (Units=GPa)
#
#
# Indices 1 2 3 4 5 6 
#
# 1 50.0126 30.5522 39.8256 7.3575 13.1392 1.8243
# 2 30.5522 154.8450 72.0988 11.3791 23.0872 -24.1155
# 3 39.8256 72.0988 161.2349 -4.1052 25.8626 -17.8511
# 4 7.3575 11.3791 -4.1052 37.1116 0.4008 3.5992
# 5 13.1392 23.0872 25.8626 0.4008 51.0616 -9.7786
# 6 1.8243 -24.1155 -17.8511 3.5992 -9.7786 29.7781
#
#
#
# Elastic Compliance Matrix: (Units=1/GPa)
#
#
# Indices 1 2 3 4 5 6 
#
# 1 0.029053 -0.003295 -0.006082 -0.004493 -0.004606 -0.009064
# 2 -0.003295 0.009802 -0.002782 -0.003288 -0.000890 0.006578
# 3 -0.006082 -0.002782 0.009594 0.002841 -0.001476 0.003043
# 4 -0.004493 -0.003288 0.002841 0.029565 0.000167 -0.004203
# 5 -0.004606 -0.000890 -0.001476 0.000167 0.023114 0.006247
# 6 -0.009064 0.006578 0.003043 -0.004203 0.006247 0.043847
#
#
# Mechanical properties :
#
#
# Convention : Reuss Voigt Hill
#
# Bulk Modulus (GPa) = 41.43978 72.33841 56.88910
# Shear Modulus (GPa) = 28.19476 38.49799 33.34638
#
# Velocity S-wave (km/s) = 3.65307 4.26867 3.97281
# Velocity P-wave (km/s) = 6.11613 7.65074 6.92607
#
# Compressibility (1/GPa) = 0.02413140
#
# Stress axis : x y z
#
# Youngs Moduli (GPa) = 34.42033 102.01645 104.22716
#
# Poissons Ratio (x) = 0.33616 0.63387
# Poissons Ratio (y) = 0.11342 0.28997
# Poissons Ratio (z) = 0.20933 0.28382
#
# Static dielectric constant tensor:
#      x y z
#    x 1.875320 0.090740 0.075370 
#    y 0.090740 1.942170 -0.069810 
#    z 0.075370 -0.069810 1.933110 
# 
# From -- ./inp_files/313493.got.cif
#   From: 2010.05.17/outbox.cif.g08.bks.cpg/sg2_157_cif.got.tgz:313493.got - 2010.06.03 11:33:40.
