data_PCOD9021405
_publ_section_title
;
Structure prediction by ZEFSAII (Michael W. Deem and Ramdas Pophale) SiO2 
 PCOD9021405
Probable space group: P -1
;
_chemical_formula_sum "Si O2"
_cell_formula_units_Z 12
_cell_length_a 14.604740
_cell_length_b 17.788094
_cell_length_c 8.631477
_cell_angle_alpha 53.570674
_cell_angle_beta 44.797598
_cell_angle_gamma 20.859821
_cell_volume 540.746699
_symmetry_space_group_name_H-M "P -1"
_symmetry_group_IT_number 2
_symmetry_cell_setting 'triclinic'
loop_
_space_group_symop_operation_xyz
x,y,z
-x,-y,-z
loop_
_atom_site_type_symbol
_atom_site_label
_atom_site_fract_x
_atom_site_fract_y
_atom_site_fract_z
Si Si1 0.180197 0.153712 0.233092
Si Si2 0.243277 0.983579 0.111749
Si Si3 0.848316 0.373401 0.677783
Si Si4 0.156588 0.826237 0.906996
Si Si5 0.915574 0.486668 0.977190
Si Si6 0.213531 0.201725 0.707612
O O1 0.181645 0.049474 0.285213
O O2 0.099168 0.211018 0.439923
O O3 0.917485 0.384340 0.180843
O O4 0.500000 0.000000 0.000000
O O5 0.019531 0.065769 0.177741
O O6 0.590665 0.723451 0.006613
O O7 0.213282 0.105411 0.921514
O O8 0.515533 0.611917 0.719012
O O9 0.932518 0.388441 0.696807
O O10 0.855810 0.266648 0.879166
O O11 0.000000 0.000000 0.000000
O O12 0.000000 0.500000 0.000000
O O13 0.167396 0.314394 0.748837
O O14 0.500000 0.000000 0.500000
#
# Coordination Sequence:
#
# PCOD9021405 Si02
#       6
#     2   2   2   2   2   2
#     4  11  22  41  63  92 132 160 199 257 324 377
#     4  10  22  39  60  88 122 166 203 254 313 370
#     4  10  22  41  65  90 121 167 204 257 316 365
#     4  10  22  43  64  87 122 161 220 261 294 364
#     4  11  22  37  59  87 127 165 200 249 310 376
#     4  10  22  38  61  90 124 160 205 258 316 372
#
# _framework density 22.191538000000001
#
# number of rings (size 3 to 8) (size 9 to 14) (size 15 to 20)
#    0.000    1.667    1.667    3.000    0.000    4.000 
#    3.000    1.667    0.000    0.000    0.000    0.000 
#    0.000    0.000    0.000    0.000    0.000    0.000 
#
# Total GULP energy -66971.892130 kJ/mol
# GULP energy per Si atom -5580.991011 kJ/mol
# Density = 2.214103 g / cm^3
# Si number density = 22.191538 Si / 1000 Ang^3
#
#
#
# Elastic Constant Matrix: (Units=GPa)
#
#
# Indices 1 2 3 4 5 6 
#
# 1 172.4559 59.9443 34.6724 34.0661 34.5197 -11.2211
# 2 59.9443 107.8897 14.7766 33.0485 9.4032 -20.3008
# 3 34.6724 14.7766 75.3896 23.8136 26.3224 -3.4514
# 4 34.0661 33.0485 23.8136 28.4125 4.7015 2.7306
# 5 34.5197 9.4032 26.3224 4.7015 32.6811 8.6682
# 6 -11.2211 -20.3008 -3.4514 2.7306 8.6682 45.3853
#
#
#
# Elastic Compliance Matrix: (Units=1/GPa)
#
#
# Indices 1 2 3 4 5 6 
#
# 1 0.012216 0.002315 0.008074 -0.021812 -0.019510 0.009708
# 2 0.002315 0.024518 0.016138 -0.043141 -0.021453 0.019460
# 3 0.008074 0.016138 0.041482 -0.058170 -0.044687 0.024404
# 4 -0.021812 -0.043141 -0.058170 0.153047 0.074209 -0.052495
# 5 -0.019510 -0.021453 -0.044687 0.074209 0.093333 -0.040109
# 6 0.009708 0.019460 0.024404 -0.052495 -0.040109 0.045813
#
#
# Mechanical properties :
#
#
# Convention : Reuss Voigt Hill
#
# Bulk Modulus (GPa) = 7.61787 63.83574 35.72681
# Shear Modulus (GPa) = 13.84611 37.71856 25.78233
#
# Velocity S-wave (km/s) = 2.50058 4.12719 3.41223
# Velocity P-wave (km/s) = 3.43183 7.17913 5.62660
#
# Compressibility (1/GPa) = 0.13127035
#
# Stress axis : x y z
#
# Youngs Moduli (GPa) = 81.86052 40.78614 24.10668
#
# Poissons Ratio (x) = -0.09443 -0.19464
# Poissons Ratio (y) = -0.18953 -0.38903
# Poissons Ratio (z) = -0.66093 -0.65820
#
# Static dielectric constant tensor:
#      x y z
#    x 1.926840 -0.005010 0.029750 
#    y -0.005010 1.830020 0.012670 
#    z 0.029750 0.012670 1.858480 
# 
# From -- ./inp_files/29801.got.cif
#   From: 2010.05.17/outbox.cif.g08.bks.cpg/sg2_15_cif.got.tgz:29801.got - 2010.06.03 11:33:40.
