data_PCOD9021555
_publ_section_title
;
Structure prediction by ZEFSAII (Michael W. Deem and Ramdas Pophale) SiO2 
 PCOD9021555
Probable space group: P -1
;
_chemical_formula_sum "Si O2"
_cell_formula_units_Z 16
_cell_length_a 10.621224
_cell_length_b 8.037237
_cell_length_c 11.345085
_cell_angle_alpha 125.625431
_cell_angle_beta 129.109836
_cell_angle_gamma 78.568240
_cell_volume 588.433159
_symmetry_space_group_name_H-M "P -1"
_symmetry_group_IT_number 2
_symmetry_cell_setting 'triclinic'
loop_
_space_group_symop_operation_xyz
x,y,z
-x,-y,-z
loop_
_atom_site_type_symbol
_atom_site_label
_atom_site_fract_x
_atom_site_fract_y
_atom_site_fract_z
Si Si1 0.019469 0.915624 0.714827
Si Si2 0.846955 0.411619 0.279063
Si Si3 0.673191 0.669975 0.138801
Si Si4 0.314182 0.234684 0.409781
Si Si5 0.158219 0.474173 0.241211
Si Si6 0.729220 0.119953 0.360418
Si Si7 0.491364 0.662717 0.798993
Si Si8 0.157434 0.774627 0.163645
O O1 0.831186 0.775296 0.581447
O O2 0.127567 0.819202 0.832025
O O3 0.690279 0.893012 0.307114
O O4 0.979793 0.138824 0.805286
O O5 0.819889 0.571930 0.229545
O O6 0.877239 0.095551 0.347502
O O7 0.000000 0.500000 0.500000
O O8 0.673840 0.362650 0.227858
O O9 0.500000 0.500000 0.000000
O O10 0.646446 0.709302 0.999951
O O11 0.461177 0.438487 0.620509
O O12 0.252729 0.306313 0.278045
O O13 0.305244 0.983616 0.300817
O O14 0.195916 0.663812 0.436398
O O15 0.209577 0.603583 0.204253
O O16 0.964400 0.347093 0.059588
O O17 0.546091 0.148601 0.223743
#
# Coordination Sequence:
#
# PCOD9021555 Si02
#       8
#     2   2   2   2   2   2   2   2
#     4   9  20  33  54  80 121 145 183 245 293 344
#     4  10  17  31  49  77 111 151 181 228 290 344
#     4  10  22  33  54  79 118 154 195 238 295 347
#     4   9  18  34  57  79 121 150 187 237 298 337
#     4  10  20  32  54  83 119 157 190 236 298 354
#     4  10  21  34  55  86 114 151 198 241 299 342
#     4   9  18  34  52  80 113 148 188 238 283 349
#     4   9  20  35  51  83 124 150 193 236 296 352
#
# _framework density 27.190854999999999
#
# number of rings (size 3 to 8) (size 9 to 14) (size 15 to 20)
#    0.750    1.750    1.250    0.750    5.250    1.500 
#    0.000    0.000    0.000    0.000    0.000   26.250 
#    0.000    0.000    0.000    0.000    0.000    0.000 
#
# Total GULP energy -89178.330439 kJ/mol
# GULP energy per Si atom -5573.645652 kJ/mol
# Density = 2.712897 g / cm^3
# Si number density = 27.190855 Si / 1000 Ang^3
#
#
#
# Elastic Constant Matrix: (Units=GPa)
#
#
# Indices 1 2 3 4 5 6 
#
# 1 62.5301 21.7692 19.4444 -4.2605 22.7286 -9.2245
# 2 21.7692 119.2478 18.9699 -6.8814 17.4125 3.5549
# 3 19.4444 18.9699 113.9980 -25.0624 23.8789 -11.4616
# 4 -4.2605 -6.8814 -25.0624 52.4849 -2.1372 1.5707
# 5 22.7286 17.4125 23.8789 -2.1372 20.0968 -2.8889
# 6 -9.2245 3.5549 -11.4616 1.5707 -2.8889 28.6194
#
#
#
# Elastic Compliance Matrix: (Units=1/GPa)
#
#
# Indices 1 2 3 4 5 6 
#
# 1 0.029322 -0.000830 0.003912 0.002462 -0.035769 0.007375
# 2 -0.000830 0.009803 0.000186 0.001050 -0.007992 -0.002275
# 3 0.003912 0.000186 0.014057 0.006105 -0.019990 0.004514
# 4 0.002462 0.001050 0.006105 0.021930 -0.008465 0.001050
# 5 -0.035769 -0.007992 -0.019990 -0.008465 0.119118 -0.006053
# 6 0.007375 -0.002275 0.004514 0.001050 -0.006053 0.038740
#
#
# Mechanical properties :
#
#
# Convention : Reuss Voigt Hill
#
# Bulk Modulus (GPa) = 16.74516 46.23810 31.49163
# Shear Modulus (GPa) = 20.29715 35.94638 28.12177
#
# Velocity S-wave (km/s) = 2.73512 3.63988 3.21944
# Velocity P-wave (km/s) = 4.01824 5.89126 5.04248
#
# Compressibility (1/GPa) = 0.05971876
#
# Stress axis : x y z
#
# Youngs Moduli (GPa) = 34.10434 102.00832 71.13740
#
# Poissons Ratio (x) = 0.08467 -0.27828
# Poissons Ratio (y) = 0.02831 -0.01326
# Poissons Ratio (z) = -0.13341 -0.01901
#
# Static dielectric constant tensor:
#      x y z
#    x 2.174240 0.001150 -0.109190 
#    y 0.001150 2.348090 -0.007420 
#    z -0.109190 -0.007420 2.248580 
# 
# From -- ./inp_files/539935.got.cif
#   From: 2010.05.17/outbox.cif.g08.bks.cpg/sg2_270_cif.got.tgz:539935.got - 2010.06.03 11:33:40.
