data_PCOD9021743
_publ_section_title
;
Structure prediction by ZEFSAII (Michael W. Deem and Ramdas Pophale) SiO2 
 PCOD9021743
Probable space group: P -1
;
_chemical_formula_sum "Si O2"
_cell_formula_units_Z 16
_cell_length_a 9.491196
_cell_length_b 9.125211
_cell_length_c 12.872692
_cell_angle_alpha 50.106387
_cell_angle_beta 105.434347
_cell_angle_gamma 118.498468
_cell_volume 750.423291
_symmetry_space_group_name_H-M "P -1"
_symmetry_group_IT_number 2
_symmetry_cell_setting 'triclinic'
loop_
_space_group_symop_operation_xyz
x,y,z
-x,-y,-z
loop_
_atom_site_type_symbol
_atom_site_label
_atom_site_fract_x
_atom_site_fract_y
_atom_site_fract_z
Si Si1 0.474408 0.963209 0.389231
Si Si2 0.572142 0.430430 0.142420
Si Si3 0.920624 0.578309 0.214722
Si Si4 0.923089 0.894461 0.253980
Si Si5 0.788982 0.165963 0.986691
Si Si6 0.122256 0.714257 0.478523
Si Si7 0.587482 0.727849 0.367273
Si Si8 0.497713 0.737534 0.116836
O O1 0.295377 0.783105 0.429606
O O2 0.591913 0.888507 0.384285
O O3 0.500000 0.000000 0.500000
O O4 0.494660 0.181932 0.246156
O O5 0.764819 0.523501 0.137522
O O6 0.523454 0.532481 0.185804
O O7 0.500000 0.500000 0.000000
O O8 0.928167 0.760607 0.214326
O O9 0.883656 0.363218 0.369122
O O10 0.087642 0.675455 0.142067
O O11 0.761298 0.764022 0.344222
O O12 0.065187 0.897037 0.355055
O O13 0.897033 0.098067 0.118058
O O14 0.656976 0.940730 0.019695
O O15 0.665149 0.259285 0.961826
O O16 0.000000 0.500000 0.500000
O O17 0.500000 0.500000 0.500000
O O18 0.497126 0.755671 0.233601
#
# Coordination Sequence:
#
# PCOD9021743 Si02
#       8
#     2   2   2   2   2   2   2   2
#     4  12  26  46  69 101 144 182 221 290 355 408
#     4  12  27  42  68  97 145 185 224 281 361 412
#     4  11  21  42  63 103 133 176 226 292 335 410
#     4  10  22  38  65 100 128 165 237 280 328 389
#     4  10  22  38  72  91 136 167 236 292 320 393
#     4  10  23  41  67  99 132 174 233 275 336 415
#     4  11  22  40  73  97 136 177 234 285 330 408
#     4  10  24  44  65 105 131 180 239 278 341 411
#
# _framework density 21.321299
#
# number of rings (size 3 to 8) (size 9 to 14) (size 15 to 20)
#    0.000    1.250    3.750    2.625   12.250    0.000 
#    0.000    2.500    0.000    0.000    0.000    0.000 
#    0.000    0.000    0.000    0.000    0.000    0.000 
#
# Total GULP energy -89317.366206 kJ/mol
# GULP energy per Si atom -5582.335388 kJ/mol
# Density = 2.127277 g / cm^3
# Si number density = 21.321299 Si / 1000 Ang^3
#
#
#
# Elastic Constant Matrix: (Units=GPa)
#
#
# Indices 1 2 3 4 5 6 
#
# 1 95.3937 8.5730 23.3766 -6.0339 -2.0314 11.6899
# 2 8.5730 52.7191 7.5552 -6.0300 -9.1198 -2.8714
# 3 23.3766 7.5552 88.3815 -2.4378 2.6504 11.3476
# 4 -6.0339 -6.0300 -2.4378 34.3251 9.4371 2.4581
# 5 -2.0314 -9.1198 2.6504 9.4371 43.7314 -3.4612
# 6 11.6899 -2.8714 11.3476 2.4581 -3.4612 30.0659
#
#
#
# Elastic Compliance Matrix: (Units=1/GPa)
#
#
# Indices 1 2 3 4 5 6 
#
# 1 0.011836 -0.001641 -0.002400 0.002024 -0.000405 -0.004065
# 2 -0.001641 0.020642 -0.001879 0.001774 0.004250 0.003663
# 3 -0.002400 -0.001879 0.012750 0.000968 -0.001829 -0.004348
# 4 0.002024 0.001774 0.000968 0.032071 -0.006863 -0.004395
# 5 -0.000405 0.004250 -0.001829 -0.006863 0.025704 0.004774
# 6 -0.004065 0.003663 -0.004348 -0.004395 0.004774 0.037741
#
#
# Mechanical properties :
#
#
# Convention : Reuss Voigt Hill
#
# Bulk Modulus (GPa) = 29.95175 35.05598 32.50386
# Shear Modulus (GPa) = 30.54108 34.75712 32.64910
#
# Velocity S-wave (km/s) = 3.78884 4.04190 3.91742
# Velocity P-wave (km/s) = 5.76357 6.18548 5.97824
#
# Compressibility (1/GPa) = 0.03338703
#
# Stress axis : x y z
#
# Youngs Moduli (GPa) = 84.48723 48.44470 78.43177
#
# Poissons Ratio (x) = 0.07948 0.18827
# Poissons Ratio (y) = 0.13862 0.14740
# Poissons Ratio (z) = 0.20281 0.09105
#
# Static dielectric constant tensor:
#      x y z
#    x 1.806300 0.000620 0.063080 
#    y 0.000620 1.787600 0.038230 
#    z 0.063080 0.038230 1.825290 
# 
# From -- ./inp_files/381378.got.cif
#   From: 2010.05.17/outbox.cif.g08.bks.cpg/sg2_191_cif.got.tgz:381378.got - 2010.06.03 11:33:40.
