data_PCOD9021661
_publ_section_title
;
Structure prediction by ZEFSAII (Michael W. Deem and Ramdas Pophale) SiO2 
 PCOD9021661
Probable space group: P -1
;
_chemical_formula_sum "Si O2"
_cell_formula_units_Z 16
_cell_length_a 12.078434
_cell_length_b 5.206808
_cell_length_c 15.881798
_cell_angle_alpha 64.861736
_cell_angle_beta 50.320198
_cell_angle_gamma 76.873756
_cell_volume 694.501327
_symmetry_space_group_name_H-M "P -1"
_symmetry_group_IT_number 2
_symmetry_cell_setting 'triclinic'
loop_
_space_group_symop_operation_xyz
x,y,z
-x,-y,-z
loop_
_atom_site_type_symbol
_atom_site_label
_atom_site_fract_x
_atom_site_fract_y
_atom_site_fract_z
Si Si1 0.748946 0.539479 0.333050
Si Si2 0.906051 0.714658 0.066492
Si Si3 0.510082 0.256717 0.391712
Si Si4 0.206642 0.110472 0.571150
Si Si5 0.201141 0.578437 0.101606
Si Si6 0.594492 0.267114 0.878666
Si Si7 0.347101 0.552271 0.863766
Si Si8 0.107478 0.931607 0.244348
O O1 0.858719 0.588966 0.196818
O O2 0.110195 0.795356 0.168247
O O3 0.773612 0.780375 0.357133
O O4 0.773653 0.225663 0.401388
O O5 0.756809 0.703345 0.088361
O O6 0.000000 0.500000 0.000000
O O7 0.000000 0.000000 0.000000
O O8 0.345377 0.278142 0.439051
O O9 0.609697 0.236525 0.263447
O O10 0.500000 0.000000 0.500000
O O11 0.589952 0.512839 0.370679
O O12 0.040967 0.162068 0.623933
O O13 0.340059 0.555949 0.098173
O O14 0.121187 0.269209 0.181078
O O15 0.259728 0.664215 0.969651
O O16 0.491741 0.433535 0.846339
O O17 0.741398 0.165983 0.778466
O O18 0.500000 0.000000 0.000000
#
# Coordination Sequence:
#
# PCOD9021661 Si02
#       8
#     2   2   2   2   2   2   2   2
#     4  10  22  38  64  87 122 169 222 259 317 381
#     4  11  26  39  56  93 133 162 207 264 316 396
#     4   9  22  44  66  92 125 174 232 271 309 383
#     4  11  21  41  66  88 125 176 212 268 325 369
#     4  10  22  39  63  98 133 160 216 258 329 393
#     4  10  22  39  64  99 135 165 211 263 327 408
#     4  11  22  42  68  94 131 179 209 270 333 378
#     4  10  23  36  64  97 132 166 206 266 327 394
#
# _framework density 23.038112000000002
#
# number of rings (size 3 to 8) (size 9 to 14) (size 15 to 20)
#    0.750    1.000    1.250    2.250    5.250    1.000 
#    0.000   11.875    0.000    0.750    0.000    0.000 
#    0.000    0.000    0.000    0.000    0.000    0.000 
#
# Total GULP energy -89316.155420 kJ/mol
# GULP energy per Si atom -5582.259714 kJ/mol
# Density = 2.298568 g / cm^3
# Si number density = 23.038112 Si / 1000 Ang^3
#
#
#
# Elastic Constant Matrix: (Units=GPa)
#
#
# Indices 1 2 3 4 5 6 
#
# 1 117.2185 27.9485 22.9764 -7.7584 -29.3854 -0.5259
# 2 27.9485 108.0768 25.0397 -4.5663 -9.0348 18.7395
# 3 22.9764 25.0397 93.0947 -3.2897 -24.6201 3.9200
# 4 -7.7584 -4.5663 -3.2897 23.2743 -2.4914 -3.7893
# 5 -29.3854 -9.0348 -24.6201 -2.4914 48.5706 8.5888
# 6 -0.5259 18.7395 3.9200 -3.7893 8.5888 25.4845
#
#
#
# Elastic Compliance Matrix: (Units=1/GPa)
#
#
# Indices 1 2 3 4 5 6 
#
# 1 0.010911 -0.002115 -0.000372 0.003884 0.006158 0.000340
# 2 -0.002115 0.011944 -0.001885 0.000067 0.001592 -0.009063
# 3 -0.000372 -0.001885 0.013290 0.001667 0.006720 -0.002683
# 4 0.003884 0.000067 0.001667 0.045826 0.004671 0.005014
# 5 0.006158 0.001592 0.006720 0.004671 0.030307 -0.011597
# 6 0.000340 -0.009063 -0.002683 0.005014 -0.011597 0.050977
#
#
# Mechanical properties :
#
#
# Convention : Reuss Voigt Hill
#
# Bulk Modulus (GPa) = 36.49867 52.25769 44.37818
# Shear Modulus (GPa) = 27.60388 35.62757 31.61573
#
# Velocity S-wave (km/s) = 3.46523 3.93677 3.70851
# Velocity P-wave (km/s) = 5.64691 6.58761 6.13532
#
# Compressibility (1/GPa) = 0.02739826
#
# Stress axis : x y z
#
# Youngs Moduli (GPa) = 91.65289 83.72479 75.24480
#
# Poissons Ratio (x) = 0.17710 0.02802
# Poissons Ratio (y) = 0.19388 0.14187
# Poissons Ratio (z) = 0.03413 0.15785
#
# Static dielectric constant tensor:
#      x y z
#    x 1.876060 0.039130 -0.101100 
#    y 0.039130 1.755120 0.095020 
#    z -0.101100 0.095020 1.819470 
# 
# From -- ./inp_files/369084.got.cif
#   From: 2010.05.17/outbox.cif.g08.bks.cpg/sg2_185_cif.got.tgz:369084.got - 2010.06.03 11:33:40.
