data_PCOD9021449
_publ_section_title
;
Structure prediction by ZEFSAII (Michael W. Deem and Ramdas Pophale) SiO2 
 PCOD9021449
Probable space group: P -1
;
_chemical_formula_sum "Si O2"
_cell_formula_units_Z 16
_cell_length_a 8.512006
_cell_length_b 21.127373
_cell_length_c 5.717195
_cell_angle_alpha 84.294384
_cell_angle_beta 90.241123
_cell_angle_gamma 137.951384
_cell_volume 681.460696
_symmetry_space_group_name_H-M "P -1"
_symmetry_group_IT_number 2
_symmetry_cell_setting 'triclinic'
loop_
_space_group_symop_operation_xyz
x,y,z
-x,-y,-z
loop_
_atom_site_type_symbol
_atom_site_label
_atom_site_fract_x
_atom_site_fract_y
_atom_site_fract_z
Si Si1 0.567434 0.750785 0.461740
Si Si2 0.265175 0.629869 0.115877
Si Si3 0.880753 0.590642 0.360809
Si Si4 0.924881 0.050288 0.488270
Si Si5 0.973653 0.741645 0.994070
Si Si6 0.191856 0.715431 0.701051
Si Si7 0.537766 0.403921 0.185254
Si Si8 0.237007 0.947105 0.020191
O O1 0.516819 0.721588 0.202036
O O2 0.410085 0.766111 0.512852
O O3 0.467450 0.657303 0.617188
O O4 0.829327 0.837685 0.521080
O O5 0.055194 0.583401 0.308520
O O6 0.229613 0.673344 0.909284
O O7 0.283447 0.565879 0.028852
O O8 0.957419 0.678648 0.199812
O O9 0.633007 0.493051 0.293985
O O10 0.940698 0.624634 0.613483
O O11 0.811354 0.033919 0.240786
O O12 0.793995 0.023813 0.745913
O O13 0.000000 0.000000 0.500000
O O14 0.718860 0.667498 0.899976
O O15 0.167269 0.776850 0.791481
O O16 0.058472 0.833044 0.068475
O O17 0.500000 0.000000 0.000000
#
# Coordination Sequence:
#
# PCOD9021449 Si02
#       8
#     2   2   2   2   2   2   2   2
#     4  10  22  40  68  95 136 186 239 296 359 424
#     4   9  20  38  60  90 130 182 236 294 348 416
#     4  10  22  38  61  97 133 191 235 292 350 433
#     4  12  28  51  81 114 147 191 255 309 373 450
#     4  11  24  41  66  96 144 183 236 290 372 433
#     4   9  22  38  60  94 136 183 234 290 355 427
#     4  11  21  38  63  94 138 181 241 292 353 427
#     4  12  29  52  81 115 153 194 242 312 385 449
#
# _framework density 23.478975999999999
#
# number of rings (size 3 to 8) (size 9 to 14) (size 15 to 20)
#    0.000    1.500    1.250    2.250    5.250   11.000 
#    0.000    0.000    0.000    0.000    0.000    0.000 
#    0.000    0.000    0.000    0.000    0.000    0.000 
#
# Total GULP energy -89357.226817 kJ/mol
# GULP energy per Si atom -5584.826676 kJ/mol
# Density = 2.342554 g / cm^3
# Si number density = 23.478976 Si / 1000 Ang^3
#
#
#
# Elastic Constant Matrix: (Units=GPa)
#
#
# Indices 1 2 3 4 5 6 
#
# 1 123.8847 29.3213 72.2047 9.8132 4.3866 -0.1929
# 2 29.3213 62.3948 40.6299 6.6562 12.2390 4.5504
# 3 72.2047 40.6299 128.3936 23.4195 11.1149 -9.6367
# 4 9.8132 6.6562 23.4195 21.0769 0.1677 2.3427
# 5 4.3866 12.2390 11.1149 0.1677 50.0282 10.8550
# 6 -0.1929 4.5504 -9.6367 2.3427 10.8550 36.4638
#
#
#
# Elastic Compliance Matrix: (Units=1/GPa)
#
#
# Indices 1 2 3 4 5 6 
#
# 1 0.012426 -0.001466 -0.007393 0.003139 0.001406 -0.002325
# 2 -0.001466 0.021461 -0.006189 0.001196 -0.002989 -0.003509
# 3 -0.007393 -0.006189 0.017415 -0.014734 -0.003229 0.007244
# 4 0.003139 0.001196 -0.014734 0.062988 0.004539 -0.009425
# 5 0.001406 -0.002989 -0.003229 0.004539 0.022947 -0.007596
# 6 -0.002325 -0.003509 0.007244 -0.009425 -0.007596 0.032631
#
#
# Mechanical properties :
#
#
# Convention : Reuss Voigt Hill
#
# Bulk Modulus (GPa) = 47.15837 66.55387 56.85612
# Shear Modulus (GPa) = 24.15061 33.01493 28.58277
#
# Velocity S-wave (km/s) = 3.21067 3.75393 3.49288
# Velocity P-wave (km/s) = 5.82009 6.87001 6.36673
#
# Compressibility (1/GPa) = 0.02120515
#
# Stress axis : x y z
#
# Youngs Moduli (GPa) = 80.47804 46.59590 57.42081
#
# Poissons Ratio (x) = 0.06833 0.42449
# Poissons Ratio (y) = 0.11801 0.35540
# Poissons Ratio (z) = 0.59495 0.28840
#
# Static dielectric constant tensor:
#      x y z
#    x 1.907180 0.027690 -0.086160 
#    y 0.027690 1.910100 0.004470 
#    z -0.086160 0.004470 2.032090 
# 
# From -- ./inp_files/53118.got.cif
#   From: 2010.05.17/outbox.cif.g08.bks.cpg/sg2_27_cif.got.tgz:53118.got - 2010.06.03 11:33:40.
