data_PCOD9021397
_publ_section_title
;
Structure prediction by ZEFSAII (Michael W. Deem and Ramdas Pophale) SiO2 
 PCOD9021397
Probable space group: P -1
;
_chemical_formula_sum "Si O2"
_cell_formula_units_Z 14
_cell_length_a 17.566159
_cell_length_b 17.725725
_cell_length_c 7.009971
_cell_angle_alpha 59.241342
_cell_angle_beta 133.439618
_cell_angle_gamma 157.364461
_cell_volume 547.485913
_symmetry_space_group_name_H-M "P -1"
_symmetry_group_IT_number 2
_symmetry_cell_setting 'triclinic'
loop_
_space_group_symop_operation_xyz
x,y,z
-x,-y,-z
loop_
_atom_site_type_symbol
_atom_site_label
_atom_site_fract_x
_atom_site_fract_y
_atom_site_fract_z
Si Si1 0.422961 0.859978 0.351920
Si Si2 0.715346 0.950382 0.988599
Si Si3 0.297562 0.248903 0.740376
Si Si4 0.814801 0.628784 0.995838
Si Si5 0.105192 0.464822 0.205229
Si Si6 0.946736 0.362515 0.509407
Si Si7 0.906216 0.735845 0.458139
O O1 0.327179 0.708067 0.241593
O O2 0.654819 0.099133 0.368070
O O3 0.466371 0.110792 0.316889
O O4 0.163245 0.716891 0.130109
O O5 0.804164 0.024877 0.265098
O O6 0.610986 0.774105 0.980990
O O7 0.987109 0.170090 0.059588
O O8 0.271093 0.317483 0.722948
O O9 0.513072 0.421707 0.724077
O O10 0.000000 0.000000 0.500000
O O11 0.897583 0.717528 0.240633
O O12 0.868108 0.565697 0.155856
O O13 0.179192 0.420095 0.383738
O O14 0.019010 0.412671 0.345883
O O15 0.000000 0.500000 0.500000
#
# Coordination Sequence:
#
# PCOD9021397 Si02
#       7
#     2   2   2   2   2   2   2
#     4  10  22  38  61  89 121 164 209 253 314 377
#     4  10  22  41  63  91 125 163 213 260 310 377
#     4  10  22  41  64  93 126 163 212 262 312 378
#     4  10  22  41  62  90 125 164 207 259 321 371
#     4  10  22  40  60  90 130 166 206 259 313 375
#     4  10  22  39  61  90 126 164 209 262 312 377
#     4  10  22  40  64  92 125 165 209 260 311 372
#
# _framework density 25.571435999999999
#
# number of rings (size 3 to 8) (size 9 to 14) (size 15 to 20)
#    0.000    2.000    0.000    2.571    0.000   12.000 
#    0.000   14.286    0.000    0.000    0.000    0.000 
#    0.000    0.000    0.000    0.000    0.000    0.000 
#
# Total GULP energy -78339.564917 kJ/mol
# GULP energy per Si atom -5595.683208 kJ/mol
# Density = 2.551323 g / cm^3
# Si number density = 25.571436 Si / 1000 Ang^3
#
#
#
# Elastic Constant Matrix: (Units=GPa)
#
#
# Indices 1 2 3 4 5 6 
#
# 1 130.0624 73.8110 28.2348 2.1715 25.6889 -33.2674
# 2 73.8110 159.8349 54.0506 4.7179 19.3448 -27.5102
# 3 28.2348 54.0506 110.1325 25.5996 -0.4146 -8.4342
# 4 2.1715 4.7179 25.5996 52.3516 -2.4719 10.1077
# 5 25.6889 19.3448 -0.4146 -2.4719 21.4889 -7.2838
# 6 -33.2674 -27.5102 -8.4342 10.1077 -7.2838 52.8483
#
#
#
# Elastic Compliance Matrix: (Units=1/GPa)
#
#
# Indices 1 2 3 4 5 6 
#
# 1 0.013546 -0.003594 -0.001067 -0.001249 -0.011375 0.005158
# 2 -0.003594 0.010059 -0.004078 0.000728 -0.004211 0.001604
# 3 -0.001067 -0.004078 0.012805 -0.005819 0.004874 0.001034
# 4 -0.001249 0.000728 -0.005819 0.023074 0.001501 -0.005542
# 5 -0.011375 -0.004211 0.004874 0.001501 0.064186 -0.000015
# 6 0.005158 0.001604 0.001034 -0.005542 -0.000015 0.024227
#
#
# Mechanical properties :
#
#
# Convention : Reuss Voigt Hill
#
# Bulk Modulus (GPa) = 52.81431 79.13584 65.97507
# Shear Modulus (GPa) = 29.12310 41.59998 35.36154
#
# Velocity S-wave (km/s) = 3.37841 4.03775 3.72271
# Velocity P-wave (km/s) = 5.99305 7.26306 6.65841
#
# Compressibility (1/GPa) = 0.01893426
#
# Stress axis : x y z
#
# Youngs Moduli (GPa) = 73.82063 99.41244 78.09497
#
# Poissons Ratio (x) = 0.35725 0.08330
# Poissons Ratio (y) = 0.26528 0.31845
# Poissons Ratio (z) = 0.07874 0.40538
#
# Static dielectric constant tensor:
#      x y z
#    x 2.035530 -0.015200 -0.041640 
#    y -0.015200 2.025720 -0.006240 
#    z -0.041640 -0.006240 2.100330 
# 
# From -- ./inp_files/336485.got.cif
#   From: 2010.05.17/outbox.cif.g08.bks.cpg/sg2_169_cif.got.tgz:336485.got - 2010.06.03 11:33:40.
