data_PCOD9021497
_publ_section_title
;
Structure prediction by ZEFSAII (Michael W. Deem and Ramdas Pophale) SiO2 
 PCOD9021497
Probable space group: P -1
;
_chemical_formula_sum "Si O2"
_cell_formula_units_Z 16
_cell_length_a 25.023998
_cell_length_b 5.083134
_cell_length_c 5.440349
_cell_angle_alpha 93.945377
_cell_angle_beta 80.235946
_cell_angle_gamma 112.754369
_cell_volume 628.907837
_symmetry_space_group_name_H-M "P -1"
_symmetry_group_IT_number 2
_symmetry_cell_setting 'triclinic'
loop_
_space_group_symop_operation_xyz
x,y,z
-x,-y,-z
loop_
_atom_site_type_symbol
_atom_site_label
_atom_site_fract_x
_atom_site_fract_y
_atom_site_fract_z
Si Si1 0.116479 0.397428 0.412055
Si Si2 0.766575 0.097655 0.717783
Si Si3 0.569253 0.603097 0.453432
Si Si4 0.933331 0.464923 0.060629
Si Si5 0.369382 0.781401 0.393830
Si Si6 0.259581 0.403740 0.682606
Si Si7 0.843212 0.923663 0.981565
Si Si8 0.342977 0.271983 0.997412
O O1 0.079916 0.371824 0.686070
O O2 0.124727 0.118724 0.289246
O O3 0.184330 0.619219 0.414303
O O4 0.086834 0.469366 0.190887
O O5 0.760242 0.830605 0.531901
O O6 0.799693 0.067919 0.936312
O O7 0.699623 0.018188 0.852825
O O8 0.500000 0.500000 0.500000
O O9 0.589406 0.341724 0.483599
O O10 0.599097 0.728025 0.176894
O O11 0.597652 0.878487 0.627761
O O12 0.000000 0.500000 0.000000
O O13 0.892091 0.136827 0.127510
O O14 0.304630 0.702868 0.562801
O O15 0.357812 0.556384 0.166260
O O16 0.302635 0.314897 0.815464
O O17 0.201146 0.364704 0.877333
#
# Coordination Sequence:
#
# PCOD9021497 Si02
#       8
#     2   2   2   2   2   2   2   2
#     4  11  24  39  68  93 122 177 217 274 343 394
#     4   9  19  40  59  90 128 161 211 268 335 398
#     4  11  24  42  65  93 130 175 226 277 336 413
#     4  11  25  44  62  92 133 171 223 276 329 409
#     4  10  23  41  64  95 128 172 222 278 340 411
#     4   9  18  40  60  87 127 160 208 272 334 402
#     4  10  22  38  62  92 127 163 215 274 330 404
#     4   9  21  40  60  91 126 170 211 274 340 402
#
# _framework density 25.440932
#
# number of rings (size 3 to 8) (size 9 to 14) (size 15 to 20)
#    0.000    2.000    1.250    0.750    3.500    4.000 
#   18.000    0.000    0.000    0.000    0.000    0.000 
#    0.000    0.000    0.000    0.000    0.000    0.000 
#
# Total GULP energy -89401.018878 kJ/mol
# GULP energy per Si atom -5587.563680 kJ/mol
# Density = 2.538303 g / cm^3
# Si number density = 25.440932 Si / 1000 Ang^3
#
#
#
# Elastic Constant Matrix: (Units=GPa)
#
#
# Indices 1 2 3 4 5 6 
#
# 1 102.2965 28.1324 55.7619 1.8354 -25.2073 30.8238
# 2 28.1324 53.7171 16.2099 7.5274 0.6290 -7.1070
# 3 55.7619 16.2099 119.9155 -4.3100 -19.7371 5.6660
# 4 1.8354 7.5274 -4.3100 37.0345 -4.5376 0.6698
# 5 -25.2073 0.6290 -19.7371 -4.5376 43.7963 -2.1440
# 6 30.8238 -7.1070 5.6660 0.6698 -2.1440 39.2872
#
#
#
# Elastic Compliance Matrix: (Units=1/GPa)
#
#
# Indices 1 2 3 4 5 6 
#
# 1 0.028700 -0.016345 -0.007879 0.002924 0.012345 -0.023714
# 2 -0.016345 0.030306 0.000898 -0.006702 -0.009262 0.017786
# 3 -0.007879 0.000898 0.011923 0.001661 0.001226 0.004663
# 4 0.002924 -0.006702 0.001661 0.029140 0.005354 -0.003951
# 5 0.012345 -0.009262 0.001226 0.005354 0.030691 -0.009954
# 6 -0.023714 0.017786 0.004663 -0.003951 -0.009954 0.046128
#
#
# Mechanical properties :
#
#
# Convention : Reuss Voigt Hill
#
# Bulk Modulus (GPa) = 41.19062 52.90417 47.04739
# Shear Modulus (GPa) = 21.58596 35.74526 28.66561
#
# Velocity S-wave (km/s) = 2.91602 3.75244 3.36035
# Velocity P-wave (km/s) = 5.25008 6.29400 5.79559
#
# Compressibility (1/GPa) = 0.02427737
#
# Stress axis : x y z
#
# Youngs Moduli (GPa) = 34.84262 32.99700 83.87354
#
# Poissons Ratio (x) = 0.53934 0.66084
# Poissons Ratio (y) = 0.56951 -0.07535
# Poissons Ratio (z) = 0.27453 -0.02964
#
# Static dielectric constant tensor:
#      x y z
#    x 2.007410 -0.064060 0.068180 
#    y -0.064060 2.049940 -0.081900 
#    z 0.068180 -0.081900 2.114400 
# 
# From -- ./inp_files/10637.got.cif
#   From: 2010.05.17/outbox.cif.g08.bks.cpg/sg2_6_cif.got.tgz:10637.got - 2010.06.03 11:33:40.
