data_PCOD9021617
_publ_section_title
;
Structure prediction by ZEFSAII (Michael W. Deem and Ramdas Pophale) SiO2 
 PCOD9021617
Probable space group: P -1
;
_chemical_formula_sum "Si O2"
_cell_formula_units_Z 12
_cell_length_a 8.112245
_cell_length_b 11.850612
_cell_length_c 14.497759
_cell_angle_alpha 28.467016
_cell_angle_beta 55.331892
_cell_angle_gamma 46.330397
_cell_volume 477.576292
_symmetry_space_group_name_H-M "P -1"
_symmetry_group_IT_number 2
_symmetry_cell_setting 'triclinic'
loop_
_space_group_symop_operation_xyz
x,y,z
-x,-y,-z
loop_
_atom_site_type_symbol
_atom_site_label
_atom_site_fract_x
_atom_site_fract_y
_atom_site_fract_z
Si Si1 0.710411 0.146121 0.000321
Si Si2 0.744891 0.722593 0.902844
Si Si3 0.124214 0.891103 0.228073
Si Si4 0.265574 0.175204 0.505361
Si Si5 0.594840 0.714659 0.422846
Si Si6 0.869401 0.442769 0.879876
O O1 0.850752 0.130316 0.876389
O O2 0.746305 0.312386 0.951080
O O3 0.437004 0.304689 0.954593
O O4 0.734433 0.854360 0.230915
O O5 0.712472 0.637574 0.870234
O O6 0.662943 0.044049 0.689915
O O7 0.000000 0.500000 0.000000
O O8 0.319435 0.594278 0.409964
O O9 0.889125 0.938249 0.316840
O O10 0.098689 0.189496 0.031408
O O11 0.342373 0.289963 0.485752
O O12 0.095530 0.379152 0.335830
O O13 0.500000 0.000000 0.500000
#
# Coordination Sequence:
#
# PCOD9021617 Si02
#       6
#     2   2   2   2   2   2
#     4  10  22  38  67  96 128 164 213 258 319 374
#     4  10  24  47  66  88 130 175 213 262 316 371
#     4  12  23  37  64 101 133 163 206 266 325 376
#     4  12  23  35  62 103 134 157 208 270 318 368
#     4  10  22  38  63  95 132 162 205 268 319 368
#     4  12  23  38  69 101 122 165 216 263 312 383
#
# _framework density 25.126877
#
# number of rings (size 3 to 8) (size 9 to 14) (size 15 to 20)
#    1.000    0.000    5.000    2.500    2.333    0.000 
#    0.000    2.500    0.000    0.000    0.000    0.000 
#    0.000    0.000    0.000    0.000    0.000    0.000 
#
# Total GULP energy -66820.007931 kJ/mol
# GULP energy per Si atom -5568.333994 kJ/mol
# Density = 2.506969 g / cm^3
# Si number density = 25.126877 Si / 1000 Ang^3
#
#
#
# Elastic Constant Matrix: (Units=GPa)
#
#
# Indices 1 2 3 4 5 6 
#
# 1 50.3925 28.6662 14.4095 -2.9210 6.3905 -11.1741
# 2 28.6662 154.3700 59.2914 -1.8109 1.7322 -5.5050
# 3 14.4095 59.2914 151.2265 -1.5757 22.0146 -3.8618
# 4 -2.9210 -1.8109 -1.5757 56.2804 -1.7464 2.4692
# 5 6.3905 1.7322 22.0146 -1.7464 19.4400 -12.5021
# 6 -11.1741 -5.5050 -3.8618 2.4692 -12.5021 28.9210
#
#
#
# Elastic Compliance Matrix: (Units=1/GPa)
#
#
# Indices 1 2 3 4 5 6 
#
# 1 0.024253 -0.004172 -0.000083 0.000716 -0.002733 0.007323
# 2 -0.004172 0.008778 -0.003941 0.000056 0.006585 0.002374
# 3 -0.000083 -0.003941 0.010191 -0.000052 -0.014948 -0.005879
# 4 0.000716 0.000056 -0.000052 0.017871 0.000862 -0.000873
# 5 -0.002733 0.006585 -0.014948 0.000862 0.093564 0.038574
# 6 0.007323 0.002374 -0.005879 -0.000873 0.038574 0.053823
#
#
# Mechanical properties :
#
#
# Convention : Reuss Voigt Hill
#
# Bulk Modulus (GPa) = 37.27187 62.30260 49.78724
# Shear Modulus (GPa) = 21.38444 37.83642 29.61043
#
# Velocity S-wave (km/s) = 2.92046 3.88469 3.43656
# Velocity P-wave (km/s) = 5.12228 6.70598 5.96690
#
# Compressibility (1/GPa) = 0.02682988
#
# Stress axis : x y z
#
# Youngs Moduli (GPa) = 41.23220 113.92271 98.12468
#
# Poissons Ratio (x) = 0.47524 0.00814
# Poissons Ratio (y) = 0.17201 0.38675
# Poissons Ratio (z) = 0.00342 0.44901
#
# Static dielectric constant tensor:
#      x y z
#    x 2.119230 -0.018670 0.096800 
#    y -0.018670 1.994740 -0.076650 
#    z 0.096800 -0.076650 2.054170 
# 
# From -- ./inp_files/499615.got.cif
#   From: 2010.05.17/outbox.cif.g08.bks.cpg/sg2_250_cif.got.tgz:499615.got - 2010.06.03 11:33:40.
