data_PCOD9021613
_publ_section_title
;
Structure prediction by ZEFSAII (Michael W. Deem and Ramdas Pophale) SiO2 
 PCOD9021613
Probable space group: P -1
;
_chemical_formula_sum "Si O2"
_cell_formula_units_Z 14
_cell_length_a 19.580563
_cell_length_b 5.180642
_cell_length_c 15.755386
_cell_angle_alpha 113.962938
_cell_angle_beta 25.676468
_cell_angle_gamma 109.176789
_cell_volume 629.952770
_symmetry_space_group_name_H-M "P -1"
_symmetry_group_IT_number 2
_symmetry_cell_setting 'triclinic'
loop_
_space_group_symop_operation_xyz
x,y,z
-x,-y,-z
loop_
_atom_site_type_symbol
_atom_site_label
_atom_site_fract_x
_atom_site_fract_y
_atom_site_fract_z
Si Si1 0.413568 0.813230 0.139162
Si Si2 0.802407 0.268834 0.192589
Si Si3 0.058636 0.370745 0.052807
Si Si4 0.108195 0.720626 0.368752
Si Si5 0.774144 0.425637 0.966309
Si Si6 0.535048 0.230909 0.606156
Si Si7 0.478182 0.144875 0.277422
O O1 0.236422 0.799528 0.303611
O O2 0.430275 0.944451 0.230453
O O3 0.500000 0.500000 0.000000
O O4 0.500000 0.000000 0.000000
O O5 0.817056 0.485504 0.128494
O O6 0.626646 0.216147 0.412869
O O7 0.896207 0.963427 0.027560
O O8 0.897432 0.390169 0.181906
O O9 0.068477 0.546014 0.152068
O O10 0.195322 0.587335 0.169271
O O11 0.000000 0.500000 0.500000
O O12 0.000000 0.000000 0.500000
O O13 0.653887 0.692737 0.168738
O O14 0.669103 0.164772 0.069266
O O15 0.582574 0.530265 0.631511
O O16 0.577342 0.967480 0.585239
#
# Coordination Sequence:
#
# PCOD9021613 Si02
#       7
#     2   2   2   2   2   2   2
#     4  12  22  43  71  90 130 175 223 272 327 397
#     4  10  22  42  59  98 120 170 210 250 326 390
#     4  10  23  39  66  86 134 162 202 264 322 393
#     4  12  28  44  66 101 136 171 224 281 340 398
#     4  10  25  42  64  92 128 167 217 267 332 373
#     4  10  22  39  66  90 131 155 225 260 310 390
#     4  10  22  38  63  95 119 169 213 265 312 384
#
# _framework density 22.223890999999998
#
# number of rings (size 3 to 8) (size 9 to 14) (size 15 to 20)
#    0.857    0.571    1.429    3.429    4.000    3.429 
#    0.000    0.000    0.000    0.000    0.000    0.000 
#    0.000    0.000    0.000    0.000    0.000    0.000 
#
# Total GULP energy -78167.474001 kJ/mol
# GULP energy per Si atom -5583.391000 kJ/mol
# Density = 2.217331 g / cm^3
# Si number density = 22.223891 Si / 1000 Ang^3
#
#
#
# Elastic Constant Matrix: (Units=GPa)
#
#
# Indices 1 2 3 4 5 6 
#
# 1 79.0112 34.5746 -7.7261 -6.1712 -15.4285 20.1905
# 2 34.5746 104.0354 17.5938 -28.6295 -7.1037 -13.0224
# 3 -7.7261 17.5938 56.9842 -16.5616 -2.2808 -7.1141
# 4 -6.1712 -28.6295 -16.5616 35.6306 -3.0020 4.2947
# 5 -15.4285 -7.1037 -2.2808 -3.0020 30.2914 -8.0053
# 6 20.1905 -13.0224 -7.1141 4.2947 -8.0053 45.9716
#
#
#
# Elastic Compliance Matrix: (Units=1/GPa)
#
#
# Indices 1 2 3 4 5 6 
#
# 1 0.020372 -0.008055 0.004573 0.000865 0.006410 -0.009486
# 2 -0.008055 0.016578 -0.002214 0.010224 0.002583 0.007386
# 3 0.004573 -0.002214 0.021875 0.009487 0.004571 0.000659
# 4 0.000865 0.010224 0.009487 0.041335 0.008052 0.001525
# 5 0.006410 0.002583 0.004571 0.008052 0.039270 0.004710
# 6 -0.009486 0.007386 0.000659 0.001525 0.004710 0.028791
#
#
# Mechanical properties :
#
#
# Convention : Reuss Voigt Hill
#
# Bulk Modulus (GPa) = 21.08282 36.54618 28.81450
# Shear Modulus (GPa) = 25.58553 35.41795 30.50174
#
# Velocity S-wave (km/s) = 3.39671 3.99643 3.70871
# Velocity P-wave (km/s) = 4.98905 6.14618 5.59760
#
# Compressibility (1/GPa) = 0.04743197
#
# Stress axis : x y z
#
# Youngs Moduli (GPa) = 49.08760 60.32116 45.71510
#
# Poissons Ratio (x) = 0.48590 -0.20905
# Poissons Ratio (y) = 0.39541 0.10120
# Poissons Ratio (z) = -0.22447 0.13353
#
# Static dielectric constant tensor:
#      x y z
#    x 1.845710 0.021370 -0.016610 
#    y 0.021370 1.805580 0.006160 
#    z -0.016610 0.006160 1.852140 
# 
# From -- ./inp_files/536394.got.cif
#   From: 2010.05.17/outbox.cif.g08.bks.cpg/sg2_269_cif.got.tgz:536394.got - 2010.06.03 11:33:40.
