data_PCOD9021718
_publ_section_title
;
Structure prediction by ZEFSAII (Michael W. Deem and Ramdas Pophale) SiO2 
 PCOD9021718
Probable space group: P -1
;
_chemical_formula_sum "Si O2"
_cell_formula_units_Z 16
_cell_length_a 10.237354
_cell_length_b 12.101108
_cell_length_c 8.854734
_cell_angle_alpha 89.617274
_cell_angle_beta 127.737915
_cell_angle_gamma 116.803351
_cell_volume 715.714356
_symmetry_space_group_name_H-M "P -1"
_symmetry_group_IT_number 2
_symmetry_cell_setting 'triclinic'
loop_
_space_group_symop_operation_xyz
x,y,z
-x,-y,-z
loop_
_atom_site_type_symbol
_atom_site_label
_atom_site_fract_x
_atom_site_fract_y
_atom_site_fract_z
Si Si1 0.952253 0.979125 0.639380
Si Si2 0.076450 0.653348 0.177148
Si Si3 0.269249 0.302067 0.376559
Si Si4 0.278041 0.959482 0.345250
Si Si5 0.111426 0.456289 0.416771
Si Si6 0.338237 0.605339 0.155288
Si Si7 0.324014 0.655977 0.809777
Si Si8 0.294493 0.156877 0.111972
O O1 0.758031 0.979602 0.534705
O O2 0.898506 0.838057 0.662469
O O3 0.000000 0.000000 0.500000
O O4 0.125369 0.095902 0.865239
O O5 0.136210 0.800129 0.249369
O O6 0.119317 0.579277 0.339290
O O7 0.216372 0.663235 0.138976
O O8 0.841179 0.551233 0.981694
O O9 0.802075 0.601895 0.634418
O O10 0.479194 0.360159 0.610365
O O11 0.292921 0.260470 0.225364
O O12 0.500000 0.000000 0.500000
O O13 0.250061 0.032919 0.185232
O O14 0.243469 0.519109 0.660348
O O15 0.879856 0.352192 0.301444
O O16 0.407375 0.656677 0.033460
O O17 0.493393 0.772407 0.823352
#
# Coordination Sequence:
#
# PCOD9021718 Si02
#       8
#     2   2   2   2   2   2   2   2
#     4  11  26  45  67  97 133 171 216 275 329 387
#     4  10  22  41  63  97 132 174 220 262 325 386
#     4  11  23  43  66  97 129 171 221 264 330 388
#     4  11  23  43  70  96 133 179 221 264 318 395
#     4  10  23  42  67  94 132 171 214 272 320 387
#     4  10  22  38  64  96 133 168 213 275 324 386
#     4  10  22  41  62  97 132 168 215 264 330 381
#     4  11  25  45  69  95 131 174 219 268 324 396
#
# _framework density 22.355287000000001
#
# number of rings (size 3 to 8) (size 9 to 14) (size 15 to 20)
#    0.000    1.500    0.000    5.250    0.000   14.500 
#    0.000    3.125    0.000    0.000    0.000    0.000 
#    0.000    0.000    0.000    0.000    0.000    0.000 
#
# Total GULP energy -89500.783575 kJ/mol
# GULP energy per Si atom -5593.798973 kJ/mol
# Density = 2.230441 g / cm^3
# Si number density = 22.355287 Si / 1000 Ang^3
#
#
#
# Elastic Constant Matrix: (Units=GPa)
#
#
# Indices 1 2 3 4 5 6 
#
# 1 110.0375 68.6423 53.7165 -17.3411 -16.2619 15.0013
# 2 68.6423 99.2734 29.3953 2.4381 -14.8120 1.8570
# 3 53.7165 29.3953 126.6430 -7.0340 -8.0255 5.8070
# 4 -17.3411 2.4381 -7.0340 26.5003 14.6542 -5.8476
# 5 -16.2619 -14.8120 -8.0255 14.6542 35.4930 -3.3254
# 6 15.0013 1.8570 5.8070 -5.8476 -3.3254 44.4211
#
#
#
# Elastic Compliance Matrix: (Units=1/GPa)
#
#
# Indices 1 2 3 4 5 6 
#
# 1 0.025235 -0.016745 -0.005883 0.017945 -0.004637 -0.005038
# 2 -0.016745 0.023111 0.001249 -0.017495 0.009755 0.002953
# 3 -0.005883 0.001249 0.010041 -0.001651 0.000821 0.000466
# 4 0.017945 -0.017495 -0.001651 0.065580 -0.026384 0.001545
# 5 -0.004637 0.009755 0.000821 -0.026384 0.041263 0.000667
# 6 -0.005038 0.002953 0.000466 0.001545 0.000667 0.024282
#
#
# Mechanical properties :
#
#
# Convention : Reuss Voigt Hill
#
# Bulk Modulus (GPa) = 63.98252 71.05135 67.51694
# Shear Modulus (GPa) = 21.05455 33.56287 27.30871
#
# Velocity S-wave (km/s) = 3.07223 3.87892 3.49890
# Velocity P-wave (km/s) = 6.42399 7.20507 6.82572
#
# Compressibility (1/GPa) = 0.01562927
#
# Stress axis : x y z
#
# Youngs Moduli (GPa) = 39.62814 43.26871 99.59587
#
# Poissons Ratio (x) = 0.72452 0.58592
# Poissons Ratio (y) = 0.66356 -0.12440
# Poissons Ratio (z) = 0.23313 -0.05405
#
# Static dielectric constant tensor:
#      x y z
#    x 1.820240 -0.003290 0.015590 
#    y -0.003290 1.852370 -0.007920 
#    z 0.015590 -0.007920 1.873860 
# 
# From -- ./inp_files/270363.got.cif
#   From: 2010.05.17/outbox.cif.g08.bks.cpg/sg2_136_cif.got.tgz:270363.got - 2010.06.03 11:33:40.
