data_PCOD9021560
_publ_section_title
;
Structure prediction by ZEFSAII (Michael W. Deem and Ramdas Pophale) SiO2 
 PCOD9021560
Probable space group: P -1
;
_chemical_formula_sum "Si O2"
_cell_formula_units_Z 15
_cell_length_a 15.715678
_cell_length_b 14.142295
_cell_length_c 5.337386
_cell_angle_alpha 93.334479
_cell_angle_beta 106.363944
_cell_angle_gamma 29.284154
_cell_volume 510.350192
_symmetry_space_group_name_H-M "P -1"
_symmetry_group_IT_number 2
_symmetry_cell_setting 'triclinic'
loop_
_space_group_symop_operation_xyz
x,y,z
-x,-y,-z
loop_
_atom_site_type_symbol
_atom_site_label
_atom_site_fract_x
_atom_site_fract_y
_atom_site_fract_z
Si Si1 0.530608 0.883935 0.197028
Si Si2 0.731507 0.189482 0.211461
Si Si3 0.781355 0.696662 0.754727
Si Si4 0.478377 0.648142 0.445342
Si Si5 0.897120 0.301571 0.943075
Si Si6 0.000000 0.000000 0.000000
Si Si7 0.434169 0.891229 0.681271
Si Si8 0.961586 0.773256 0.444898
O O1 0.750843 0.691937 0.444467
O O2 0.353965 0.078674 0.276694
O O3 0.489784 0.826567 0.014125
O O4 0.500000 0.000000 0.000000
O O5 0.565267 0.334847 0.876871
O O6 0.876926 0.125247 0.188154
O O7 0.638999 0.301173 0.429081
O O8 0.845401 0.983265 0.335470
O O9 0.635717 0.754209 0.754016
O O10 0.000000 0.500000 0.000000
O O11 0.427078 0.806920 0.488106
O O12 0.705011 0.432791 0.691924
O O13 0.891024 0.351880 0.220676
O O14 0.044360 0.071710 0.047457
O O15 0.955848 0.320622 0.779372
O O16 0.205781 0.138339 0.581186
#
# Coordination Sequence:
#
# PCOD9021560 Si02
#       8
#     2   2   2   2   2   1   2   2
#     4   9  21  41  62  90 127 165 207 264 318 388
#     4  10  22  40  65  90 129 167 213 268 314 391
#     4  10  22  41  65  94 127 165 216 269 313 397
#     4  11  24  41  62  97 130 162 218 276 317 375
#     4  11  24  41  63  96 128 165 221 270 317 393
#     4  10  22  40  66  90 126 180 212 254 338 380
#     4  10  22  38  63  87 125 174 203 263 333 375
#     4  10  22  41  64  90 127 168 215 263 318 391
#
# _framework density 29.391580000000001
#
# number of rings (size 3 to 8) (size 9 to 14) (size 15 to 20)
#    0.000    1.867    0.000    4.000    5.600    9.067 
#    7.200    0.000    0.000    0.000    0.000    0.000 
#    0.000    0.000    0.000    0.000    0.000    0.000 
#
# Total GULP energy -83513.234918 kJ/mol
# GULP energy per Si atom -5567.548995 kJ/mol
# Density = 2.932468 g / cm^3
# Si number density = 29.391580 Si / 1000 Ang^3
#
#
#
# Elastic Constant Matrix: (Units=GPa)
#
#
# Indices 1 2 3 4 5 6 
#
# 1 149.9681 26.0285 29.7529 3.9810 -2.4520 -53.2309
# 2 26.0285 69.6272 51.6481 -6.4006 5.2478 -20.5549
# 3 29.7529 51.6481 224.0163 -7.8144 3.3441 -26.7541
# 4 3.9810 -6.4006 -7.8144 45.9082 -14.3281 -7.2333
# 5 -2.4520 5.2478 3.3441 -14.3281 48.7925 8.7551
# 6 -53.2309 -20.5549 -26.7541 -7.2333 8.7551 56.3594
#
#
#
# Elastic Compliance Matrix: (Units=1/GPa)
#
#
# Indices 1 2 3 4 5 6 
#
# 1 0.010157 -0.000926 0.000013 0.000156 -0.001040 0.009443
# 2 -0.000926 0.019238 -0.003598 0.002290 -0.002104 0.005054
# 3 0.000013 -0.003598 0.005481 0.000633 -0.000052 0.001392
# 4 0.000156 0.002290 0.000633 0.024727 0.006357 0.003469
# 5 -0.001040 -0.002104 -0.000052 0.006357 0.023362 -0.004587
# 6 0.009443 0.005054 0.001392 0.003469 -0.004587 0.030324
#
#
# Mechanical properties :
#
#
# Convention : Reuss Voigt Hill
#
# Bulk Modulus (GPa) = 38.67789 73.16341 55.92065
# Shear Modulus (GPa) = 38.18892 52.62415 45.40654
#
# Velocity S-wave (km/s) = 3.60851 4.23596 3.93476
# Velocity P-wave (km/s) = 5.52720 6.99079 6.30163
#
# Compressibility (1/GPa) = 0.02585456
#
# Stress axis : x y z
#
# Youngs Moduli (GPa) = 98.45551 51.97978 182.45936
#
# Poissons Ratio (x) = 0.04816 -0.00243
# Poissons Ratio (y) = 0.09121 0.65640
# Poissons Ratio (z) = -0.00131 0.18700
#
# Static dielectric constant tensor:
#      x y z
#    x 2.795270 -0.124270 -0.226760 
#    y -0.124270 2.677910 0.061910 
#    z -0.226760 0.061910 2.743490 
# 
# From -- ./inp_files/111453.got.cif
#   From: 2010.05.17/outbox.cif.g08.bks.cpg/sg2_56_cif.got.tgz:111453.got - 2010.06.03 11:33:40.
