data_PCOD9021077
_publ_section_title
;
Structure prediction by ZEFSAII (Michael W. Deem and Ramdas Pophale) SiO2 
 PCOD9021077
Probable space group: P -1
;
_chemical_formula_sum "Si O2"
_cell_formula_units_Z 16
_cell_length_a 16.496797
_cell_length_b 16.416146
_cell_length_c 5.377496
_cell_angle_alpha 80.189096
_cell_angle_beta 63.712986
_cell_angle_gamma 34.354147
_cell_volume 679.757757
_symmetry_space_group_name_H-M "P -1"
_symmetry_group_IT_number 2
_symmetry_cell_setting 'triclinic'
loop_
_space_group_symop_operation_xyz
x,y,z
-x,-y,-z
loop_
_atom_site_type_symbol
_atom_site_label
_atom_site_fract_x
_atom_site_fract_y
_atom_site_fract_z
Si Si1 0.672274 0.479088 0.275118
Si Si2 0.768418 0.983402 0.508486
Si Si3 0.974706 0.233285 0.345180
Si Si4 0.112447 0.970606 0.041236
Si Si5 0.358735 0.228706 0.540313
Si Si6 0.265106 0.123125 0.764062
Si Si7 0.628115 0.357597 0.093189
Si Si8 0.401170 0.293683 0.972606
O O1 0.717458 0.362220 0.119144
O O2 0.486540 0.603669 0.574917
O O3 0.664907 0.563356 0.063955
O O4 0.796062 0.397092 0.384514
O O5 0.778024 0.047791 0.256947
O O6 0.607833 0.133949 0.818185
O O7 0.959470 0.824545 0.434809
O O8 0.727371 0.924378 0.492318
O O9 0.116198 0.187114 0.066301
O O10 0.001956 0.117725 0.279981
O O11 0.237033 0.812732 0.104538
O O12 0.000000 0.000000 0.000000
O O13 0.241157 0.239474 0.731299
O O14 0.372446 0.267273 0.762724
O O15 0.545301 0.045744 0.306865
O O16 0.314387 0.319980 0.317154
O O17 0.500000 0.500000 0.000000
#
# Coordination Sequence:
#
# PCOD9021077 Si02
#       8
#     2   2   2   2   2   2   2   2
#     4  11  26  42  60  96 129 170 222 269 340 392
#     4  10  22  37  66  91 128 170 218 273 325 392
#     4  11  23  40  65  93 129 169 216 279 326 391
#     4  11  23  42  60  94 127 167 224 268 332 393
#     4  10  22  40  70  98 132 173 221 277 330 394
#     4   9  21  38  64  99 127 163 223 271 326 391
#     4  11  26  42  64  88 131 174 216 273 331 402
#     4  11  23  42  67  98 132 178 219 273 331 400
#
# _framework density 23.537799
#
# number of rings (size 3 to 8) (size 9 to 14) (size 15 to 20)
#    0.000    1.500    3.750    0.000    7.000    2.000 
#    0.000    1.250    0.000    0.000    0.000    0.000 
#    0.000    0.000    0.000    0.000    0.000    0.000 
#
# Total GULP energy -89387.821279 kJ/mol
# GULP energy per Si atom -5586.738830 kJ/mol
# Density = 2.348423 g / cm^3
# Si number density = 23.537799 Si / 1000 Ang^3
#
#
#
# Elastic Constant Matrix: (Units=GPa)
#
#
# Indices 1 2 3 4 5 6 
#
# 1 108.3126 42.1258 35.3783 -18.4368 -23.0394 9.6726
# 2 42.1258 100.4301 30.0175 -37.9009 -13.1189 -2.6345
# 3 35.3783 30.0175 81.5172 -26.9685 -14.9750 11.9977
# 4 -18.4368 -37.9009 -26.9685 35.2846 -3.8923 -4.0520
# 5 -23.0394 -13.1189 -14.9750 -3.8923 29.1171 -10.6960
# 6 9.6726 -2.6345 11.9977 -4.0520 -10.6960 26.5569
#
#
#
# Elastic Compliance Matrix: (Units=1/GPa)
#
#
# Indices 1 2 3 4 5 6 
#
# 1 0.013391 -0.002334 -0.001970 0.003991 0.009082 0.000048
# 2 -0.002334 0.025934 0.004758 0.034575 0.022666 0.015677
# 3 -0.001970 0.004758 0.021254 0.022064 0.014801 0.000915
# 4 0.003991 0.034575 0.022064 0.093391 0.052657 0.027466
# 5 0.009082 0.022666 0.014801 0.052657 0.078047 0.031722
# 6 0.000048 0.015677 0.000915 0.027466 0.031722 0.055746
#
#
# Mechanical properties :
#
#
# Convention : Reuss Voigt Hill
#
# Bulk Modulus (GPa) = 16.26383 56.14480 36.20432
# Shear Modulus (GPa) = 16.26799 30.37427 23.32113
#
# Velocity S-wave (km/s) = 2.63181 3.59618 3.15110
# Velocity P-wave (km/s) = 4.01994 6.41468 5.35295
#
# Compressibility (1/GPa) = 0.06148613
#
# Stress axis : x y z
#
# Youngs Moduli (GPa) = 74.67797 38.55923 47.04927
#
# Poissons Ratio (x) = 0.09000 0.09271
# Poissons Ratio (y) = 0.17430 -0.22386
# Poissons Ratio (z) = 0.14715 -0.18346
#
# Static dielectric constant tensor:
#      x y z
#    x 1.902650 -0.048040 0.048870 
#    y -0.048040 1.922130 -0.000970 
#    z 0.048870 -0.000970 1.952740 
# 
# From -- ./inp_files/38635.got.cif
#   From: 2010.05.17/outbox.cif.g08.bks.cpg/sg2_20_cif.got.tgz:38635.got - 2010.06.03 11:33:40.
