data_PCOD9021814
_publ_section_title
;
Structure prediction by ZEFSAII (Michael W. Deem and Ramdas Pophale) SiO2 
 PCOD9021814
Probable space group: P -1
;
_chemical_formula_sum "Si O2"
_cell_formula_units_Z 16
_cell_length_a 15.604016
_cell_length_b 9.647915
_cell_length_c 9.292917
_cell_angle_alpha 85.976846
_cell_angle_beta 68.986726
_cell_angle_gamma 38.923994
_cell_volume 766.765327
_symmetry_space_group_name_H-M "P -1"
_symmetry_group_IT_number 2
_symmetry_cell_setting 'triclinic'
loop_
_space_group_symop_operation_xyz
x,y,z
-x,-y,-z
loop_
_atom_site_type_symbol
_atom_site_label
_atom_site_fract_x
_atom_site_fract_y
_atom_site_fract_z
Si Si1 0.297426 0.513693 0.020453
Si Si2 0.348708 0.671760 0.185779
Si Si3 0.849903 0.600338 0.898503
Si Si4 0.642843 0.415493 0.482852
Si Si5 0.531169 0.117014 0.524302
Si Si6 0.361096 0.969478 0.206718
Si Si7 0.840818 0.120646 0.134808
Si Si8 0.188616 0.159130 0.827129
O O1 0.470763 0.240320 0.959823
O O2 0.293116 0.622262 0.878666
O O3 0.247451 0.679012 0.165255
O O4 0.188883 0.514830 0.060534
O O5 0.371202 0.585894 0.338331
O O6 0.293526 0.897071 0.227635
O O7 0.500000 0.500000 0.000000
O O8 0.035702 0.388817 0.811785
O O9 0.759770 0.774012 0.804569
O O10 0.789852 0.759806 0.061477
O O11 0.500000 0.500000 0.500000
O O12 0.617931 0.605162 0.437914
O O13 0.799126 0.172184 0.325516
O O14 0.590952 0.057221 0.656147
O O15 0.500000 0.000000 0.500000
O O16 0.663847 0.017511 0.350248
O O17 0.834994 0.969574 0.095056
O O18 0.000000 0.000000 0.000000
#
# Coordination Sequence:
#
# PCOD9021814 Si02
#       8
#     2   2   2   2   2   2   2   2
#     4  11  22  40  65 100 130 175 231 277 339 400
#     4  10  22  38  65  99 130 176 224 287 341 387
#     4  11  25  41  63  96 138 179 225 275 344 424
#     4  12  22  43  68 100 133 176 237 282 334 413
#     4  12  26  41  70 101 135 176 228 291 347 404
#     4  11  22  41  62  97 134 174 226 282 336 406
#     4  12  23  43  72  99 138 180 230 282 340 409
#     4  11  25  44  67  96 135 186 225 278 353 416
#
# _framework density 20.866879999999998
#
# number of rings (size 3 to 8) (size 9 to 14) (size 15 to 20)
#    0.000    0.750    5.000    2.625    5.250    0.500 
#    0.000    0.625    2.750    0.000    0.000    0.000 
#    0.000    0.000    0.000    0.000    0.000    0.000 
#
# Total GULP energy -89350.160063 kJ/mol
# GULP energy per Si atom -5584.385004 kJ/mol
# Density = 2.081939 g / cm^3
# Si number density = 20.866880 Si / 1000 Ang^3
#
#
#
# Elastic Constant Matrix: (Units=GPa)
#
#
# Indices 1 2 3 4 5 6 
#
# 1 122.6161 14.7072 42.6008 -0.6606 19.5740 31.3997
# 2 14.7072 72.7703 12.4620 -14.5235 7.0399 17.4132
# 3 42.6008 12.4620 99.2829 -4.3064 16.9089 3.5884
# 4 -0.6606 -14.5235 -4.3064 32.2827 0.0119 -1.8430
# 5 19.5740 7.0399 16.9089 0.0119 26.7491 11.9920
# 6 31.3997 17.4132 3.5884 -1.8430 11.9920 35.9090
#
#
#
# Elastic Compliance Matrix: (Units=1/GPa)
#
#
# Indices 1 2 3 4 5 6 
#
# 1 0.012723 0.000823 -0.004918 -0.000624 -0.001713 -0.010493
# 2 0.000823 0.017374 -0.001891 0.007093 -0.000154 -0.008540
# 3 -0.004918 -0.001891 0.013482 0.001213 -0.007279 0.006364
# 4 -0.000624 0.007093 0.001213 0.034282 -0.001916 -0.000616
# 5 -0.001713 -0.000154 -0.007279 -0.001916 0.049741 -0.014410
# 6 -0.010493 -0.008540 0.006364 -0.000616 -0.014410 0.045309
#
#
# Mechanical properties :
#
#
# Convention : Reuss Voigt Hill
#
# Bulk Modulus (GPa) = 31.64066 48.24548 39.94307
# Shear Modulus (GPa) = 25.58601 33.98146 29.78374
#
# Velocity S-wave (km/s) = 3.50545 4.03983 3.78209
# Velocity P-wave (km/s) = 5.61963 6.70307 6.18512
#
# Compressibility (1/GPa) = 0.03160490
#
# Stress axis : x y z
#
# Youngs Moduli (GPa) = 78.59939 57.55889 74.17072
#
# Poissons Ratio (x) = -0.04737 0.36481
# Poissons Ratio (y) = -0.06468 0.14028
# Poissons Ratio (z) = 0.38659 0.10886
#
# Static dielectric constant tensor:
#      x y z
#    x 1.775720 0.000960 0.017420 
#    y 0.000960 1.783000 0.000160 
#    z 0.017420 0.000160 1.770200 
# 
# From -- ./inp_files/209562.got.cif
#   From: 2010.05.17/outbox.cif.g08.bks.cpg/sg2_105_cif.got.tgz:209562.got - 2010.06.03 11:33:40.
