data_PCOD9021173
_publ_section_title
;
Structure prediction by ZEFSAII (Michael W. Deem and Ramdas Pophale) SiO2 
 PCOD9021173
Probable space group: P -1
;
_chemical_formula_sum "Si O2"
_cell_formula_units_Z 15
_cell_length_a 16.711701
_cell_length_b 15.425676
_cell_length_c 7.536696
_cell_angle_alpha 121.879107
_cell_angle_beta 114.802929
_cell_angle_gamma 24.161075
_cell_volume 664.318510
_symmetry_space_group_name_H-M "P -1"
_symmetry_group_IT_number 2
_symmetry_cell_setting 'triclinic'
loop_
_space_group_symop_operation_xyz
x,y,z
-x,-y,-z
loop_
_atom_site_type_symbol
_atom_site_label
_atom_site_fract_x
_atom_site_fract_y
_atom_site_fract_z
Si Si1 0.918523 0.469985 0.898599
Si Si2 0.580995 0.866491 0.608598
Si Si3 0.972677 0.341037 0.419816
Si Si4 0.571052 0.292043 0.176247
Si Si5 0.500000 0.000000 0.000000
Si Si6 0.142049 0.945797 0.119374
Si Si7 0.219410 0.797094 0.419293
Si Si8 0.222697 0.133803 0.115373
O O1 0.982643 0.346617 0.645002
O O2 0.682202 0.728090 0.952187
O O3 0.000000 0.500000 0.000000
O O4 0.034015 0.307537 0.002512
O O5 0.670605 0.866947 0.824207
O O6 0.757161 0.607117 0.451742
O O7 0.500000 0.000000 0.500000
O O8 0.436794 0.980961 0.752766
O O9 0.136081 0.234108 0.342667
O O10 0.015370 0.180727 0.238309
O O11 0.344110 0.562612 0.267112
O O12 0.675936 0.235883 0.380959
O O13 0.674720 0.235084 0.039579
O O14 0.625407 0.116761 0.025742
O O15 0.214494 0.855618 0.288252
O O16 0.000000 0.000000 0.000000
O O17 0.000000 0.000000 0.500000
#
# Coordination Sequence:
#
# PCOD9021173 Si02
#       8
#     2   2   2   2   1   2   2   2
#     4  11  21  40  64  87 129 168 210 260 315 371
#     4  11  23  38  58  93 129 165 213 262 312 383
#     4  10  23  39  63  91 121 172 214 254 327 380
#     4  10  24  43  66  99 127 171 222 264 339 390
#     4  10  22  38  56  88 122 168 210 254 308 370
#     4  11  22  42  67  95 130 169 215 276 329 385
#     4  11  22  44  69  93 131 170 216 277 327 392
#     4  11  22  41  65  90 130 172 208 270 320 383
#
# _framework density 22.579529999999998
#
# number of rings (size 3 to 8) (size 9 to 14) (size 15 to 20)
#    0.000    1.333    4.000    2.400    1.867    1.067 
#    7.200    0.000    0.000    0.000    0.000    0.000 
#    0.000    0.000    0.000    0.000    0.000    0.000 
#
# Total GULP energy -83686.813447 kJ/mol
# GULP energy per Si atom -5579.120896 kJ/mol
# Density = 2.252814 g / cm^3
# Si number density = 22.579530 Si / 1000 Ang^3
#
#
#
# Elastic Constant Matrix: (Units=GPa)
#
#
# Indices 1 2 3 4 5 6 
#
# 1 64.6968 29.7634 21.6650 3.2798 -10.1916 -1.6222
# 2 29.7634 145.1824 53.8063 13.3869 -22.4428 12.4452
# 3 21.6650 53.8063 114.5413 18.6824 -27.5637 0.1559
# 4 3.2798 13.3869 18.6824 53.2983 11.4706 -10.5969
# 5 -10.1916 -22.4428 -27.5637 11.4706 31.3146 -1.5601
# 6 -1.6222 12.4452 0.1559 -10.5969 -1.5601 28.2600
#
#
#
# Elastic Compliance Matrix: (Units=1/GPa)
#
#
# Indices 1 2 3 4 5 6 
#
# 1 0.017735 -0.002957 -0.001371 0.000082 0.002541 0.002499
# 2 -0.002957 0.009985 -0.002201 -0.003846 0.005381 -0.005700
# 3 -0.001371 -0.002201 0.014506 -0.007603 0.013465 -0.001297
# 4 0.000082 -0.003846 -0.007603 0.028851 -0.019418 0.011487
# 5 0.002541 0.005381 0.013465 -0.019418 0.055257 -0.006529
# 6 0.002499 -0.005700 -0.001297 0.011487 -0.006529 0.041993
#
#
# Mechanical properties :
#
#
# Convention : Reuss Voigt Hill
#
# Bulk Modulus (GPa) = 34.28418 59.43221 46.85820
# Shear Modulus (GPa) = 26.16327 37.18695 31.67511
#
# Velocity S-wave (km/s) = 3.40769 4.06264 3.74949
# Velocity P-wave (km/s) = 5.54074 6.95595 6.28828
#
# Compressibility (1/GPa) = 0.02916797
#
# Stress axis : x y z
#
# Youngs Moduli (GPa) = 56.38659 100.15217 68.93657
#
# Poissons Ratio (x) = 0.29611 0.09450
# Poissons Ratio (y) = 0.16671 0.15175
# Poissons Ratio (z) = 0.07730 0.22047
#
# Static dielectric constant tensor:
#      x y z
#    x 1.983320 -0.024610 -0.096980 
#    y -0.024610 1.867470 -0.007780 
#    z -0.096980 -0.007780 1.892290 
# 
# From -- ./inp_files/348602.got.cif
#   From: 2010.05.17/outbox.cif.g08.bks.cpg/sg2_175_cif.got.tgz:348602.got - 2010.06.03 11:33:40.
