data_PCOD9021579
_publ_section_title
;
Structure prediction by ZEFSAII (Michael W. Deem and Ramdas Pophale) SiO2 
 PCOD9021579
Probable space group: P -1
;
_chemical_formula_sum "Si O2"
_cell_formula_units_Z 14
_cell_length_a 16.553450
_cell_length_b 7.704931
_cell_length_c 13.131617
_cell_angle_alpha 38.862298
_cell_angle_beta 145.628493
_cell_angle_gamma 117.614123
_cell_volume 511.783519
_symmetry_space_group_name_H-M "P -1"
_symmetry_group_IT_number 2
_symmetry_cell_setting 'triclinic'
loop_
_space_group_symop_operation_xyz
x,y,z
-x,-y,-z
loop_
_atom_site_type_symbol
_atom_site_label
_atom_site_fract_x
_atom_site_fract_y
_atom_site_fract_z
Si Si1 0.584758 0.096498 0.205203
Si Si2 0.050707 0.709711 0.554983
Si Si3 0.470783 0.701093 0.669070
Si Si4 0.836099 0.814511 0.783667
Si Si5 0.644752 0.978425 0.847053
Si Si6 0.865500 0.242221 0.973392
Si Si7 0.260935 0.937222 0.805263
O O1 0.510814 0.460198 0.920549
O O2 0.731228 0.974278 0.496851
O O3 0.664877 0.914412 0.265269
O O4 0.447024 0.035153 0.139949
O O5 0.002492 0.897718 0.314189
O O6 0.148470 0.836277 0.667408
O O7 0.818462 0.654674 0.160074
O O8 0.872530 0.810807 0.371862
O O9 0.537101 0.939441 0.663959
O O10 0.585232 0.413669 0.842215
O O11 0.272606 0.938710 0.353842
O O12 0.027975 0.711829 0.023781
O O13 0.838216 0.479610 0.931107
O O14 0.696135 0.247836 0.772663
#
# Coordination Sequence:
#
# PCOD9021579 Si02
#       7
#     2   2   2   2   2   2   2
#     4   9  16  32  53  72  90 128 162 194 223 285
#     4  10  17  31  49  78  92 124 159 202 226 285
#     4   8  16  31  52  71  88 130 159 192 223 283
#     4  10  18  32  48  70  99 126 161 192 243 279
#     4  10  18  29  51  73  98 118 164 201 233 267
#     4  11  21  28  46  77 101 123 150 205 246 279
#     4   8  17  30  54  70  92 124 171 184 230 277
#
# _framework density 27.355315999999998
#
# number of rings (size 3 to 8) (size 9 to 14) (size 15 to 20)
#    0.857    1.714    1.429    3.000    0.000    2.286 
#    0.000    1.429    0.000    0.857    0.000    0.000 
#    0.000    0.000    0.000    0.000    0.000    0.000 
#
# Total GULP energy -78153.869690 kJ/mol
# GULP energy per Si atom -5582.419264 kJ/mol
# Density = 2.729305 g / cm^3
# Si number density = 27.355316 Si / 1000 Ang^3
#
#
#
# Elastic Constant Matrix: (Units=GPa)
#
#
# Indices 1 2 3 4 5 6 
#
# 1 130.1053 52.1585 46.3932 8.7280 64.0198 21.0520
# 2 52.1585 105.3292 28.1256 23.2671 17.1220 24.3209
# 3 46.3932 28.1256 127.5159 0.1662 36.1434 10.2730
# 4 8.7280 23.2671 0.1662 26.5311 -3.7666 16.1569
# 5 64.0198 17.1220 36.1434 -3.7666 62.7553 9.3274
# 6 21.0520 24.3209 10.2730 16.1569 9.3274 24.1788
#
#
#
# Elastic Compliance Matrix: (Units=1/GPa)
#
#
# Indices 1 2 3 4 5 6 
#
# 1 0.019370 -0.005369 -0.000631 -0.002542 -0.017687 -0.002675
# 2 -0.005369 0.015192 -0.001686 -0.007584 0.002721 -0.005872
# 3 -0.000631 -0.001686 0.009749 0.002058 -0.004139 -0.001676
# 4 -0.002542 -0.007584 0.002058 0.076626 0.015227 -0.048111
# 5 -0.017687 0.002721 -0.004139 0.015227 0.038086 -0.010446
# 6 -0.002675 -0.005872 -0.001676 -0.048111 -0.010446 0.086485
#
#
# Mechanical properties :
#
#
# Convention : Reuss Voigt Hill
#
# Bulk Modulus (GPa) = 34.55547 68.47834 51.51690
# Shear Modulus (GPa) = 18.48260 38.44457 28.46358
#
# Velocity S-wave (km/s) = 2.60215 3.75290 3.22920
# Velocity P-wave (km/s) = 4.65701 6.62317 5.72512
#
# Compressibility (1/GPa) = 0.02893898
#
# Stress axis : x y z
#
# Youngs Moduli (GPa) = 51.62667 65.82525 102.57585
#
# Poissons Ratio (x) = 0.35343 0.06472
# Poissons Ratio (y) = 0.27719 0.17290
# Poissons Ratio (z) = 0.03257 0.11096
#
# Static dielectric constant tensor:
#      x y z
#    x 2.333110 -0.012040 -0.030870 
#    y -0.012040 2.263840 -0.032270 
#    z -0.030870 -0.032270 2.102620 
# 
# From -- ./inp_files/576862.got.cif
#   From: 2010.05.17/outbox.cif.g08.bks.cpg/sg2_289_cif.got.tgz:576862.got - 2010.06.03 11:33:40.
