data_PCOD9021082
_publ_section_title
;
Structure prediction by ZEFSAII (Michael W. Deem and Ramdas Pophale) SiO2 
 PCOD9021082
Probable space group: P -1
;
_chemical_formula_sum "Si O2"
_cell_formula_units_Z 16
_cell_length_a 11.074318
_cell_length_b 9.911089
_cell_length_c 12.004274
_cell_angle_alpha 131.775335
_cell_angle_beta 46.037023
_cell_angle_gamma 109.568231
_cell_volume 687.004749
_symmetry_space_group_name_H-M "P -1"
_symmetry_group_IT_number 2
_symmetry_cell_setting 'triclinic'
loop_
_space_group_symop_operation_xyz
x,y,z
-x,-y,-z
loop_
_atom_site_type_symbol
_atom_site_label
_atom_site_fract_x
_atom_site_fract_y
_atom_site_fract_z
Si Si1 0.582914 0.211326 0.183663
Si Si2 0.342700 0.537921 0.207776
Si Si3 0.577463 0.563830 0.255476
Si Si4 0.884496 0.708728 0.209417
Si Si5 0.703374 0.958146 0.745356
Si Si6 0.865232 0.694939 0.679442
Si Si7 0.049732 0.951015 0.067539
Si Si8 0.140437 0.717963 0.237676
O O1 0.525970 0.426347 0.303911
O O2 0.443198 0.109283 0.265526
O O3 0.632649 0.093778 0.971743
O O4 0.757291 0.180238 0.124142
O O5 0.410862 0.637896 0.324151
O O6 0.302884 0.347509 0.174722
O O7 0.179549 0.641856 0.295792
O O8 0.500000 0.500000 0.000000
O O9 0.686297 0.698703 0.313795
O O10 0.720579 0.428574 0.008908
O O11 0.960020 0.744485 0.301693
O O12 0.935641 0.846972 0.160692
O O13 0.000000 0.500000 0.000000
O O14 0.807833 0.771744 0.636775
O O15 0.805237 0.087450 0.689311
O O16 0.936554 0.856035 0.779275
O O17 0.000000 0.500000 0.500000
O O18 0.000000 0.000000 0.000000
#
# Coordination Sequence:
#
# PCOD9021082 Si02
#       8
#     2   2   2   2   2   2   2   2
#     4   9  15  28  51  80 112 141 194 247 297 335
#     4  10  21  32  56  91 113 146 209 255 281 339
#     4   9  16  27  48  78 113 145 179 244 298 341
#     4  10  17  31  48  78 120 149 180 241 320 341
#     4   9  16  31  54  77 108 154 194 235 297 353
#     4  11  23  40  59  85 125 163 194 243 312 363
#     4  11  23  33  57  91 117 153 206 255 286 354
#     4   9  17  29  49  80 113 144 187 252 293 339
#
# _framework density 23.289504000000001
#
# number of rings (size 3 to 8) (size 9 to 14) (size 15 to 20)
#    0.000    2.250    6.250    0.000   10.500    0.000 
#    0.000    0.625    0.000    1.500    0.000    0.000 
#    0.000    0.000    0.000    0.000    0.000    0.000 
#
# Total GULP energy -89280.256906 kJ/mol
# GULP energy per Si atom -5580.016057 kJ/mol
# Density = 2.323650 g / cm^3
# Si number density = 23.289504 Si / 1000 Ang^3
#
#
#
# Elastic Constant Matrix: (Units=GPa)
#
#
# Indices 1 2 3 4 5 6 
#
# 1 173.4556 90.4249 -1.6864 0.8207 3.5490 0.1995
# 2 90.4249 181.4775 16.8413 12.9683 5.1439 -0.2298
# 3 -1.6864 16.8413 38.9096 0.8557 6.2132 -1.2425
# 4 0.8207 12.9683 0.8557 15.9059 -2.9002 -1.4626
# 5 3.5490 5.1439 6.2132 -2.9002 15.7051 -2.2472
# 6 0.1995 -0.2298 -1.2425 -1.4626 -2.2472 47.4689
#
#
#
# Elastic Compliance Matrix: (Units=1/GPa)
#
#
# Indices 1 2 3 4 5 6 
#
# 1 0.008106 -0.004445 0.002331 0.002950 -0.000745 0.000061
# 2 -0.004445 0.008594 -0.003490 -0.006941 -0.001759 -0.000328
# 3 0.002331 -0.003490 0.029096 -0.000833 -0.011022 0.000187
# 4 0.002950 -0.006941 -0.000833 0.071522 0.015555 0.002872
# 5 -0.000745 -0.001759 -0.011022 0.015555 0.072166 0.003602
# 6 0.000061 -0.000328 0.000187 0.002872 0.003602 0.021328
#
#
# Mechanical properties :
#
#
# Convention : Reuss Voigt Hill
#
# Bulk Modulus (GPa) = 28.90988 67.22247 48.06617
# Shear Modulus (GPa) = 21.40867 35.03351 28.22109
#
# Velocity S-wave (km/s) = 3.03519 3.88269 3.48480
# Velocity P-wave (km/s) = 4.97226 7.00192 6.07249
#
# Compressibility (1/GPa) = 0.03459026
#
# Stress axis : x y z
#
# Youngs Moduli (GPa) = 123.35993 116.35373 34.36856
#
# Poissons Ratio (x) = 0.51721 -0.08012
# Poissons Ratio (y) = 0.54835 0.11993
# Poissons Ratio (z) = -0.28759 0.40603
#
# Static dielectric constant tensor:
#      x y z
#    x 1.931020 0.040570 -0.076630 
#    y 0.040570 1.916340 -0.112120 
#    z -0.076630 -0.112120 2.024620 
# 
# From -- ./inp_files/444881.got.cif
#   From: 2010.05.17/outbox.cif.g08.bks.cpg/sg2_223_cif.got.tgz:444881.got - 2010.06.03 11:33:40.
