data_PCOD9021552
_publ_section_title
;
Structure prediction by ZEFSAII (Michael W. Deem and Ramdas Pophale) SiO2 
 PCOD9021552
Probable space group: P -1
;
_chemical_formula_sum "Si O2"
_cell_formula_units_Z 15
_cell_length_a 19.017731
_cell_length_b 4.890034
_cell_length_c 11.470580
_cell_angle_alpha 83.698873
_cell_angle_beta 143.390131
_cell_angle_gamma 88.996626
_cell_volume 622.200112
_symmetry_space_group_name_H-M "P -1"
_symmetry_group_IT_number 2
_symmetry_cell_setting 'triclinic'
loop_
_space_group_symop_operation_xyz
x,y,z
-x,-y,-z
loop_
_atom_site_type_symbol
_atom_site_label
_atom_site_fract_x
_atom_site_fract_y
_atom_site_fract_z
Si Si1 0.500000 0.000000 0.500000
Si Si2 0.634253 0.687296 0.834145
Si Si3 0.377889 0.537009 0.484348
Si Si4 0.665296 0.934016 0.103355
Si Si5 0.570448 0.641781 0.186338
Si Si6 0.815349 0.238789 0.956794
Si Si7 0.947916 0.623311 0.233194
Si Si8 0.890362 0.242033 0.381952
O O1 0.422797 0.244992 0.491459
O O2 0.747620 0.306260 0.740803
O O3 0.872336 0.925331 0.085462
O O4 0.655778 0.721910 0.995434
O O5 0.492090 0.698624 0.603585
O O6 0.629906 0.975435 0.746773
O O7 0.375708 0.525430 0.621689
O O8 0.719881 0.428604 0.907543
O O9 0.772365 0.104626 0.227321
O O10 0.664534 0.784341 0.233517
O O11 0.537024 0.133637 0.914758
O O12 0.500000 0.500000 0.000000
O O13 0.927916 0.407473 0.116241
O O14 0.897539 0.492284 0.289476
O O15 0.077965 0.662014 0.451045
O O16 0.000000 0.000000 0.500000
#
# Coordination Sequence:
#
# PCOD9021552 Si02
#       8
#     1   2   2   2   2   2   2   2
#     4   8  20  34  56 100 140 174 232 274 354 428
#     4  10  22  38  63 103 146 188 227 294 362 431
#     4  10  23  36  65  97 146 190 237 283 361 433
#     4  11  26  44  74  98 148 189 246 298 352 432
#     4  11  24  47  66 104 143 201 246 284 347 438
#     4  12  24  42  63 107 147 184 224 301 373 432
#     4  11  26  41  66 103 144 178 234 288 375 426
#     4  11  24  45  71 107 137 189 237 309 368 420
#
# _framework density 24.107997999999998
#
# number of rings (size 3 to 8) (size 9 to 14) (size 15 to 20)
#    0.800    0.533    2.667    2.000    5.600    2.133 
#    0.000    0.000    0.000    1.600    0.000    0.000 
#    0.000    0.000    0.000    0.000    0.000    0.000 
#
# Total GULP energy -83658.629172 kJ/mol
# GULP energy per Si atom -5577.241945 kJ/mol
# Density = 2.405313 g / cm^3
# Si number density = 24.107998 Si / 1000 Ang^3
#
#
#
# Elastic Constant Matrix: (Units=GPa)
#
#
# Indices 1 2 3 4 5 6 
#
# 1 64.4932 19.0089 33.1892 0.7348 -21.8038 17.1585
# 2 19.0089 129.6488 34.8901 -12.1467 -6.1683 2.9130
# 3 33.1892 34.8901 145.4595 -3.4974 -38.8441 23.4368
# 4 0.7348 -12.1467 -3.4974 41.7685 2.2187 0.0236
# 5 -21.8038 -6.1683 -38.8441 2.2187 39.6240 -9.8689
# 6 17.1585 2.9130 23.4368 0.0236 -9.8689 33.5699
#
#
#
# Elastic Compliance Matrix: (Units=1/GPa)
#
#
# Indices 1 2 3 4 5 6 
#
# 1 0.021762 -0.002544 -0.000740 -0.001659 0.009020 -0.007733
# 2 -0.002544 0.008798 -0.002247 0.002520 -0.001996 0.001517
# 3 -0.000740 -0.002247 0.010544 -0.000208 0.008524 -0.004282
# 4 -0.001659 0.002520 -0.000208 0.024796 -0.002076 0.000147
# 5 0.009020 -0.001996 0.008524 -0.002076 0.038602 0.000961
# 6 -0.007733 0.001517 -0.004282 0.000147 0.000961 0.036881
#
#
# Mechanical properties :
#
#
# Convention : Reuss Voigt Hill
#
# Bulk Modulus (GPa) = 33.28732 57.08644 45.18688
# Shear Modulus (GPa) = 30.77693 39.82671 35.30182
#
# Velocity S-wave (km/s) = 3.57687 4.06890 3.83079
# Velocity P-wave (km/s) = 5.55844 6.76798 6.19281
#
# Compressibility (1/GPa) = 0.03004147
#
# Stress axis : x y z
#
# Youngs Moduli (GPa) = 45.95161 113.66449 94.84209
#
# Poissons Ratio (x) = 0.28917 0.07023
# Poissons Ratio (y) = 0.11690 0.21307
# Poissons Ratio (z) = 0.03403 0.25536
#
# Static dielectric constant tensor:
#      x y z
#    x 1.990370 0.023770 0.013520 
#    y 0.023770 2.067250 0.033110 
#    z 0.013520 0.033110 2.098940 
# 
# From -- ./inp_files/70298.got.cif
#   From: 2010.05.17/outbox.cif.g08.bks.cpg/sg2_36_cif.got.tgz:70298.got - 2010.06.03 11:33:40.
