data_PCOD9021246
_publ_section_title
;
Structure prediction by ZEFSAII (Michael W. Deem and Ramdas Pophale) SiO2 
 PCOD9021246
Probable space group: P -1
;
_chemical_formula_sum "Si O2"
_cell_formula_units_Z 12
_cell_length_a 9.369279
_cell_length_b 11.344627
_cell_length_c 4.992163
_cell_angle_alpha 67.080393
_cell_angle_beta 81.427788
_cell_angle_gamma 73.395137
_cell_volume 467.920650
_symmetry_space_group_name_H-M "P -1"
_symmetry_group_IT_number 2
_symmetry_cell_setting 'triclinic'
loop_
_space_group_symop_operation_xyz
x,y,z
-x,-y,-z
loop_
_atom_site_type_symbol
_atom_site_label
_atom_site_fract_x
_atom_site_fract_y
_atom_site_fract_z
Si Si1 0.427364 0.232404 0.752197
Si Si2 0.898334 0.306593 0.491040
Si Si3 0.588444 0.131136 0.305003
Si Si4 0.901416 0.745470 0.043584
Si Si5 0.401006 0.600058 0.732608
Si Si6 0.850661 0.028013 0.685919
O O1 0.446790 0.161018 0.520726
O O2 0.261528 0.277887 0.865141
O O3 0.497630 0.356722 0.564820
O O4 0.531291 0.132457 0.020586
O O5 0.753191 0.414407 0.334864
O O6 0.839284 0.173271 0.679443
O O7 0.980467 0.334948 0.707560
O O8 0.021655 0.278335 0.246138
O O9 0.647013 0.264350 0.198680
O O10 0.717205 0.028639 0.515225
O O11 0.869717 0.902970 0.983798
O O12 0.500000 0.500000 0.000000
O O13 0.000000 0.000000 0.500000
#
# Coordination Sequence:
#
# PCOD9021246 Si02
#       6
#     2   2   2   2   2   2
#     4  10  22  38  59  83 122 145 191 234 286 334
#     4  10  22  38  59  85 116 150 196 230 277 340
#     4   9  21  37  57  85 115 145 194 230 276 339
#     4  11  22  38  58  86 121 153 182 235 284 335
#     4   9  22  41  64  83 110 151 194 240 286 335
#     4   9  20  34  59  85 118 152 191 224 282 335
#
# _framework density 25.645375000000001
#
# number of rings (size 3 to 8) (size 9 to 14) (size 15 to 20)
#    1.000    1.333    0.000    1.500    7.000    4.667 
#    0.000    1.667    0.000    0.000    0.000    0.000 
#    0.000    0.000    0.000    0.000    0.000    0.000 
#
# Total GULP energy -67082.154128 kJ/mol
# GULP energy per Si atom -5590.179511 kJ/mol
# Density = 2.558701 g / cm^3
# Si number density = 25.645375 Si / 1000 Ang^3
#
#
#
# Elastic Constant Matrix: (Units=GPa)
#
#
# Indices 1 2 3 4 5 6 
#
# 1 121.3255 20.9103 52.7436 -10.5598 -2.5027 -33.4776
# 2 20.9103 45.1866 20.9056 -4.8671 -6.2697 -19.9088
# 3 52.7436 20.9056 133.6756 1.9164 13.8428 -13.6315
# 4 -10.5598 -4.8671 1.9164 39.9317 -14.6597 10.3054
# 5 -2.5027 -6.2697 13.8428 -14.6597 53.0624 4.5008
# 6 -33.4776 -19.9088 -13.6315 10.3054 4.5008 34.1706
#
#
#
# Elastic Compliance Matrix: (Units=1/GPa)
#
#
# Indices 1 2 3 4 5 6 
#
# 1 0.013222 0.001253 -0.004422 0.001446 0.001366 0.011304
# 2 0.001253 0.031675 -0.004114 0.001363 0.003799 0.017130
# 3 -0.004422 -0.004114 0.010250 -0.003448 -0.004233 -0.001043
# 4 0.001446 0.001363 -0.003448 0.032474 0.010983 -0.010405
# 5 0.001366 0.003799 -0.004233 0.010983 0.023887 -0.004596
# 6 0.011304 0.017130 -0.001043 -0.010405 -0.004596 0.053647
#
#
# Mechanical properties :
#
#
# Convention : Reuss Voigt Hill
#
# Bulk Modulus (GPa) = 24.64238 54.36740 39.50489
# Shear Modulus (GPa) = 25.87327 39.14150 32.50738
#
# Velocity S-wave (km/s) = 3.17974 3.91098 3.56416
# Velocity P-wave (km/s) = 4.80737 6.45291 5.68994
#
# Compressibility (1/GPa) = 0.04058050
#
# Stress axis : x y z
#
# Youngs Moduli (GPa) = 75.63193 31.57048 97.55635
#
# Poissons Ratio (x) = -0.03956 0.43143
# Poissons Ratio (y) = -0.09477 0.40137
# Poissons Ratio (z) = 0.33447 0.12989
#
# Static dielectric constant tensor:
#      x y z
#    x 2.046560 0.096490 -0.007780 
#    y 0.096490 2.159980 -0.021340 
#    z -0.007780 -0.021340 1.963840 
# 
# From -- ./inp_files/32595.got.cif
#   From: 2010.05.17/outbox.cif.g08.bks.cpg/sg2_17_cif.got.tgz:32595.got - 2010.06.03 11:33:40.
