data_PCOD9021698
_publ_section_title
;
Structure prediction by ZEFSAII (Michael W. Deem and Ramdas Pophale) SiO2 
 PCOD9021698
Probable space group: P -1
;
_chemical_formula_sum "Si O2"
_cell_formula_units_Z 16
_cell_length_a 14.467460
_cell_length_b 8.039366
_cell_length_c 9.142246
_cell_angle_alpha 104.111220
_cell_angle_beta 74.936781
_cell_angle_gamma 133.756414
_cell_volume 738.501614
_symmetry_space_group_name_H-M "P -1"
_symmetry_group_IT_number 2
_symmetry_cell_setting 'triclinic'
loop_
_space_group_symop_operation_xyz
x,y,z
-x,-y,-z
loop_
_atom_site_type_symbol
_atom_site_label
_atom_site_fract_x
_atom_site_fract_y
_atom_site_fract_z
Si Si1 0.642284 0.142644 0.539285
Si Si2 0.976354 0.654838 0.120753
Si Si3 0.267232 0.433102 0.841071
Si Si4 0.923950 0.438743 0.369599
Si Si5 0.462175 0.307535 0.356034
Si Si6 0.155135 0.964590 0.886788
Si Si7 0.641126 0.294252 0.870901
Si Si8 0.363782 0.072208 0.052726
O O1 0.774105 0.309161 0.430274
O O2 0.660009 0.302478 0.694531
O O3 0.500000 0.000000 0.500000
O O4 0.625517 0.934794 0.574580
O O5 0.828807 0.533977 0.157774
O O6 0.005982 0.666615 0.281638
O O7 0.000000 0.500000 0.000000
O O8 0.051089 0.881077 0.038697
O O9 0.400785 0.607405 0.736277
O O10 0.208308 0.174462 0.803567
O O11 0.283827 0.476589 0.017889
O O12 0.910559 0.250956 0.239537
O O13 0.000000 0.500000 0.500000
O O14 0.500000 0.500000 0.500000
O O15 0.394915 0.246949 0.208567
O O16 0.268793 0.022097 0.954631
O O17 0.677756 0.152772 0.895188
O O18 0.493679 0.165256 0.938956
#
# Coordination Sequence:
#
# PCOD9021698 Si02
#       8
#     2   2   2   2   2   2   2   2
#     4  11  22  37  62  91 127 166 214 267 325 385
#     4  10  23  42  66  86 124 170 217 263 318 384
#     4  11  22  40  64  98 127 167 215 270 320 397
#     4  11  25  41  66  94 126 171 224 270 323 389
#     4  10  22  38  64  93 137 166 202 266 334 382
#     4  11  23  40  66  90 131 172 218 262 325 391
#     4   9  19  34  62  89 125 161 217 265 316 381
#     4   9  19  37  61  93 121 170 217 259 315 390
#
# _framework density 21.665490999999999
#
# number of rings (size 3 to 8) (size 9 to 14) (size 15 to 20)
#    0.000    1.750    0.000    4.875    7.000    3.000 
#    0.000    0.625    0.000    0.000    0.000    0.000 
#    0.000    0.000    0.000    0.000    0.000    0.000 
#
# Total GULP energy -89155.920188 kJ/mol
# GULP energy per Si atom -5572.245012 kJ/mol
# Density = 2.161618 g / cm^3
# Si number density = 21.665491 Si / 1000 Ang^3
#
#
#
# Elastic Constant Matrix: (Units=GPa)
#
#
# Indices 1 2 3 4 5 6 
#
# 1 71.5522 5.1508 26.4697 -0.1111 11.5316 20.7996
# 2 5.1508 48.5123 24.6065 -5.7040 -2.8794 2.7519
# 3 26.4697 24.6065 114.8129 0.5649 9.0068 4.8054
# 4 -0.1111 -5.7040 0.5649 44.3299 2.5921 -1.0581
# 5 11.5316 -2.8794 9.0068 2.5921 24.8382 5.1753
# 6 20.7996 2.7519 4.8054 -1.0581 5.1753 18.3889
#
#
#
# Elastic Compliance Matrix: (Units=1/GPa)
#
#
# Indices 1 2 3 4 5 6 
#
# 1 0.023101 0.000761 -0.004161 -0.000124 -0.004113 -0.024006
# 2 0.000761 0.024251 -0.005606 0.002793 0.005095 -0.004298
# 3 -0.004161 -0.005606 0.010989 -0.000588 -0.003390 0.003594
# 4 -0.000124 0.002793 -0.000588 0.023097 -0.002196 0.001822
# 5 -0.004113 0.005095 -0.003390 -0.002196 0.045945 -0.008281
# 6 -0.024006 -0.004298 0.003594 0.001822 -0.008281 0.083673
#
#
# Mechanical properties :
#
#
# Convention : Reuss Voigt Hill
#
# Bulk Modulus (GPa) = 24.79650 38.59237 31.69443
# Shear Modulus (GPa) = 20.61762 29.42144 25.01953
#
# Velocity S-wave (km/s) = 3.08820 3.68908 3.40194
# Velocity P-wave (km/s) = 4.91793 5.99977 5.48559
#
# Compressibility (1/GPa) = 0.04032828
#
# Stress axis : x y z
#
# Youngs Moduli (GPa) = 43.28761 41.23570 90.99929
#
# Poissons Ratio (x) = -0.03137 0.37864
# Poissons Ratio (y) = -0.03293 0.51017
# Poissons Ratio (z) = 0.18012 0.23118
#
# Static dielectric constant tensor:
#      x y z
#    x 1.845670 0.019390 0.004920 
#    y 0.019390 1.913170 -0.026360 
#    z 0.004920 -0.026360 1.819330 
# 
# From -- ./inp_files/299155.got.cif
#   From: 2010.05.17/outbox.cif.g08.bks.cpg/sg2_150_cif.got.tgz:299155.got - 2010.06.03 11:33:40.
