data_PCOD9021752
_publ_section_title
;
Structure prediction by ZEFSAII (Michael W. Deem and Ramdas Pophale) SiO2 
 PCOD9021752
Probable space group: P -1
;
_chemical_formula_sum "Si O2"
_cell_formula_units_Z 16
_cell_length_a 8.575050
_cell_length_b 14.177017
_cell_length_c 8.938434
_cell_angle_alpha 121.437570
_cell_angle_beta 103.524379
_cell_angle_gamma 112.574365
_cell_volume 714.425454
_symmetry_space_group_name_H-M "P -1"
_symmetry_group_IT_number 2
_symmetry_cell_setting 'triclinic'
loop_
_space_group_symop_operation_xyz
x,y,z
-x,-y,-z
loop_
_atom_site_type_symbol
_atom_site_label
_atom_site_fract_x
_atom_site_fract_y
_atom_site_fract_z
Si Si1 0.045593 0.999160 0.260439
Si Si2 0.749371 0.371981 0.943674
Si Si3 0.886203 0.662494 0.234891
Si Si4 0.676041 0.126412 0.545027
Si Si5 0.951211 0.447673 0.611779
Si Si6 0.170041 0.929045 0.937346
Si Si7 0.696537 0.802399 0.254634
Si Si8 0.391036 0.831045 0.755218
O O1 0.226651 0.096201 0.499539
O O2 0.995651 0.089694 0.228472
O O3 0.847105 0.891283 0.225918
O O4 0.100809 0.929911 0.091162
O O5 0.716756 0.269367 0.723900
O O6 0.536764 0.278971 0.905375
O O7 0.802434 0.516786 0.015032
O O8 0.934724 0.425018 0.141247
O O9 0.954736 0.631743 0.379263
O O10 0.720045 0.685794 0.215601
O O11 0.088446 0.811042 0.344916
O O12 0.607996 0.092425 0.330569
O O13 0.500000 0.000000 0.500000
O O14 0.000000 0.500000 0.500000
O O15 0.713084 0.325316 0.450526
O O16 0.249166 0.838096 0.846108
O O17 0.377690 0.084125 0.079484
#
# Coordination Sequence:
#
# PCOD9021752 Si02
#       8
#     2   2   2   2   2   2   2   2
#     4  10  23  38  62  94 132 163 219 262 326 376
#     4  10  23  39  66  92 132 167 215 260 326 381
#     4   9  22  40  61  93 135 163 212 265 319 382
#     4  11  23  38  65 102 126 164 216 276 324 378
#     4   9  21  39  61  90 124 171 209 261 315 391
#     4  10  22  41  59  91 129 173 202 274 317 388
#     4  11  22  40  66  95 128 174 214 271 320 381
#     4  10  22  38  65  88 130 162 220 261 329 371
#
# _framework density 22.395620000000001
#
# number of rings (size 3 to 8) (size 9 to 14) (size 15 to 20)
#    0.750    1.250    0.000    3.000    8.750    1.000 
#    0.000    0.000    0.000    0.750    0.000    0.000 
#    0.000    0.000    0.000    0.000    0.000    0.000 
#
# Total GULP energy -89153.015558 kJ/mol
# GULP energy per Si atom -5572.063472 kJ/mol
# Density = 2.234465 g / cm^3
# Si number density = 22.395620 Si / 1000 Ang^3
#
#
#
# Elastic Constant Matrix: (Units=GPa)
#
#
# Indices 1 2 3 4 5 6 
#
# 1 49.0945 9.9957 27.5789 -1.3727 -2.2284 11.2583
# 2 9.9957 93.0136 47.2984 -1.1492 -0.9415 14.9052
# 3 27.5789 47.2984 122.8872 7.7679 -5.8993 11.5972
# 4 -1.3727 -1.1492 7.7679 37.6484 15.5466 -0.8605
# 5 -2.2284 -0.9415 -5.8993 15.5466 25.7341 8.5757
# 6 11.2583 14.9052 11.5972 -0.8605 8.5757 32.7157
#
#
#
# Elastic Compliance Matrix: (Units=1/GPa)
#
#
# Indices 1 2 3 4 5 6 
#
# 1 0.025108 0.001326 -0.005210 0.000360 0.003587 -0.008329
# 2 0.001326 0.014153 -0.005341 0.001355 0.000271 -0.005047
# 3 -0.005210 -0.005341 0.012159 -0.005374 0.005985 -0.001794
# 4 0.000360 0.001355 -0.005374 0.039632 -0.028301 0.009625
# 5 0.003587 0.000271 0.005985 -0.028301 0.064709 -0.021186
# 6 -0.008329 -0.005047 -0.001794 0.009625 -0.021186 0.042174
#
#
# Mechanical properties :
#
#
# Convention : Reuss Voigt Hill
#
# Bulk Modulus (GPa) = 30.33032 48.30459 39.31745
# Shear Modulus (GPa) = 21.99006 31.22780 26.60893
#
# Velocity S-wave (km/s) = 3.13691 3.73818 3.45067
# Velocity P-wave (km/s) = 5.16650 6.34410 5.78534
#
# Compressibility (1/GPa) = 0.03297031
#
# Stress axis : x y z
#
# Youngs Moduli (GPa) = 39.82749 70.65670 82.24326
#
# Poissons Ratio (x) = -0.09372 0.42849
# Poissons Ratio (y) = -0.05283 0.43930
# Poissons Ratio (z) = 0.20750 0.37741
#
# Static dielectric constant tensor:
#      x y z
#    x 1.892130 0.020940 -0.026100 
#    y 0.020940 1.873770 0.023670 
#    z -0.026100 0.023670 1.885190 
# 
# From -- ./inp_files/213305.got.cif
#   From: 2010.05.17/outbox.cif.g08.bks.cpg/sg2_107_cif.got.tgz:213305.got - 2010.06.03 11:33:40.
