data_PCOD9021650
_publ_section_title
;
Structure prediction by ZEFSAII (Michael W. Deem and Ramdas Pophale) SiO2 
 PCOD9021650
Probable space group: P -1
;
_chemical_formula_sum "Si O2"
_cell_formula_units_Z 12
_cell_length_a 7.311486
_cell_length_b 9.469821
_cell_length_c 12.002664
_cell_angle_alpha 53.504230
_cell_angle_beta 122.518916
_cell_angle_gamma 117.619398
_cell_volume 550.499950
_symmetry_space_group_name_H-M "P -1"
_symmetry_group_IT_number 2
_symmetry_cell_setting 'triclinic'
loop_
_space_group_symop_operation_xyz
x,y,z
-x,-y,-z
loop_
_atom_site_type_symbol
_atom_site_label
_atom_site_fract_x
_atom_site_fract_y
_atom_site_fract_z
Si Si1 0.494796 0.245610 0.376516
Si Si2 0.821061 0.820581 0.504704
Si Si3 0.168138 0.045872 0.175282
Si Si4 0.628241 0.470458 0.670896
Si Si5 0.970251 0.287819 0.572579
Si Si6 0.303956 0.915428 0.059390
O O1 0.398424 0.163447 0.504648
O O2 0.490965 0.454511 0.299292
O O3 0.746193 0.231382 0.452075
O O4 0.328565 0.152086 0.272091
O O5 0.851473 0.629370 0.656891
O O6 0.834750 0.779505 0.397557
O O7 0.000000 0.000000 0.500000
O O8 0.085691 0.835282 0.280040
O O9 0.290191 0.047701 0.096674
O O10 0.941068 0.116423 0.059890
O O11 0.500000 0.500000 0.500000
O O12 0.661300 0.274292 0.793519
O O13 0.000000 0.500000 0.500000
O O14 0.500000 0.000000 0.000000
#
# Coordination Sequence:
#
# PCOD9021650 Si02
#       6
#     2   2   2   2   2   2
#     4  10  24  40  66 101 139 169 230 274 329 403
#     4  10  22  38  64 103 132 169 216 276 346 374
#     4  11  25  44  64  98 135 178 230 272 340 407
#     4  10  22  44  69  99 131 173 228 273 329 405
#     4  12  23  38  71 102 136 173 225 282 332 399
#     4  11  27  45  70  93 140 183 221 285 344 395
#
# _framework density 21.798369000000001
#
# number of rings (size 3 to 8) (size 9 to 14) (size 15 to 20)
#    1.000    0.333    1.667    3.500    4.667    2.000 
#    0.000    0.833    0.000    0.000    0.000    0.000 
#    0.000    0.000    0.000    0.000    0.000    0.000 
#
# Total GULP energy -66874.699142 kJ/mol
# GULP energy per Si atom -5572.891595 kJ/mol
# Density = 2.174875 g / cm^3
# Si number density = 21.798369 Si / 1000 Ang^3
#
#
#
# Elastic Constant Matrix: (Units=GPa)
#
#
# Indices 1 2 3 4 5 6 
#
# 1 142.3609 46.6842 51.7082 5.6756 -5.0543 -2.0813
# 2 46.6842 132.3794 56.4732 -1.5698 12.2148 1.0884
# 3 51.7082 56.4732 110.3106 -10.0367 15.5329 10.2638
# 4 5.6756 -1.5698 -10.0367 36.7191 -2.4761 -6.1720
# 5 -5.0543 12.2148 15.5329 -2.4761 34.7569 2.9110
# 6 -2.0813 1.0884 10.2638 -6.1720 2.9110 30.0890
#
#
#
# Elastic Compliance Matrix: (Units=1/GPa)
#
#
# Indices 1 2 3 4 5 6 
#
# 1 0.009447 -0.001865 -0.004325 -0.002242 0.003687 0.001380
# 2 -0.001865 0.010171 -0.004170 -0.000382 -0.002097 0.001050
# 3 -0.004325 -0.004170 0.014632 0.003484 -0.005125 -0.003929
# 4 -0.002242 -0.000382 0.003484 0.029300 -0.000054 0.004686
# 5 0.003687 -0.002097 -0.005125 -0.000054 0.032421 -0.001068
# 6 0.001380 0.001050 -0.003929 0.004686 -0.001068 0.035697
#
#
# Mechanical properties :
#
#
# Convention : Reuss Voigt Hill
#
# Bulk Modulus (GPa) = 73.90934 77.19800 75.55367
# Shear Modulus (GPa) = 31.86782 35.65868 33.76325
#
# Velocity S-wave (km/s) = 3.82768 4.04894 3.93986
# Velocity P-wave (km/s) = 7.31535 7.57298 7.44528
#
# Compressibility (1/GPa) = 0.01353009
#
# Stress axis : x y z
#
# Youngs Moduli (GPa) = 105.84976 98.31972 68.34353
#
# Poissons Ratio (x) = 0.18332 0.29561
# Poissons Ratio (y) = 0.19736 0.28500
# Poissons Ratio (z) = 0.45784 0.41000
#
# Static dielectric constant tensor:
#      x y z
#    x 1.884710 0.002850 0.001270 
#    y 0.002850 1.863320 -0.008050 
#    z 0.001270 -0.008050 1.807430 
# 
# From -- ./inp_files/373429.got.cif
#   From: 2010.05.17/outbox.cif.g08.bks.cpg/sg2_187_cif.got.tgz:373429.got - 2010.06.03 11:33:40.
