data_PCOD9021440
_publ_section_title
;
Structure prediction by ZEFSAII (Michael W. Deem and Ramdas Pophale) SiO2 
 PCOD9021440
Probable space group: P -1
;
_chemical_formula_sum "Si O2"
_cell_formula_units_Z 14
_cell_length_a 6.288307
_cell_length_b 9.271579
_cell_length_c 14.938702
_cell_angle_alpha 107.323212
_cell_angle_beta 132.640435
_cell_angle_gamma 77.590207
_cell_volume 611.528039
_symmetry_space_group_name_H-M "P -1"
_symmetry_group_IT_number 2
_symmetry_cell_setting 'triclinic'
loop_
_space_group_symop_operation_xyz
x,y,z
-x,-y,-z
loop_
_atom_site_type_symbol
_atom_site_label
_atom_site_fract_x
_atom_site_fract_y
_atom_site_fract_z
Si Si1 0.301712 0.795357 0.011648
Si Si2 0.718406 0.314912 0.549985
Si Si3 0.899753 0.604446 0.573771
Si Si4 0.862623 0.007927 0.840659
Si Si5 0.556933 0.251835 0.286137
Si Si6 0.019934 0.193643 0.764108
Si Si7 0.052513 0.476686 0.116514
O O1 0.143789 0.848320 0.068785
O O2 0.640341 0.816918 0.121218
O O3 0.210105 0.623555 0.938924
O O4 0.151256 0.906521 0.917783
O O5 0.855783 0.482264 0.617257
O O6 0.415130 0.323031 0.517418
O O7 0.631107 0.279667 0.416886
O O8 0.937277 0.198310 0.637245
O O9 0.000000 0.500000 0.500000
O O10 0.144047 0.727799 0.677689
O O11 0.852149 0.068418 0.748791
O O12 0.605145 0.905650 0.785328
O O13 0.336448 0.376282 0.204483
O O14 0.926719 0.359458 0.803787
O O15 0.000000 0.500000 0.000000
#
# Coordination Sequence:
#
# PCOD9021440 Si02
#       7
#     2   2   2   2   2   2   2
#     4  10  23  43  62  89 126 168 204 252 316 357
#     4  10  22  38  61  94 122 159 207 254 301 369
#     4   9  18  37  59  86 122 162 200 246 307 354
#     4  10  23  43  61  90 128 166 205 250 306 378
#     4  10  23  42  64  88 128 167 199 250 314 364
#     4  12  23  39  66  94 127 157 209 258 306 368
#     4  11  22  40  64  95 123 154 211 263 297 362
#
# _framework density 22.893471999999999
#
# number of rings (size 3 to 8) (size 9 to 14) (size 15 to 20)
#    0.000    1.714    1.429    3.429    2.000    4.000 
#    5.143    1.429    0.000    0.000    0.000    0.000 
#    0.000    0.000    0.000    0.000    0.000    0.000 
#
# Total GULP energy -78230.925554 kJ/mol
# GULP energy per Si atom -5587.923254 kJ/mol
# Density = 2.284137 g / cm^3
# Si number density = 22.893472 Si / 1000 Ang^3
#
#
#
# Elastic Constant Matrix: (Units=GPa)
#
#
# Indices 1 2 3 4 5 6 
#
# 1 64.5282 30.9641 29.4414 1.7030 28.1787 19.3391
# 2 30.9641 104.5752 42.4023 -14.4395 15.3965 19.0141
# 3 29.4414 42.4023 102.1427 -10.8690 3.8525 22.9181
# 4 1.7030 -14.4395 -10.8690 23.8370 9.7859 -7.9598
# 5 28.1787 15.3965 3.8525 9.7859 43.4125 13.2489
# 6 19.3391 19.0141 22.9181 -7.9598 13.2489 25.3898
#
#
#
# Elastic Compliance Matrix: (Units=1/GPa)
#
#
# Indices 1 2 3 4 5 6 
#
# 1 0.027439 -0.003369 -0.004422 -0.003855 -0.012602 -0.009018
# 2 -0.003369 0.013926 -0.003880 0.009227 -0.004805 0.001040
# 3 -0.004422 -0.003880 0.014718 -0.001783 0.006723 -0.011079
# 4 -0.003855 0.009227 -0.001783 0.068660 -0.026092 0.032776
# 5 -0.012602 -0.004805 0.006723 -0.026092 0.045822 -0.024962
# 6 -0.009018 0.001040 -0.011079 0.032776 -0.024962 0.078778
#
#
# Mechanical properties :
#
#
# Convention : Reuss Voigt Hill
#
# Bulk Modulus (GPa) = 30.54293 52.98462 41.76378
# Shear Modulus (GPa) = 17.63068 29.75708 23.69388
#
# Velocity S-wave (km/s) = 2.77811 3.60919 3.22057
# Velocity P-wave (km/s) = 4.86424 6.36888 5.66672
#
# Compressibility (1/GPa) = 0.03274080
#
# Stress axis : x y z
#
# Youngs Moduli (GPa) = 36.44495 71.80976 67.94431
#
# Poissons Ratio (x) = 0.24191 0.30044
# Poissons Ratio (y) = 0.12277 0.26363
# Poissons Ratio (z) = 0.16115 0.27863
#
# Static dielectric constant tensor:
#      x y z
#    x 1.867630 0.009870 -0.024060 
#    y 0.009870 1.878480 0.033940 
#    z -0.024060 0.033940 1.905460 
# 
# From -- ./inp_files/360750.got.cif
#   From: 2010.05.17/outbox.cif.g08.bks.cpg/sg2_181_cif.got.tgz:360750.got - 2010.06.03 11:33:40.
