data_PCOD9021738
_publ_section_title
;
Structure prediction by ZEFSAII (Michael W. Deem and Ramdas Pophale) SiO2 
 PCOD9021738
Probable space group: P -1
;
_chemical_formula_sum "Si O2"
_cell_formula_units_Z 12
_cell_length_a 7.442007
_cell_length_b 8.093585
_cell_length_c 13.594933
_cell_angle_alpha 88.992549
_cell_angle_beta 127.056631
_cell_angle_gamma 124.148465
_cell_volume 472.780902
_symmetry_space_group_name_H-M "P -1"
_symmetry_group_IT_number 2
_symmetry_cell_setting 'triclinic'
loop_
_space_group_symop_operation_xyz
x,y,z
-x,-y,-z
loop_
_atom_site_type_symbol
_atom_site_label
_atom_site_fract_x
_atom_site_fract_y
_atom_site_fract_z
Si Si1 0.882443 0.613081 0.847998
Si Si2 0.807640 0.808224 0.646257
Si Si3 0.742267 0.191498 0.837911
Si Si4 0.607592 0.220455 0.138024
Si Si5 0.205755 0.229084 0.885539
Si Si6 0.870175 0.485556 0.564418
O O1 0.212224 0.742583 0.901040
O O2 0.750273 0.691660 0.736813
O O3 0.680670 0.344456 0.780472
O O4 0.969150 0.667994 0.989876
O O5 0.849997 0.673749 0.586884
O O6 0.485209 0.742212 0.525044
O O7 0.117187 0.076591 0.761545
O O8 0.884476 0.157769 0.798649
O O9 0.478613 0.962029 0.810398
O O10 0.869641 0.459355 0.277318
O O11 0.289574 0.140045 0.999386
O O12 0.500000 0.500000 0.000000
O O13 0.000000 0.500000 0.500000
#
# Coordination Sequence:
#
# PCOD9021738 Si02
#       6
#     2   2   2   2   2   2
#     4  10  22  38  64  98 137 170 221 277 344 393
#     4  10  23  44  67  98 141 175 223 288 332 402
#     4  11  22  36  65 102 134 170 220 278 346 401
#     4  11  22  41  67  95 134 173 223 285 331 395
#     4  12  24  41  68 106 134 175 227 282 341 401
#     4  10  23  42  72  94 131 188 227 267 350 404
#
# _framework density 25.381737999999999
#
# number of rings (size 3 to 8) (size 9 to 14) (size 15 to 20)
#    0.000    1.333    3.333    2.000    4.667    0.000 
#    0.000    1.667    7.333    0.000    0.000    0.000 
#    0.000    0.000    0.000    0.000    0.000    0.000 
#
# Total GULP energy -66892.724972 kJ/mol
# GULP energy per Si atom -5574.393748 kJ/mol
# Density = 2.532397 g / cm^3
# Si number density = 25.381738 Si / 1000 Ang^3
#
#
#
# Elastic Constant Matrix: (Units=GPa)
#
#
# Indices 1 2 3 4 5 6 
#
# 1 107.9133 19.9764 23.7429 19.8145 -19.6528 10.0778
# 2 19.9764 120.9984 1.2225 20.3377 -1.8729 8.7860
# 3 23.7429 1.2225 115.1176 33.3721 -4.5784 -6.0984
# 4 19.8145 20.3377 33.3721 39.3719 0.6970 -3.9876
# 5 -19.6528 -1.8729 -4.5784 0.6970 39.6465 6.7109
# 6 10.0778 8.7860 -6.0984 -3.9876 6.7109 26.4194
#
#
#
# Elastic Compliance Matrix: (Units=1/GPa)
#
#
# Indices 1 2 3 4 5 6 
#
# 1 0.012861 -0.000326 -0.000878 -0.006501 0.007717 -0.007942
# 2 -0.000326 0.009763 0.001778 -0.006822 0.001315 -0.004076
# 3 -0.000878 0.001778 0.012001 -0.010604 0.001114 0.000631
# 4 -0.006501 -0.006822 -0.010604 0.042380 -0.007300 0.010552
# 5 0.007717 0.001315 0.001114 -0.007300 0.031434 -0.012210
# 6 -0.007942 -0.004076 0.000631 0.010552 -0.012210 0.047076
#
#
# Mechanical properties :
#
#
# Convention : Reuss Voigt Hill
#
# Bulk Modulus (GPa) = 27.95463 48.21253 38.08358
# Shear Modulus (GPa) = 30.06752 41.02673 35.54712
#
# Velocity S-wave (km/s) = 3.44555 4.02479 3.74639
# Velocity P-wave (km/s) = 5.18331 6.37455 5.80954
#
# Compressibility (1/GPa) = 0.03577225
#
# Stress axis : x y z
#
# Youngs Moduli (GPa) = 77.75520 102.42328 83.32739
#
# Poissons Ratio (x) = 0.03335 0.07319
# Poissons Ratio (y) = 0.02532 -0.14812
# Poissons Ratio (z) = 0.06830 -0.18207
#
# Static dielectric constant tensor:
#      x y z
#    x 2.024460 -0.116380 -0.031930 
#    y -0.116380 2.097130 0.078080 
#    z -0.031930 0.078080 2.046760 
# 
# From -- ./inp_files/338702.got.cif
#   From: 2010.05.17/outbox.cif.g08.bks.cpg/sg2_170_cif.got.tgz:338702.got - 2010.06.03 11:33:40.
