data_PCOD9021952
_publ_section_title
;
Structure prediction by ZEFSAII (Michael W. Deem and Ramdas Pophale) SiO2 
 PCOD9021952
Probable space group: P -1
;
_chemical_formula_sum "Si O2"
_cell_formula_units_Z 12
_cell_length_a 16.962018
_cell_length_b 7.892137
_cell_length_c 5.587267
_cell_angle_alpha 124.335177
_cell_angle_beta 104.041989
_cell_angle_gamma 54.210107
_cell_volume 496.727223
_symmetry_space_group_name_H-M "P -1"
_symmetry_group_IT_number 2
_symmetry_cell_setting 'triclinic'
loop_
_space_group_symop_operation_xyz
x,y,z
-x,-y,-z
loop_
_atom_site_type_symbol
_atom_site_label
_atom_site_fract_x
_atom_site_fract_y
_atom_site_fract_z
Si Si1 0.213260 0.488905 0.229574
Si Si2 0.385614 0.196556 0.799047
Si Si3 0.276056 0.714771 0.829061
Si Si4 0.437485 0.789901 0.118393
Si Si5 0.092926 0.921148 0.162951
Si Si6 0.974968 0.426815 0.675015
O O1 0.245662 0.655685 0.510345
O O2 0.141602 0.650201 0.089187
O O3 0.140601 0.468247 0.331347
O O4 0.311295 0.256645 0.007357
O O5 0.332114 0.447967 0.796087
O O6 0.486894 0.165285 0.923459
O O7 0.405732 0.969662 0.469123
O O8 0.344826 0.815176 0.944799
O O9 0.178470 0.903038 0.056081
O O10 0.500000 0.500000 0.000000
O O11 0.047365 0.129161 0.495793
O O12 0.000000 0.000000 0.000000
O O13 0.000000 0.500000 0.500000
O O14 0.000000 0.500000 0.000000
#
# Coordination Sequence:
#
# PCOD9021952 Si02
#       6
#     2   2   2   2   2   2
#     4  11  24  43  67  98 136 189 237 292 358 425
#     4   9  21  42  66  98 137 177 229 294 351 434
#     4  10  22  38  67  98 137 180 230 289 357 418
#     4   9  19  42  69  96 134 180 227 290 361 429
#     4  11  23  45  67  93 140 192 237 292 354 427
#     4  12  28  43  67 103 143 189 243 300 358 423
#
# _framework density 24.158128000000001
#
# number of rings (size 3 to 8) (size 9 to 14) (size 15 to 20)
#    0.000    1.667    1.667    1.500    7.000    0.667 
#    0.000    7.500    0.000    0.000    0.000    0.000 
#    0.000    0.000    0.000    0.000    0.000    0.000 
#
# Total GULP energy -67116.709301 kJ/mol
# GULP energy per Si atom -5593.059108 kJ/mol
# Density = 2.410314 g / cm^3
# Si number density = 24.158128 Si / 1000 Ang^3
#
#
#
# Elastic Constant Matrix: (Units=GPa)
#
#
# Indices 1 2 3 4 5 6 
#
# 1 213.9750 73.1725 101.0139 6.7864 -7.4506 -26.2577
# 2 73.1725 74.5511 33.2838 6.5609 -3.3562 -0.0668
# 3 101.0139 33.2838 164.8537 29.5672 -1.6744 -9.4376
# 4 6.7864 6.5609 29.5672 42.2021 -9.8986 -2.3951
# 5 -7.4506 -3.3562 -1.6744 -9.8986 51.0960 0.5298
# 6 -26.2577 -0.0668 -9.4376 -2.3951 0.5298 37.3543
#
#
#
# Elastic Compliance Matrix: (Units=1/GPa)
#
#
# Indices 1 2 3 4 5 6 
#
# 1 0.010762 -0.008515 -0.005200 0.003965 0.001541 0.006468
# 2 -0.008515 0.021539 0.001096 -0.003161 -0.000342 -0.005868
# 3 -0.005200 0.001096 0.010173 -0.006941 -0.001682 -0.001505
# 4 0.003965 -0.003161 -0.006941 0.029963 0.005918 0.002865
# 5 0.001541 -0.000342 -0.001682 0.005918 0.020857 0.000741
# 6 0.006468 -0.005868 -0.001505 0.002865 0.000741 0.031100
#
#
# Mechanical properties :
#
#
# Convention : Reuss Voigt Hill
#
# Bulk Modulus (GPa) = 58.01865 96.48002 77.24933
# Shear Modulus (GPa) = 32.17970 42.52445 37.35208
#
# Velocity S-wave (km/s) = 3.65368 4.20009 3.93638
# Velocity P-wave (km/s) = 6.47051 7.97149 7.25989
#
# Compressibility (1/GPa) = 0.01723584
#
# Stress axis : x y z
#
# Youngs Moduli (GPa) = 92.92004 46.42703 98.30010
#
# Poissons Ratio (x) = 0.39532 0.51120
# Poissons Ratio (y) = 0.79121 -0.10776
# Poissons Ratio (z) = 0.48322 -0.05090
#
# Static dielectric constant tensor:
#      x y z
#    x 1.993610 0.080540 0.066740 
#    y 0.080540 2.103170 0.096670 
#    z 0.066740 0.096670 2.028150 
# 
# From -- ./inp_files/45607.got.cif
#   From: 2010.05.17/outbox.cif.g08.bks.cpg/sg2_23_cif.got.tgz:45607.got - 2010.06.03 11:33:40.
