data_PCOD9021105
_publ_section_title
;
Structure prediction by ZEFSAII (Michael W. Deem and Ramdas Pophale) SiO2 
 PCOD9021105
Probable space group: P -1
;
_chemical_formula_sum "Si O2"
_cell_formula_units_Z 14
_cell_length_a 11.650968
_cell_length_b 12.176441
_cell_length_c 8.946815
_cell_angle_alpha 125.643893
_cell_angle_beta 129.854992
_cell_angle_gamma 52.663365
_cell_volume 734.503684
_symmetry_space_group_name_H-M "P -1"
_symmetry_group_IT_number 2
_symmetry_cell_setting 'triclinic'
loop_
_space_group_symop_operation_xyz
x,y,z
-x,-y,-z
loop_
_atom_site_type_symbol
_atom_site_label
_atom_site_fract_x
_atom_site_fract_y
_atom_site_fract_z
Si Si1 0.108363 0.664722 0.447231
Si Si2 0.345336 0.486885 0.281899
Si Si3 0.199499 0.829832 0.916662
Si Si4 0.175050 0.400028 0.508367
Si Si5 0.938134 0.823187 0.916764
Si Si6 0.119030 0.330768 0.961909
Si Si7 0.556673 0.610412 0.045978
O O1 0.208968 0.632454 0.351457
O O2 0.131939 0.778229 0.671040
O O3 0.189091 0.507683 0.474135
O O4 0.924151 0.710652 0.272448
O O5 0.500000 0.500000 0.500000
O O6 0.289089 0.348120 0.149459
O O7 0.374641 0.468056 0.114969
O O8 0.112416 0.784129 0.949366
O O9 0.392669 0.752279 0.007312
O O10 0.142887 0.003115 0.011683
O O11 0.160435 0.253094 0.322305
O O12 0.306756 0.369280 0.721779
O O13 0.000000 0.500000 0.500000
O O14 0.928154 0.759422 0.021617
O O15 0.000000 0.500000 0.000000
O O16 0.500000 0.500000 0.000000
#
# Coordination Sequence:
#
# PCOD9021105 Si02
#       7
#     2   2   2   2   2   2   2
#     4  11  21  38  64  95 126 163 219 264 320 378
#     4  11  21  37  62  98 124 159 215 275 313 374
#     4  11  25  43  63  97 133 175 211 275 326 385
#     4  12  21  39  69  96 125 170 220 270 313 391
#     4  11  24  44  66  92 135 171 220 270 324 385
#     4  10  22  37  67  94 120 172 218 264 319 383
#     4  12  24  38  67  98 127 169 220 266 326 383
#
# _framework density 19.060490000000001
#
# number of rings (size 3 to 8) (size 9 to 14) (size 15 to 20)
#    0.000    0.857    7.143    0.857    6.000    1.143 
#    0.000    0.714    0.000    0.000    0.000    0.000 
#    0.000    0.000    0.000    0.000    0.000    0.000 
#
# Total GULP energy -77942.179611 kJ/mol
# GULP energy per Si atom -5567.298544 kJ/mol
# Density = 1.901711 g / cm^3
# Si number density = 19.060490 Si / 1000 Ang^3
#
#
#
# Elastic Constant Matrix: (Units=GPa)
#
#
# Indices 1 2 3 4 5 6 
#
# 1 98.0730 36.9414 50.1497 -1.0086 -11.4409 11.0954
# 2 36.9414 69.5148 64.4334 10.6897 -0.0328 6.4314
# 3 50.1497 64.4334 199.4567 -6.3115 12.2729 -0.8435
# 4 -1.0086 10.6897 -6.3115 36.4570 -4.1014 1.2170
# 5 -11.4409 -0.0328 12.2729 -4.1014 36.1056 -1.1275
# 6 11.0954 6.4314 -0.8435 1.2170 -1.1275 30.4791
#
#
#
# Elastic Compliance Matrix: (Units=1/GPa)
#
#
# Indices 1 2 3 4 5 6 
#
# 1 0.014567 -0.005859 -0.002043 0.002516 0.005465 -0.004021
# 2 -0.005859 0.025746 -0.007106 -0.008895 -0.000527 -0.003161
# 3 -0.002043 -0.007106 0.008113 0.003020 -0.002999 0.002236
# 4 0.002516 -0.008895 0.003020 0.031002 0.003282 -0.000072
# 5 0.005465 -0.000527 -0.002999 0.003282 0.030790 -0.000953
# 6 -0.004021 -0.003161 0.002236 -0.000072 -0.000953 0.034970
#
#
# Mechanical properties :
#
#
# Convention : Reuss Voigt Hill
#
# Bulk Modulus (GPa) = 54.32626 74.45484 64.39055
# Shear Modulus (GPa) = 27.57231 34.97634 31.27432
#
# Velocity S-wave (km/s) = 3.80750 4.28836 4.05506
# Velocity P-wave (km/s) = 6.92050 7.97917 7.46862
#
# Compressibility (1/GPa) = 0.01840730
#
# Stress axis : x y z
#
# Youngs Moduli (GPa) = 68.64901 38.84077 123.26546
#
# Poissons Ratio (x) = 0.22758 0.25188
# Poissons Ratio (y) = 0.40224 0.87597
# Poissons Ratio (z) = 0.14028 0.27602
#
# Static dielectric constant tensor:
#      x y z
#    x 1.833690 -0.018880 0.056430 
#    y -0.018880 1.631530 0.009060 
#    z 0.056430 0.009060 1.635410 
# 
# From -- ./inp_files/260789.got.cif
#   From: 2010.05.17/outbox.cif.g08.bks.cpg/sg2_131_cif.got.tgz:260789.got - 2010.06.03 11:33:40.
