data_PCOD9021232
_publ_section_title
;
Structure prediction by ZEFSAII (Michael W. Deem and Ramdas Pophale) SiO2 
 PCOD9021232
Probable space group: P -1
;
_chemical_formula_sum "Si O2"
_cell_formula_units_Z 14
_cell_length_a 9.242504
_cell_length_b 19.689844
_cell_length_c 12.488180
_cell_angle_alpha 149.854461
_cell_angle_beta 141.434562
_cell_angle_gamma 50.716893
_cell_volume 704.764866
_symmetry_space_group_name_H-M "P -1"
_symmetry_group_IT_number 2
_symmetry_cell_setting 'triclinic'
loop_
_space_group_symop_operation_xyz
x,y,z
-x,-y,-z
loop_
_atom_site_type_symbol
_atom_site_label
_atom_site_fract_x
_atom_site_fract_y
_atom_site_fract_z
Si Si1 0.358717 0.354844 0.253817
Si Si2 0.689126 0.170916 0.922428
Si Si3 0.094882 0.361089 0.332823
Si Si4 0.720447 0.853037 0.496584
Si Si5 0.485710 0.357851 0.732386
Si Si6 0.824427 0.274485 0.375958
Si Si7 0.979663 0.437515 0.022990
O O1 0.500000 0.500000 0.500000
O O2 0.224752 0.367399 0.303700
O O3 0.564485 0.260996 0.258568
O O4 0.165083 0.334562 0.019883
O O5 0.429620 0.184567 0.749238
O O6 0.713006 0.012104 0.730335
O O7 0.764142 0.246770 0.179357
O O8 0.876814 0.241687 0.042631
O O9 0.277874 0.339553 0.501603
O O10 0.000000 0.500000 0.500000
O O11 0.579912 0.762718 0.384957
O O12 0.986309 0.819943 0.604125
O O13 0.500000 0.500000 0.000000
O O14 0.725452 0.367737 0.817286
O O15 0.953895 0.427126 0.680729
O O16 0.000000 0.500000 0.000000
#
# Coordination Sequence:
#
# PCOD9021232 Si02
#       7
#     2   2   2   2   2   2   2
#     4  10  22  38  58  92 127 164 207 259 323 373
#     4  11  24  43  68  93 130 168 221 262 323 382
#     4  12  23  39  65  94 127 166 213 271 315 380
#     4  11  24  41  69  96 126 171 217 268 317 385
#     4  12  21  37  64  94 124 162 217 261 316 377
#     4  11  22  41  64  91 132 169 207 264 322 378
#     4  11  23  38  62  95 132 165 211 267 321 381
#
# _framework density 19.864782000000002
#
# number of rings (size 3 to 8) (size 9 to 14) (size 15 to 20)
#    0.000    0.857    2.857    6.429    2.000    0.000 
#    0.000    0.714    3.143    2.571    0.000    0.000 
#    0.000    0.000    0.000    0.000    0.000    0.000 
#
# Total GULP energy -78166.692056 kJ/mol
# GULP energy per Si atom -5583.335147 kJ/mol
# Density = 1.981957 g / cm^3
# Si number density = 19.864782 Si / 1000 Ang^3
#
#
#
# Elastic Constant Matrix: (Units=GPa)
#
#
# Indices 1 2 3 4 5 6 
#
# 1 143.3991 65.5166 40.3144 -0.1393 13.7903 -8.9670
# 2 65.5166 148.8586 41.7489 -24.9327 5.2121 -8.1647
# 3 40.3144 41.7489 78.8271 -10.8680 1.8458 11.6651
# 4 -0.1393 -24.9327 -10.8680 41.4738 8.7315 15.0662
# 5 13.7903 5.2121 1.8458 8.7315 27.2232 -9.3152
# 6 -8.9670 -8.1647 11.6651 15.0662 -9.3152 28.0164
#
#
#
# Elastic Compliance Matrix: (Units=1/GPa)
#
#
# Indices 1 2 3 4 5 6 
#
# 1 0.010878 -0.003917 -0.005907 -0.007458 0.001181 0.009203
# 2 -0.003917 0.010153 -0.002067 0.006853 -0.002709 -0.002020
# 3 -0.005907 -0.002067 0.022975 0.016230 -0.011835 -0.024722
# 4 -0.007458 0.006853 0.016230 0.057570 -0.034008 -0.049414
# 5 0.001181 -0.002709 -0.011835 -0.034008 0.063378 0.043877
# 6 0.009203 -0.002020 -0.024722 -0.049414 0.043877 0.089505
#
#
# Mechanical properties :
#
#
# Convention : Reuss Voigt Hill
#
# Bulk Modulus (GPa) = 49.44292 74.02719 61.73506
# Shear Modulus (GPa) = 17.54501 34.24302 25.89402
#
# Velocity S-wave (km/s) = 2.97513 4.15638 3.61434
# Velocity P-wave (km/s) = 6.06182 7.77048 6.96872
#
# Compressibility (1/GPa) = 0.02022534
#
# Stress axis : x y z
#
# Youngs Moduli (GPa) = 91.92571 98.48957 43.52603
#
# Poissons Ratio (x) = 0.38578 0.25709
# Poissons Ratio (y) = 0.36007 0.08997
# Poissons Ratio (z) = 0.54297 0.20358
#
# Static dielectric constant tensor:
#      x y z
#    x 1.750980 -0.029870 0.008270 
#    y -0.029870 1.772350 -0.031620 
#    z 0.008270 -0.031620 1.693710 
# 
# From -- ./inp_files/255774.got.cif
#   From: 2010.05.17/outbox.cif.g08.bks.cpg/sg2_128_cif.got.tgz:255774.got - 2010.06.03 11:33:40.
