data_PCOD9021568
_publ_section_title
;
Structure prediction by ZEFSAII (Michael W. Deem and Ramdas Pophale) SiO2 
 PCOD9021568
Probable space group: P -1
;
_chemical_formula_sum "Si O2"
_cell_formula_units_Z 16
_cell_length_a 11.742442
_cell_length_b 12.126208
_cell_length_c 10.790444
_cell_angle_alpha 52.188340
_cell_angle_beta 94.386968
_cell_angle_gamma 53.163287
_cell_volume 691.618002
_symmetry_space_group_name_H-M "P -1"
_symmetry_group_IT_number 2
_symmetry_cell_setting 'triclinic'
loop_
_space_group_symop_operation_xyz
x,y,z
-x,-y,-z
loop_
_atom_site_type_symbol
_atom_site_label
_atom_site_fract_x
_atom_site_fract_y
_atom_site_fract_z
Si Si1 0.810551 0.589255 0.787402
Si Si2 0.836128 0.374826 0.305775
Si Si3 0.923905 0.376195 0.687744
Si Si4 0.104304 0.114595 0.266896
Si Si5 0.263379 0.262616 0.802883
Si Si6 0.386879 0.926214 0.613304
Si Si7 0.432767 0.661624 0.998282
Si Si8 0.014165 0.026750 0.785471
O O1 0.812995 0.500555 0.722189
O O2 0.616654 0.739971 0.746990
O O3 0.763460 0.793191 0.601630
O O4 0.016964 0.343953 0.041635
O O5 0.943741 0.242284 0.274668
O O6 0.798147 0.574158 0.200631
O O7 0.966209 0.170497 0.562091
O O8 0.624092 0.510280 0.196924
O O9 0.803044 0.582452 0.430386
O O10 0.134543 0.249302 0.803766
O O11 0.949947 0.189737 0.779877
O O12 0.092779 0.010496 0.230635
O O13 0.312518 0.913524 0.496015
O O14 0.500000 0.000000 0.000000
O O15 0.364316 0.872187 0.778507
O O16 0.252780 0.771455 0.979831
O O17 0.500000 0.500000 0.000000
#
# Coordination Sequence:
#
# PCOD9021568 Si02
#       8
#     2   2   2   2   2   2   2   2
#     4  11  25  42  59  90 125 168 204 246 300 377
#     4  11  21  35  62  94 119 154 204 255 312 353
#     4  10  24  41  59  89 125 164 202 246 310 361
#     4  12  22  40  62  91 121 162 206 249 313 359
#     4  10  22  38  63  89 122 159 203 255 301 366
#     4  11  24  39  63  90 124 160 204 258 301 357
#     4  12  21  37  63  95 125 155 198 257 315 359
#     4  11  23  40  63  92 125 157 203 264 304 364
#
# _framework density 23.134157999999999
#
# number of rings (size 3 to 8) (size 9 to 14) (size 15 to 20)
#    0.000    1.000    3.750    3.000    5.250    1.500 
#    0.000    0.625    0.000    0.000    0.000    0.000 
#    0.000    0.000    0.000    0.000    0.000    0.000 
#
# Total GULP energy -89516.457143 kJ/mol
# GULP energy per Si atom -5594.778571 kJ/mol
# Density = 2.308150 g / cm^3
# Si number density = 23.134158 Si / 1000 Ang^3
#
#
#
# Elastic Constant Matrix: (Units=GPa)
#
#
# Indices 1 2 3 4 5 6 
#
# 1 42.8887 -2.7870 12.3958 -16.3810 8.5552 13.6482
# 2 -2.7870 78.7622 -4.8941 -5.0066 -5.4924 26.7182
# 3 12.3958 -4.8941 64.2510 -13.8401 16.1022 -6.2487
# 4 -16.3810 -5.0066 -13.8401 22.1119 4.0594 -2.6712
# 5 8.5552 -5.4924 16.1022 4.0594 42.4833 -3.3062
# 6 13.6482 26.7182 -6.2487 -2.6712 -3.3062 35.3773
#
#
#
# Elastic Compliance Matrix: (Units=1/GPa)
#
#
# Indices 1 2 3 4 5 6 
#
# 1 0.051303 0.012788 0.001010 0.040977 -0.015124 -0.027591
# 2 0.012788 0.020428 0.000647 0.012675 -0.002913 -0.019562
# 3 0.001010 0.000647 0.021774 0.016707 -0.009710 0.003322
# 4 0.040977 0.012675 0.016707 0.090995 -0.023019 -0.017711
# 5 -0.015124 -0.002913 -0.009710 -0.023019 0.032682 0.007635
# 6 -0.027591 -0.019562 0.003322 -0.017711 0.007635 0.053648
#
#
# Mechanical properties :
#
#
# Convention : Reuss Voigt Hill
#
# Bulk Modulus (GPa) = 8.17037 21.70348 14.93693
# Shear Modulus (GPa) = 17.68419 32.07364 24.87892
#
# Velocity S-wave (km/s) = 2.76781 3.72750 3.28292
# Velocity P-wave (km/s) = 3.70861 5.28466 4.56516
#
# Compressibility (1/GPa) = 0.12239343
#
# Stress axis : x y z
#
# Youngs Moduli (GPa) = 19.49202 48.95323 45.92660
#
# Poissons Ratio (x) = -0.62600 -0.04638
# Poissons Ratio (y) = -0.24926 -0.02970
# Poissons Ratio (z) = -0.01969 -0.03166
#
# Static dielectric constant tensor:
#      x y z
#    x 1.910250 0.057030 -0.034870 
#    y 0.057030 1.857500 -0.004540 
#    z -0.034870 -0.004540 1.862560 
# 
# From -- ./inp_files/427587.got.cif
#   From: 2010.05.17/outbox.cif.g08.bks.cpg/sg2_214_cif.got.tgz:427587.got - 2010.06.03 11:33:40.
