data_PCOD9021721
_publ_section_title
;
Structure prediction by ZEFSAII (Michael W. Deem and Ramdas Pophale) SiO2 
 PCOD9021721
Probable space group: P -1
;
_chemical_formula_sum "Si O2"
_cell_formula_units_Z 13
_cell_length_a 11.839222
_cell_length_b 6.188166
_cell_length_c 11.263404
_cell_angle_alpha 108.499677
_cell_angle_beta 127.501303
_cell_angle_gamma 55.726446
_cell_volume 540.570895
_symmetry_space_group_name_H-M "P -1"
_symmetry_group_IT_number 2
_symmetry_cell_setting 'triclinic'
loop_
_space_group_symop_operation_xyz
x,y,z
-x,-y,-z
loop_
_atom_site_type_symbol
_atom_site_label
_atom_site_fract_x
_atom_site_fract_y
_atom_site_fract_z
Si Si1 0.610945 0.062733 0.497005
Si Si2 0.773567 0.677473 0.324974
Si Si3 0.297935 0.545938 0.302809
Si Si4 0.251737 0.795748 0.858407
Si Si5 0.982425 0.368022 0.709380
Si Si6 0.500000 0.000000 0.000000
Si Si7 0.885946 0.296142 0.017264
O O1 0.480890 0.308561 0.378169
O O2 0.703626 0.179652 0.652954
O O3 0.500000 0.000000 0.500000
O O4 0.725087 0.830573 0.443712
O O5 0.765758 0.409245 0.273920
O O6 0.942991 0.646148 0.375094
O O7 0.637535 0.856401 0.170504
O O8 0.205567 0.530597 0.125186
O O9 0.202090 0.550653 0.361578
O O10 0.407327 0.832941 0.948438
O O11 0.092905 0.081208 0.787390
O O12 0.241040 0.702113 0.968016
O O13 0.018947 0.575321 0.836407
O O14 0.000000 0.000000 0.000000
#
# Coordination Sequence:
#
# PCOD9021721 Si02
#       7
#     2   2   2   2   2   1   2
#     4  11  29  47  68  97 141 200 228 277 340 419
#     4  10  24  43  67 101 137 179 234 284 352 405
#     4  11  26  46  68 102 141 182 240 279 344 418
#     4  10  22  39  64 108 134 177 218 289 359 398
#     4  10  23  43  71 105 133 173 230 297 349 399
#     4  10  22  38  64  96 138 174 224 286 340 406
#     4  11  23  39  74 107 138 174 228 297 356 401
#
# _framework density 24.048646999999999
#
# number of rings (size 3 to 8) (size 9 to 14) (size 15 to 20)
#    0.000    1.538    1.538    0.923   10.769    5.538 
#    0.000    1.538    0.000    0.000    0.000    0.000 
#    0.000    0.000    0.000    0.000    0.000    0.000 
#
# Total GULP energy -72555.370252 kJ/mol
# GULP energy per Si atom -5581.182327 kJ/mol
# Density = 2.399391 g / cm^3
# Si number density = 24.048647 Si / 1000 Ang^3
#
#
#
# Elastic Constant Matrix: (Units=GPa)
#
#
# Indices 1 2 3 4 5 6 
#
# 1 161.5622 34.2586 26.5607 35.8469 4.7753 15.5207
# 2 34.2586 93.3494 13.9860 18.2115 -11.8864 -11.6018
# 3 26.5607 13.9860 35.8456 7.1017 -10.0418 -5.3250
# 4 35.8469 18.2115 7.1017 45.7288 -2.4996 2.9891
# 5 4.7753 -11.8864 -10.0418 -2.4996 34.8582 4.6220
# 6 15.5207 -11.6018 -5.3250 2.9891 4.6220 45.7890
#
#
#
# Elastic Compliance Matrix: (Units=1/GPa)
#
#
# Indices 1 2 3 4 5 6 
#
# 1 0.009483 -0.002403 -0.006691 -0.005401 -0.003922 -0.003853
# 2 -0.002403 0.013382 -0.001137 -0.003316 0.003809 0.003905
# 3 -0.006691 -0.001137 0.036977 0.000189 0.010504 0.005207
# 4 -0.005401 -0.003316 0.000189 0.027553 0.001767 -0.000965
# 5 -0.003922 0.003809 0.010504 0.001767 0.033676 0.000002
# 6 -0.003853 0.003905 0.005207 -0.000965 0.000002 0.024803
#
#
# Mechanical properties :
#
#
# Convention : Reuss Voigt Hill
#
# Bulk Modulus (GPa) = 25.39191 48.92977 37.16084
# Shear Modulus (GPa) = 27.86101 39.67197 33.76649
#
# Velocity S-wave (km/s) = 3.40741 4.06600 3.75119
# Velocity P-wave (km/s) = 5.10510 6.51410 5.85216
#
# Compressibility (1/GPa) = 0.03938262
#
# Stress axis : x y z
#
# Youngs Moduli (GPa) = 105.44863 74.72829 27.04351
#
# Poissons Ratio (x) = 0.17954 0.18094
# Poissons Ratio (y) = 0.25334 0.03074
# Poissons Ratio (z) = 0.70552 0.08495
#
# Static dielectric constant tensor:
#      x y z
#    x 1.898040 -0.020420 -0.022020 
#    y -0.020420 1.959440 -0.036120 
#    z -0.022020 -0.036120 1.908430 
# 
# From -- ./inp_files/63142.got.cif
#   From: 2010.05.17/outbox.cif.g08.bks.cpg/sg2_32_cif.got.tgz:63142.got - 2010.06.03 11:33:40.
