data_PCOD9021642
_publ_section_title
;
Structure prediction by ZEFSAII (Michael W. Deem and Ramdas Pophale) SiO2 
 PCOD9021642
Probable space group: P -1
;
_chemical_formula_sum "Si O2"
_cell_formula_units_Z 15
_cell_length_a 20.706795
_cell_length_b 10.090185
_cell_length_c 8.154871
_cell_angle_alpha 135.438333
_cell_angle_beta 127.114151
_cell_angle_gamma 35.172111
_cell_volume 687.745859
_symmetry_space_group_name_H-M "P -1"
_symmetry_group_IT_number 2
_symmetry_cell_setting 'triclinic'
loop_
_space_group_symop_operation_xyz
x,y,z
-x,-y,-z
loop_
_atom_site_type_symbol
_atom_site_label
_atom_site_fract_x
_atom_site_fract_y
_atom_site_fract_z
Si Si1 0.394444 0.060714 0.684798
Si Si2 0.260212 0.583293 0.759168
Si Si3 0.199698 0.257419 0.087212
Si Si4 0.760488 0.004300 0.728808
Si Si5 0.654403 0.669139 0.806708
Si Si6 0.035025 0.729748 0.454004
Si Si7 0.211636 0.845441 0.583515
Si Si8 0.000000 0.500000 0.500000
O O1 0.348639 0.278487 0.668546
O O2 0.338426 0.948326 0.471471
O O3 0.527911 0.838832 0.703866
O O4 0.350386 0.221551 0.928905
O O5 0.276572 0.660667 0.679500
O O6 0.136688 0.689622 0.647382
O O7 0.261880 0.742982 0.038677
O O8 0.281672 0.288962 0.179101
O O9 0.080917 0.549062 0.202522
O O10 0.229111 0.116727 0.183512
O O11 0.203118 0.083391 0.807023
O O12 0.875684 0.792083 0.619554
O O13 0.722460 0.362260 0.643942
O O14 0.007950 0.623927 0.461096
O O15 0.083260 0.980486 0.507152
#
# Coordination Sequence:
#
# PCOD9021642 Si02
#       8
#     2   2   2   2   2   2   2   1
#     4  11  25  47  64  95 135 168 224 275 324 381
#     4  11  23  42  68  95 131 175 217 264 323 392
#     4  10  22  43  66  97 133 171 214 267 326 382
#     4  10  23  42  65  97 131 171 218 266 322 393
#     4  11  26  43  70  94 127 178 218 275 327 383
#     4  11  22  42  66 102 138 169 212 269 325 394
#     4  11  24  41  68 103 129 173 221 264 326 390
#     4  10  22  38  64 100 132 174 206 266 332 380
#
# _framework density 21.810383000000002
#
# number of rings (size 3 to 8) (size 9 to 14) (size 15 to 20)
#    0.000    1.333    4.000    0.800    3.733    4.800 
#    0.000    5.333    0.000    0.000    0.000    0.000 
#    0.000    0.000    0.000    0.000    0.000    0.000 
#
# Total GULP energy -83563.933745 kJ/mol
# GULP energy per Si atom -5570.928916 kJ/mol
# Density = 2.176074 g / cm^3
# Si number density = 21.810383 Si / 1000 Ang^3
#
#
#
# Elastic Constant Matrix: (Units=GPa)
#
#
# Indices 1 2 3 4 5 6 
#
# 1 56.7349 -13.7990 25.4258 16.1329 -5.6202 0.5616
# 2 -13.7990 55.3605 42.8085 10.6938 7.3314 3.0686
# 3 25.4258 42.8085 144.0312 13.1854 27.9302 -15.4048
# 4 16.1329 10.6938 13.1854 29.4198 -1.8774 -3.8959
# 5 -5.6202 7.3314 27.9302 -1.8774 36.1225 1.7265
# 6 0.5616 3.0686 -15.4048 -3.8959 1.7265 23.0998
#
#
#
# Elastic Compliance Matrix: (Units=1/GPa)
#
#
# Indices 1 2 3 4 5 6 
#
# 1 0.044728 0.031922 -0.020498 -0.029250 0.016010 -0.025127
# 2 0.031922 0.049291 -0.023272 -0.027947 0.012868 -0.028519
# 3 -0.020498 -0.023272 0.021704 0.011784 -0.015649 0.021221
# 4 -0.029250 -0.027947 0.011784 0.057490 -0.006074 0.022432
# 5 0.016010 0.012868 -0.015649 -0.006074 0.040139 -0.016559
# 6 -0.025127 -0.028519 0.021221 0.022432 -0.016559 0.066862
#
#
# Mechanical properties :
#
#
# Convention : Reuss Voigt Hill
#
# Bulk Modulus (GPa) = 10.86649 40.55523 25.71086
# Shear Modulus (GPa) = 14.94380 31.17452 23.05916
#
# Velocity S-wave (km/s) = 2.62041 3.78477 3.25507
# Velocity P-wave (km/s) = 3.76145 6.14281 5.09326
#
# Compressibility (1/GPa) = 0.09202601
#
# Stress axis : x y z
#
# Youngs Moduli (GPa) = 22.35736 20.28768 46.07460
#
# Poissons Ratio (x) = -0.64762 0.94444
# Poissons Ratio (y) = -0.71369 1.07226
# Poissons Ratio (z) = 0.45828 0.47214
#
# Static dielectric constant tensor:
#      x y z
#    x 1.806260 0.048150 0.002680 
#    y 0.048150 1.805090 0.004950 
#    z 0.002680 0.004950 1.849610 
# 
# From -- ./inp_files/345721.got.cif
#   From: 2010.05.17/outbox.cif.g08.bks.cpg/sg2_173_cif.got.tgz:345721.got - 2010.06.03 11:33:40.
