data_PCOD9021982
_publ_section_title
;
Structure prediction by ZEFSAII (Michael W. Deem and Ramdas Pophale) SiO2 
 PCOD9021982
Probable space group: P -1
;
_chemical_formula_sum "Si O2"
_cell_formula_units_Z 13
_cell_length_a 11.909951
_cell_length_b 9.732701
_cell_length_c 15.339897
_cell_angle_alpha 28.276477
_cell_angle_beta 138.890392
_cell_angle_gamma 133.681863
_cell_volume 551.746255
_symmetry_space_group_name_H-M "P -1"
_symmetry_group_IT_number 2
_symmetry_cell_setting 'triclinic'
loop_
_space_group_symop_operation_xyz
x,y,z
-x,-y,-z
loop_
_atom_site_type_symbol
_atom_site_label
_atom_site_fract_x
_atom_site_fract_y
_atom_site_fract_z
Si Si1 0.604281 0.731670 0.231820
Si Si2 0.696906 0.258064 0.418739
Si Si3 0.347928 0.271841 0.423312
Si Si4 0.090155 0.357063 0.806801
Si Si5 0.132247 0.150940 0.117877
Si Si6 0.151576 0.210870 0.513347
Si Si7 0.000000 0.500000 0.000000
O O1 0.622088 0.531187 0.269181
O O2 0.497939 0.520494 0.354824
O O3 0.779149 0.861305 0.309297
O O4 0.500000 0.000000 0.000000
O O5 0.840315 0.405374 0.355027
O O6 0.600051 0.017416 0.434328
O O7 0.762567 0.065567 0.643399
O O8 0.301387 0.213981 0.528501
O O9 0.172894 0.372648 0.221144
O O10 0.925609 0.483065 0.684955
O O11 0.209576 0.288176 0.996706
O O12 0.032810 0.061505 0.888892
O O13 0.074201 0.400166 0.006263
O O14 0.000000 0.000000 0.500000
#
# Coordination Sequence:
#
# PCOD9021982 Si02
#       7
#     2   2   2   2   2   2   1
#     4  12  30  47  73 108 151 198 248 307 378 441
#     4  11  24  46  72 104 149 198 247 298 379 441
#     4  11  25  47  74 105 155 191 241 313 372 442
#     4  11  22  40  71 108 141 189 245 310 358 447
#     4  10  22  38  68 110 144 182 245 306 367 430
#     4  12  25  47  75 108 143 191 252 304 370 441
#     4  10  22  38  76 104 138 190 246 294 368 440
#
# _framework density 23.561553
#
# number of rings (size 3 to 8) (size 9 to 14) (size 15 to 20)
#    0.000    0.923    4.615    1.385    4.308    0.000 
#    2.769    0.769    0.000    0.000    0.000    0.000 
#    0.000    0.000    0.000    0.000    0.000    0.000 
#
# Total GULP energy -72393.533980 kJ/mol
# GULP energy per Si atom -5568.733383 kJ/mol
# Density = 2.350793 g / cm^3
# Si number density = 23.561553 Si / 1000 Ang^3
#
#
#
# Elastic Constant Matrix: (Units=GPa)
#
#
# Indices 1 2 3 4 5 6 
#
# 1 104.8471 35.3470 21.1868 -6.5112 -1.2569 -23.9012
# 2 35.3470 89.5036 26.0667 -13.1315 13.6294 -11.3997
# 3 21.1868 26.0667 100.8052 -5.1559 16.5812 -21.6589
# 4 -6.5112 -13.1315 -5.1559 24.9725 -11.2817 0.0648
# 5 -1.2569 13.6294 16.5812 -11.2817 21.4096 -0.9758
# 6 -23.9012 -11.3997 -21.6589 0.0648 -0.9758 29.1555
#
#
#
# Elastic Compliance Matrix: (Units=1/GPa)
#
#
# Indices 1 2 3 4 5 6 
#
# 1 0.013576 -0.004432 -0.000632 0.004067 0.006668 0.009141
# 2 -0.004432 0.014998 -0.001445 0.003312 -0.006902 0.000920
# 3 -0.000632 -0.001445 0.014044 -0.003121 -0.011229 0.008981
# 4 0.004067 0.003312 -0.003121 0.055787 0.030090 0.003194
# 5 0.006668 -0.006902 -0.011229 0.030090 0.075904 -0.003101
# 6 0.009141 0.000920 0.008981 0.003194 -0.003101 0.048713
#
#
# Mechanical properties :
#
#
# Convention : Reuss Voigt Hill
#
# Bulk Modulus (GPa) = 33.78301 51.15075 42.46688
# Shear Modulus (GPa) = 20.33313 29.27787 24.80550
#
# Velocity S-wave (km/s) = 2.94084 3.52889 3.24820
# Velocity P-wave (km/s) = 5.08927 6.19360 5.66839
#
# Compressibility (1/GPa) = 0.02960067
#
# Stress axis : x y z
#
# Youngs Moduli (GPa) = 73.66057 66.67707 71.20728
#
# Poissons Ratio (x) = 0.29549 0.04500
# Poissons Ratio (y) = 0.32644 0.10286
# Poissons Ratio (z) = 0.04655 0.09632
#
# Static dielectric constant tensor:
#      x y z
#    x 1.908440 -0.000440 -0.051940 
#    y -0.000440 1.947200 0.059960 
#    z -0.051940 0.059960 1.956100 
# 
# From -- ./inp_files/183687.got.cif
#   From: 2010.05.17/outbox.cif.g08.bks.cpg/sg2_92_cif.got.tgz:183687.got - 2010.06.03 11:33:40.
