data_PCOD9021354
_publ_section_title
;
Structure prediction by ZEFSAII (Michael W. Deem and Ramdas Pophale) SiO2 
 PCOD9021354
Probable space group: P -1
;
_chemical_formula_sum "Si O2"
_cell_formula_units_Z 15
_cell_length_a 9.022082
_cell_length_b 9.026710
_cell_length_c 13.553478
_cell_angle_alpha 61.591991
_cell_angle_beta 127.807557
_cell_angle_gamma 80.834404
_cell_volume 583.653961
_symmetry_space_group_name_H-M "P -1"
_symmetry_group_IT_number 2
_symmetry_cell_setting 'triclinic'
loop_
_space_group_symop_operation_xyz
x,y,z
-x,-y,-z
loop_
_atom_site_type_symbol
_atom_site_label
_atom_site_fract_x
_atom_site_fract_y
_atom_site_fract_z
Si Si1 0.234592 0.156644 0.154897
Si Si2 0.599651 0.758851 0.146536
Si Si3 0.541533 0.454799 0.234832
Si Si4 0.957314 0.768601 0.393385
Si Si5 0.230138 0.582494 0.357285
Si Si6 0.489060 0.764147 0.889048
Si Si7 0.000000 0.000000 0.000000
Si Si8 0.756929 0.637056 0.733982
O O1 0.455785 0.105424 0.197833
O O2 0.271112 0.170653 0.281809
O O3 0.167266 0.008875 0.146782
O O4 0.016336 0.410959 0.950191
O O5 0.420909 0.710664 0.125840
O O6 0.778983 0.709446 0.324257
O O7 0.657471 0.661359 0.088694
O O8 0.500000 0.000000 0.000000
O O9 0.827970 0.336820 0.404671
O O10 0.488204 0.405966 0.121979
O O11 0.445030 0.374609 0.298275
O O12 0.100609 0.674549 0.379030
O O13 0.786113 0.034326 0.249009
O O14 0.500000 0.500000 0.500000
O O15 0.065498 0.786059 0.150752
O O16 0.248167 0.385839 0.377798
#
# Coordination Sequence:
#
# PCOD9021354 Si02
#       8
#     2   2   2   2   2   2   1   2
#     4   9  19  37  62  94 119 165 207 264 320 379
#     4  10  22  38  60  94 127 162 214 260 315 393
#     4  11  21  39  64  92 125 171 202 265 331 372
#     4  11  23  40  61  91 129 163 211 267 317 389
#     4  11  22  41  62  92 126 168 218 262 323 385
#     4  10  22  40  63  89 127 163 216 259 316 392
#     4  10  22  40  68  94 126 170 214 264 330 384
#     4   9  19  37  64  87 126 160 214 262 316 383
#
# _framework density 25.700161000000001
#
# number of rings (size 3 to 8) (size 9 to 14) (size 15 to 20)
#    0.000    1.867    1.333    2.800    0.000    8.533 
#    2.400    3.333    0.000    0.000    0.000    0.000 
#    0.000    0.000    0.000    0.000    0.000    0.000 
#
# Total GULP energy -83507.094194 kJ/mol
# GULP energy per Si atom -5567.139613 kJ/mol
# Density = 2.564167 g / cm^3
# Si number density = 25.700161 Si / 1000 Ang^3
#
#
#
# Elastic Constant Matrix: (Units=GPa)
#
#
# Indices 1 2 3 4 5 6 
#
# 1 53.9775 48.1216 2.3455 5.9032 7.2347 4.5019
# 2 48.1216 179.5629 26.5453 35.5287 4.7845 -5.2503
# 3 2.3455 26.5453 98.5179 16.6661 -8.6039 -9.1531
# 4 5.9032 35.5287 16.6661 37.1892 -0.1644 -8.3629
# 5 7.2347 4.7845 -8.6039 -0.1644 31.5393 3.6239
# 6 4.5019 -5.2503 -9.1531 -8.3629 3.6239 33.0908
#
#
#
# Elastic Compliance Matrix: (Units=1/GPa)
#
#
# Indices 1 2 3 4 5 6 
#
# 1 0.025687 -0.007304 0.000322 0.001926 -0.004271 -0.003610
# 2 -0.007304 0.009071 -0.001066 -0.006941 -0.000073 0.000392
# 3 0.000322 -0.001066 0.011490 -0.003791 0.003010 0.001677
# 4 0.001926 -0.006941 -0.003791 0.036465 -0.001028 0.006916
# 5 -0.004271 -0.000073 0.003010 -0.001028 0.033807 -0.002560
# 6 -0.003610 0.000392 0.001677 0.006916 -0.002560 0.033265
#
#
# Mechanical properties :
#
#
# Convention : Reuss Voigt Hill
#
# Bulk Modulus (GPa) = 33.16503 54.00924 43.58713
# Shear Modulus (GPa) = 28.42003 37.36692 32.89347
#
# Velocity S-wave (km/s) = 3.32901 3.81721 3.58144
# Velocity P-wave (km/s) = 5.26394 6.36309 5.83943
#
# Compressibility (1/GPa) = 0.03015224
#
# Stress axis : x y z
#
# Youngs Moduli (GPa) = 38.92987 110.24225 87.03159
#
# Poissons Ratio (x) = 0.80526 -0.02806
# Poissons Ratio (y) = 0.28436 0.09277
# Poissons Ratio (z) = -0.01255 0.11752
#
# Static dielectric constant tensor:
#      x y z
#    x 2.069090 0.009460 -0.033930 
#    y 0.009460 1.990320 -0.026490 
#    z -0.033930 -0.026490 2.124830 
# 
# From -- ./inp_files/469559.got.cif
#   From: 2010.05.17/outbox.cif.g08.bks.cpg/sg2_235_cif.got.tgz:469559.got - 2010.06.03 11:33:40.
