data_PCOD9021010
_publ_section_title
;
Structure prediction by ZEFSAII (Michael W. Deem and Ramdas Pophale) SiO2 
 PCOD9021010
Probable space group: P -1
;
_chemical_formula_sum "Si O2"
_cell_formula_units_Z 16
_cell_length_a 18.088283
_cell_length_b 14.589188
_cell_length_c 26.308717
_cell_angle_alpha 18.954438
_cell_angle_beta 158.127569
_cell_angle_gamma 159.163249
_cell_volume 741.439379
_symmetry_space_group_name_H-M "P -1"
_symmetry_group_IT_number 2
_symmetry_cell_setting 'triclinic'
loop_
_space_group_symop_operation_xyz
x,y,z
-x,-y,-z
loop_
_atom_site_type_symbol
_atom_site_label
_atom_site_fract_x
_atom_site_fract_y
_atom_site_fract_z
Si Si1 0.985817 0.672233 0.849425
Si Si2 0.703910 0.548094 0.258372
Si Si3 0.153933 0.569673 0.862803
Si Si4 0.340102 0.562317 0.085501
Si Si5 0.193479 0.003660 0.363651
Si Si6 0.536924 0.250115 0.726179
Si Si7 0.411750 0.350993 0.076421
Si Si8 0.660357 0.303996 0.662755
O O1 0.783790 0.407056 0.825828
O O2 0.900000 0.920260 0.683414
O O3 0.000000 0.500000 0.000000
O O4 0.227966 0.779360 0.920911
O O5 0.581737 0.671821 0.156276
O O6 0.673479 0.197780 0.437397
O O7 0.596158 0.523205 0.147715
O O8 0.967764 0.779749 0.306005
O O9 0.914334 0.548630 0.712507
O O10 0.352600 0.932730 0.802011
O O11 0.176662 0.399502 0.017736
O O12 0.205513 0.403432 0.935525
O O13 0.320042 0.323717 0.243310
O O14 0.541705 0.171160 0.711107
O O15 0.454715 0.516896 0.533457
O O16 0.348770 0.982847 0.225382
O O17 0.500000 0.500000 0.000000
#
# Coordination Sequence:
#
# PCOD9021010 Si02
#       8
#     2   2   2   2   2   2   2   2
#     4  10  22  39  65  89 125 161 205 262 310 364
#     4  10  23  41  65  89 126 170 208 258 314 376
#     4  11  23  40  67  93 124 167 211 260 315 377
#     4  10  22  37  64  90 125 155 211 257 312 363
#     4  10  22  43  63  90 127 166 210 258 317 373
#     4  11  23  42  63  92 130 162 210 257 319 377
#     4  11  23  39  66  93 128 162 214 256 313 376
#     4  11  23  42  64  89 129 169 200 265 317 371
#
# _framework density 21.579646
#
# number of rings (size 3 to 8) (size 9 to 14) (size 15 to 20)
#    0.000    1.500    2.500    1.875    8.750    0.500 
#    2.250    0.000    0.000    0.000    0.000    0.000 
#    0.000    0.000    0.000    0.000    0.000    0.000 
#
# Total GULP energy -89315.135281 kJ/mol
# GULP energy per Si atom -5582.195955 kJ/mol
# Density = 2.153053 g / cm^3
# Si number density = 21.579646 Si / 1000 Ang^3
#
#
#
# Elastic Constant Matrix: (Units=GPa)
#
#
# Indices 1 2 3 4 5 6 
#
# 1 99.4904 1.6100 33.8514 -3.5713 8.7530 2.8745
# 2 1.6100 43.0965 12.0911 4.7684 -2.5948 -6.9626
# 3 33.8514 12.0911 85.4951 9.5785 4.3616 7.2598
# 4 -3.5713 4.7684 9.5785 30.8368 -1.6343 6.5678
# 5 8.7530 -2.5948 4.3616 -1.6343 26.8612 0.3439
# 6 2.8745 -6.9626 7.2598 6.5678 0.3439 21.9048
#
#
#
# Elastic Compliance Matrix: (Units=1/GPa)
#
#
# Indices 1 2 3 4 5 6 
#
# 1 0.012113 0.000340 -0.004962 0.002876 -0.002925 -0.000654
# 2 0.000340 0.027044 -0.004514 -0.005046 0.002780 0.011517
# 3 -0.004962 -0.004514 0.015183 -0.003670 -0.001448 -0.004692
# 4 0.002876 -0.005046 -0.003670 0.037318 0.001595 -0.011979
# 5 -0.002925 0.002780 -0.001448 0.001595 0.038774 0.000660
# 6 -0.000654 0.011517 -0.004692 -0.011979 0.000660 0.054535
#
#
# Mechanical properties :
#
#
# Convention : Reuss Voigt Hill
#
# Bulk Modulus (GPa) = 27.72477 35.90966 31.81721
# Shear Modulus (GPa) = 23.22755 27.95585 25.59170
#
# Velocity S-wave (km/s) = 3.28436 3.60317 3.44745
# Velocity P-wave (km/s) = 5.22094 5.82985 5.53378
#
# Compressibility (1/GPa) = 0.03606883
#
# Stress axis : x y z
#
# Youngs Moduli (GPa) = 82.55296 36.97712 65.86316
#
# Poissons Ratio (x) = -0.01256 0.32680
# Poissons Ratio (y) = -0.02804 0.29728
# Poissons Ratio (z) = 0.40961 0.16690
#
# Static dielectric constant tensor:
#      x y z
#    x 1.806660 0.004320 0.036730 
#    y 0.004320 1.789620 -0.018270 
#    z 0.036730 -0.018270 1.794870 
# 
# From -- ./inp_files/370936.got.cif
#   From: 2010.05.17/outbox.cif.g08.bks.cpg/sg2_186_cif.got.tgz:370936.got - 2010.06.03 11:33:40.
