data_PCOD9021116
_publ_section_title
;
Structure prediction by ZEFSAII (Michael W. Deem and Ramdas Pophale) SiO2 
 PCOD9021116
Probable space group: P -1
;
_chemical_formula_sum "Si O2"
_cell_formula_units_Z 16
_cell_length_a 15.717715
_cell_length_b 11.793820
_cell_length_c 9.691657
_cell_angle_alpha 66.873829
_cell_angle_beta 134.495435
_cell_angle_gamma 142.783603
_cell_volume 715.882722
_symmetry_space_group_name_H-M "P -1"
_symmetry_group_IT_number 2
_symmetry_cell_setting 'triclinic'
loop_
_space_group_symop_operation_xyz
x,y,z
-x,-y,-z
loop_
_atom_site_type_symbol
_atom_site_label
_atom_site_fract_x
_atom_site_fract_y
_atom_site_fract_z
Si Si1 0.268220 0.701277 0.824423
Si Si2 0.125431 0.769780 0.412713
Si Si3 0.828922 0.903763 0.748034
Si Si4 0.185547 0.763152 0.954902
Si Si5 0.749510 0.295075 0.652150
Si Si6 0.381709 0.165824 0.957188
Si Si7 0.480842 0.649969 0.681070
Si Si8 0.806325 0.802085 0.460446
O O1 0.185368 0.756583 0.631070
O O2 0.320023 0.792394 0.990830
O O3 0.435806 0.773776 0.893741
O O4 0.096629 0.458776 0.755135
O O5 0.252923 0.801885 0.429557
O O6 0.144791 0.930676 0.341335
O O7 0.627467 0.726088 0.690995
O O8 0.832953 0.836517 0.638509
O O9 0.000000 0.000000 0.000000
O O10 0.963792 0.537056 0.782764
O O11 0.253492 0.784097 0.173856
O O12 0.202980 0.923228 0.880061
O O13 0.588628 0.268343 0.468129
O O14 0.414093 0.262808 0.091575
O O15 0.353316 0.231966 0.764319
O O16 0.287810 0.406604 0.582518
O O17 0.000000 0.000000 0.500000
#
# Coordination Sequence:
#
# PCOD9021116 Si02
#       8
#     2   2   2   2   2   2   2   2
#     4  10  22  37  68 102 140 178 229 290 342 415
#     4  10  22  43  68 102 139 181 228 286 351 413
#     4  12  29  48  75 103 144 186 236 293 356 423
#     4  10  22  38  63 102 139 178 226 285 354 404
#     4  10  22  42  68  98 139 185 224 289 349 419
#     4  12  24  41  71 100 141 181 238 287 346 419
#     4  12  27  46  72 103 145 185 242 286 353 418
#     4  12  29  49  73  99 140 192 241 292 349 420
#
# _framework density 22.350028999999999
#
# number of rings (size 3 to 8) (size 9 to 14) (size 15 to 20)
#    0.000    1.000    1.250    4.125    7.000    4.000 
#    0.000    0.000    0.000    0.000    0.000    0.000 
#    0.000    0.000    0.000    0.000    0.000    0.000 
#
# Total GULP energy -89550.965014 kJ/mol
# GULP energy per Si atom -5596.935313 kJ/mol
# Density = 2.229916 g / cm^3
# Si number density = 22.350029 Si / 1000 Ang^3
#
#
#
# Elastic Constant Matrix: (Units=GPa)
#
#
# Indices 1 2 3 4 5 6 
#
# 1 73.1533 8.5325 6.5420 9.5906 -18.4655 14.5948
# 2 8.5325 102.4518 -1.0667 8.4480 -0.8616 -3.8705
# 3 6.5420 -1.0667 50.2398 -2.5197 -15.0124 -1.9507
# 4 9.5906 8.4480 -2.5197 33.3558 -0.2900 2.8581
# 5 -18.4655 -0.8616 -15.0124 -0.2900 38.4987 -7.1203
# 6 14.5948 -3.8705 -1.9507 2.8581 -7.1203 34.1080
#
#
#
# Elastic Compliance Matrix: (Units=1/GPa)
#
#
# Indices 1 2 3 4 5 6 
#
# 1 0.017325 -0.001268 -0.000647 -0.004152 0.006925 -0.005801
# 2 -0.001268 0.010137 0.000368 -0.002339 0.000102 0.001931
# 3 -0.000647 0.000368 0.022994 0.001616 0.009313 0.003443
# 4 -0.004152 -0.002339 0.001616 0.031994 -0.001427 -0.001375
# 5 0.006925 0.000102 0.009313 -0.001427 0.033799 0.004756
# 6 -0.005801 0.001931 0.003443 -0.001375 0.004756 0.033325
#
#
# Mechanical properties :
#
#
# Convention : Reuss Voigt Hill
#
# Bulk Modulus (GPa) = 21.11360 28.20673 24.66016
# Shear Modulus (GPa) = 29.68134 35.31496 32.49815
#
# Velocity S-wave (km/s) = 3.64816 3.97934 3.81734
# Velocity P-wave (km/s) = 5.21658 5.81046 5.52151
#
# Compressibility (1/GPa) = 0.04736284
#
# Stress axis : x y z
#
# Youngs Moduli (GPa) = 57.71863 98.64978 43.48907
#
# Poissons Ratio (x) = 0.12511 0.02814
# Poissons Ratio (y) = 0.07320 -0.01602
# Poissons Ratio (z) = 0.03735 -0.03635
#
# Static dielectric constant tensor:
#      x y z
#    x 1.835490 0.048540 0.012200 
#    y 0.048540 1.834100 0.030190 
#    z 0.012200 0.030190 1.802520 
# 
# From -- ./inp_files/307172.got.cif
#   From: 2010.05.17/outbox.cif.g08.bks.cpg/sg2_154_cif.got.tgz:307172.got - 2010.06.03 11:33:40.
