data_PCOD9021620
_publ_section_title
;
Structure prediction by ZEFSAII (Michael W. Deem and Ramdas Pophale) SiO2 
 PCOD9021620
Probable space group: P -1
;
_chemical_formula_sum "Si O2"
_cell_formula_units_Z 14
_cell_length_a 9.492411
_cell_length_b 7.561016
_cell_length_c 15.262039
_cell_angle_alpha 106.383818
_cell_angle_beta 45.831926
_cell_angle_gamma 78.407011
_cell_volume 615.351070
_symmetry_space_group_name_H-M "P -1"
_symmetry_group_IT_number 2
_symmetry_cell_setting 'triclinic'
loop_
_space_group_symop_operation_xyz
x,y,z
-x,-y,-z
loop_
_atom_site_type_symbol
_atom_site_label
_atom_site_fract_x
_atom_site_fract_y
_atom_site_fract_z
Si Si1 0.827740 0.373586 0.414351
Si Si2 0.730660 0.960680 0.944570
Si Si3 0.129072 0.064235 0.384966
Si Si4 0.453577 0.245240 0.541369
Si Si5 0.056127 0.365577 0.845257
Si Si6 0.755648 0.273814 0.868859
Si Si7 0.669895 0.853374 0.147312
O O1 0.678126 0.261794 0.460128
O O2 0.658652 0.628402 0.485820
O O3 0.040395 0.249464 0.232929
O O4 0.953423 0.307555 0.446887
O O5 0.746667 0.167282 0.947784
O O6 0.500000 0.000000 0.000000
O O7 0.712782 0.939196 0.051725
O O8 0.202424 0.894409 0.248338
O O9 0.384128 0.992917 0.302540
O O10 0.000000 0.000000 0.500000
O O11 0.260360 0.391741 0.723803
O O12 0.500000 0.000000 0.500000
O O13 0.192739 0.161338 0.826764
O O14 0.961370 0.311831 0.793438
O O15 0.818631 0.583547 0.022298
O O16 0.500000 0.500000 0.000000
#
# Coordination Sequence:
#
# PCOD9021620 Si02
#       7
#     2   2   2   2   2   2   2
#     4  10  22  38  63  96 126 178 223 265 342 403
#     4  11  19  39  66  92 128 169 219 271 328 403
#     4  11  22  41  67  97 131 177 224 273 337 409
#     4  11  22  40  63  92 131 172 218 277 334 400
#     4  11  23  40  64  95 131 169 218 278 330 397
#     4  11  22  39  66  98 126 171 224 272 327 395
#     4  11  22  39  65  94 128 173 215 269 341 391
#
# _framework density 22.751242000000001
#
# number of rings (size 3 to 8) (size 9 to 14) (size 15 to 20)
#    0.000    1.143    5.714    2.571    0.000    0.571 
#    0.000    1.429    0.000    5.143    0.000    0.000 
#    0.000    0.000    0.000    0.000    0.000    0.000 
#
# Total GULP energy -78133.531634 kJ/mol
# GULP energy per Si atom -5580.966545 kJ/mol
# Density = 2.269946 g / cm^3
# Si number density = 22.751242 Si / 1000 Ang^3
#
#
#
# Elastic Constant Matrix: (Units=GPa)
#
#
# Indices 1 2 3 4 5 6 
#
# 1 98.9858 34.2229 28.0380 3.8164 -27.3223 -18.2342
# 2 34.2229 137.8394 34.6424 -7.0076 -12.3985 -33.9439
# 3 28.0380 34.6424 79.4463 -21.3165 -29.9243 -6.7967
# 4 3.8164 -7.0076 -21.3165 42.1027 -2.8212 1.1163
# 5 -27.3223 -12.3985 -29.9243 -2.8212 37.5858 -1.1923
# 6 -18.2342 -33.9439 -6.7967 1.1163 -1.1923 46.5455
#
#
#
# Elastic Compliance Matrix: (Units=1/GPa)
#
#
# Indices 1 2 3 4 5 6 
#
# 1 0.014338 -0.001397 -0.000994 -0.001544 0.009204 0.004726
# 2 -0.001397 0.009970 -0.003488 -0.000166 -0.000319 0.006210
# 3 -0.000994 -0.003488 0.025610 0.013762 0.019581 0.000978
# 4 -0.001544 -0.000166 0.013762 0.031626 0.012180 0.000837
# 5 0.009204 -0.000319 0.019581 0.012180 0.049924 0.007219
# 6 0.004726 0.006210 0.000978 0.000837 0.007219 0.028172
#
#
# Mechanical properties :
#
#
# Convention : Reuss Voigt Hill
#
# Bulk Modulus (GPa) = 26.20458 56.67535 41.43996
# Shear Modulus (GPa) = 27.15642 39.87136 33.51389
#
# Velocity S-wave (km/s) = 3.45863 4.19082 3.84221
# Velocity P-wave (km/s) = 5.24332 6.95573 6.15933
#
# Compressibility (1/GPa) = 0.03816126
#
# Stress axis : x y z
#
# Youngs Moduli (GPa) = 69.74676 100.29626 39.04653
#
# Poissons Ratio (x) = 0.14009 0.03881
# Poissons Ratio (y) = 0.09742 0.13619
# Poissons Ratio (z) = 0.06932 0.34983
#
# Static dielectric constant tensor:
#      x y z
#    x 2.471710 0.023950 -0.318340 
#    y 0.023950 1.938740 -0.011430 
#    z -0.318340 -0.011430 2.080160 
# 
# From -- ./inp_files/320903.got.cif
#   From: 2010.05.17/outbox.cif.g08.bks.cpg/sg2_161_cif.got.tgz:320903.got - 2010.06.03 11:33:40.
