data_PCOD9021341
_publ_section_title
;
Structure prediction by ZEFSAII (Michael W. Deem and Ramdas Pophale) SiO2 
 PCOD9021341
Probable space group: P -1
;
_chemical_formula_sum "Si O2"
_cell_formula_units_Z 14
_cell_length_a 9.142863
_cell_length_b 15.797844
_cell_length_c 14.930035
_cell_angle_alpha 145.592167
_cell_angle_beta 37.749223
_cell_angle_gamma 152.267615
_cell_volume 551.874073
_symmetry_space_group_name_H-M "P -1"
_symmetry_group_IT_number 2
_symmetry_cell_setting 'triclinic'
loop_
_space_group_symop_operation_xyz
x,y,z
-x,-y,-z
loop_
_atom_site_type_symbol
_atom_site_label
_atom_site_fract_x
_atom_site_fract_y
_atom_site_fract_z
Si Si1 0.370048 0.609650 0.903426
Si Si2 0.388760 0.747608 0.489333
Si Si3 0.160331 0.886857 0.613000
Si Si4 0.580040 0.005506 0.070802
Si Si5 0.300742 0.426764 0.125355
Si Si6 0.593688 0.448703 0.525077
Si Si7 0.921388 0.979481 0.671340
O O1 0.530641 0.613406 0.919520
O O2 0.403085 0.495375 0.712421
O O3 0.000000 0.500000 0.000000
O O4 0.568762 0.834040 0.964537
O O5 0.226418 0.843897 0.641882
O O6 0.338358 0.607632 0.309744
O O7 0.294481 0.619187 0.511202
O O8 0.775126 0.931853 0.459703
O O9 0.889114 0.652739 0.511297
O O10 0.047703 0.000911 0.731056
O O11 0.500000 0.000000 0.500000
O O12 0.245723 0.940331 0.211331
O O13 0.924116 0.226845 0.118535
O O14 0.500000 0.000000 0.000000
O O15 0.500000 0.500000 0.000000
O O16 0.370222 0.258409 0.404694
#
# Coordination Sequence:
#
# PCOD9021341 Si02
#       7
#     2   2   2   2   2   2   2
#     4  11  25  45  68 100 135 176 227 279 340 406
#     4  10  22  41  63  95 129 168 219 277 335 395
#     4  10  22  38  60  92 129 169 216 267 326 392
#     4  12  24  43  67  97 135 179 225 280 335 402
#     4  11  24  43  67  95 132 178 226 279 340 404
#     4  11  22  41  66  95 131 173 217 275 334 398
#     4  11  23  41  65  96 130 171 222 273 333 397
#
# _framework density 25.368106000000001
#
# number of rings (size 3 to 8) (size 9 to 14) (size 15 to 20)
#    0.000    1.143    0.000    6.857    0.000    4.571 
#    0.000   10.000    0.000    0.000    0.000    0.000 
#    0.000    0.000    0.000    0.000    0.000    0.000 
#
# Total GULP energy -78250.448259 kJ/mol
# GULP energy per Si atom -5589.317733 kJ/mol
# Density = 2.531037 g / cm^3
# Si number density = 25.368106 Si / 1000 Ang^3
#
#
#
# Elastic Constant Matrix: (Units=GPa)
#
#
# Indices 1 2 3 4 5 6 
#
# 1 162.5948 17.9543 45.1138 -4.6114 -29.1174 -10.5004
# 2 17.9543 126.7705 15.8792 -8.4793 -1.5800 1.5088
# 3 45.1138 15.8792 70.5601 -15.7586 -13.9303 1.1389
# 4 -4.6114 -8.4793 -15.7586 25.4449 -4.1049 -2.7677
# 5 -29.1174 -1.5800 -13.9303 -4.1049 40.1931 1.6296
# 6 -10.5004 1.5088 1.1389 -2.7677 1.6296 54.3893
#
#
#
# Elastic Compliance Matrix: (Units=1/GPa)
#
#
# Indices 1 2 3 4 5 6 
#
# 1 0.008322 -0.000622 -0.004489 -0.000613 0.004323 0.001557
# 2 -0.000622 0.008238 -0.001092 0.001883 -0.000304 -0.000221
# 3 -0.004489 -0.001092 0.021211 0.012742 0.005390 -0.000794
# 4 -0.000613 0.001883 0.012742 0.049359 0.009014 0.001804
# 5 0.004323 -0.000304 0.005390 0.009014 0.030777 0.000267
# 6 0.001557 -0.000221 -0.000794 0.001804 0.000267 0.018793
#
#
# Mechanical properties :
#
#
# Convention : Reuss Voigt Hill
#
# Bulk Modulus (GPa) = 39.42593 57.53555 48.48074
# Shear Modulus (GPa) = 31.73361 42.73734 37.23548
#
# Velocity S-wave (km/s) = 3.54068 4.10895 3.83535
# Velocity P-wave (km/s) = 5.68247 6.72613 6.22621
#
# Compressibility (1/GPa) = 0.02536402
#
# Stress axis : x y z
#
# Youngs Moduli (GPa) = 120.16617 121.38947 47.14516
#
# Poissons Ratio (x) = 0.07549 0.21165
# Poissons Ratio (y) = 0.07473 0.05149
# Poissons Ratio (z) = 0.53947 0.13258
#
# Static dielectric constant tensor:
#      x y z
#    x 2.102240 0.015070 -0.034610 
#    y 0.015070 1.992740 -0.019660 
#    z -0.034610 -0.019660 2.099580 
# 
# From -- ./inp_files/333751.got.cif
#   From: 2010.05.17/outbox.cif.g08.bks.cpg/sg2_167_cif.got.tgz:333751.got - 2010.06.03 11:33:40.
