data_PCOD9021685
_publ_section_title
;
Structure prediction by ZEFSAII (Michael W. Deem and Ramdas Pophale) SiO2 
 PCOD9021685
Probable space group: P -1
;
_chemical_formula_sum "Si O2"
_cell_formula_units_Z 13
_cell_length_a 9.338021
_cell_length_b 21.245973
_cell_length_c 6.601008
_cell_angle_alpha 48.773432
_cell_angle_beta 131.208219
_cell_angle_gamma 145.978823
_cell_volume 531.006471
_symmetry_space_group_name_H-M "P -1"
_symmetry_group_IT_number 2
_symmetry_cell_setting 'triclinic'
loop_
_space_group_symop_operation_xyz
x,y,z
-x,-y,-z
loop_
_atom_site_type_symbol
_atom_site_label
_atom_site_fract_x
_atom_site_fract_y
_atom_site_fract_z
Si Si1 0.434824 0.506887 0.651477
Si Si2 0.161008 0.933679 0.538286
Si Si3 0.000000 0.000000 0.000000
Si Si4 0.927607 0.119571 0.013057
Si Si5 0.541741 0.653580 0.766703
Si Si6 0.660565 0.159101 0.358350
Si Si7 0.877834 0.387138 0.261703
O O1 0.500000 0.500000 0.500000
O O2 0.541721 0.627049 0.586930
O O3 0.118870 0.419564 0.540427
O O4 0.543298 0.461548 0.971895
O O5 0.231877 0.862012 0.685184
O O6 0.232868 0.968792 0.761591
O O7 0.338933 0.049549 0.303365
O O8 0.892657 0.894172 0.301335
O O9 0.972858 0.919626 0.962014
O O10 0.169237 0.235715 0.114591
O O11 0.769240 0.138773 0.693288
O O12 0.336284 0.652832 0.683208
O O13 0.755602 0.281388 0.218243
O O14 0.000000 0.500000 0.000000
#
# Coordination Sequence:
#
# PCOD9021685 Si02
#       7
#     2   2   1   2   2   2   2
#     4  11  24  45  68  95 137 180 230 281 339 397
#     4  10  22  42  67  98 134 181 220 281 340 406
#     4  10  22  38  64  92 134 166 226 272 324 414
#     4  11  22  41  69  96 135 179 222 280 347 397
#     4  11  25  42  69  99 134 178 229 284 335 406
#     4  10  23  42  65  98 138 173 231 278 336 404
#     4  12  24  44  70 100 140 182 228 282 342 405
#
# _framework density 24.481811
#
# number of rings (size 3 to 8) (size 9 to 14) (size 15 to 20)
#    0.000    1.231    3.077    2.308    2.154    0.000 
#    5.538    0.000    0.000    0.000    0.000    0.000 
#    0.000    0.000    0.000    0.000    0.000    0.000 
#
# Total GULP energy -72437.981066 kJ/mol
# GULP energy per Si atom -5572.152390 kJ/mol
# Density = 2.442609 g / cm^3
# Si number density = 24.481811 Si / 1000 Ang^3
#
#
#
# Elastic Constant Matrix: (Units=GPa)
#
#
# Indices 1 2 3 4 5 6 
#
# 1 111.8142 30.5676 21.7417 12.5301 4.5848 -28.7999
# 2 30.5676 122.0725 -13.1742 11.8816 2.9584 -36.0105
# 3 21.7417 -13.1742 67.1763 9.2001 -8.2134 -16.0949
# 4 12.5301 11.8816 9.2001 39.2040 -9.7933 4.9869
# 5 4.5848 2.9584 -8.2134 -9.7933 38.4787 11.9105
# 6 -28.7999 -36.0105 -16.0949 4.9869 11.9105 51.6185
#
#
#
# Elastic Compliance Matrix: (Units=1/GPa)
#
#
# Indices 1 2 3 4 5 6 
#
# 1 0.012374 -0.000232 -0.002037 -0.005897 -0.005878 0.008033
# 2 -0.000232 0.014258 0.006784 -0.009259 -0.006405 0.014305
# 3 -0.002037 0.006784 0.020446 -0.007948 -0.001359 0.011053
# 4 -0.005897 -0.009259 -0.007948 0.038430 0.015543 -0.019527
# 5 -0.005878 -0.006405 -0.001359 0.015543 0.036444 -0.018082
# 6 0.008033 0.014305 0.011053 -0.019527 -0.018082 0.043339
#
#
# Mechanical properties :
#
#
# Convention : Reuss Voigt Hill
#
# Bulk Modulus (GPa) = 17.82292 42.14815 29.98553
# Shear Modulus (GPa) = 28.57701 43.32210 35.94955
#
# Velocity S-wave (km/s) = 3.42025 4.21118 3.83615
# Velocity P-wave (km/s) = 4.78470 6.39522 5.64766
#
# Compressibility (1/GPa) = 0.05610752
#
# Stress axis : x y z
#
# Youngs Moduli (GPa) = 80.81593 70.13409 48.90830
#
# Poissons Ratio (x) = 0.01629 0.09962
# Poissons Ratio (y) = 0.01877 -0.33178
# Poissons Ratio (z) = 0.16462 -0.47577
#
# Static dielectric constant tensor:
#      x y z
#    x 2.322160 0.230450 0.229060 
#    y 0.230450 2.185140 0.159020 
#    z 0.229060 0.159020 2.534790 
# 
# From -- ./inp_files/26671.got.cif
#   From: 2010.05.17/outbox.cif.g08.bks.cpg/sg2_14_cif.got.tgz:26671.got - 2010.06.03 11:33:40.
