data_PCOD9021907
_publ_section_title
;
Structure prediction by ZEFSAII (Michael W. Deem and Ramdas Pophale) SiO2 
 PCOD9021907
Probable space group: P -1
;
_chemical_formula_sum "Si O2"
_cell_formula_units_Z 14
_cell_length_a 9.483052
_cell_length_b 9.624780
_cell_length_c 11.552819
_cell_angle_alpha 125.761555
_cell_angle_beta 38.137578
_cell_angle_gamma 111.086064
_cell_volume 517.799092
_symmetry_space_group_name_H-M "P -1"
_symmetry_group_IT_number 2
_symmetry_cell_setting 'triclinic'
loop_
_space_group_symop_operation_xyz
x,y,z
-x,-y,-z
loop_
_atom_site_type_symbol
_atom_site_label
_atom_site_fract_x
_atom_site_fract_y
_atom_site_fract_z
Si Si1 0.000930 0.379349 0.773178
Si Si2 0.063253 0.600630 0.622018
Si Si3 0.277045 0.071007 0.313280
Si Si4 0.994913 0.011322 0.147129
Si Si5 0.675805 0.224873 0.043846
Si Si6 0.567459 0.692435 0.364495
Si Si7 0.552196 0.065972 0.633984
O O1 0.990942 0.515964 0.744250
O O2 0.064519 0.190487 0.575038
O O3 0.208798 0.381612 0.734153
O O4 0.755845 0.378062 0.995341
O O5 0.932273 0.801294 0.791162
O O6 0.340666 0.605117 0.459197
O O7 0.000000 0.500000 0.500000
O O8 0.258138 0.955317 0.159035
O O9 0.401037 0.930443 0.259619
O O10 0.423713 0.216686 0.250048
O O11 0.790234 0.031789 0.387863
O O12 0.150060 0.822769 0.985971
O O13 0.000000 0.000000 0.000000
O O14 0.605271 0.770265 0.249406
O O15 0.473078 0.880905 0.581575
#
# Coordination Sequence:
#
# PCOD9021907 Si02
#       7
#     2   2   2   2   2   2   2
#     4  11  22  42  68  95 138 182 223 285 348 411
#     4  11  25  42  69 102 140 185 227 279 357 414
#     4  10  22  38  67 101 138 176 237 283 341 407
#     4  11  24  42  69 103 135 176 237 285 332 413
#     4  11  23  38  67 103 136 180 233 290 335 407
#     4   9  19  36  62  99 124 174 229 272 332 404
#     4   9  19  38  68  96 127 181 229 283 329 403
#
# _framework density 27.037513000000001
#
# number of rings (size 3 to 8) (size 9 to 14) (size 15 to 20)
#    0.000    1.714    2.857    1.714   14.000    0.000 
#    0.000    2.143    0.000    3.429    0.000    0.000 
#    0.000    0.000    0.000    0.000    0.000    0.000 
#
# Total GULP energy -78174.418079 kJ/mol
# GULP energy per Si atom -5583.887006 kJ/mol
# Density = 2.697597 g / cm^3
# Si number density = 27.037513 Si / 1000 Ang^3
#
#
#
# Elastic Constant Matrix: (Units=GPa)
#
#
# Indices 1 2 3 4 5 6 
#
# 1 117.7474 66.4079 18.2339 -20.9765 10.9129 -11.2960
# 2 66.4079 195.2684 33.2775 -40.3539 7.3243 -23.8427
# 3 18.2339 33.2775 111.4769 -31.4261 -5.6303 1.2019
# 4 -20.9765 -40.3539 -31.4261 55.9806 14.0738 7.5496
# 5 10.9129 7.3243 -5.6303 14.0738 37.8708 -0.6649
# 6 -11.2960 -23.8427 1.2019 7.5496 -0.6649 42.9347
#
#
#
# Elastic Compliance Matrix: (Units=1/GPa)
#
#
# Indices 1 2 3 4 5 6 
#
# 1 0.011087 -0.002926 -0.000389 0.002640 -0.003654 0.000782
# 2 -0.002926 0.007493 -0.000748 0.004075 -0.002185 0.002662
# 3 -0.000389 -0.000748 0.010882 0.005745 -0.000293 -0.001837
# 4 0.002640 0.004075 0.005745 0.028143 -0.011194 -0.002325
# 5 -0.003654 -0.002185 -0.000293 -0.011194 0.032003 0.000297
# 6 0.000782 0.002662 -0.001837 -0.002325 0.000297 0.025440
#
#
# Mechanical properties :
#
#
# Convention : Reuss Voigt Hill
#
# Bulk Modulus (GPa) = 46.86970 73.37013 60.11991
# Shear Modulus (GPa) = 38.37676 47.79544 43.08610
#
# Velocity S-wave (km/s) = 3.77157 4.20902 3.99628
# Velocity P-wave (km/s) = 6.02818 7.12856 6.60134
#
# Compressibility (1/GPa) = 0.02133575
#
# Stress axis : x y z
#
# Youngs Moduli (GPa) = 90.19288 133.45864 91.89414
#
# Poissons Ratio (x) = 0.39053 0.03572
# Poissons Ratio (y) = 0.26392 0.06877
# Poissons Ratio (z) = 0.03506 0.09988
#
# Static dielectric constant tensor:
#      x y z
#    x 2.365880 0.081040 -0.117440 
#    y 0.081040 2.053300 -0.062140 
#    z -0.117440 -0.062140 2.006090 
# 
# From -- ./inp_files/184049.got.cif
#   From: 2010.05.17/outbox.cif.g08.bks.cpg/sg2_93_cif.got.tgz:184049.got - 2010.06.03 11:33:40.
