data_PCOD9021033
_publ_section_title
;
Structure prediction by ZEFSAII (Michael W. Deem and Ramdas Pophale) SiO2 
 PCOD9021033
Probable space group: P -1
;
_chemical_formula_sum "Si O2"
_cell_formula_units_Z 16
_cell_length_a 19.947335
_cell_length_b 11.065821
_cell_length_c 10.274419
_cell_angle_alpha 146.063848
_cell_angle_beta 38.574287
_cell_angle_gamma 137.966111
_cell_volume 760.046393
_symmetry_space_group_name_H-M "P -1"
_symmetry_group_IT_number 2
_symmetry_cell_setting 'triclinic'
loop_
_space_group_symop_operation_xyz
x,y,z
-x,-y,-z
loop_
_atom_site_type_symbol
_atom_site_label
_atom_site_fract_x
_atom_site_fract_y
_atom_site_fract_z
Si Si1 0.421326 0.514750 0.014319
Si Si2 0.937982 0.676886 0.696914
Si Si3 0.085385 0.360695 0.707071
Si Si4 0.221166 0.654987 0.557108
Si Si5 0.917183 0.041228 0.474955
Si Si6 0.756829 0.901898 0.215681
Si Si7 0.512753 0.322579 0.215149
Si Si8 0.692794 0.083270 0.750395
O O1 0.342280 0.279610 0.869416
O O2 0.493648 0.616031 0.870185
O O3 0.500000 0.500000 0.000000
O O4 0.342171 0.660513 0.322232
O O5 0.862289 0.526175 0.567339
O O6 0.000000 0.500000 0.500000
O O7 0.024510 0.890585 0.691806
O O8 0.849955 0.773489 0.995784
O O9 0.191542 0.539989 0.640606
O O10 0.011392 0.184199 0.557781
O O11 0.111208 0.212882 0.655200
O O12 0.000000 0.500000 0.000000
O O13 0.199915 0.895528 0.773330
O O14 0.802594 0.115071 0.700412
O O15 0.719932 0.005550 0.495442
O O16 0.500000 0.500000 0.500000
O O17 0.410284 0.107742 0.206370
O O18 0.637531 0.289178 0.008196
#
# Coordination Sequence:
#
# PCOD9021033 Si02
#       8
#     2   2   2   2   2   2   2   2
#     4  11  25  44  68  96 135 176 227 282 344 396
#     4  10  22  37  64  97 133 165 213 267 333 395
#     4  10  22  42  62  93 135 174 222 265 328 400
#     4  10  22  41  62  92 130 169 219 274 328 397
#     4  10  23  40  63  95 131 174 217 274 325 405
#     4  11  22  42  67  98 131 175 220 280 331 406
#     4  11  24  46  67  97 136 172 223 286 337 404
#     4  11  24  41  69  96 131 171 227 273 344 398
#
# _framework density 21.051347
#
# number of rings (size 3 to 8) (size 9 to 14) (size 15 to 20)
#    0.000    1.500    2.500    1.500    3.500    6.500 
#    0.000    0.000    0.000    0.000    0.000    0.000 
#    0.000    0.000    0.000    0.000    0.000    0.000 
#
# Total GULP energy -89228.817834 kJ/mol
# GULP energy per Si atom -5576.801115 kJ/mol
# Density = 2.100343 g / cm^3
# Si number density = 21.051347 Si / 1000 Ang^3
#
#
#
# Elastic Constant Matrix: (Units=GPa)
#
#
# Indices 1 2 3 4 5 6 
#
# 1 95.8741 29.2602 41.5035 -6.8231 -22.8908 -22.2693
# 2 29.2602 98.7777 26.7090 -8.5575 0.5919 -32.7078
# 3 41.5035 26.7090 129.0448 -7.2960 -14.8094 -24.4840
# 4 -6.8231 -8.5575 -7.2960 28.8906 0.9924 -0.7627
# 5 -22.8908 0.5919 -14.8094 0.9924 28.6402 -1.5437
# 6 -22.2693 -32.7078 -24.4840 -0.7627 -1.5437 39.8005
#
#
#
# Elastic Compliance Matrix: (Units=1/GPa)
#
#
# Indices 1 2 3 4 5 6 
#
# 1 0.016757 -0.001912 -0.002047 0.002626 0.012665 0.007087
# 2 -0.001912 0.014748 -0.000316 0.004177 -0.001555 0.010875
# 3 -0.002047 -0.000316 0.009935 0.001933 0.003704 0.004887
# 4 0.002626 0.004177 0.001933 0.037069 0.002099 0.006884
# 5 0.012665 -0.001555 0.003704 0.002099 0.047450 0.009967
# 6 0.007087 0.010875 0.004887 0.006884 0.009967 0.041552
#
#
# Mechanical properties :
#
#
# Convention : Reuss Voigt Hill
#
# Bulk Modulus (GPa) = 30.40579 57.62689 44.01634
# Shear Modulus (GPa) = 26.73439 34.54784 30.64112
#
# Velocity S-wave (km/s) = 3.56752 4.05547 3.81930
# Velocity P-wave (km/s) = 5.60755 7.02588 6.35640
#
# Compressibility (1/GPa) = 0.03288847
#
# Stress axis : x y z
#
# Youngs Moduli (GPa) = 59.67666 67.80619 100.65741
#
# Poissons Ratio (x) = 0.12965 0.20606
# Poissons Ratio (y) = 0.11410 0.03185
# Poissons Ratio (z) = 0.12216 0.02146
#
# Static dielectric constant tensor:
#      x y z
#    x 1.769010 -0.040670 -0.029000 
#    y -0.040670 1.838220 -0.017580 
#    z -0.029000 -0.017580 1.838670 
# 
# From -- ./inp_files/471250.got.cif
#   From: 2010.05.17/outbox.cif.g08.bks.cpg/sg2_236_cif.got.tgz:471250.got - 2010.06.03 11:33:40.
