data_PCOD9021577
_publ_section_title
;
Structure prediction by ZEFSAII (Michael W. Deem and Ramdas Pophale) SiO2 
 PCOD9021577
Probable space group: P -1
;
_chemical_formula_sum "Si O2"
_cell_formula_units_Z 16
_cell_length_a 11.160095
_cell_length_b 9.817535
_cell_length_c 14.499445
_cell_angle_alpha 95.904909
_cell_angle_beta 35.057469
_cell_angle_gamma 107.020844
_cell_volume 845.062521
_symmetry_space_group_name_H-M "P -1"
_symmetry_group_IT_number 2
_symmetry_cell_setting 'triclinic'
loop_
_space_group_symop_operation_xyz
x,y,z
-x,-y,-z
loop_
_atom_site_type_symbol
_atom_site_label
_atom_site_fract_x
_atom_site_fract_y
_atom_site_fract_z
Si Si1 0.586018 0.767929 0.028053
Si Si2 0.802430 0.517439 0.684656
Si Si3 0.984281 0.311659 0.263793
Si Si4 0.604144 0.053201 0.146095
Si Si5 0.897519 0.561593 0.985441
Si Si6 0.524834 0.706004 0.846639
Si Si7 0.909974 0.843417 0.100042
Si Si8 0.491693 0.907736 0.407233
O O1 0.840243 0.770286 0.871130
O O2 0.514911 0.742309 0.963782
O O3 0.419048 0.628581 0.179646
O O4 0.568396 0.912519 0.094439
O O5 0.886266 0.558293 0.739124
O O6 0.731927 0.650866 0.702723
O O7 0.000000 0.500000 0.500000
O O8 0.756937 0.211912 0.448158
O O9 0.936838 0.370784 0.199901
O O10 0.468946 0.152220 0.203936
O O11 0.542889 0.000763 0.286555
O O12 0.871186 0.148957 0.980251
O O13 0.688008 0.431199 0.065038
O O14 0.844644 0.699800 0.067719
O O15 0.000000 0.500000 0.000000
O O16 0.686208 0.840927 0.289948
O O17 0.000000 0.000000 0.000000
O O18 0.500000 0.000000 0.500000
#
# Coordination Sequence:
#
# PCOD9021577 Si02
#       8
#     2   2   2   2   2   2   2   2
#     4  11  21  43  67  91 121 168 219 254 307 380
#     4  11  23  40  65  93 121 165 212 256 308 378
#     4  11  21  40  65  91 122 167 212 255 307 373
#     4  11  22  41  65  93 127 165 210 264 312 362
#     4  12  22  40  66  92 129 162 208 262 316 372
#     4  11  23  41  64  96 125 165 207 262 322 362
#     4  10  22  38  63  91 123 171 209 245 304 375
#     4  11  23  39  62  95 129 169 213 249 306 382
#
# _framework density 18.933509999999998
#
# number of rings (size 3 to 8) (size 9 to 14) (size 15 to 20)
#    0.000    1.000    3.750    5.625    1.750    0.000 
#    0.000   10.000    0.000    0.000    0.000    0.000 
#    0.000    0.000    0.000    0.000    0.000    0.000 
#
# Total GULP energy -89315.376206 kJ/mol
# GULP energy per Si atom -5582.211013 kJ/mol
# Density = 1.889042 g / cm^3
# Si number density = 18.933510 Si / 1000 Ang^3
#
#
#
# Elastic Constant Matrix: (Units=GPa)
#
#
# Indices 1 2 3 4 5 6 
#
# 1 118.3318 51.4279 43.8585 9.3882 9.8151 -5.5146
# 2 51.4279 124.8298 52.2511 19.4137 9.1122 7.5519
# 3 43.8585 52.2511 122.7649 13.9648 -6.5022 -11.6856
# 4 9.3882 19.4137 13.9648 30.7001 8.2733 0.6878
# 5 9.8151 9.1122 -6.5022 8.2733 27.5668 -2.9867
# 6 -5.5146 7.5519 -11.6856 0.6878 -2.9867 38.9324
#
#
#
# Elastic Compliance Matrix: (Units=1/GPa)
#
#
# Indices 1 2 3 4 5 6 
#
# 1 0.011244 -0.003427 -0.002753 0.000948 -0.003682 0.001132
# 2 -0.003427 0.012230 -0.004107 -0.003891 -0.003085 -0.004258
# 3 -0.002753 -0.004107 0.012149 -0.004058 0.006926 0.004656
# 4 0.000948 -0.003891 -0.004058 0.039922 -0.012203 -0.001970
# 5 -0.003682 -0.003085 0.006926 -0.012203 0.044529 0.005787
# 6 0.001132 -0.004258 0.004656 -0.001970 0.005787 0.028548
#
#
# Mechanical properties :
#
#
# Convention : Reuss Voigt Hill
#
# Bulk Modulus (GPa) = 66.45559 73.44464 69.95011
# Shear Modulus (GPa) = 28.70054 33.99912 31.34983
#
# Velocity S-wave (km/s) = 3.89763 4.24218 4.07355
# Velocity P-wave (km/s) = 7.44520 7.92905 7.69093
#
# Compressibility (1/GPa) = 0.01504764
#
# Stress axis : x y z
#
# Youngs Moduli (GPa) = 88.93960 81.76789 82.31100
#
# Poissons Ratio (x) = 0.28020 0.22664
# Poissons Ratio (y) = 0.30478 0.33806
# Poissons Ratio (z) = 0.24489 0.33583
#
# Static dielectric constant tensor:
#      x y z
#    x 1.702620 0.016170 -0.027300 
#    y 0.016170 1.681010 -0.017120 
#    z -0.027300 -0.017120 1.662530 
# 
# From -- ./inp_files/218953.got.cif
#   From: 2010.05.17/outbox.cif.g08.bks.cpg/sg2_110_cif.got.tgz:218953.got - 2010.06.03 11:33:40.
