data_PCOD9021236
_publ_section_title
;
Structure prediction by ZEFSAII (Michael W. Deem and Ramdas Pophale) SiO2 
 PCOD9021236
Probable space group: P -1
;
_chemical_formula_sum "Si O2"
_cell_formula_units_Z 14
_cell_length_a 13.712411
_cell_length_b 10.234127
_cell_length_c 10.637172
_cell_angle_alpha 28.028280
_cell_angle_beta 103.457400
_cell_angle_gamma 94.812553
_cell_volume 657.635832
_symmetry_space_group_name_H-M "P -1"
_symmetry_group_IT_number 2
_symmetry_cell_setting 'triclinic'
loop_
_space_group_symop_operation_xyz
x,y,z
-x,-y,-z
loop_
_atom_site_type_symbol
_atom_site_label
_atom_site_fract_x
_atom_site_fract_y
_atom_site_fract_z
Si Si1 0.713305 0.738710 0.126332
Si Si2 0.931994 0.826357 0.200011
Si Si3 0.664893 0.341846 0.257669
Si Si4 0.209850 0.803157 0.963724
Si Si5 0.270893 0.179405 0.445639
Si Si6 0.459280 0.293633 0.314126
Si Si7 0.378462 0.633114 0.384841
O O1 0.822989 0.806398 0.125695
O O2 0.727816 0.531360 0.185917
O O3 0.672564 0.575162 0.368490
O O4 0.633939 0.054126 0.818535
O O5 0.000000 0.500000 0.500000
O O6 0.893426 0.004721 0.164281
O O7 0.000000 0.000000 0.000000
O O8 0.563833 0.388595 0.279168
O O9 0.722543 0.014212 0.514730
O O10 0.616309 0.481787 0.992566
O O11 0.199623 0.505162 0.152542
O O12 0.302465 0.715187 0.170257
O O13 0.242169 0.001240 0.701325
O O14 0.387586 0.219265 0.462491
O O15 0.500000 0.000000 0.500000
O O16 0.500000 0.500000 0.500000
#
# Coordination Sequence:
#
# PCOD9021236 Si02
#       7
#     2   2   2   2   2   2   2
#     4  11  25  42  64  96 126 166 221 260 317 389
#     4  11  23  47  72  91 116 159 220 283 332 374
#     4  10  22  38  58  93 130 173 216 247 303 368
#     4  11  23  40  65  93 123 162 220 253 322 383
#     4  11  21  38  61  90 128 166 206 258 293 379
#     4   9  20  34  55  89 125 183 215 231 288 367
#     4  11  25  39  58  92 136 175 199 259 313 376
#
# _framework density 21.288378000000002
#
# number of rings (size 3 to 8) (size 9 to 14) (size 15 to 20)
#    0.000    1.429    1.429    4.714    6.000    2.286 
#    0.000    0.000    0.000    5.143    0.000    0.000 
#    0.000    0.000    0.000    0.000    0.000    0.000 
#
# Total GULP energy -78115.683674 kJ/mol
# GULP energy per Si atom -5579.691691 kJ/mol
# Density = 2.123992 g / cm^3
# Si number density = 21.288378 Si / 1000 Ang^3
#
#
#
# Elastic Constant Matrix: (Units=GPa)
#
#
# Indices 1 2 3 4 5 6 
#
# 1 131.8830 55.3463 63.1073 -6.8321 -25.8844 -30.5591
# 2 55.3463 108.8022 44.9476 -43.9872 -5.8129 -17.6134
# 3 63.1073 44.9476 137.9130 -29.5965 -27.3670 -24.5223
# 4 -6.8321 -43.9872 -29.5965 48.7364 -13.7833 0.2742
# 5 -25.8844 -5.8129 -27.3670 -13.7833 45.8693 -1.5513
# 6 -30.5591 -17.6134 -24.5223 0.2742 -1.5513 42.6152
#
#
#
# Elastic Compliance Matrix: (Units=1/GPa)
#
#
# Indices 1 2 3 4 5 6 
#
# 1 0.013664 -0.006631 -0.003738 -0.005472 0.003167 0.005057
# 2 -0.006631 0.022211 0.003901 0.023944 0.008827 0.006837
# 3 -0.003738 0.003901 0.014747 0.015316 0.012048 0.007758
# 4 -0.005472 0.023944 0.015316 0.058243 0.027107 0.015398
# 5 0.003167 0.008827 0.012048 0.027107 0.040519 0.014153
# 6 0.005057 0.006837 0.007758 0.015398 0.014153 0.034798
#
#
# Mechanical properties :
#
#
# Convention : Reuss Voigt Hill
#
# Bulk Modulus (GPa) = 26.53486 78.37784 52.45635
# Shear Modulus (GPa) = 23.84590 41.79065 32.81828
#
# Velocity S-wave (km/s) = 3.35048 4.43547 3.93059
# Velocity P-wave (km/s) = 5.24015 7.94533 6.73006
#
# Compressibility (1/GPa) = 0.03768628
#
# Stress axis : x y z
#
# Youngs Moduli (GPa) = 73.18680 45.02288 67.80927
#
# Poissons Ratio (x) = 0.29853 0.25347
# Poissons Ratio (y) = 0.48528 -0.26452
# Poissons Ratio (z) = 0.27357 -0.17563
#
# Static dielectric constant tensor:
#      x y z
#    x 1.809990 -0.013340 -0.005660 
#    y -0.013340 1.869400 -0.007180 
#    z -0.005660 -0.007180 1.816580 
# 
# From -- ./inp_files/422624.got.cif
#   From: 2010.05.17/outbox.cif.g08.bks.cpg/sg2_212_cif.got.tgz:422624.got - 2010.06.03 11:33:40.
