data_PCOD9021763
_publ_section_title
;
Structure prediction by ZEFSAII (Michael W. Deem and Ramdas Pophale) SiO2 
 PCOD9021763
Probable space group: P -1
;
_chemical_formula_sum "Si O2"
_cell_formula_units_Z 12
_cell_length_a 16.914776
_cell_length_b 5.366299
_cell_length_c 18.881886
_cell_angle_alpha 99.520088
_cell_angle_beta 21.408177
_cell_angle_gamma 89.940760
_cell_volume 556.841032
_symmetry_space_group_name_H-M "P -1"
_symmetry_group_IT_number 2
_symmetry_cell_setting 'triclinic'
loop_
_space_group_symop_operation_xyz
x,y,z
-x,-y,-z
loop_
_atom_site_type_symbol
_atom_site_label
_atom_site_fract_x
_atom_site_fract_y
_atom_site_fract_z
Si Si1 0.098267 0.641074 0.712441
Si Si2 0.614086 0.024163 0.569088
Si Si3 0.920233 0.766221 0.027519
Si Si4 0.475308 0.674948 0.957344
Si Si5 0.789174 0.916475 0.691720
Si Si6 0.588240 0.739168 0.098440
O O1 0.232037 0.831621 0.588930
O O2 0.037592 0.669912 0.847846
O O3 0.249704 0.311711 0.554426
O O4 0.843912 0.745327 0.889519
O O5 0.539010 0.161266 0.715739
O O6 0.366572 0.102503 0.737080
O O7 0.000000 0.500000 0.000000
O O8 0.000000 0.000000 0.000000
O O9 0.290368 0.974654 0.156298
O O10 0.500000 0.500000 0.000000
O O11 0.376764 0.569026 0.968771
O O12 0.587645 0.073870 0.806958
O O13 0.745222 0.636872 0.714810
O O14 0.000000 0.000000 0.500000
#
# Coordination Sequence:
#
# PCOD9021763 Si02
#       6
#     2   2   2   2   2   2
#     4  11  26  44  67 100 138 175 222 270 329 400
#     4  11  26  43  68 101 134 183 216 265 342 392
#     4  11  24  45  72 102 138 170 220 274 318 396
#     4   9  21  40  59  91 126 166 221 284 334 388
#     4  10  22  38  65  92 126 172 230 279 343 397
#     4  10  25  39  64  93 132 174 223 280 328 401
#
# _framework density 21.550135999999998
#
# number of rings (size 3 to 8) (size 9 to 14) (size 15 to 20)
#    0.000    1.667    0.000    2.000    7.000   12.000 
#    0.000    0.000    0.000    0.000    0.000    0.000 
#    0.000    0.000    0.000    0.000    0.000    0.000 
#
# Total GULP energy -66948.202682 kJ/mol
# GULP energy per Si atom -5579.016890 kJ/mol
# Density = 2.150109 g / cm^3
# Si number density = 21.550136 Si / 1000 Ang^3
#
#
#
# Elastic Constant Matrix: (Units=GPa)
#
#
# Indices 1 2 3 4 5 6 
#
# 1 121.0441 46.8382 54.4442 -16.4253 -16.7169 17.2164
# 2 46.8382 135.2973 46.7172 -35.9466 -6.9100 11.3143
# 3 54.4442 46.7172 113.5309 -47.3948 -11.5042 4.6168
# 4 -16.4253 -35.9466 -47.3948 46.6153 5.0736 -2.3498
# 5 -16.7169 -6.9100 -11.5042 5.0736 20.7430 5.3194
# 6 17.2164 11.3143 4.6168 -2.3498 5.3194 45.0548
#
#
#
# Elastic Compliance Matrix: (Units=1/GPa)
#
#
# Indices 1 2 3 4 5 6 
#
# 1 0.013513 -0.002997 -0.006294 -0.005183 0.008976 -0.005096
# 2 -0.002997 0.010319 0.000127 0.007016 -0.000354 -0.001051
# 3 -0.006294 0.000127 0.018975 0.017125 0.000996 0.001204
# 4 -0.005183 0.007016 0.017125 0.042837 -0.003092 0.001063
# 5 0.008976 -0.000354 0.000996 -0.003092 0.059355 -0.010612
# 6 -0.005096 -0.001051 0.001204 0.001063 -0.010612 0.025592
#
#
# Mechanical properties :
#
#
# Convention : Reuss Voigt Hill
#
# Bulk Modulus (GPa) = 40.85174 73.98572 57.41873
# Shear Modulus (GPa) = 25.37052 37.27415 31.32233
#
# Velocity S-wave (km/s) = 3.43487 4.16342 3.81657
# Velocity P-wave (km/s) = 5.89312 7.58409 6.79144
#
# Compressibility (1/GPa) = 0.02447876
#
# Stress axis : x y z
#
# Youngs Moduli (GPa) = 74.00104 96.91144 52.70056
#
# Poissons Ratio (x) = 0.29047 0.33168
# Poissons Ratio (y) = 0.22180 -0.00669
# Poissons Ratio (z) = 0.46574 -0.01230
#
# Static dielectric constant tensor:
#      x y z
#    x 1.733490 -0.019960 -0.013640 
#    y -0.019960 2.049930 0.101170 
#    z -0.013640 0.101170 1.889160 
# 
# From -- ./inp_files/598849.got.cif
#   From: 2010.05.17/outbox.cif.g08.bks.cpg/sg2_300_cif.got.tgz:598849.got - 2010.06.03 11:33:40.
