data_PCOD9021556
_publ_section_title
;
Structure prediction by ZEFSAII (Michael W. Deem and Ramdas Pophale) SiO2 
 PCOD9021556
Probable space group: P -1
;
_chemical_formula_sum "Si O2"
_cell_formula_units_Z 14
_cell_length_a 13.823898
_cell_length_b 9.638227
_cell_length_c 7.384973
_cell_angle_alpha 102.549910
_cell_angle_beta 135.627488
_cell_angle_gamma 67.255023
_cell_volume 631.923771
_symmetry_space_group_name_H-M "P -1"
_symmetry_group_IT_number 2
_symmetry_cell_setting 'triclinic'
loop_
_space_group_symop_operation_xyz
x,y,z
-x,-y,-z
loop_
_atom_site_type_symbol
_atom_site_label
_atom_site_fract_x
_atom_site_fract_y
_atom_site_fract_z
Si Si1 0.537570 0.136042 0.497020
Si Si2 0.552248 0.689966 0.935767
Si Si3 0.034770 0.376365 0.751094
Si Si4 0.305745 0.435033 0.262855
Si Si5 0.159977 0.988686 0.269186
Si Si6 0.831045 0.708813 0.471215
Si Si7 0.757164 0.294499 0.475708
O O1 0.496342 0.167661 0.233722
O O2 0.440707 0.299372 0.489714
O O3 0.712320 0.092588 0.725997
O O4 0.500000 0.000000 0.500000
O O5 0.645243 0.560869 0.880321
O O6 0.406428 0.667832 0.813181
O O7 0.667658 0.701787 0.240598
O O8 0.951521 0.552996 0.649279
O O9 0.899698 0.318724 0.590414
O O10 0.123884 0.281390 0.674429
O O11 0.163040 0.381001 0.062283
O O12 0.274488 0.593886 0.360789
O O13 0.196177 0.879716 0.459176
O O14 0.165671 0.151560 0.368662
O O15 0.000000 0.000000 0.000000
#
# Coordination Sequence:
#
# PCOD9021556 Si02
#       7
#     2   2   2   2   2   2   2
#     4   9  21  37  59  89 117 158 195 234 299 345
#     4   8  20  37  59  83 119 155 195 235 294 342
#     4  10  22  38  63  85 116 164 196 237 297 342
#     4   9  19  38  60  86 120 153 196 241 284 359
#     4  11  25  38  61  91 117 150 200 248 297 346
#     4  10  22  43  58  83 121 159 196 239 295 361
#     4  11  21  36  61  92 116 153 199 249 287 336
#
# _framework density 22.154571000000001
#
# number of rings (size 3 to 8) (size 9 to 14) (size 15 to 20)
#    0.857    1.429    0.000    1.714    4.000    3.429 
#    0.000    1.429    0.000    0.000    0.000    0.000 
#    0.000    0.000    0.000    0.000    0.000    0.000 
#
# Total GULP energy -78036.961976 kJ/mol
# GULP energy per Si atom -5574.068713 kJ/mol
# Density = 2.210415 g / cm^3
# Si number density = 22.154571 Si / 1000 Ang^3
#
#
#
# Elastic Constant Matrix: (Units=GPa)
#
#
# Indices 1 2 3 4 5 6 
#
# 1 68.6735 24.9675 48.5170 9.5350 39.0256 -17.4118
# 2 24.9675 38.0459 11.2170 -12.1379 16.9921 13.9474
# 3 48.5170 11.2170 117.0614 1.0009 52.6322 -22.6559
# 4 9.5350 -12.1379 1.0009 16.5080 3.7726 17.9324
# 5 39.0256 16.9921 52.6322 3.7726 43.4716 -9.0538
# 6 -17.4118 13.9474 -22.6559 17.9324 -9.0538 0.1819
#
#
#
# Elastic Compliance Matrix: (Units=1/GPa)
#
#
# Indices 1 2 3 4 5 6 
#
# 1 0.024263 0.002155 -0.002595 0.007206 -0.022842 -0.013126
# 2 0.002155 0.017578 0.007079 -0.009000 -0.012179 0.021204
# 3 -0.002595 0.007079 0.021531 0.005999 -0.026002 0.004918
# 4 0.007206 -0.009000 0.005999 0.018434 -0.005624 0.029720
# 5 -0.022842 -0.012179 -0.026002 -0.005624 0.078972 -0.006084
# 6 -0.013126 0.021204 0.004918 0.029720 -0.006084 -0.005022
#
#
# Mechanical properties :
#
#
# Convention : Reuss Voigt Hill
#
# Bulk Modulus (GPa) = 13.04627 43.68708 28.36667
# Shear Modulus (GPa) = 29.75689 21.30427 25.53058
#
# Velocity S-wave (km/s) = 3.66888 3.10436 3.39836
# Velocity P-wave (km/s) = 4.88355 5.71064 5.31322
#
# Compressibility (1/GPa) = 0.07665029
#
# Stress axis : x y z
#
# Youngs Moduli (GPa) = 41.21441 56.89008 46.44476
#
# Poissons Ratio (x) = -0.12258 0.12051
# Poissons Ratio (y) = -0.08880 -0.32879
# Poissons Ratio (z) = 0.10694 -0.40273
#
# Static dielectric constant tensor:
#      x y z
#    x 1.897640 0.022350 -0.003920 
#    y 0.022350 1.836100 -0.079290 
#    z -0.003920 -0.079290 1.882220 
# 
# From -- ./inp_files/296286.got.cif
#   From: 2010.05.17/outbox.cif.g08.bks.cpg/sg2_149_cif.got.tgz:296286.got - 2010.06.03 11:33:40.
