data_PCOD9021265
_publ_section_title
;
Structure prediction by ZEFSAII (Michael W. Deem and Ramdas Pophale) SiO2 
 PCOD9021265
Probable space group: P -1
;
_chemical_formula_sum "Si O2"
_cell_formula_units_Z 16
_cell_length_a 13.100647
_cell_length_b 5.336042
_cell_length_c 11.504009
_cell_angle_alpha 116.618292
_cell_angle_beta 71.490889
_cell_angle_gamma 99.859113
_cell_volume 681.370842
_symmetry_space_group_name_H-M "P -1"
_symmetry_group_IT_number 2
_symmetry_cell_setting 'triclinic'
loop_
_space_group_symop_operation_xyz
x,y,z
-x,-y,-z
loop_
_atom_site_type_symbol
_atom_site_label
_atom_site_fract_x
_atom_site_fract_y
_atom_site_fract_z
Si Si1 0.129315 0.724864 0.896030
Si Si2 0.543000 0.678458 0.289702
Si Si3 0.949341 0.810049 0.580343
Si Si4 0.354246 0.804522 0.548902
Si Si5 0.650282 0.162466 0.060881
Si Si6 0.713904 0.810575 0.560096
Si Si7 0.946542 0.884808 0.175783
Si Si8 0.438236 0.856180 0.154538
O O1 0.227688 0.879622 0.959752
O O2 0.125372 0.387267 0.817035
O O3 0.121834 0.871389 0.804777
O O4 0.024621 0.785710 0.024268
O O5 0.469025 0.712509 0.434937
O O6 0.620029 0.426050 0.204388
O O7 0.462665 0.635930 0.200580
O O8 0.613951 0.967145 0.318083
O O9 0.822873 0.811492 0.596209
O O10 0.000000 0.500000 0.500000
O O11 0.000000 0.000000 0.500000
O O12 0.982051 0.975570 0.719755
O O13 0.301087 0.509495 0.542449
O O14 0.293649 0.970977 0.500513
O O15 0.555993 0.935522 0.076766
O O16 0.637231 0.229624 0.942933
O O17 0.618495 0.899055 0.701255
#
# Coordination Sequence:
#
# PCOD9021265 Si02
#       8
#     2   2   2   2   2   2   2   2
#     4  10  23  42  72  94 126 171 213 271 324 377
#     4  10  22  38  59  90 132 170 210 258 307 374
#     4  12  26  44  68  97 130 169 218 274 323 382
#     4  10  23  39  66  88 129 172 215 250 312 381
#     4  11  22  39  62  98 124 170 208 264 312 384
#     4  11  23  45  65  94 125 175 208 261 324 380
#     4  10  23  47  65  96 129 166 219 268 328 381
#     4  10  23  40  62  91 135 162 212 255 322 382
#
# _framework density 23.482071000000001
#
# number of rings (size 3 to 8) (size 9 to 14) (size 15 to 20)
#    0.000    1.500    1.250    2.625    3.500    4.500 
#    0.000    3.750    0.000    0.000    0.000    0.000 
#    0.000    0.000    0.000    0.000    0.000    0.000 
#
# Total GULP energy -89452.636635 kJ/mol
# GULP energy per Si atom -5590.789790 kJ/mol
# Density = 2.342862 g / cm^3
# Si number density = 23.482071 Si / 1000 Ang^3
#
#
#
# Elastic Constant Matrix: (Units=GPa)
#
#
# Indices 1 2 3 4 5 6 
#
# 1 102.0866 27.8780 0.1025 -7.7397 21.0245 -2.9188
# 2 27.8780 129.0429 27.3788 5.7037 5.8114 -14.0911
# 3 0.1025 27.3788 61.0211 7.2721 22.3514 -11.8152
# 4 -7.7397 5.7037 7.2721 27.6720 -5.7859 7.4821
# 5 21.0245 5.8114 22.3514 -5.7859 48.2719 -0.4310
# 6 -2.9188 -14.0911 -11.8152 7.4821 -0.4310 27.1113
#
#
#
# Elastic Compliance Matrix: (Units=1/GPa)
#
#
# Indices 1 2 3 4 5 6 
#
# 1 0.012092 -0.003086 0.003691 0.001492 -0.006418 0.000793
# 2 -0.003086 0.009691 -0.003990 -0.002434 0.001766 0.003666
# 3 0.003691 -0.003990 0.027959 -0.012423 -0.015440 0.013691
# 4 0.001492 -0.002434 -0.012423 0.047903 0.010962 -0.019564
# 5 -0.006418 0.001766 -0.015440 0.010962 0.031681 -0.009024
# 6 0.000793 0.003666 0.013691 -0.019564 -0.009024 0.050098
#
#
# Mechanical properties :
#
#
# Convention : Reuss Voigt Hill
#
# Bulk Modulus (GPa) = 23.27096 44.76325 34.01710
# Shear Modulus (GPa) = 24.93546 36.39711 30.66628
#
# Velocity S-wave (km/s) = 3.26221 3.94127 3.61771
# Velocity P-wave (km/s) = 4.91131 6.30996 5.65405
#
# Compressibility (1/GPa) = 0.04297202
#
# Stress axis : x y z
#
# Youngs Moduli (GPa) = 82.69816 103.19008 35.76728
#
# Poissons Ratio (x) = 0.31842 -0.13201
# Poissons Ratio (y) = 0.25519 0.14271
# Poissons Ratio (z) = -0.30523 0.41171
#
# Static dielectric constant tensor:
#      x y z
#    x 1.927220 -0.014290 -0.001950 
#    y -0.014290 1.917930 -0.007410 
#    z -0.001950 -0.007410 1.878430 
# 
# From -- ./inp_files/109889.got.cif
#   From: 2010.05.17/outbox.cif.g08.bks.cpg/sg2_55_cif.got.tgz:109889.got - 2010.06.03 11:33:40.
