data_PCOD9021457
_publ_section_title
;
Structure prediction by ZEFSAII (Michael W. Deem and Ramdas Pophale) SiO2 
 PCOD9021457
Probable space group: P -1
;
_chemical_formula_sum "Si O2"
_cell_formula_units_Z 16
_cell_length_a 26.137811
_cell_length_b 8.903022
_cell_length_c 13.796281
_cell_angle_alpha 136.226941
_cell_angle_beta 23.233357
_cell_angle_gamma 125.198167
_cell_volume 830.292618
_symmetry_space_group_name_H-M "P -1"
_symmetry_group_IT_number 2
_symmetry_cell_setting 'triclinic'
loop_
_space_group_symop_operation_xyz
x,y,z
-x,-y,-z
loop_
_atom_site_type_symbol
_atom_site_label
_atom_site_fract_x
_atom_site_fract_y
_atom_site_fract_z
Si Si1 0.784760 0.717002 0.737777
Si Si2 0.663616 0.409922 0.679016
Si Si3 0.703487 0.221213 0.031802
Si Si4 0.350833 0.061519 0.740224
Si Si5 0.504593 0.647250 0.696976
Si Si6 0.308689 0.111300 0.613597
Si Si7 0.304103 0.574223 0.586565
Si Si8 0.107139 0.559610 0.096755
O O1 0.717990 0.539364 0.726564
O O2 0.946225 0.637727 0.402413
O O3 0.717545 0.965724 0.920573
O O4 0.750666 0.754001 0.927811
O O5 0.715927 0.466614 0.509772
O O6 0.703585 0.137828 0.496283
O O7 0.500000 0.500000 0.000000
O O8 0.590529 0.409782 0.381748
O O9 0.647553 0.275407 0.044970
O O10 0.842269 0.271604 0.842445
O O11 0.308485 0.832079 0.707039
O O12 0.500000 0.000000 0.500000
O O13 0.346313 0.135728 0.671522
O O14 0.572513 0.835976 0.630839
O O15 0.549756 0.589233 0.701986
O O16 0.170924 0.309732 0.916627
O O17 0.186712 0.551253 0.852307
#
# Coordination Sequence:
#
# PCOD9021457 Si02
#       8
#     2   2   2   2   2   2   2   2
#     4  12  22  36  60  88 118 150 200 240 282 348
#     4  11  23  40  59  86 118 151 192 244 290 348
#     4   9  17  31  56  89 111 138 186 247 280 324
#     4  11  20  33  61  88 115 152 190 240 294 341
#     4   9  16  34  63  83 113 148 191 238 293 333
#     4   9  21  38  57  83 120 155 190 233 294 347
#     4   9  20  38  60  83 115 155 191 230 297 349
#     4  10  22  38  62  81 117 158 197 237 284 342
#
# _framework density 19.270316000000001
#
# number of rings (size 3 to 8) (size 9 to 14) (size 15 to 20)
#    0.000    2.250    2.500    3.375    3.500    1.500 
#    0.000    5.625    0.000    0.000    0.000    0.000 
#    0.000    0.000    0.000    0.000    0.000    0.000 
#
# Total GULP energy -89308.422225 kJ/mol
# GULP energy per Si atom -5581.776389 kJ/mol
# Density = 1.922646 g / cm^3
# Si number density = 19.270316 Si / 1000 Ang^3
#
#
#
# Elastic Constant Matrix: (Units=GPa)
#
#
# Indices 1 2 3 4 5 6 
#
# 1 47.1001 36.1946 4.6029 4.0341 -0.4241 -1.7665
# 2 36.1946 94.2540 21.7975 15.6475 -0.6245 -0.2333
# 3 4.6029 21.7975 44.6094 -8.7579 -13.2293 2.9108
# 4 4.0341 15.6475 -8.7579 23.7018 3.9209 -3.5166
# 5 -0.4241 -0.6245 -13.2293 3.9209 25.9731 -3.2065
# 6 -1.7665 -0.2333 2.9108 -3.5166 -3.2065 29.3381
#
#
#
# Elastic Compliance Matrix: (Units=1/GPa)
#
#
# Indices 1 2 3 4 5 6 
#
# 1 0.031223 -0.014237 0.005463 0.006048 0.002309 0.002202
# 2 -0.014237 0.021999 -0.013752 -0.016721 -0.004407 -0.001804
# 3 0.005463 -0.013752 0.036998 0.019299 0.015762 0.000585
# 4 0.006048 -0.016721 0.019299 0.059974 0.001169 0.005633
# 5 0.002309 -0.004407 0.015762 0.001169 0.046753 0.003790
# 6 0.002202 -0.001804 0.000585 0.005633 0.003790 0.035235
#
#
# Mechanical properties :
#
#
# Convention : Reuss Voigt Hill
#
# Bulk Modulus (GPa) = 22.13910 34.57259 28.35585
# Shear Modulus (GPa) = 17.10627 24.02717 20.56672
#
# Velocity S-wave (km/s) = 2.98266 3.53491 3.27046
# Velocity P-wave (km/s) = 4.83481 5.88562 5.38590
#
# Compressibility (1/GPa) = 0.04516896
#
# Stress axis : x y z
#
# Youngs Moduli (GPa) = 32.02732 45.45586 27.02843
#
# Poissons Ratio (x) = 0.64715 -0.14767
# Poissons Ratio (y) = 0.45597 0.37170
# Poissons Ratio (z) = -0.17498 0.62513
#
# Static dielectric constant tensor:
#      x y z
#    x 1.699940 -0.017460 0.013180 
#    y -0.017460 1.683760 -0.006650 
#    z 0.013180 -0.006650 1.680730 
# 
# From -- ./inp_files/544853.got.cif
#   From: 2010.05.17/outbox.cif.g08.bks.cpg/sg2_273_cif.got.tgz:544853.got - 2010.06.03 11:33:40.
