data_PCOD9021831
_publ_section_title
;
Structure prediction by ZEFSAII (Michael W. Deem and Ramdas Pophale) SiO2 
 PCOD9021831
Probable space group: P -1
;
_chemical_formula_sum "Si O2"
_cell_formula_units_Z 15
_cell_length_a 9.501367
_cell_length_b 16.052980
_cell_length_c 15.503283
_cell_angle_alpha 41.654985
_cell_angle_beta 41.309047
_cell_angle_gamma 26.568939
_cell_volume 675.069009
_symmetry_space_group_name_H-M "P -1"
_symmetry_group_IT_number 2
_symmetry_cell_setting 'triclinic'
loop_
_space_group_symop_operation_xyz
x,y,z
-x,-y,-z
loop_
_atom_site_type_symbol
_atom_site_label
_atom_site_fract_x
_atom_site_fract_y
_atom_site_fract_z
Si Si1 0.120892 0.633750 0.071492
Si Si2 0.214750 0.624547 0.605935
Si Si3 0.546320 0.666146 0.539889
Si Si4 0.800762 0.620690 0.084881
Si Si5 0.500000 0.000000 0.500000
Si Si6 0.759885 0.016628 0.044035
Si Si7 0.232823 0.383955 0.352008
Si Si8 0.475078 0.991581 0.348504
O O1 0.117295 0.509926 0.225505
O O2 0.962482 0.663696 0.030452
O O3 0.937365 0.825043 0.059772
O O4 0.500000 0.500000 0.000000
O O5 0.500000 0.500000 0.500000
O O6 0.283455 0.702240 0.583596
O O7 0.208366 0.496339 0.758123
O O8 0.849298 0.826381 0.583884
O O9 0.592681 0.607354 0.663384
O O10 0.893661 0.493032 0.467644
O O11 0.473796 0.847718 0.432517
O O12 0.000000 0.500000 0.000000
O O13 0.446776 0.816278 0.060728
O O14 0.519556 0.837136 0.610860
O O15 0.273881 0.095537 0.622700
O O16 0.524344 0.057027 0.193482
O O17 0.000000 0.000000 0.000000
#
# Coordination Sequence:
#
# PCOD9021831 Si02
#       8
#     2   2   2   2   1   2   2   2
#     4  12  27  48  74 104 146 198 254 305 375 446
#     4  12  26  44  74 105 145 186 249 300 386 438
#     4  10  22  42  67 101 132 189 230 300 365 439
#     4  12  27  50  75 108 153 193 249 317 373 455
#     4  10  22  38  66 102 132 178 226 292 362 418
#     4  12  28  47  77 106 147 206 253 308 378 448
#     4  10  22  41  70  97 141 177 238 299 360 432
#     4  11  23  45  69  99 149 182 245 307 364 445
#
# _framework density 22.219951999999999
#
# number of rings (size 3 to 8) (size 9 to 14) (size 15 to 20)
#    0.000    0.800    2.667    4.000    5.600    1.067 
#    2.400    0.000    0.000    0.000    0.000    0.000 
#    0.000    0.000    0.000    0.000    0.000    0.000 
#
# Total GULP energy -83587.627641 kJ/mol
# GULP energy per Si atom -5572.508509 kJ/mol
# Density = 2.216938 g / cm^3
# Si number density = 22.219952 Si / 1000 Ang^3
#
#
#
# Elastic Constant Matrix: (Units=GPa)
#
#
# Indices 1 2 3 4 5 6 
#
# 1 157.8937 19.2387 29.3789 2.6932 -6.3936 18.7212
# 2 19.2387 140.0393 54.9935 -11.1345 1.5446 16.9922
# 3 29.3789 54.9935 77.9237 -10.6772 5.6150 16.7736
# 4 2.6932 -11.1345 -10.6772 34.8201 0.4661 1.7065
# 5 -6.3936 1.5446 5.6150 0.4661 27.0704 -1.8300
# 6 18.7212 16.9922 16.7736 1.7065 -1.8300 32.9514
#
#
#
# Elastic Compliance Matrix: (Units=1/GPa)
#
#
# Indices 1 2 3 4 5 6 
#
# 1 0.007217 0.000253 -0.002625 -0.001177 0.002071 -0.002719
# 2 0.000253 0.010044 -0.006641 0.001243 0.000710 -0.001967
# 3 -0.002625 -0.006641 0.020886 0.004858 -0.005079 -0.006250
# 4 -0.001177 0.001243 0.004858 0.030930 -0.002171 -0.004168
# 5 0.002071 0.000710 -0.005079 -0.002171 0.038704 0.003305
# 6 -0.002719 -0.001967 -0.006250 -0.004168 0.003305 0.036488
#
#
# Mechanical properties :
#
#
# Convention : Reuss Voigt Hill
#
# Bulk Modulus (GPa) = 49.69753 64.78654 57.24204
# Shear Modulus (GPa) = 29.58545 37.11810 33.35177
#
# Velocity S-wave (km/s) = 3.65291 4.09159 3.87846
# Velocity P-wave (km/s) = 6.34085 7.17926 6.77304
#
# Compressibility (1/GPa) = 0.02012172
#
# Stress axis : x y z
#
# Youngs Moduli (GPa) = 138.55718 99.56505 47.87824
#
# Poissons Ratio (x) = -0.02516 0.12566
# Poissons Ratio (y) = -0.03501 0.31795
# Poissons Ratio (z) = 0.36366 0.66119
#
# Static dielectric constant tensor:
#      x y z
#    x 1.583250 0.169900 -0.036040 
#    y 0.169900 1.724300 0.033740 
#    z -0.036040 0.033740 1.841970 
# 
# From -- ./inp_files/505207.got.cif
#   From: 2010.05.17/outbox.cif.g08.bks.cpg/sg2_253_cif.got.tgz:505207.got - 2010.06.03 11:33:40.
