data_PCOD9021848
_publ_section_title
;
Structure prediction by ZEFSAII (Michael W. Deem and Ramdas Pophale) SiO2 
 PCOD9021848
Probable space group: P -1
;
_chemical_formula_sum "Si O2"
_cell_formula_units_Z 14
_cell_length_a 11.561221
_cell_length_b 11.649335
_cell_length_c 10.742348
_cell_angle_alpha 128.865704
_cell_angle_beta 135.865061
_cell_angle_gamma 42.951932
_cell_volume 670.363366
_symmetry_space_group_name_H-M "P -1"
_symmetry_group_IT_number 2
_symmetry_cell_setting 'triclinic'
loop_
_space_group_symop_operation_xyz
x,y,z
-x,-y,-z
loop_
_atom_site_type_symbol
_atom_site_label
_atom_site_fract_x
_atom_site_fract_y
_atom_site_fract_z
Si Si1 0.152446 0.111251 0.405931
Si Si2 0.884732 0.385162 0.182705
Si Si3 0.615623 0.763802 0.187122
Si Si4 0.536527 0.810111 0.884410
Si Si5 0.906768 0.672292 0.960606
Si Si6 0.236884 0.874450 0.104509
Si Si7 0.897785 0.010563 0.299036
O O1 0.281077 0.132843 0.623233
O O2 0.033389 0.276161 0.334679
O O3 0.289098 0.946548 0.313754
O O4 0.995271 0.074136 0.318535
O O5 0.739454 0.585004 0.234587
O O6 0.747219 0.307253 0.999044
O O7 0.005205 0.357320 0.129491
O O8 0.385497 0.864130 0.107754
O O9 0.640934 0.717274 0.029892
O O10 0.324263 0.842083 0.745678
O O11 0.679400 0.730433 0.824881
O O12 0.500000 0.000000 0.000000
O O13 0.919309 0.830058 0.143948
O O14 0.000000 0.500000 0.000000
O O15 0.000000 0.000000 0.000000
O O16 0.000000 0.000000 0.500000
#
# Coordination Sequence:
#
# PCOD9021848 Si02
#       7
#     2   2   2   2   2   2   2
#     4  11  23  41  65  98 129 165 213 265 315 376
#     4  11  23  41  66  93 135 168 207 264 320 378
#     4  12  23  41  66  95 127 169 215 260 321 377
#     4  10  22  38  66  90 122 170 215 253 315 379
#     4  11  22  43  67  94 129 170 212 260 320 374
#     4  10  22  40  62  89 124 164 210 263 308 371
#     4  11  24  45  68  93 128 166 216 265 316 380
#
# _framework density 20.884197
#
# number of rings (size 3 to 8) (size 9 to 14) (size 15 to 20)
#    0.000    1.143    2.857    4.714    6.000    0.000 
#    2.571    0.714    0.000    0.000    0.000    0.000 
#    0.000    0.000    0.000    0.000    0.000    0.000 
#
# Total GULP energy -78069.170679 kJ/mol
# GULP energy per Si atom -5576.369334 kJ/mol
# Density = 2.083666 g / cm^3
# Si number density = 20.884197 Si / 1000 Ang^3
#
#
#
# Elastic Constant Matrix: (Units=GPa)
#
#
# Indices 1 2 3 4 5 6 
#
# 1 130.0278 23.3849 29.4064 -18.4629 19.3166 -2.9258
# 2 23.3849 60.1132 20.4755 -1.3427 11.5020 3.7137
# 3 29.4064 20.4755 93.8399 -6.5400 7.8667 -1.5451
# 4 -18.4629 -1.3427 -6.5400 23.1182 8.2191 0.5872
# 5 19.3166 11.5020 7.8667 8.2191 31.3987 -5.2712
# 6 -2.9258 3.7137 -1.5451 0.5872 -5.2712 35.0778
#
#
#
# Elastic Compliance Matrix: (Units=1/GPa)
#
#
# Indices 1 2 3 4 5 6 
#
# 1 0.011401 -0.001858 -0.001590 0.011797 -0.009105 -0.000488
# 2 -0.001858 0.019862 -0.003218 0.001034 -0.006158 -0.003342
# 3 -0.001590 -0.003218 0.012161 0.002491 -0.001461 0.000483
# 4 0.011797 0.001034 0.002491 0.062526 -0.025276 -0.003861
# 5 -0.009105 -0.006158 -0.001461 -0.025276 0.047940 0.007455
# 6 -0.000488 -0.003342 0.000483 -0.003861 0.007455 0.030027
#
#
# Mechanical properties :
#
#
# Convention : Reuss Voigt Hill
#
# Bulk Modulus (GPa) = 33.23161 47.83495 40.53328
# Shear Modulus (GPa) = 24.12190 31.96653 28.04421
#
# Velocity S-wave (km/s) = 3.40226 3.91660 3.66846
# Velocity P-wave (km/s) = 5.60185 6.58845 6.11508
#
# Compressibility (1/GPa) = 0.03009183
#
# Stress axis : x y z
#
# Youngs Moduli (GPa) = 87.71075 50.34709 82.23076
#
# Poissons Ratio (x) = 0.09354 0.13074
# Poissons Ratio (y) = 0.16295 0.26465
# Poissons Ratio (z) = 0.13945 0.16204
#
# Static dielectric constant tensor:
#      x y z
#    x 1.675480 -0.132990 0.083910 
#    y -0.132990 1.597190 0.114410 
#    z 0.083910 0.114410 1.698630 
# 
# From -- ./inp_files/201513.got.cif
#   From: 2010.05.17/outbox.cif.g08.bks.cpg/sg2_101_cif.got.tgz:201513.got - 2010.06.03 11:33:40.
