data_PCOD9021867
_publ_section_title
;
Structure prediction by ZEFSAII (Michael W. Deem and Ramdas Pophale) SiO2 
 PCOD9021867
Probable space group: P -1
;
_chemical_formula_sum "Si O2"
_cell_formula_units_Z 14
_cell_length_a 9.018521
_cell_length_b 8.333392
_cell_length_c 7.864085
_cell_angle_alpha 107.300644
_cell_angle_beta 107.402864
_cell_angle_gamma 84.518668
_cell_volume 538.440895
_symmetry_space_group_name_H-M "P -1"
_symmetry_group_IT_number 2
_symmetry_cell_setting 'triclinic'
loop_
_space_group_symop_operation_xyz
x,y,z
-x,-y,-z
loop_
_atom_site_type_symbol
_atom_site_label
_atom_site_fract_x
_atom_site_fract_y
_atom_site_fract_z
Si Si1 0.492631 0.966633 0.760060
Si Si2 0.199634 0.454263 0.753514
Si Si3 0.334395 0.842061 0.353728
Si Si4 0.078367 0.115486 0.425418
Si Si5 0.051836 0.288500 0.148764
Si Si6 0.685434 0.474810 0.547693
Si Si7 0.712212 0.808540 0.058704
O O1 0.589917 0.134174 0.797602
O O2 0.469150 0.866095 0.547770
O O3 0.581756 0.852301 0.887894
O O4 0.324325 0.033252 0.781876
O O5 0.114937 0.292536 0.587309
O O6 0.270991 0.549759 0.644727
O O7 0.080513 0.570044 0.854139
O O8 0.311836 0.362445 0.897944
O O9 0.264645 0.671267 0.347491
O O10 0.222154 0.001590 0.377183
O O11 0.994911 0.161684 0.234484
O O12 0.000000 0.000000 0.500000
O O13 0.208998 0.371153 0.305703
O O14 0.118200 0.207581 0.974050
O O15 0.500000 0.500000 0.500000
#
# Coordination Sequence:
#
# PCOD9021867 Si02
#       7
#     2   2   2   2   2   2   2
#     4  10  22  38  66  94 122 166 212 264 312 370
#     4  11  23  42  63  95 130 170 207 260 322 379
#     4  11  20  40  65  92 121 160 220 261 301 362
#     4  11  21  39  67  91 117 166 224 257 302 369
#     4  11  23  42  63  95 130 170 207 260 322 379
#     4  11  23  39  67  97 125 165 217 266 312 367
#     4  11  21  40  62  92 131 167 202 256 327 384
#
# _framework density 26.000995
#
# number of rings (size 3 to 8) (size 9 to 14) (size 15 to 20)
#    0.000    1.143    2.857    5.571    4.000    0.000 
#    0.000    8.571    0.000    0.000    0.000    0.000 
#    0.000    0.000    0.000    0.000    0.000    0.000 
#
# Total GULP energy -78248.475930 kJ/mol
# GULP energy per Si atom -5589.176852 kJ/mol
# Density = 2.594182 g / cm^3
# Si number density = 26.000995 Si / 1000 Ang^3
#
#
#
# Elastic Constant Matrix: (Units=GPa)
#
#
# Indices 1 2 3 4 5 6 
#
# 1 112.1353 50.4189 26.4743 3.7797 -37.4713 -25.9441
# 2 50.4189 137.0369 39.2791 -18.5189 -19.8196 -24.0566
# 3 26.4743 39.2791 86.5050 -25.8343 -25.9701 -6.4405
# 4 3.7797 -18.5189 -25.8343 30.9740 -6.7436 -1.3299
# 5 -37.4713 -19.8196 -25.9701 -6.7436 47.0371 -0.5104
# 6 -25.9441 -24.0566 -6.4405 -1.3299 -0.5104 57.6450
#
#
#
# Elastic Compliance Matrix: (Units=1/GPa)
#
#
# Indices 1 2 3 4 5 6 
#
# 1 0.015294 -0.003275 0.000111 -0.001149 0.010761 0.005598
# 2 -0.003275 0.010500 -0.000898 0.006555 0.002292 0.002979
# 3 0.000111 -0.000898 0.023939 0.023089 0.016270 0.003027
# 4 -0.001149 0.006555 0.023089 0.060973 0.023406 0.006412
# 5 0.010761 0.002292 0.016270 0.023406 0.043229 0.008540
# 6 0.005598 0.002979 0.003027 0.006412 0.008540 0.021672
#
#
# Mechanical properties :
#
#
# Convention : Reuss Voigt Hill
#
# Bulk Modulus (GPa) = 24.03350 63.11354 43.57352
# Shear Modulus (GPa) = 25.30354 41.76485 33.53420
#
# Velocity S-wave (km/s) = 3.12296 4.01219 3.59517
# Velocity P-wave (km/s) = 4.71881 6.76681 5.83339
#
# Compressibility (1/GPa) = 0.04160859
#
# Stress axis : x y z
#
# Youngs Moduli (GPa) = 65.38591 95.23903 41.77295
#
# Poissons Ratio (x) = 0.31190 -0.00462
# Poissons Ratio (y) = 0.21413 0.03750
# Poissons Ratio (z) = -0.00724 0.08551
#
# Static dielectric constant tensor:
#      x y z
#    x 2.121980 0.113050 -0.045150 
#    y 0.113050 2.104800 0.010820 
#    z -0.045150 0.010820 2.190590 
# 
# From -- ./inp_files/154768.got.cif
#   From: 2010.05.17/outbox.cif.g08.bks.cpg/sg2_78_cif.got.tgz:154768.got - 2010.06.03 11:33:40.
