data_PCOD9021545
_publ_section_title
;
Structure prediction by ZEFSAII (Michael W. Deem and Ramdas Pophale) SiO2 
 PCOD9021545
Probable space group: P -1
;
_chemical_formula_sum "Si O2"
_cell_formula_units_Z 15
_cell_length_a 11.695993
_cell_length_b 5.148739
_cell_length_c 11.685798
_cell_angle_alpha 86.058917
_cell_angle_beta 119.445332
_cell_angle_gamma 87.447372
_cell_volume 608.873238
_symmetry_space_group_name_H-M "P -1"
_symmetry_group_IT_number 2
_symmetry_cell_setting 'triclinic'
loop_
_space_group_symop_operation_xyz
x,y,z
-x,-y,-z
loop_
_atom_site_type_symbol
_atom_site_label
_atom_site_fract_x
_atom_site_fract_y
_atom_site_fract_z
Si Si1 0.257970 0.962523 0.848303
Si Si2 0.302222 0.458096 0.466806
Si Si3 0.853608 0.670823 0.048575
Si Si4 0.909386 0.730788 0.805230
Si Si5 0.500000 0.000000 0.500000
Si Si6 0.391218 0.609695 0.104394
Si Si7 0.698444 0.507419 0.277458
Si Si8 0.698536 0.133204 0.712235
O O1 0.144386 0.077928 0.877607
O O2 0.281051 0.212119 0.774966
O O3 0.234867 0.727843 0.758307
O O4 0.374012 0.835860 0.992703
O O5 0.188564 0.417029 0.320365
O O6 0.253457 0.518166 0.567838
O O7 0.368417 0.711772 0.437836
O O8 0.401378 0.200620 0.528651
O O9 0.950705 0.425217 0.142592
O O10 0.887613 0.714537 0.932116
O O11 0.703372 0.601298 0.979805
O O12 0.845267 0.029135 0.751885
O O13 0.400212 0.093046 0.335480
O O14 0.540102 0.499294 0.199276
O O15 0.322608 0.721935 0.184383
#
# Coordination Sequence:
#
# PCOD9021545 Si02
#       8
#     2   2   2   2   1   2   2   2
#     4  12  27  48  67 104 140 195 233 286 340 423
#     4  11  24  42  65 102 140 181 226 289 354 421
#     4  11  24  45  70 103 138 182 238 289 357 406
#     4  10  24  43  71 103 137 176 230 304 349 414
#     4  10  22  38  62  98 138 176 226 278 362 416
#     4  12  24  42  70 104 141 179 235 294 350 416
#     4  12  29  43  72 101 149 187 233 279 349 428
#     4  11  22  38  68 103 136 174 223 297 362 406
#
# _framework density 24.635670999999999
#
# number of rings (size 3 to 8) (size 9 to 14) (size 15 to 20)
#    0.000    0.800    5.333    1.200    5.600    1.600 
#    0.000    1.333    0.000    0.000    0.000    0.000 
#    0.000    0.000    0.000    0.000    0.000    0.000 
#
# Total GULP energy -83653.655784 kJ/mol
# GULP energy per Si atom -5576.910386 kJ/mol
# Density = 2.457960 g / cm^3
# Si number density = 24.635671 Si / 1000 Ang^3
#
#
#
# Elastic Constant Matrix: (Units=GPa)
#
#
# Indices 1 2 3 4 5 6 
#
# 1 37.4681 34.5808 22.8075 3.7904 -9.8681 -21.6437
# 2 34.5808 160.0176 57.4109 13.9310 -20.9387 -20.1157
# 3 22.8075 57.4109 120.4627 14.6726 -32.1490 -19.4241
# 4 3.7904 13.9310 14.6726 39.0036 -14.3441 -11.4087
# 5 -9.8681 -20.9387 -32.1490 -14.3441 35.1886 -1.3677
# 6 -21.6437 -20.1157 -19.4241 -11.4087 -1.3677 30.4287
#
#
#
# Elastic Compliance Matrix: (Units=1/GPa)
#
#
# Indices 1 2 3 4 5 6 
#
# 1 0.069868 -0.007591 0.005367 0.022367 0.031348 0.057899
# 2 -0.007591 0.008786 -0.003048 -0.002203 -0.000677 -0.002394
# 3 0.005367 -0.003048 0.014421 0.004711 0.015310 0.013462
# 4 0.022367 -0.002203 0.004711 0.043034 0.028162 0.034861
# 5 0.031348 -0.000677 0.015310 0.028162 0.064025 0.045060
# 6 0.057899 -0.002394 0.013462 0.034861 0.045060 0.096154
#
#
# Mechanical properties :
#
#
# Convention : Reuss Voigt Hill
#
# Bulk Modulus (GPa) = 12.11681 60.83852 36.47767
# Shear Modulus (GPa) = 14.95477 34.46746 24.71112
#
# Velocity S-wave (km/s) = 2.46649 3.74450 3.17055
# Velocity P-wave (km/s) = 3.61116 6.59120 5.31434
#
# Compressibility (1/GPa) = 0.08253000
#
# Stress axis : x y z
#
# Youngs Moduli (GPa) = 14.31275 113.82021 69.34473
#
# Poissons Ratio (x) = 0.86406 -0.37221
# Poissons Ratio (y) = 0.10865 0.21138
# Poissons Ratio (z) = -0.07682 0.34694
#
# Static dielectric constant tensor:
#      x y z
#    x 1.593040 -0.335680 -0.073330 
#    y -0.335680 1.680760 -0.057890 
#    z -0.073330 -0.057890 1.980650 
# 
# From -- ./inp_files/410599.got.cif
#   From: 2010.05.17/outbox.cif.g08.bks.cpg/sg2_206_cif.got.tgz:410599.got - 2010.06.03 11:33:40.
