data_PCOD9021455
_publ_section_title
;
Structure prediction by ZEFSAII (Michael W. Deem and Ramdas Pophale) SiO2 
 PCOD9021455
Probable space group: P -1
;
_chemical_formula_sum "Si O2"
_cell_formula_units_Z 13
_cell_length_a 14.552219
_cell_length_b 15.189326
_cell_length_c 9.157064
_cell_angle_alpha 131.324855
_cell_angle_beta 112.050993
_cell_angle_gamma 26.856780
_cell_volume 533.384660
_symmetry_space_group_name_H-M "P -1"
_symmetry_group_IT_number 2
_symmetry_cell_setting 'triclinic'
loop_
_space_group_symop_operation_xyz
x,y,z
-x,-y,-z
loop_
_atom_site_type_symbol
_atom_site_label
_atom_site_fract_x
_atom_site_fract_y
_atom_site_fract_z
Si Si1 0.626547 0.015981 0.716823
Si Si2 0.900100 0.923403 0.887350
Si Si3 0.319445 0.903242 0.633749
Si Si4 0.298733 0.157789 0.756232
Si Si5 0.204442 0.865541 0.255272
Si Si6 0.844382 0.330911 0.964620
Si Si7 0.500000 0.500000 0.500000
O O1 0.848387 0.841684 0.745745
O O2 0.472924 0.083854 0.785943
O O3 0.423174 0.343409 0.913894
O O4 0.703014 0.880506 0.456671
O O5 0.915863 0.960398 0.776782
O O6 0.666995 0.240668 0.188201
O O7 0.154426 0.667591 0.858406
O O8 0.220355 0.947348 0.475085
O O9 0.492491 0.623499 0.521951
O O10 0.410118 0.932685 0.678557
O O11 0.051377 0.200408 0.894007
O O12 0.000000 0.500000 0.000000
O O13 0.500000 0.500000 0.000000
O O14 0.057062 0.909460 0.272715
#
# Coordination Sequence:
#
# PCOD9021455 Si02
#       7
#     2   2   2   2   2   2   1
#     4  11  23  45  74  94 135 184 228 283 339 397
#     4  11  23  41  66 102 138 177 226 279 346 407
#     4  11  21  40  68  95 138 177 226 280 341 402
#     4  11  23  44  73  97 129 189 234 276 337 404
#     4  12  20  38  66  93 133 187 219 273 352 400
#     4  11  23  39  66 100 137 171 227 284 341 413
#     4  10  22  38  62 102 138 162 218 284 334 404
#
# _framework density 24.372655999999999
#
# number of rings (size 3 to 8) (size 9 to 14) (size 15 to 20)
#    0.000    0.923    6.154    0.923    0.000    1.231 
#    0.000    6.154    0.000    0.000    0.000    0.000 
#    0.000    0.000    0.000    0.000    0.000    0.000 
#
# Total GULP energy -72503.985066 kJ/mol
# GULP energy per Si atom -5577.229620 kJ/mol
# Density = 2.431718 g / cm^3
# Si number density = 24.372656 Si / 1000 Ang^3
#
#
#
# Elastic Constant Matrix: (Units=GPa)
#
#
# Indices 1 2 3 4 5 6 
#
# 1 197.1772 42.1407 24.7066 -6.3300 15.5989 25.5024
# 2 42.1407 79.3884 3.8111 -22.5071 2.4614 20.4420
# 3 24.7066 3.8111 56.7427 -3.4169 -5.6991 14.4744
# 4 -6.3300 -22.5071 -3.4169 26.3903 -0.2146 -2.0147
# 5 15.5989 2.4614 -5.6991 -0.2146 35.7942 -5.6979
# 6 25.5024 20.4420 14.4744 -2.0147 -5.6979 44.1266
#
#
#
# Elastic Compliance Matrix: (Units=1/GPa)
#
#
# Indices 1 2 3 4 5 6 
#
# 1 0.006548 -0.003222 -0.002575 -0.001688 -0.003364 -0.001959
# 2 -0.003222 0.021129 0.003033 0.017004 -0.000776 -0.008245
# 3 -0.002575 0.003033 0.020674 0.004208 0.003262 -0.006085
# 4 -0.001688 0.017004 0.004208 0.052077 -0.000400 -0.005956
# 5 -0.003364 -0.000776 0.003262 -0.000400 0.030800 0.005193
# 6 -0.001959 -0.008245 -0.006085 -0.005956 0.005193 0.030008
#
#
# Mechanical properties :
#
#
# Convention : Reuss Voigt Hill
#
# Bulk Modulus (GPa) = 23.35173 52.73612 38.04393
# Shear Modulus (GPa) = 27.61857 38.77223 33.19540
#
# Velocity S-wave (km/s) = 3.36992 3.99282 3.69452
# Velocity P-wave (km/s) = 4.97431 6.55295 5.81743
#
# Compressibility (1/GPa) = 0.04282338
#
# Stress axis : x y z
#
# Youngs Moduli (GPa) = 152.71716 47.32894 48.36999
#
# Poissons Ratio (x) = 0.15249 0.12453
# Poissons Ratio (y) = 0.49206 -0.14670
# Poissons Ratio (z) = 0.39318 -0.14354
#
# Static dielectric constant tensor:
#      x y z
#    x 2.221150 -0.148930 -0.121770 
#    y -0.148930 2.045970 0.080560 
#    z -0.121770 0.080560 1.987760 
# 
# From -- ./inp_files/315954.got.cif
#   From: 2010.05.17/outbox.cif.g08.bks.cpg/sg2_158_cif.got.tgz:315954.got - 2010.06.03 11:33:40.
