data_PCOD9021621
_publ_section_title
;
Structure prediction by ZEFSAII (Michael W. Deem and Ramdas Pophale) SiO2 
 PCOD9021621
Probable space group: P -1
;
_chemical_formula_sum "Si O2"
_cell_formula_units_Z 16
_cell_length_a 23.341985
_cell_length_b 10.861592
_cell_length_c 11.355569
_cell_angle_alpha 28.926404
_cell_angle_beta 28.167893
_cell_angle_gamma 33.558664
_cell_volume 632.867775
_symmetry_space_group_name_H-M "P -1"
_symmetry_group_IT_number 2
_symmetry_cell_setting 'triclinic'
loop_
_space_group_symop_operation_xyz
x,y,z
-x,-y,-z
loop_
_atom_site_type_symbol
_atom_site_label
_atom_site_fract_x
_atom_site_fract_y
_atom_site_fract_z
Si Si1 0.711304 0.926131 0.941419
Si Si2 0.766601 0.063107 0.335414
Si Si3 0.613422 0.495264 0.387573
Si Si4 0.080544 0.834332 0.598908
Si Si5 0.286262 0.305945 0.609624
Si Si6 0.487335 0.519318 0.157133
Si Si7 0.099670 0.287133 0.781266
Si Si8 0.262565 0.500494 0.176994
O O1 0.840230 0.996021 0.620247
O O2 0.591306 0.177207 0.961602
O O3 0.681023 0.728308 0.066639
O O4 0.732407 0.814516 0.129748
O O5 0.720135 0.219622 0.407963
O O6 0.901151 0.904712 0.167506
O O7 0.703847 0.813937 0.654398
O O8 0.733332 0.311788 0.096413
O O9 0.500000 0.500000 0.500000
O O10 0.552290 0.541041 0.588604
O O11 0.188500 0.595265 0.548344
O O12 0.000000 0.000000 0.500000
O O13 0.004043 0.708852 0.937299
O O14 0.427373 0.341627 0.328429
O O15 0.231623 0.170974 0.714406
O O16 0.635984 0.462849 0.942931
O O17 0.127071 0.539610 0.454307
#
# Coordination Sequence:
#
# PCOD9021621 Si02
#       8
#     2   2   2   2   2   2   2   2
#     4  10  23  37  64  98 126 163 231 268 318 382
#     4  10  24  39  62  98 128 173 217 263 329 389
#     4  11  21  39  68  91 130 172 218 271 318 388
#     4  11  22  40  69  93 124 172 219 276 324 381
#     4  10  22  39  61  97 125 167 220 271 324 385
#     4  10  22  38  63  96 130 166 222 269 320 391
#     4  10  24  38  64  92 132 170 216 264 331 396
#     4  10  23  40  61  96 132 173 216 260 334 389
#
# _framework density 25.281742999999999
#
# number of rings (size 3 to 8) (size 9 to 14) (size 15 to 20)
#    0.750    1.000    2.500    1.125    5.250    1.500 
#    0.000    1.875    0.000    7.500    0.000    0.000 
#    0.000    0.000    0.000    0.000    0.000    0.000 
#
# Total GULP energy -89242.833846 kJ/mol
# GULP energy per Si atom -5577.677115 kJ/mol
# Density = 2.522420 g / cm^3
# Si number density = 25.281743 Si / 1000 Ang^3
#
#
#
# Elastic Constant Matrix: (Units=GPa)
#
#
# Indices 1 2 3 4 5 6 
#
# 1 79.2990 -0.5945 21.5495 -16.7951 -12.8254 2.8116
# 2 -0.5945 61.7051 37.2900 11.7429 -19.4970 3.2783
# 3 21.5495 37.2900 122.1345 -2.2562 -15.9102 -4.6317
# 4 -16.7951 11.7429 -2.2562 38.1215 0.7314 9.5326
# 5 -12.8254 -19.4970 -15.9102 0.7314 33.8081 -13.7542
# 6 2.8116 3.2783 -4.6317 9.5326 -13.7542 38.7730
#
#
#
# Elastic Compliance Matrix: (Units=1/GPa)
#
#
# Indices 1 2 3 4 5 6 
#
# 1 0.015587 0.002367 -0.002710 0.006195 0.005348 -0.001280
# 2 0.002367 0.026342 -0.006511 -0.008820 0.014966 0.004301
# 3 -0.002710 -0.006511 0.010922 0.000861 0.001270 0.002291
# 4 0.006195 -0.008820 0.000861 0.034557 -0.007447 -0.010739
# 5 0.005348 0.014966 0.001270 -0.007447 0.048068 0.017381
# 6 -0.001280 0.004301 0.002291 -0.010739 0.017381 0.034600
#
#
# Mechanical properties :
#
#
# Convention : Reuss Voigt Hill
#
# Bulk Modulus (GPa) = 25.54729 42.18096 33.86412
# Shear Modulus (GPa) = 25.40225 35.80009 30.60117
#
# Velocity S-wave (km/s) = 3.17324 3.76712 3.48286
# Velocity P-wave (km/s) = 4.85314 5.97011 5.44036
#
# Compressibility (1/GPa) = 0.03914309
#
# Stress axis : x y z
#
# Youngs Moduli (GPa) = 64.15513 37.96195 91.55838
#
# Poissons Ratio (x) = -0.08985 0.24815
# Poissons Ratio (y) = -0.15184 0.59610
# Poissons Ratio (z) = 0.17388 0.24716
#
# Static dielectric constant tensor:
#      x y z
#    x 2.053270 0.038430 -0.003810 
#    y 0.038430 2.015020 -0.021430 
#    z -0.003810 -0.021430 2.129960 
# 
# From -- ./inp_files/474731.got.cif
#   From: 2010.05.17/outbox.cif.g08.bks.cpg/sg2_238_cif.got.tgz:474731.got - 2010.06.03 11:33:40.
