data_PCOD9021803
_publ_section_title
;
Structure prediction by ZEFSAII (Michael W. Deem and Ramdas Pophale) SiO2 
 PCOD9021803
Probable space group: P -1
;
_chemical_formula_sum "Si O2"
_cell_formula_units_Z 16
_cell_length_a 9.489028
_cell_length_b 14.558030
_cell_length_c 11.444655
_cell_angle_alpha 109.974143
_cell_angle_beta 71.372437
_cell_angle_gamma 151.573538
_cell_volume 706.686230
_symmetry_space_group_name_H-M "P -1"
_symmetry_group_IT_number 2
_symmetry_cell_setting 'triclinic'
loop_
_space_group_symop_operation_xyz
x,y,z
-x,-y,-z
loop_
_atom_site_type_symbol
_atom_site_label
_atom_site_fract_x
_atom_site_fract_y
_atom_site_fract_z
Si Si1 0.099578 0.107390 0.898311
Si Si2 0.816135 0.675776 0.427828
Si Si3 0.868023 0.509934 0.618447
Si Si4 0.754824 0.094337 0.397510
Si Si5 0.182374 0.846099 0.066184
Si Si6 0.205123 0.536782 0.114654
Si Si7 0.221168 0.760586 0.240044
Si Si8 0.172014 0.130963 0.627383
O O1 0.455768 0.306529 0.897540
O O2 0.038291 0.032534 0.748957
O O3 0.946277 0.126289 0.937330
O O4 0.000000 0.000000 0.000000
O O5 0.500000 0.500000 0.500000
O O6 0.799749 0.735180 0.344683
O O7 0.051900 0.852885 0.536200
O O8 0.953825 0.646609 0.346370
O O9 0.929522 0.536845 0.751143
O O10 0.515899 0.297135 0.605504
O O11 0.000000 0.500000 0.500000
O O12 0.015599 0.696388 0.623554
O O13 0.500000 0.000000 0.500000
O O14 0.544587 0.925753 0.284247
O O15 0.241937 0.865445 0.196084
O O16 0.956889 0.633745 0.995131
O O17 0.500000 0.000000 0.000000
O O18 0.170593 0.630530 0.129962
O O19 0.000000 0.000000 0.500000
#
# Coordination Sequence:
#
# PCOD9021803 Si02
#       8
#     2   2   2   2   2   2   2   2
#     4  11  26  52  76 106 152 199 243 305 375 443
#     4  11  22  44  68 108 148 191 239 299 376 435
#     4  11  23  41  67 102 148 191 241 298 375 438
#     4  10  22  38  65  96 141 188 230 286 368 432
#     4  12  25  48  75 104 143 189 255 302 365 437
#     4  11  26  46  72 106 142 193 250 305 364 443
#     4  11  24  44  71 104 146 189 247 306 361 437
#     4  11  26  44  71 114 148 188 250 308 364 445
#
# _framework density 22.640882999999999
#
# number of rings (size 3 to 8) (size 9 to 14) (size 15 to 20)
#    0.000    1.000    2.500    3.750    7.000    1.000 
#    2.250    0.000    0.000    0.000    0.000    0.000 
#    0.000    0.000    0.000    0.000    0.000    0.000 
#
# Total GULP energy -89232.424904 kJ/mol
# GULP energy per Si atom -5577.026556 kJ/mol
# Density = 2.258935 g / cm^3
# Si number density = 22.640883 Si / 1000 Ang^3
#
#
#
# Elastic Constant Matrix: (Units=GPa)
#
#
# Indices 1 2 3 4 5 6 
#
# 1 165.1162 29.8106 40.2897 -12.4317 4.5793 10.2546
# 2 29.8106 73.4134 30.1465 -5.2943 0.3352 18.6173
# 3 40.2897 30.1465 74.4603 -11.9913 11.9816 11.4700
# 4 -12.4317 -5.2943 -11.9913 42.4805 -3.5050 3.5667
# 5 4.5793 0.3352 11.9816 -3.5050 49.2216 -9.1233
# 6 10.2546 18.6173 11.4700 3.5667 -9.1233 35.8887
#
#
#
# Elastic Compliance Matrix: (Units=1/GPa)
#
#
# Indices 1 2 3 4 5 6 
#
# 1 0.007174 -0.001479 -0.003063 0.001091 0.000094 -0.000389
# 2 -0.001479 0.018385 -0.005325 0.000985 -0.000014 -0.007515
# 3 -0.003063 -0.005325 0.019281 0.003829 -0.004867 -0.004143
# 4 0.001091 0.000985 0.003829 0.025442 -0.000080 -0.004595
# 5 0.000094 -0.000014 -0.004867 -0.000080 0.022850 0.007353
# 6 -0.000389 -0.007515 -0.004143 -0.004595 0.007353 0.035523
#
#
# Mechanical properties :
#
#
# Convention : Reuss Voigt Hill
#
# Bulk Modulus (GPa) = 39.82838 57.05372 48.44105
# Shear Modulus (GPa) = 31.89629 39.70103 35.79866
#
# Velocity S-wave (km/s) = 3.75746 4.19204 3.98068
# Velocity P-wave (km/s) = 6.03773 6.97747 6.52454
#
# Compressibility (1/GPa) = 0.02510773
#
# Stress axis : x y z
#
# Youngs Moduli (GPa) = 139.38550 54.39098 51.86423
#
# Poissons Ratio (x) = 0.08043 0.15885
# Poissons Ratio (y) = 0.20612 0.27618
# Poissons Ratio (z) = 0.42691 0.28963
#
# Static dielectric constant tensor:
#      x y z
#    x 1.921730 -0.064810 -0.007240 
#    y -0.064810 1.830810 -0.000950 
#    z -0.007240 -0.000950 1.970710 
# 
# From -- ./inp_files/399277.got.cif
#   From: 2010.05.17/outbox.cif.g08.bks.cpg/sg2_200_cif.got.tgz:399277.got - 2010.06.03 11:33:40.
