data_PCOD9021984
_publ_section_title
;
Structure prediction by ZEFSAII (Michael W. Deem and Ramdas Pophale) SiO2 
 PCOD9021984
Probable space group: P -1
;
_chemical_formula_sum "Si O2"
_cell_formula_units_Z 14
_cell_length_a 9.252836
_cell_length_b 11.749404
_cell_length_c 17.103135
_cell_angle_alpha 145.520991
_cell_angle_beta 116.194846
_cell_angle_gamma 41.103407
_cell_volume 605.956563
_symmetry_space_group_name_H-M "P -1"
_symmetry_group_IT_number 2
_symmetry_cell_setting 'triclinic'
loop_
_space_group_symop_operation_xyz
x,y,z
-x,-y,-z
loop_
_atom_site_type_symbol
_atom_site_label
_atom_site_fract_x
_atom_site_fract_y
_atom_site_fract_z
Si Si1 0.714860 0.610606 0.222101
Si Si2 0.740938 0.171952 0.915266
Si Si3 0.850159 0.226255 0.666759
Si Si4 0.539983 0.166668 0.152928
Si Si5 0.979545 0.495977 0.084062
Si Si6 0.135516 0.096458 0.370840
Si Si7 0.829020 0.669406 0.721907
O O1 0.733199 0.680161 0.177618
O O2 0.923521 0.526998 0.275984
O O3 0.423215 0.899808 0.338593
O O4 0.803316 0.294159 0.057884
O O5 0.901258 0.950639 0.752354
O O6 0.709557 0.999246 0.860162
O O7 0.500000 0.500000 0.000000
O O8 0.563233 0.538856 0.748190
O O9 0.938090 0.367710 0.785759
O O10 0.884688 0.058292 0.655930
O O11 0.000000 0.000000 0.500000
O O12 0.372222 0.280404 0.253846
O O13 0.500000 0.000000 0.000000
O O14 0.835376 0.870407 0.065518
O O15 0.000000 0.500000 0.000000
O O16 0.934738 0.456214 0.550478
#
# Coordination Sequence:
#
# PCOD9021984 Si02
#       7
#     2   2   2   2   2   2   2
#     4  11  23  41  64  99 123 168 214 261 311 370
#     4  10  25  39  63  93 130 166 205 261 319 369
#     4  11  21  43  66  94 126 167 210 253 319 382
#     4  10  22  38  68  89 125 167 214 249 318 369
#     4  11  24  41  66  93 129 165 214 262 310 373
#     4  11  24  41  67  95 131 165 205 265 324 369
#     4  12  22  43  65  96 125 168 213 261 310 381
#
# _framework density 23.103967999999998
#
# number of rings (size 3 to 8) (size 9 to 14) (size 15 to 20)
#    0.000    1.143    4.286    2.143   12.000    1.143 
#    0.000    0.714    0.000    0.000    0.000    0.000 
#    0.000    0.000    0.000    0.000    0.000    0.000 
#
# Total GULP energy -78152.441218 kJ/mol
# GULP energy per Si atom -5582.317230 kJ/mol
# Density = 2.305138 g / cm^3
# Si number density = 23.103968 Si / 1000 Ang^3
#
#
#
# Elastic Constant Matrix: (Units=GPa)
#
#
# Indices 1 2 3 4 5 6 
#
# 1 71.8798 -14.9048 3.1454 7.3937 -4.8864 5.8809
# 2 -14.9048 17.1706 -9.1157 4.3935 3.9571 6.3631
# 3 3.1454 -9.1157 111.6810 -4.6026 -10.9228 -3.4238
# 4 7.3937 4.3935 -4.6026 39.0701 9.5354 5.4076
# 5 -4.8864 3.9571 -10.9228 9.5354 32.9141 3.0274
# 6 5.8809 6.3631 -3.4238 5.4076 3.0274 34.2750
#
#
#
# Elastic Compliance Matrix: (Units=1/GPa)
#
#
# Indices 1 2 3 4 5 6 
#
# 1 0.019448 0.020560 0.000991 -0.005718 0.002991 -0.006417
# 2 0.020560 0.088515 0.005567 -0.010481 -0.001082 -0.017655
# 3 0.000991 0.005567 0.009629 -0.000302 0.002801 -0.000441
# 4 -0.005718 -0.010481 -0.000302 0.029993 -0.008276 -0.001104
# 5 0.002991 -0.001082 0.002801 -0.008276 0.034446 -0.001769
# 6 -0.006417 -0.017655 -0.000441 -0.001104 -0.001769 0.033841
#
#
# Mechanical properties :
#
#
# Convention : Reuss Voigt Hill
#
# Bulk Modulus (GPa) = 5.81985 17.66457 11.74221
# Shear Modulus (GPa) = 22.84013 36.02561 29.43287
#
# Velocity S-wave (km/s) = 3.14758 3.95306 3.57309
# Velocity P-wave (km/s) = 3.96663 5.33834 4.70276
#
# Compressibility (1/GPa) = 0.17182586
#
# Stress axis : x y z
#
# Youngs Moduli (GPa) = 51.41808 11.29753 103.85786
#
# Poissons Ratio (x) = -0.23227 -0.10288
# Poissons Ratio (y) = -1.05714 -0.57816
# Poissons Ratio (z) = -0.05093 -0.06289
#
# Static dielectric constant tensor:
#      x y z
#    x 1.924110 -0.053260 0.006270 
#    y -0.053260 1.980140 -0.008610 
#    z 0.006270 -0.008610 1.863310 
# 
# From -- ./inp_files/153873.got.cif
#   From: 2010.05.17/outbox.cif.g08.bks.cpg/sg2_77_cif.got.tgz:153873.got - 2010.06.03 11:33:40.
