data_PCOD9021731
_publ_section_title
;
Structure prediction by ZEFSAII (Michael W. Deem and Ramdas Pophale) SiO2 
 PCOD9021731
Probable space group: P -1
;
_chemical_formula_sum "Si O2"
_cell_formula_units_Z 16
_cell_length_a 10.962543
_cell_length_b 21.699706
_cell_length_c 5.386253
_cell_angle_alpha 68.653101
_cell_angle_beta 82.530627
_cell_angle_gamma 34.776588
_cell_volume 645.327079
_symmetry_space_group_name_H-M "P -1"
_symmetry_group_IT_number 2
_symmetry_cell_setting 'triclinic'
loop_
_space_group_symop_operation_xyz
x,y,z
-x,-y,-z
loop_
_atom_site_type_symbol
_atom_site_label
_atom_site_fract_x
_atom_site_fract_y
_atom_site_fract_z
Si Si1 0.823994 0.393955 0.139734
Si Si2 0.771675 0.509500 0.592178
Si Si3 0.559512 0.338630 0.930134
Si Si4 0.514108 0.210839 0.175203
Si Si5 0.265281 0.017617 0.656158
Si Si6 0.765831 0.658283 0.466202
Si Si7 0.078200 0.753060 0.287439
Si Si8 0.751246 0.846241 0.872333
O O1 0.658612 0.524867 0.106223
O O2 0.784874 0.348766 0.390216
O O3 0.093767 0.266094 0.196361
O O4 0.756019 0.443425 0.804279
O O5 0.525960 0.633630 0.368322
O O6 0.818332 0.556802 0.661488
O O7 0.996502 0.411148 0.509357
O O8 0.774724 0.287608 0.922724
O O9 0.595555 0.249098 0.149706
O O10 0.710485 0.069123 0.297468
O O11 0.378095 0.251842 0.397389
O O12 0.357674 0.281854 0.859886
O O13 0.505441 0.926998 0.853376
O O14 0.260351 0.074520 0.355043
O O15 0.051004 0.128607 0.720275
O O16 0.881025 0.795737 0.169417
#
# Coordination Sequence:
#
# PCOD9021731 Si02
#       8
#     2   2   2   2   2   2   2   2
#     4  11  22  41  65 100 132 183 226 284 349 411
#     4  10  22  38  64  97 141 184 223 283 348 427
#     4  11  25  41  66 101 144 182 230 283 352 428
#     4  11  24  45  70 110 138 187 232 290 357 419
#     4  10  24  44  71  94 133 179 237 295 348 411
#     4  10  23  40  68 103 147 179 227 289 353 416
#     4  11  25  44  67  97 139 187 236 287 342 417
#     4  10  23  44  67  99 125 182 234 299 347 410
#
# _framework density 24.793627999999998
#
# number of rings (size 3 to 8) (size 9 to 14) (size 15 to 20)
#    0.000    1.500    1.250    2.250    5.250    5.000 
#    2.250    0.625    0.000    0.000    0.000    0.000 
#    0.000    0.000    0.000    0.000    0.000    0.000 
#
# Total GULP energy -89210.375666 kJ/mol
# GULP energy per Si atom -5575.648479 kJ/mol
# Density = 2.473720 g / cm^3
# Si number density = 24.793628 Si / 1000 Ang^3
#
#
#
# Elastic Constant Matrix: (Units=GPa)
#
#
# Indices 1 2 3 4 5 6 
#
# 1 63.1043 36.1301 22.4531 -10.7120 -20.4053 4.5142
# 2 36.1301 124.5580 32.2472 -14.7529 -21.8187 43.5848
# 3 22.4531 32.2472 59.4769 6.6007 -8.9161 1.7452
# 4 -10.7120 -14.7529 6.6007 36.0146 7.7958 -9.3403
# 5 -20.4053 -21.8187 -8.9161 7.7958 24.7927 -11.0064
# 6 4.5142 43.5848 1.7452 -9.3403 -11.0064 36.3510
#
#
#
# Elastic Compliance Matrix: (Units=1/GPa)
#
#
# Indices 1 2 3 4 5 6 
#
# 1 0.027733 -0.007363 -0.004651 0.005330 0.018593 0.012607
# 2 -0.007363 0.020154 -0.008002 0.002016 -0.002029 -0.022963
# 3 -0.004651 -0.008002 0.024116 -0.007800 0.003890 0.008187
# 4 0.005330 0.002016 -0.007800 0.033904 -0.005359 0.004384
# 5 0.018593 -0.002029 0.003890 -0.005359 0.065038 0.018253
# 6 0.012607 -0.022963 0.008187 0.004384 0.018253 0.059736
#
#
# Mechanical properties :
#
#
# Convention : Reuss Voigt Hill
#
# Bulk Modulus (GPa) = 31.27899 47.64444 39.46171
# Shear Modulus (GPa) = 17.77013 29.85224 23.81119
#
# Velocity S-wave (km/s) = 2.68007 3.47368 3.10235
# Velocity P-wave (km/s) = 4.71383 5.94531 5.36502
#
# Compressibility (1/GPa) = 0.03197035
#
# Stress axis : x y z
#
# Youngs Moduli (GPa) = 36.05845 49.61761 41.46623
#
# Poissons Ratio (x) = 0.36535 0.19287
# Poissons Ratio (y) = 0.26551 0.33180
# Poissons Ratio (z) = 0.16772 0.39702
#
# Static dielectric constant tensor:
#      x y z
#    x 2.097530 0.081140 0.077510 
#    y 0.081140 2.027480 0.097170 
#    z 0.077510 0.097170 2.138630 
# 
# From -- ./inp_files/84211.got.cif
#   From: 2010.05.17/outbox.cif.g08.bks.cpg/sg2_43_cif.got.tgz:84211.got - 2010.06.03 11:33:40.
