data_PCOD9021781
_publ_section_title
;
Structure prediction by ZEFSAII (Michael W. Deem and Ramdas Pophale) SiO2 
 PCOD9021781
Probable space group: P -1
;
_chemical_formula_sum "Si O2"
_cell_formula_units_Z 16
_cell_length_a 9.392254
_cell_length_b 17.794089
_cell_length_c 9.853896
_cell_angle_alpha 125.478069
_cell_angle_beta 79.270733
_cell_angle_gamma 144.195430
_cell_volume 629.260133
_symmetry_space_group_name_H-M "P -1"
_symmetry_group_IT_number 2
_symmetry_cell_setting 'triclinic'
loop_
_space_group_symop_operation_xyz
x,y,z
-x,-y,-z
loop_
_atom_site_type_symbol
_atom_site_label
_atom_site_fract_x
_atom_site_fract_y
_atom_site_fract_z
Si Si1 0.157659 0.819639 0.932555
Si Si2 0.295466 0.573005 0.090320
Si Si3 0.128595 0.171360 0.608377
Si Si4 0.671036 0.936921 0.240426
Si Si5 0.333309 0.933005 0.312183
Si Si6 0.223012 0.048829 0.065516
Si Si7 0.051109 0.618718 0.304839
Si Si8 0.780756 0.461917 0.467295
O O1 0.910267 0.620352 0.691251
O O2 0.181044 0.807194 0.071182
O O3 0.500000 0.000000 0.000000
O O4 0.081027 0.884444 0.997889
O O5 0.522601 0.636902 0.203964
O O6 0.502097 0.755944 0.149331
O O7 0.115045 0.546933 0.185638
O O8 0.070813 0.404855 0.839693
O O9 0.924798 0.137504 0.674604
O O10 0.000000 0.000000 0.500000
O O11 0.022334 0.126575 0.424149
O O12 0.520258 0.944790 0.341366
O O13 0.641941 0.917544 0.063869
O O14 0.633079 0.163358 0.468931
O O15 0.458948 0.235730 0.312087
O O16 0.000000 0.000000 0.000000
O O17 0.810619 0.499366 0.341044
O O18 0.000000 0.500000 0.500000
#
# Coordination Sequence:
#
# PCOD9021781 Si02
#       8
#     2   2   2   2   2   2   2   2
#     4  12  24  43  68 103 137 176 236 278 338 410
#     4  10  23  40  63  97 129 171 222 275 330 407
#     4  10  22  38  65  94 126 173 218 272 338 401
#     4  11  21  41  66  95 127 175 227 267 343 410
#     4  12  22  40  69  94 134 174 220 286 334 404
#     4  12  27  44  71 102 140 182 227 290 343 404
#     4  11  21  38  68  93 132 172 222 271 339 398
#     4  12  23  43  71 102 135 185 230 277 339 415
#
# _framework density 25.426687000000001
#
# number of rings (size 3 to 8) (size 9 to 14) (size 15 to 20)
#    0.000    0.750    7.500    0.375    3.500    1.500 
#    0.000    1.875    0.000    0.000    0.000    0.000 
#    0.000    0.000    0.000    0.000    0.000    0.000 
#
# Total GULP energy -89469.546363 kJ/mol
# GULP energy per Si atom -5591.846648 kJ/mol
# Density = 2.536881 g / cm^3
# Si number density = 25.426687 Si / 1000 Ang^3
#
#
#
# Elastic Constant Matrix: (Units=GPa)
#
#
# Indices 1 2 3 4 5 6 
#
# 1 179.1108 19.1932 58.1695 16.1641 13.3068 17.1422
# 2 19.1932 18.5367 2.8833 -9.1052 -9.0819 7.0002
# 3 58.1695 2.8833 158.0907 25.1126 6.1286 14.0390
# 4 16.1641 -9.1052 25.1126 38.8180 2.2302 0.1702
# 5 13.3068 -9.0819 6.1286 2.2302 45.4679 4.2024
# 6 17.1422 7.0002 14.0390 0.1702 4.2024 31.1500
#
#
#
# Elastic Compliance Matrix: (Units=1/GPa)
#
#
# Indices 1 2 3 4 5 6 
#
# 1 0.008403 -0.013072 -0.001847 -0.005108 -0.004551 -0.000212
# 2 -0.013072 0.100300 -0.000801 0.028173 0.024288 -0.018416
# 3 -0.001847 -0.000801 0.007958 -0.004542 -0.000254 -0.002331
# 4 -0.005108 0.028173 -0.004542 0.037093 0.006147 -0.002505
# 5 -0.004551 0.024288 -0.000254 0.006147 0.028531 -0.006722
# 6 -0.000212 -0.018416 -0.002331 -0.002505 -0.006722 0.038329
#
#
# Mechanical properties :
#
#
# Convention : Reuss Voigt Hill
#
# Bulk Modulus (GPa) = 11.73414 57.35889 34.54652
# Shear Modulus (GPa) = 17.82774 41.45334 29.64054
#
# Velocity S-wave (km/s) = 2.65078 4.04209 3.41798
# Velocity P-wave (km/s) = 3.74083 6.66274 5.40305
#
# Compressibility (1/GPa) = 0.08522141
#
# Stress axis : x y z
#
# Youngs Moduli (GPa) = 119.00236 9.97007 125.65928
#
# Poissons Ratio (x) = 0.13033 0.23207
# Poissons Ratio (y) = 1.55564 0.10063
# Poissons Ratio (z) = 0.21977 0.00798
#
# Static dielectric constant tensor:
#      x y z
#    x 1.968870 -0.039520 0.016840 
#    y -0.039520 2.138650 -0.024140 
#    z 0.016840 -0.024140 2.127980 
# 
# From -- ./inp_files/405579.got.cif
#   From: 2010.05.17/outbox.cif.g08.bks.cpg/sg2_203_cif.got.tgz:405579.got - 2010.06.03 11:33:40.
