data_PCOD9021662
_publ_section_title
;
Structure prediction by ZEFSAII (Michael W. Deem and Ramdas Pophale) SiO2 
 PCOD9021662
Probable space group: P -1
;
_chemical_formula_sum "Si O2"
_cell_formula_units_Z 16
_cell_length_a 20.704078
_cell_length_b 16.951709
_cell_length_c 10.963277
_cell_angle_alpha 24.943038
_cell_angle_beta 45.062002
_cell_angle_gamma 31.349562
_cell_volume 802.622556
_symmetry_space_group_name_H-M "P -1"
_symmetry_group_IT_number 2
_symmetry_cell_setting 'triclinic'
loop_
_space_group_symop_operation_xyz
x,y,z
-x,-y,-z
loop_
_atom_site_type_symbol
_atom_site_label
_atom_site_fract_x
_atom_site_fract_y
_atom_site_fract_z
Si Si1 0.699168 0.688103 0.483196
Si Si2 0.183905 0.569631 0.896254
Si Si3 0.908647 0.022742 0.755603
Si Si4 0.845335 0.763207 0.344767
Si Si5 0.055956 0.770826 0.348229
Si Si6 0.536588 0.790504 0.847251
Si Si7 0.405856 0.556703 0.942393
Si Si8 0.819332 0.842187 0.554608
O O1 0.773440 0.689876 0.489078
O O2 0.804707 0.512015 0.483489
O O3 0.568781 0.003312 0.197348
O O4 0.660513 0.534968 0.788052
O O5 0.162186 0.771035 0.550161
O O6 0.317549 0.400756 0.028933
O O7 0.186497 0.365817 0.111035
O O8 0.053504 0.751751 0.897608
O O9 0.930168 0.135677 0.677828
O O10 0.828377 0.966462 0.995016
O O11 0.801689 0.868946 0.392639
O O12 0.000000 0.500000 0.500000
O O13 0.955067 0.748574 0.526468
O O14 0.000000 0.000000 0.000000
O O15 0.500000 0.000000 0.500000
O O16 0.526269 0.611581 0.037347
O O17 0.293313 0.873510 0.630220
O O18 0.500000 0.500000 0.000000
#
# Coordination Sequence:
#
# PCOD9021662 Si02
#       8
#     2   2   2   2   2   2   2   2
#     4  11  21  37  59  92 123 159 213 263 309 364
#     4  11  24  43  61  94 129 174 206 260 325 380
#     4  11  24  41  64  92 135 162 210 268 323 371
#     4  12  20  36  65  94 122 165 214 259 309 379
#     4  12  21  36  61  96 124 161 211 271 312 365
#     4  10  22  38  64  87 126 167 215 254 310 379
#     4  11  21  35  57  94 126 158 203 269 315 359
#     4  12  21  34  65  90 125 163 216 257 315 368
#
# _framework density 19.934650999999999
#
# number of rings (size 3 to 8) (size 9 to 14) (size 15 to 20)
#    0.000    0.750    5.000    4.500    1.750    0.500 
#    0.000    2.500    0.000    0.000    0.000    0.000 
#    0.000    0.000    0.000    0.000    0.000    0.000 
#
# Total GULP energy -89397.472103 kJ/mol
# GULP energy per Si atom -5587.342006 kJ/mol
# Density = 1.988928 g / cm^3
# Si number density = 19.934651 Si / 1000 Ang^3
#
#
#
# Elastic Constant Matrix: (Units=GPa)
#
#
# Indices 1 2 3 4 5 6 
#
# 1 97.8870 13.9524 31.8069 -7.1503 -21.3807 -19.8855
# 2 13.9524 67.7454 36.1476 -35.1882 -6.5708 -2.5215
# 3 31.8069 36.1476 87.9147 -14.5437 -8.9364 -7.0689
# 4 -7.1503 -35.1882 -14.5437 43.4209 4.0969 -10.2030
# 5 -21.3807 -6.5708 -8.9364 4.0969 40.4102 -4.6615
# 6 -19.8855 -2.5215 -7.0689 -10.2030 -4.6615 37.9553
#
#
#
# Elastic Compliance Matrix: (Units=1/GPa)
#
#
# Indices 1 2 3 4 5 6 
#
# 1 0.015352 0.002840 -0.004284 0.004910 0.008266 0.009769
# 2 0.002840 0.033602 -0.009362 0.026484 0.003307 0.009502
# 3 -0.004284 -0.009362 0.016226 -0.003013 0.000030 -0.000651
# 4 0.004910 0.026484 -0.003013 0.047991 0.003343 0.017082
# 5 0.008266 0.003307 0.000030 0.003343 0.030385 0.009186
# 6 0.009769 0.009502 -0.000651 0.017082 0.009186 0.037695
#
#
# Mechanical properties :
#
#
# Convention : Reuss Voigt Hill
#
# Bulk Modulus (GPa) = 22.95275 46.37345 34.66310
# Shear Modulus (GPa) = 23.00058 35.79995 29.40027
#
# Velocity S-wave (km/s) = 3.40045 4.24236 3.84452
# Velocity P-wave (km/s) = 5.19195 6.87823 6.09370
#
# Compressibility (1/GPa) = 0.04356776
#
# Stress axis : x y z
#
# Youngs Moduli (GPa) = 65.13926 29.75981 61.62897
#
# Poissons Ratio (x) = -0.08451 0.26400
# Poissons Ratio (y) = -0.18498 0.57698
# Poissons Ratio (z) = 0.27904 0.27862
#
# Static dielectric constant tensor:
#      x y z
#    x 1.687940 0.014880 0.003020 
#    y 0.014880 1.774780 -0.011090 
#    z 0.003020 -0.011090 1.719320 
# 
# From -- ./inp_files/306844.got.cif
#   From: 2010.05.17/outbox.cif.g08.bks.cpg/sg2_154_cif.got.tgz:306844.got - 2010.06.03 11:33:40.
