data_PCOD9021728
_publ_section_title
;
Structure prediction by ZEFSAII (Michael W. Deem and Ramdas Pophale) SiO2 
 PCOD9021728
Probable space group: P -1
;
_chemical_formula_sum "Si O2"
_cell_formula_units_Z 16
_cell_length_a 17.499886
_cell_length_b 5.761222
_cell_length_c 8.075507
_cell_angle_alpha 101.520721
_cell_angle_beta 122.621129
_cell_angle_gamma 86.879191
_cell_volume 670.529948
_symmetry_space_group_name_H-M "P -1"
_symmetry_group_IT_number 2
_symmetry_cell_setting 'triclinic'
loop_
_space_group_symop_operation_xyz
x,y,z
-x,-y,-z
loop_
_atom_site_type_symbol
_atom_site_label
_atom_site_fract_x
_atom_site_fract_y
_atom_site_fract_z
Si Si1 0.135647 0.996505 0.261761
Si Si2 0.675784 0.128513 0.407194
Si Si3 0.601255 0.545909 0.555675
Si Si4 0.773184 0.225427 0.189153
Si Si5 0.015453 0.649493 0.874567
Si Si6 0.288234 0.316033 0.982539
Si Si7 0.423851 0.299197 0.828401
Si Si8 0.958624 0.230011 0.560493
O O1 0.081110 0.232515 0.240819
O O2 0.241940 0.014799 0.435829
O O3 0.090459 0.850544 0.339171
O O4 0.096960 0.851174 0.032820
O O5 0.654168 0.312524 0.549177
O O6 0.713010 0.239314 0.291641
O O7 0.578766 0.987851 0.231753
O O8 0.500000 0.500000 0.500000
O O9 0.596218 0.646640 0.379014
O O10 0.655547 0.687862 0.782571
O O11 0.746242 0.418254 0.048327
O O12 0.875287 0.300486 0.365147
O O13 0.769794 0.938520 0.113346
O O14 0.025389 0.452661 0.718468
O O15 0.000000 0.500000 0.000000
O O16 0.348094 0.303220 0.883767
O O17 0.500000 0.500000 0.000000
O O18 0.000000 0.000000 0.500000
#
# Coordination Sequence:
#
# PCOD9021728 Si02
#       8
#     2   2   2   2   2   2   2   2
#     4   9  20  41  63  96 128 186 232 289 352 430
#     4  10  24  42  72  97 138 190 240 298 364 437
#     4  12  26  44  70 105 137 187 241 303 363 439
#     4  10  24  46  70 101 145 191 242 296 363 432
#     4   9  19  37  63  89 131 168 230 283 343 418
#     4  11  25  47  72 105 143 189 241 302 358 433
#     4  11  24  45  69 100 141 186 235 295 368 427
#     4  10  22  38  64  97 135 185 227 295 357 426
#
# _framework density 23.861723000000001
#
# number of rings (size 3 to 8) (size 9 to 14) (size 15 to 20)
#    0.000    1.750    2.500    0.000    7.000    4.500 
#    6.750    0.000    0.000    0.000    0.000    0.000 
#    0.000    0.000    0.000    0.000    0.000    0.000 
#
# Total GULP energy -89143.972017 kJ/mol
# GULP energy per Si atom -5571.498251 kJ/mol
# Density = 2.380741 g / cm^3
# Si number density = 23.861723 Si / 1000 Ang^3
#
#
#
# Elastic Constant Matrix: (Units=GPa)
#
#
# Indices 1 2 3 4 5 6 
#
# 1 79.4170 34.0386 42.0235 5.6231 -8.8018 19.6768
# 2 34.0386 90.3916 36.5013 7.5485 -8.2562 18.8193
# 3 42.0235 36.5013 148.7884 12.6555 -20.8076 14.7002
# 4 5.6231 7.5485 12.6555 47.1859 0.0720 -4.6277
# 5 -8.8018 -8.2562 -20.8076 0.0720 18.0292 0.6393
# 6 19.6768 18.8193 14.7002 -4.6277 0.6393 26.5479
#
#
#
# Elastic Compliance Matrix: (Units=1/GPa)
#
#
# Indices 1 2 3 4 5 6 
#
# 1 0.018641 -0.003125 -0.002550 -0.002092 0.005113 -0.010677
# 2 -0.003125 0.015033 -0.001174 -0.002532 0.004305 -0.008235
# 3 -0.002550 -0.001174 0.009563 -0.002403 0.009378 -0.003217
# 4 -0.002092 -0.002532 -0.002403 0.023371 -0.005362 0.008879
# 5 0.005113 0.004305 0.009378 -0.005362 0.071298 -0.014686
# 6 -0.010677 -0.008235 -0.003217 0.008879 -0.014686 0.055102
#
#
# Mechanical properties :
#
#
# Convention : Reuss Voigt Hill
#
# Bulk Modulus (GPa) = 33.85525 60.41375 47.13450
# Shear Modulus (GPa) = 23.08907 32.08819 27.58863
#
# Velocity S-wave (km/s) = 3.11403 3.67107 3.40396
# Velocity P-wave (km/s) = 5.21042 6.58348 5.93678
#
# Compressibility (1/GPa) = 0.02953752
#
# Stress axis : x y z
#
# Youngs Moduli (GPa) = 53.64573 66.51942 104.56935
#
# Poissons Ratio (x) = 0.20788 0.26669
# Poissons Ratio (y) = 0.16765 0.12279
# Poissons Ratio (z) = 0.13682 0.07811
#
# Static dielectric constant tensor:
#      x y z
#    x 1.813500 -0.032020 0.010340 
#    y -0.032020 2.088490 0.032290 
#    z 0.010340 0.032290 1.972510 
# 
# From -- ./inp_files/339949.got.cif
#   From: 2010.05.17/outbox.cif.g08.bks.cpg/sg2_170_cif.got.tgz:339949.got - 2010.06.03 11:33:40.
