data_PCOD9021395
_publ_section_title
;
Structure prediction by ZEFSAII (Michael W. Deem and Ramdas Pophale) SiO2 
 PCOD9021395
Probable space group: P -1
;
_chemical_formula_sum "Si O2"
_cell_formula_units_Z 16
_cell_length_a 17.261959
_cell_length_b 6.422654
_cell_length_c 19.038580
_cell_angle_alpha 80.099917
_cell_angle_beta 156.084772
_cell_angle_gamma 90.272651
_cell_volume 779.124693
_symmetry_space_group_name_H-M "P -1"
_symmetry_group_IT_number 2
_symmetry_cell_setting 'triclinic'
loop_
_space_group_symop_operation_xyz
x,y,z
-x,-y,-z
loop_
_atom_site_type_symbol
_atom_site_label
_atom_site_fract_x
_atom_site_fract_y
_atom_site_fract_z
Si Si1 0.036265 0.673370 0.833864
Si Si2 0.324814 0.496813 0.455128
Si Si3 0.755072 0.663014 0.094896
Si Si4 0.329990 0.830895 0.319814
Si Si5 0.008938 0.725689 0.963145
Si Si6 0.278131 0.899702 0.667833
Si Si7 0.927136 0.362214 0.389869
Si Si8 0.860119 0.179167 0.595380
O O1 0.195837 0.523908 0.916390
O O2 0.891366 0.529779 0.734975
O O3 0.109411 0.700891 0.970904
O O4 0.911011 0.928485 0.685739
O O5 0.373432 0.669634 0.433063
O O6 0.487732 0.249687 0.581054
O O7 0.300811 0.613406 0.504412
O O8 0.796813 0.526514 0.210782
O O9 0.924799 0.779428 0.227736
O O10 0.520867 0.839918 0.881854
O O11 0.148793 0.791187 0.129752
O O12 0.226450 0.089754 0.244666
O O13 0.000000 0.500000 0.000000
O O14 0.204456 0.764734 0.673793
O O15 0.225165 0.821302 0.553040
O O16 0.132516 0.166202 0.539619
O O17 0.000000 0.500000 0.500000
#
# Coordination Sequence:
#
# PCOD9021395 Si02
#       8
#     2   2   2   2   2   2   2   2
#     4  11  23  42  62  89 133 171 212 278 328 388
#     4  10  22  40  61  90 122 168 217 275 329 381
#     4  11  25  44  69 100 133 175 221 265 329 395
#     4  10  22  38  61  89 120 163 225 272 327 388
#     4  11  22  39  59  88 125 168 219 271 324 393
#     4  11  25  44  71 100 131 179 216 262 336 387
#     4  11  23  46  71 102 137 165 221 273 313 401
#     4  11  23  45  63  95 139 169 222 276 322 401
#
# _framework density 20.535864
#
# number of rings (size 3 to 8) (size 9 to 14) (size 15 to 20)
#    0.000    1.250    5.000    0.375    1.750    3.000 
#    2.250    0.000    0.000    0.000    0.000    0.000 
#    0.000    0.000    0.000    0.000    0.000    0.000 
#
# Total GULP energy -89307.045973 kJ/mol
# GULP energy per Si atom -5581.690373 kJ/mol
# Density = 2.048912 g / cm^3
# Si number density = 20.535864 Si / 1000 Ang^3
#
#
#
# Elastic Constant Matrix: (Units=GPa)
#
#
# Indices 1 2 3 4 5 6 
#
# 1 107.3816 28.9723 41.3680 -3.1975 -6.9066 -23.2521
# 2 28.9723 61.2428 18.2826 -0.6232 -7.6204 -17.9939
# 3 41.3680 18.2826 87.9848 -1.1422 5.7186 -15.3201
# 4 -3.1975 -0.6232 -1.1422 13.7653 4.6343 -1.9834
# 5 -6.9066 -7.6204 5.7186 4.6343 24.0692 -3.4278
# 6 -23.2521 -17.9939 -15.3201 -1.9834 -3.4278 40.6798
#
#
#
# Elastic Compliance Matrix: (Units=1/GPa)
#
#
# Indices 1 2 3 4 5 6 
#
# 1 0.013484 -0.002776 -0.005167 0.001753 0.004593 0.005006
# 2 -0.002776 0.021582 -0.002382 -0.001445 0.007972 0.007664
# 3 -0.005167 -0.002382 0.014919 0.002130 -0.006019 0.001208
# 4 0.001753 -0.001445 0.002130 0.078786 -0.015098 0.003734
# 5 0.004593 0.007972 -0.006019 -0.015098 0.050784 0.007428
# 6 0.005006 0.007664 0.001208 0.003734 0.007428 0.032096
#
#
# Mechanical properties :
#
#
# Convention : Reuss Voigt Hill
#
# Bulk Modulus (GPa) = 34.08914 48.20610 41.14762
# Shear Modulus (GPa) = 20.65443 26.90194 23.77819
#
# Velocity S-wave (km/s) = 3.17483 3.62332 3.40646
# Velocity P-wave (km/s) = 5.48409 6.40544 5.96259
#
# Compressibility (1/GPa) = 0.02933486
#
# Stress axis : x y z
#
# Youngs Moduli (GPa) = 74.16369 46.33557 67.02796
#
# Poissons Ratio (x) = 0.12864 0.34633
# Poissons Ratio (y) = 0.20589 0.15964
# Poissons Ratio (z) = 0.38320 0.11036
#
# Static dielectric constant tensor:
#      x y z
#    x 1.755950 -0.037760 0.028830 
#    y -0.037760 1.771890 -0.027530 
#    z 0.028830 -0.027530 1.732850 
# 
# From -- ./inp_files/323025.got.cif
#   From: 2010.05.17/outbox.cif.g08.bks.cpg/sg2_162_cif.got.tgz:323025.got - 2010.06.03 11:33:40.
