data_PCOD9021451
_publ_section_title
;
Structure prediction by ZEFSAII (Michael W. Deem and Ramdas Pophale) SiO2 
 PCOD9021451
Probable space group: P -1
;
_chemical_formula_sum "Si O2"
_cell_formula_units_Z 14
_cell_length_a 22.563702
_cell_length_b 12.422591
_cell_length_c 16.183355
_cell_angle_alpha 154.115793
_cell_angle_beta 161.035108
_cell_angle_gamma 25.586113
_cell_volume 600.386184
_symmetry_space_group_name_H-M "P -1"
_symmetry_group_IT_number 2
_symmetry_cell_setting 'triclinic'
loop_
_space_group_symop_operation_xyz
x,y,z
-x,-y,-z
loop_
_atom_site_type_symbol
_atom_site_label
_atom_site_fract_x
_atom_site_fract_y
_atom_site_fract_z
Si Si1 0.230484 0.417492 0.747072
Si Si2 0.487380 0.995657 0.274091
Si Si3 0.909351 0.924846 0.158768
Si Si4 0.708122 0.008525 0.328570
Si Si5 0.500123 0.268300 0.643870
Si Si6 0.068116 0.559720 0.262472
Si Si7 0.337655 0.249286 0.074856
O O1 0.320986 0.241372 0.664314
O O2 0.302538 0.225734 0.789150
O O3 0.000000 0.500000 0.500000
O O4 0.325155 0.640424 0.034711
O O5 0.520615 0.190675 0.520225
O O6 0.395641 0.152866 0.177858
O O7 0.316652 0.893004 0.008914
O O8 0.992930 0.825053 0.291497
O O9 0.903397 0.674889 0.927004
O O10 0.071126 0.006655 0.384100
O O11 0.538165 0.276449 0.322254
O O12 0.676049 0.957444 0.155655
O O13 0.287511 0.493053 0.538440
O O14 0.500000 0.000000 0.500000
O O15 0.890111 0.560525 0.087706
#
# Coordination Sequence:
#
# PCOD9021451 Si02
#       7
#     2   2   2   2   2   2   2
#     4  11  27  46  67  95 136 179 220 274 331 386
#     4   9  22  45  67  98 132 168 223 274 324 393
#     4   9  19  37  66  94 130 163 212 275 326 392
#     4  10  22  38  62 100 135 166 215 269 338 392
#     4  11  26  45  70  96 130 178 234 266 313 402
#     4   9  20  37  62  94 124 170 219 262 326 385
#     4   9  20  39  60 101 130 167 202 275 337 392
#
# _framework density 23.318324
#
# number of rings (size 3 to 8) (size 9 to 14) (size 15 to 20)
#    0.000    2.286    0.000    0.857   12.000    4.000 
#    5.143    0.000    0.000    0.000    0.000    0.000 
#    0.000    0.000    0.000    0.000    0.000    0.000 
#
# Total GULP energy -78062.585854 kJ/mol
# GULP energy per Si atom -5575.898990 kJ/mol
# Density = 2.326525 g / cm^3
# Si number density = 23.318324 Si / 1000 Ang^3
#
#
#
# Elastic Constant Matrix: (Units=GPa)
#
#
# Indices 1 2 3 4 5 6 
#
# 1 81.7553 40.9170 20.8073 -13.0294 -0.8039 -25.9011
# 2 40.9170 75.0137 55.1503 -26.7128 20.8469 -27.7720
# 3 20.8073 55.1503 95.0878 -28.8525 14.8727 -15.7780
# 4 -13.0294 -26.7128 -28.8525 40.3663 -12.2106 21.3094
# 5 -0.8039 20.8469 14.8727 -12.2106 45.5487 -7.5007
# 6 -25.9011 -27.7720 -15.7780 21.3094 -7.5007 51.7031
#
#
#
# Elastic Compliance Matrix: (Units=1/GPa)
#
#
# Indices 1 2 3 4 5 6 
#
# 1 0.019372 -0.012730 0.002732 -0.001101 0.005804 0.004996
# 2 -0.012730 0.038423 -0.015710 0.003420 -0.010692 0.006506
# 3 0.002732 -0.015710 0.020421 0.007641 0.002010 -0.003696
# 4 -0.001101 0.003420 0.007641 0.039977 0.004630 -0.012187
# 5 0.005804 -0.010692 0.002010 0.004630 0.027513 -0.000139
# 6 0.004996 0.006506 -0.003696 -0.012187 -0.000139 0.029214
#
#
# Mechanical properties :
#
#
# Convention : Reuss Voigt Hill
#
# Bulk Modulus (GPa) = 37.31420 53.95620 45.63520
# Shear Modulus (GPa) = 21.25227 36.52244 28.88735
#
# Velocity S-wave (km/s) = 3.02221 3.96189 3.52351
# Velocity P-wave (km/s) = 5.31180 6.64213 6.01386
#
# Compressibility (1/GPa) = 0.02679945
#
# Stress axis : x y z
#
# Youngs Moduli (GPa) = 51.62053 26.02633 48.96872
#
# Poissons Ratio (x) = 0.33133 -0.13377
# Poissons Ratio (y) = 0.65715 0.76928
# Poissons Ratio (z) = -0.14101 0.40886
#
# Static dielectric constant tensor:
#      x y z
#    x 1.926740 -0.003250 0.048860 
#    y -0.003250 1.930080 -0.042320 
#    z 0.048860 -0.042320 1.943040 
# 
# From -- ./inp_files/541201.got.cif
#   From: 2010.05.17/outbox.cif.g08.bks.cpg/sg2_271_cif.got.tgz:541201.got - 2010.06.03 11:33:40.
