data_PCOD9021169
_publ_section_title
;
Structure prediction by ZEFSAII (Michael W. Deem and Ramdas Pophale) SiO2 
 PCOD9021169
Probable space group: P -1
;
_chemical_formula_sum "Si O2"
_cell_formula_units_Z 16
_cell_length_a 23.049573
_cell_length_b 18.221294
_cell_length_c 12.871351
_cell_angle_alpha 154.469697
_cell_angle_beta 150.263887
_cell_angle_gamma 20.093898
_cell_volume 792.445552
_symmetry_space_group_name_H-M "P -1"
_symmetry_group_IT_number 2
_symmetry_cell_setting 'triclinic'
loop_
_space_group_symop_operation_xyz
x,y,z
-x,-y,-z
loop_
_atom_site_type_symbol
_atom_site_label
_atom_site_fract_x
_atom_site_fract_y
_atom_site_fract_z
Si Si1 0.381776 0.545420 0.223675
Si Si2 0.252738 0.286774 0.053248
Si Si3 0.549518 0.281130 0.936626
Si Si4 0.773962 0.274648 0.134901
Si Si5 0.830764 0.718734 0.655499
Si Si6 0.072809 0.545454 0.321755
Si Si7 0.539629 0.713071 0.766430
Si Si8 0.048603 0.725419 0.860299
O O1 0.428057 0.691515 0.504419
O O2 0.405067 0.424553 0.214413
O O3 0.509942 0.343629 0.076073
O O4 0.193455 0.702086 0.091186
O O5 0.170508 0.424371 0.210129
O O6 0.304265 0.391362 0.195580
O O7 0.119572 0.308299 0.812785
O O8 0.423246 0.999926 0.973449
O O9 0.372330 0.496047 0.874398
O O10 0.648106 0.999919 0.709479
O O11 0.673989 0.295895 0.103727
O O12 0.895499 0.297919 0.389104
O O13 0.890189 0.000056 0.917782
O O14 0.853729 0.656218 0.732495
O O15 0.868477 0.503808 0.378354
O O16 0.969944 0.704065 0.807856
#
# Coordination Sequence:
#
# PCOD9021169 Si02
#       8
#     2   2   2   2   2   2   2   2
#     4  11  21  36  60  84 111 151 194 234 282 339
#     4  10  22  38  56  82 114 148 189 237 286 335
#     4  10  22  39  59  86 119 153 190 234 285 341
#     4  10  22  39  59  86 119 153 190 234 285 341
#     4  10  22  39  59  86 119 153 190 234 285 341
#     4  11  21  36  60  84 111 151 194 234 282 339
#     4  10  22  38  56  82 114 148 189 237 286 335
#     4  10  22  39  59  86 119 153 190 234 285 341
#
# _framework density 20.190663000000001
#
# number of rings (size 3 to 8) (size 9 to 14) (size 15 to 20)
#    0.000    1.750    0.000    3.750    0.000    6.000 
#    0.000    5.000    0.000   12.000    0.000    0.000 
#    0.000    0.000    0.000    0.000    0.000    0.000 
#
# Total GULP energy -89365.859011 kJ/mol
# GULP energy per Si atom -5585.366188 kJ/mol
# Density = 2.014471 g / cm^3
# Si number density = 20.190663 Si / 1000 Ang^3
#
#
#
# Elastic Constant Matrix: (Units=GPa)
#
#
# Indices 1 2 3 4 5 6 
#
# 1 153.2121 40.0137 43.9656 -1.7866 7.6842 -0.6683
# 2 40.0137 101.8293 33.3032 16.4179 -6.4586 2.1469
# 3 43.9656 33.3032 70.5389 0.4557 2.6127 -1.7267
# 4 -1.7866 16.4179 0.4557 27.3026 -5.0901 0.6966
# 5 7.6842 -6.4586 2.6127 -5.0901 26.0762 -5.7407
# 6 -0.6683 2.1469 -1.7267 0.6966 -5.7407 14.2878
#
#
#
# Elastic Compliance Matrix: (Units=1/GPa)
#
#
# Indices 1 2 3 4 5 6 
#
# 1 0.008467 -0.002395 -0.004083 0.001608 -0.002550 -0.000841
# 2 -0.002395 0.013932 -0.005171 -0.007884 0.002849 -0.001301
# 3 -0.004083 -0.005171 0.019245 0.002267 -0.001039 0.002384
# 4 0.001608 -0.007884 0.002267 0.042517 0.006063 0.001897
# 5 -0.002550 0.002849 -0.001039 0.006063 0.044848 0.017051
# 6 -0.000841 -0.001301 0.002384 0.001897 0.017051 0.077193
#
#
# Mechanical properties :
#
#
# Convention : Reuss Voigt Hill
#
# Bulk Modulus (GPa) = 54.50990 62.23837 58.37414
# Shear Modulus (GPa) = 21.22099 27.41984 24.32041
#
# Velocity S-wave (km/s) = 3.24548 3.68916 3.47441
# Velocity P-wave (km/s) = 6.41095 7.00277 6.71339
#
# Compressibility (1/GPa) = 0.01834529
#
# Stress axis : x y z
#
# Youngs Moduli (GPa) = 118.10416 71.77695 51.96111
#
# Poissons Ratio (x) = 0.17192 0.21216
# Poissons Ratio (y) = 0.28288 0.26871
# Poissons Ratio (z) = 0.48223 0.37118
#
# Static dielectric constant tensor:
#      x y z
#    x 1.726530 -0.007050 0.017900 
#    y -0.007050 1.698310 0.004930 
#    z 0.017900 0.004930 1.690760 
# 
# From -- ./inp_files/475398.got.cif
#   From: 2010.05.17/outbox.cif.g08.bks.cpg/sg2_238_cif.got.tgz:475398.got - 2010.06.03 11:33:40.
