data_PCOD9021725
_publ_section_title
;
Structure prediction by ZEFSAII (Michael W. Deem and Ramdas Pophale) SiO2 
 PCOD9021725
Probable space group: P -1
;
_chemical_formula_sum "Si O2"
_cell_formula_units_Z 14
_cell_length_a 21.512727
_cell_length_b 7.728935
_cell_length_c 18.449469
_cell_angle_alpha 38.528106
_cell_angle_beta 20.351204
_cell_angle_gamma 41.916440
_cell_volume 663.724003
_symmetry_space_group_name_H-M "P -1"
_symmetry_group_IT_number 2
_symmetry_cell_setting 'triclinic'
loop_
_space_group_symop_operation_xyz
x,y,z
-x,-y,-z
loop_
_atom_site_type_symbol
_atom_site_label
_atom_site_fract_x
_atom_site_fract_y
_atom_site_fract_z
Si Si1 0.747024 0.535789 0.402976
Si Si2 0.466320 0.794047 0.901855
Si Si3 0.206018 0.930809 0.612752
Si Si4 0.852521 0.339163 0.084520
Si Si5 0.195038 0.034350 0.010311
Si Si6 0.508834 0.196008 0.857440
Si Si7 0.377061 0.765646 0.770300
O O1 0.744033 0.356010 0.391462
O O2 0.704146 0.312129 0.586433
O O3 0.579544 0.753309 0.522848
O O4 0.935580 0.667418 0.158658
O O5 0.639013 0.862690 0.642066
O O6 0.455372 0.024253 0.901649
O O7 0.500000 0.500000 0.000000
O O8 0.291355 0.835707 0.029783
O O9 0.192105 0.862428 0.734722
O O10 0.009784 0.024795 0.766051
O O11 0.752213 0.281235 0.139644
O O12 0.803272 0.652828 0.063561
O O13 0.308389 0.001597 0.823094
O O14 0.384481 0.477403 0.904215
O O15 0.500000 0.000000 0.000000
#
# Coordination Sequence:
#
# PCOD9021725 Si02
#       7
#     2   2   2   2   2   2   2
#     4   8  19  37  62  89 125 170 204 260 321 365
#     4  11  23  42  68  92 126 172 212 265 323 371
#     4  10  23  41  66  94 131 170 212 263 313 389
#     4  11  21  43  65  92 136 171 203 262 328 370
#     4  11  22  41  67  98 127 167 217 254 325 380
#     4   9  18  40  62  90 126 164 213 261 306 377
#     4  10  22  38  64  97 130 165 218 258 311 386
#
# _framework density 21.093105999999999
#
# number of rings (size 3 to 8) (size 9 to 14) (size 15 to 20)
#    0.857    1.143    1.429    2.571    0.000    5.714 
#    0.000    7.143    0.000    0.000    0.000    0.000 
#    0.000    0.000    0.000    0.000    0.000    0.000 
#
# Total GULP energy -78256.643679 kJ/mol
# GULP energy per Si atom -5589.760263 kJ/mol
# Density = 2.104510 g / cm^3
# Si number density = 21.093106 Si / 1000 Ang^3
#
#
#
# Elastic Constant Matrix: (Units=GPa)
#
#
# Indices 1 2 3 4 5 6 
#
# 1 117.1253 43.9940 47.8059 10.2523 9.8523 -21.7975
# 2 43.9940 112.3417 53.5048 13.4978 -1.3009 -14.5909
# 3 47.8059 53.5048 99.8764 8.6735 13.0070 -11.0784
# 4 10.2523 13.4978 8.6735 40.3313 -4.1488 12.5331
# 5 9.8523 -1.3009 13.0070 -4.1488 31.1644 -0.2885
# 6 -21.7975 -14.5909 -11.0784 12.5331 -0.2885 41.5428
#
#
#
# Elastic Compliance Matrix: (Units=1/GPa)
#
#
# Indices 1 2 3 4 5 6 
#
# 1 0.012432 -0.001986 -0.003476 -0.003946 -0.003031 0.006068
# 2 -0.001986 0.013377 -0.006018 -0.003293 0.003288 0.003068
# 3 -0.003476 -0.006018 0.015862 -0.001327 -0.005943 0.000651
# 4 -0.003946 -0.003293 -0.001327 0.031868 0.005785 -0.013155
# 5 -0.003031 0.003288 -0.005943 0.005785 0.036401 -0.003513
# 6 0.006068 0.003068 0.000651 -0.013155 -0.003513 0.032451
#
#
# Mechanical properties :
#
#
# Convention : Reuss Voigt Hill
#
# Bulk Modulus (GPa) = 53.44357 68.88366 61.16361
# Shear Modulus (GPa) = 29.13936 34.87695 32.00815
#
# Velocity S-wave (km/s) = 3.72084 4.07071 3.89970
# Velocity P-wave (km/s) = 6.62205 7.40419 7.02401
#
# Compressibility (1/GPa) = 0.01871132
#
# Stress axis : x y z
#
# Youngs Moduli (GPa) = 80.43532 74.75295 63.04537
#
# Poissons Ratio (x) = 0.14845 0.21917
# Poissons Ratio (y) = 0.15973 0.37939
# Poissons Ratio (z) = 0.27963 0.44984
#
# Static dielectric constant tensor:
#      x y z
#    x 1.741690 0.012240 0.015040 
#    y 0.012240 1.803240 -0.003180 
#    z 0.015040 -0.003180 1.757270 
# 
# From -- ./inp_files/558664.got.cif
#   From: 2010.05.17/outbox.cif.g08.bks.cpg/sg2_280_cif.got.tgz:558664.got - 2010.06.03 11:33:40.
