data_PCOD9021967
_publ_section_title
;
Structure prediction by ZEFSAII (Michael W. Deem and Ramdas Pophale) SiO2 
 PCOD9021967
Probable space group: P -1
;
_chemical_formula_sum "Si O2"
_cell_formula_units_Z 14
_cell_length_a 8.980998
_cell_length_b 8.868455
_cell_length_c 9.022718
_cell_angle_alpha 91.497525
_cell_angle_beta 57.848219
_cell_angle_gamma 66.952463
_cell_volume 533.905225
_symmetry_space_group_name_H-M "P -1"
_symmetry_group_IT_number 2
_symmetry_cell_setting 'triclinic'
loop_
_space_group_symop_operation_xyz
x,y,z
-x,-y,-z
loop_
_atom_site_type_symbol
_atom_site_label
_atom_site_fract_x
_atom_site_fract_y
_atom_site_fract_z
Si Si1 0.416616 0.456676 0.286626
Si Si2 0.837511 0.031592 0.712095
Si Si3 0.167301 0.746102 0.660290
Si Si4 0.923454 0.184807 0.964907
Si Si5 0.225882 0.511704 0.082229
Si Si6 0.592652 0.088780 0.348308
Si Si7 0.408883 0.127710 0.910651
O O1 0.319015 0.593849 0.472928
O O2 0.255837 0.503131 0.242284
O O3 0.475147 0.271257 0.326801
O O4 0.594882 0.468114 0.099188
O O5 0.942092 0.838935 0.718923
O O6 0.823616 0.146470 0.866477
O O7 0.623312 0.111278 0.750706
O O8 0.000000 0.000000 0.500000
O O9 0.249676 0.884316 0.635529
O O10 0.160170 0.703957 0.833954
O O11 0.976660 0.319505 0.854670
O O12 0.000000 0.000000 0.000000
O O13 0.260668 0.325971 0.015871
O O14 0.500000 0.000000 0.500000
O O15 0.675315 0.953187 0.166612
O O16 0.500000 0.000000 0.000000
#
# Coordination Sequence:
#
# PCOD9021967 Si02
#       7
#     2   2   2   2   2   2   2
#     4  11  22  39  69 102 132 190 247 290 339 442
#     4  11  22  43  70  99 136 188 239 284 348 435
#     4  11  23  42  67  99 137 183 243 286 355 423
#     4  10  22  38  68 101 130 174 243 299 340 407
#     4  11  21  41  69  99 135 186 248 290 337 439
#     4  12  24  39  63 106 147 179 231 302 361 410
#     4  12  25  44  70 107 145 186 235 298 366 416
#
# _framework density 26.221882000000001
#
# number of rings (size 3 to 8) (size 9 to 14) (size 15 to 20)
#    0.000    0.857    2.857    6.429    2.000    0.000 
#    0.000    0.714    6.286    5.143    0.000    0.000 
#    0.000    0.000    0.000    0.000    0.000    0.000 
#
# Total GULP energy -77950.110095 kJ/mol
# GULP energy per Si atom -5567.865007 kJ/mol
# Density = 2.616220 g / cm^3
# Si number density = 26.221882 Si / 1000 Ang^3
#
#
#
# Elastic Constant Matrix: (Units=GPa)
#
#
# Indices 1 2 3 4 5 6 
#
# 1 75.4592 56.5869 29.2852 4.9176 20.1470 -9.5646
# 2 56.5869 225.7095 59.0716 -3.0143 17.0933 -6.9351
# 3 29.2852 59.0716 153.4591 9.8529 32.6261 14.3499
# 4 4.9176 -3.0143 9.8529 59.1817 7.1112 7.6411
# 5 20.1470 17.0933 32.6261 7.1112 41.2466 -5.2064
# 6 -9.5646 -6.9351 14.3499 7.6411 -5.2064 40.6258
#
#
#
# Elastic Compliance Matrix: (Units=1/GPa)
#
#
# Indices 1 2 3 4 5 6 
#
# 1 0.018709 -0.003866 -0.001053 -0.001316 -0.006023 0.003592
# 2 -0.003866 0.005838 -0.001804 0.000726 0.000859 0.000697
# 3 -0.001053 -0.001804 0.009265 -0.000150 -0.006628 -0.004650
# 4 -0.001316 0.000726 -0.000150 0.017949 -0.003127 -0.003910
# 5 -0.006023 0.000859 -0.006628 -0.003127 0.033361 0.005933
# 6 0.003592 0.000697 -0.004650 -0.003910 0.005933 0.028718
#
#
# Mechanical properties :
#
#
# Convention : Reuss Voigt Hill
#
# Bulk Modulus (GPa) = 49.09993 82.72393 65.91193
# Shear Modulus (GPa) = 37.29256 48.85643 43.07449
#
# Velocity S-wave (km/s) = 3.77529 4.32115 4.05741
# Velocity P-wave (km/s) = 6.14566 7.51749 6.86592
#
# Compressibility (1/GPa) = 0.02036663
#
# Stress axis : x y z
#
# Youngs Moduli (GPa) = 53.44957 171.29585 107.93008
#
# Poissons Ratio (x) = 0.66223 0.11366
# Poissons Ratio (y) = 0.20664 0.19468
# Poissons Ratio (z) = 0.05629 0.30898
#
# Static dielectric constant tensor:
#      x y z
#    x 2.491870 -0.301070 -0.374730 
#    y -0.301070 2.428910 0.204470 
#    z -0.374730 0.204470 2.349740 
# 
# From -- ./inp_files/234529.got.cif
#   From: 2010.05.17/outbox.cif.g08.bks.cpg/sg2_118_cif.got.tgz:234529.got - 2010.06.03 11:33:40.
