data_PCOD9021888
_publ_section_title
;
Structure prediction by ZEFSAII (Michael W. Deem and Ramdas Pophale) SiO2 
 PCOD9021888
Probable space group: P -1
;
_chemical_formula_sum "Si O2"
_cell_formula_units_Z 15
_cell_length_a 26.516753
_cell_length_b 7.181216
_cell_length_c 8.054420
_cell_angle_alpha 39.840323
_cell_angle_beta 40.130814
_cell_angle_gamma 46.203998
_cell_volume 612.486850
_symmetry_space_group_name_H-M "P -1"
_symmetry_group_IT_number 2
_symmetry_cell_setting 'triclinic'
loop_
_space_group_symop_operation_xyz
x,y,z
-x,-y,-z
loop_
_atom_site_type_symbol
_atom_site_label
_atom_site_fract_x
_atom_site_fract_y
_atom_site_fract_z
Si Si1 0.732594 0.900910 0.066092
Si Si2 0.000000 0.000000 0.000000
Si Si3 0.959110 0.293588 0.568999
Si Si4 0.301956 0.732738 0.430474
Si Si5 0.153198 0.182331 0.608067
Si Si6 0.478469 0.604451 0.211402
Si Si7 0.897907 0.753372 0.945578
Si Si8 0.431661 0.942593 0.447093
O O1 0.718127 0.582319 0.264450
O O2 0.661661 0.013756 0.302527
O O3 0.820829 0.833667 0.969373
O O4 0.720621 0.144654 0.782793
O O5 0.904707 0.028128 0.156969
O O6 0.986114 0.857601 0.313667
O O7 0.875915 0.543727 0.633173
O O8 0.022164 0.461236 0.197380
O O9 0.929408 0.045317 0.709087
O O10 0.395569 0.688159 0.262615
O O11 0.244588 0.995867 0.503809
O O12 0.128217 0.332315 0.749151
O O13 0.454959 0.766063 0.337553
O O14 0.516445 0.259293 0.399879
O O15 0.542911 0.749687 0.858471
#
# Coordination Sequence:
#
# PCOD9021888 Si02
#       8
#     2   1   2   2   2   2   2   2
#     4  12  27  44  66 104 140 181 221 288 333 412
#     4  10  22  38  66  98 128 168 220 280 344 400
#     4  10  22  43  69  98 127 184 222 289 339 405
#     4  12  28  42  67 103 142 178 227 275 350 393
#     4  11  24  41  68  94 132 183 223 286 332 414
#     4  10  22  45  70 101 130 180 224 277 331 417
#     4  10  24  43  67  96 132 176 238 277 341 400
#     4  10  22  44  73  97 134 177 227 272 343 396
#
# _framework density 24.490324000000001
#
# number of rings (size 3 to 8) (size 9 to 14) (size 15 to 20)
#    0.000    1.333    0.000    4.000    7.467    3.200 
#    7.200    0.000    0.000    0.000    0.000    0.000 
#    0.000    0.000    0.000    0.000    0.000    0.000 
#
# Total GULP energy -83699.748944 kJ/mol
# GULP energy per Si atom -5579.983263 kJ/mol
# Density = 2.443458 g / cm^3
# Si number density = 24.490324 Si / 1000 Ang^3
#
#
#
# Elastic Constant Matrix: (Units=GPa)
#
#
# Indices 1 2 3 4 5 6 
#
# 1 97.3999 3.9756 1.9659 0.7278 3.9718 -23.2839
# 2 3.9756 77.2259 17.5473 7.6558 10.2243 -14.0982
# 3 1.9659 17.5473 68.5079 3.4795 22.6803 2.2111
# 4 0.7278 7.6558 3.4795 42.2807 -3.1381 3.5217
# 5 3.9718 10.2243 22.6803 -3.1381 25.3630 -2.7388
# 6 -23.2839 -14.0982 2.2111 3.5217 -2.7388 25.5463
#
#
#
# Elastic Compliance Matrix: (Units=1/GPa)
#
#
# Indices 1 2 3 4 5 6 
#
# 1 0.013570 0.002379 -0.001081 -0.001798 -0.000836 0.013933
# 2 0.002379 0.016585 -0.003435 -0.003984 -0.003202 0.011825
# 3 -0.001081 -0.003435 0.022204 -0.002068 -0.019268 -0.006583
# 4 -0.001798 -0.003984 -0.002068 0.025577 0.006198 -0.006520
# 5 -0.000836 -0.003202 -0.019268 0.006198 0.059348 0.004647
# 6 0.013933 0.011825 -0.006583 -0.006520 0.004647 0.060336
#
#
# Mechanical properties :
#
#
# Convention : Reuss Voigt Hill
#
# Bulk Modulus (GPa) = 20.79601 32.23458 26.51530
# Shear Modulus (GPa) = 22.94400 33.28099 28.11250
#
# Velocity S-wave (km/s) = 3.06414 3.69039 3.39175
# Velocity P-wave (km/s) = 4.58569 5.59905 5.11751
#
# Compressibility (1/GPa) = 0.04808614
#
# Stress axis : x y z
#
# Youngs Moduli (GPa) = 73.69228 60.29659 45.03634
#
# Poissons Ratio (x) = -0.14347 0.04866
# Poissons Ratio (y) = -0.17535 0.15472
# Poissons Ratio (z) = 0.07963 0.20714
#
# Static dielectric constant tensor:
#      x y z
#    x 1.911450 0.022660 0.145460 
#    y 0.022660 1.671730 0.286060 
#    z 0.145460 0.286060 1.793100 
# 
# From -- ./inp_files/356186.got.cif
#   From: 2010.05.17/outbox.cif.g08.bks.cpg/sg2_179_cif.got.tgz:356186.got - 2010.06.03 11:33:40.
