data_PCOD9021022
_publ_section_title
;
Structure prediction by ZEFSAII (Michael W. Deem and Ramdas Pophale) SiO2 
 PCOD9021022
Probable space group: P -1
;
_chemical_formula_sum "Si O2"
_cell_formula_units_Z 14
_cell_length_a 10.676932
_cell_length_b 10.297711
_cell_length_c 5.360871
_cell_angle_alpha 89.739716
_cell_angle_beta 97.971037
_cell_angle_gamma 106.906949
_cell_volume 558.094163
_symmetry_space_group_name_H-M "P -1"
_symmetry_group_IT_number 2
_symmetry_cell_setting 'triclinic'
loop_
_space_group_symop_operation_xyz
x,y,z
-x,-y,-z
loop_
_atom_site_type_symbol
_atom_site_label
_atom_site_fract_x
_atom_site_fract_y
_atom_site_fract_z
Si Si1 0.714923 0.929424 0.920741
Si Si2 0.947513 0.388180 0.186475
Si Si3 0.499963 0.714510 0.625573
Si Si4 0.598811 0.656116 0.155628
Si Si5 0.063879 0.905577 0.347585
Si Si6 0.720394 0.162920 0.229354
Si Si7 0.134660 0.376555 0.611529
O O1 0.628129 0.848284 0.670211
O O2 0.861602 0.006186 0.867311
O O3 0.691084 0.810366 0.117685
O O4 0.655218 0.037607 0.035106
O O5 0.823020 0.267674 0.076673
O O6 0.886329 0.475253 0.361195
O O7 0.069779 0.340064 0.320911
O O8 0.000000 0.500000 0.000000
O O9 0.497046 0.655959 0.349909
O O10 0.379238 0.768302 0.671176
O O11 0.529441 0.622370 0.864011
O O12 0.712446 0.597776 0.294301
O O13 0.183102 0.874774 0.540566
O O14 0.958731 0.756545 0.267597
O O15 0.000000 0.000000 0.500000
#
# Coordination Sequence:
#
# PCOD9021022 Si02
#       7
#     2   2   2   2   2   2   2
#     4  10  22  37  64  94 132 170 209 264 320 389
#     4  10  23  41  67  90 127 168 222 265 329 377
#     4  10  24  42  64  99 129 175 213 262 330 380
#     4  10  24  42  68  93 135 170 214 265 326 385
#     4  11  23  37  64  96 134 166 219 263 333 385
#     4  11  23  40  63  93 129 171 218 269 316 394
#     4  10  22  42  61  95 124 174 209 277 319 383
#
# _framework density 25.085372
#
# number of rings (size 3 to 8) (size 9 to 14) (size 15 to 20)
#    0.857    0.857    0.000    3.857    4.000    4.571 
#    0.000    1.429    0.000    0.000    0.000    0.000 
#    0.000    0.000    0.000    0.000    0.000    0.000 
#
# Total GULP energy -78123.839008 kJ/mol
# GULP energy per Si atom -5580.274215 kJ/mol
# Density = 2.502828 g / cm^3
# Si number density = 25.085372 Si / 1000 Ang^3
#
#
#
# Elastic Constant Matrix: (Units=GPa)
#
#
# Indices 1 2 3 4 5 6 
#
# 1 130.7732 14.7065 34.1106 -3.9683 3.2922 -12.5956
# 2 14.7065 53.3001 4.2564 15.0104 15.3180 -2.9414
# 3 34.1106 4.2564 102.1205 -3.6202 -14.8192 -6.0552
# 4 -3.9683 15.0104 -3.6202 40.2150 -1.8878 -0.5164
# 5 3.2922 15.3180 -14.8192 -1.8878 21.0125 0.4011
# 6 -12.5956 -2.9414 -6.0552 -0.5164 0.4011 34.9872
#
#
#
# Elastic Compliance Matrix: (Units=1/GPa)
#
#
# Indices 1 2 3 4 5 6 
#
# 1 0.008987 -0.001812 -0.003044 0.001220 -0.002174 0.002599
# 2 -0.001812 0.031505 -0.005117 -0.013676 -0.027544 0.001225
# 3 -0.003044 -0.005117 0.013187 0.003453 0.013805 0.000649
# 4 0.001220 -0.013676 0.003453 0.031109 0.015005 0.000174
# 5 -0.002174 -0.027544 0.013805 0.015005 0.079122 -0.001395
# 6 0.002599 0.001225 0.000649 0.000174 -0.001395 0.029751
#
#
# Mechanical properties :
#
#
# Convention : Reuss Voigt Hill
#
# Bulk Modulus (GPa) = 29.64557 43.59341 36.61949
# Shear Modulus (GPa) = 22.23682 34.78431 28.51056
#
# Velocity S-wave (km/s) = 2.98055 3.72780 3.37492
# Velocity P-wave (km/s) = 4.86708 5.99536 5.46044
#
# Compressibility (1/GPa) = 0.03373186
#
# Stress axis : x y z
#
# Youngs Moduli (GPa) = 111.27460 31.74064 75.83350
#
# Poissons Ratio (x) = 0.05751 0.23087
# Poissons Ratio (y) = 0.20161 0.38806
# Poissons Ratio (z) = 0.33877 0.16242
#
# Static dielectric constant tensor:
#      x y z
#    x -0.065640 2.374550 1.243710 
#    y 2.374550 -0.631360 -1.405200 
#    z 1.243710 -1.405200 1.270300 
# 
# From -- ./inp_files/63858.got.cif
#   From: 2010.05.17/outbox.cif.g08.bks.cpg/sg2_32_cif.got.tgz:63858.got - 2010.06.03 11:33:40.
