data_PCOD9021137
_publ_section_title
;
Structure prediction by ZEFSAII (Michael W. Deem and Ramdas Pophale) SiO2 
 PCOD9021137
Probable space group: P -1
;
_chemical_formula_sum "Si O2"
_cell_formula_units_Z 16
_cell_length_a 15.395567
_cell_length_b 8.215738
_cell_length_c 8.939386
_cell_angle_alpha 64.650243
_cell_angle_beta 52.830653
_cell_angle_gamma 95.585739
_cell_volume 707.788853
_symmetry_space_group_name_H-M "P -1"
_symmetry_group_IT_number 2
_symmetry_cell_setting 'triclinic'
loop_
_space_group_symop_operation_xyz
x,y,z
-x,-y,-z
loop_
_atom_site_type_symbol
_atom_site_label
_atom_site_fract_x
_atom_site_fract_y
_atom_site_fract_z
Si Si1 0.667516 0.046298 0.911569
Si Si2 0.068523 0.090724 0.547979
Si Si3 0.673248 0.693247 0.341616
Si Si4 0.619319 0.250334 0.626053
Si Si5 0.447254 0.768316 0.595874
Si Si6 0.103205 0.937233 0.865175
Si Si7 0.911183 0.284605 0.761631
Si Si8 0.704470 0.663576 0.974030
O O1 0.696859 0.209588 0.684495
O O2 0.770144 0.163568 0.888283
O O3 0.521562 0.948456 0.145722
O O4 0.671488 0.847333 0.918764
O O5 0.976219 0.151997 0.699592
O O6 0.096984 0.949136 0.686857
O O7 0.193901 0.286277 0.279530
O O8 0.000000 0.000000 0.500000
O O9 0.627678 0.471860 0.553931
O O10 0.555586 0.730024 0.424944
O O11 0.730116 0.690787 0.118926
O O12 0.768057 0.873906 0.279309
O O13 0.655214 0.262606 0.410583
O O14 0.390249 0.580879 0.845772
O O15 0.500000 0.000000 0.500000
O O16 0.087289 0.735484 0.050996
O O17 0.000000 0.000000 0.000000
O O18 0.000000 0.500000 0.500000
#
# Coordination Sequence:
#
# PCOD9021137 Si02
#       8
#     2   2   2   2   2   2   2   2
#     4  11  20  40  65  95 132 166 227 270 326 398
#     4  11  23  42  65  96 130 175 224 271 332 406
#     4  11  20  43  70  92 130 180 221 271 338 401
#     4  10  22  37  69  96 126 178 224 263 338 400
#     4  11  23  41  64  99 137 169 220 281 333 397
#     4  10  22  40  66  95 129 171 220 269 338 393
#     4  11  24  43  68  98 133 174 225 280 333 393
#     4  11  20  42  68  91 130 180 215 271 336 393
#
# _framework density 22.605611
#
# number of rings (size 3 to 8) (size 9 to 14) (size 15 to 20)
#    0.000    1.250    5.000    1.500    3.500    3.000 
#    2.250    3.125    0.000    0.000    0.000    0.000 
#    0.000    0.000    0.000    0.000    0.000    0.000 
#
# Total GULP energy -89101.134284 kJ/mol
# GULP energy per Si atom -5568.820893 kJ/mol
# Density = 2.255416 g / cm^3
# Si number density = 22.605611 Si / 1000 Ang^3
#
#
#
# Elastic Constant Matrix: (Units=GPa)
#
#
# Indices 1 2 3 4 5 6 
#
# 1 119.2484 14.6976 52.7148 -8.1355 48.6923 5.6319
# 2 14.6976 56.2895 16.1402 -21.7109 25.6274 -3.7073
# 3 52.7148 16.1402 116.6646 -19.8633 28.2505 5.7647
# 4 -8.1355 -21.7109 -19.8633 40.5402 -10.2945 5.6523
# 5 48.6923 25.6274 28.2505 -10.2945 49.3020 -2.2885
# 6 5.6319 -3.7073 5.7647 5.6523 -2.2885 15.6363
#
#
#
# Elastic Compliance Matrix: (Units=1/GPa)
#
#
# Indices 1 2 3 4 5 6 
#
# 1 0.016611 0.003985 -0.003677 0.000321 -0.016592 -0.006227
# 2 0.003985 0.028901 0.000455 0.012502 -0.016688 -0.001712
# 3 -0.003677 0.000455 0.011991 0.005470 -0.002582 -0.005344
# 4 0.000321 0.012502 0.005470 0.035005 -0.003211 -0.012292
# 5 -0.016592 -0.016688 -0.002582 -0.003211 0.046663 0.010961
# 6 -0.006227 -0.001712 -0.005344 -0.012292 0.010961 0.073808
#
#
# Mechanical properties :
#
#
# Convention : Reuss Voigt Hill
#
# Bulk Modulus (GPa) = 16.94072 51.03418 33.98745
# Shear Modulus (GPa) = 21.63295 35.00570 28.31933
#
# Velocity S-wave (km/s) = 3.09685 3.93942 3.54327
# Velocity P-wave (km/s) = 4.50529 6.58156 5.63979
#
# Compressibility (1/GPa) = 0.05902937
#
# Stress axis : x y z
#
# Youngs Moduli (GPa) = 60.20060 34.60052 83.39865
#
# Poissons Ratio (x) = -0.13787 0.30665
# Poissons Ratio (y) = -0.23988 -0.03798
# Poissons Ratio (z) = 0.22135 -0.01576
#
# Static dielectric constant tensor:
#      x y z
#    x 2.019960 0.031160 0.036840 
#    y 0.031160 1.863590 0.018150 
#    z 0.036840 0.018150 1.996630 
# 
# From -- ./inp_files/297610.got.cif
#   From: 2010.05.17/outbox.cif.g08.bks.cpg/sg2_149_cif.got.tgz:297610.got - 2010.06.03 11:33:40.
