data_PCOD9021115
_publ_section_title
;
Structure prediction by ZEFSAII (Michael W. Deem and Ramdas Pophale) SiO2 
 PCOD9021115
Probable space group: P -1
;
_chemical_formula_sum "Si O2"
_cell_formula_units_Z 12
_cell_length_a 5.657825
_cell_length_b 21.069752
_cell_length_c 5.166504
_cell_angle_alpha 129.317195
_cell_angle_beta 86.432704
_cell_angle_gamma 98.977237
_cell_volume 470.107808
_symmetry_space_group_name_H-M "P -1"
_symmetry_group_IT_number 2
_symmetry_cell_setting 'triclinic'
loop_
_space_group_symop_operation_xyz
x,y,z
-x,-y,-z
loop_
_atom_site_type_symbol
_atom_site_label
_atom_site_fract_x
_atom_site_fract_y
_atom_site_fract_z
Si Si1 0.332985 0.490179 0.736421
Si Si2 0.951901 0.918470 0.977358
Si Si3 0.456299 0.917715 0.961654
Si Si4 0.037607 0.307390 0.258949
Si Si5 0.671077 0.784238 0.322409
Si Si6 0.753373 0.332220 0.828994
O O1 0.500000 0.500000 0.500000
O O2 0.179493 0.400029 0.509693
O O3 0.500000 0.500000 0.000000
O O4 0.190709 0.568367 0.943872
O O5 0.692536 0.920103 0.131716
O O6 0.893206 0.838217 0.590833
O O7 0.196587 0.912341 0.093426
O O8 0.000000 0.000000 0.000000
O O9 0.477429 0.844939 0.561356
O O10 0.500000 0.000000 0.000000
O O11 0.873912 0.292240 0.480397
O O12 0.863449 0.307062 0.024166
O O13 0.225297 0.243853 0.026646
O O14 0.533448 0.698154 0.227449
#
# Coordination Sequence:
#
# PCOD9021115 Si02
#       6
#     2   2   2   2   2   2
#     4  12  24  46  72  99 143 190 238 295 365 435
#     4   8  15  31  58  96 134 185 233 292 358 430
#     4   8  15  31  58  96 134 185 233 292 358 430
#     4  12  26  45  71 103 142 188 241 299 364 431
#     4  10  22  37  68 100 144 180 242 305 354 436
#     4  12  26  45  71 103 142 188 241 299 364 431
#
# _framework density 25.526060999999999
#
# number of rings (size 3 to 8) (size 9 to 14) (size 15 to 20)
#    1.000    0.667    1.667    4.000    0.000    0.000 
#    0.000    0.000    0.000    2.000    0.000    0.000 
#    0.000    0.000    0.000    0.000    0.000    0.000 
#
# Total GULP energy -67053.850630 kJ/mol
# GULP energy per Si atom -5587.820886 kJ/mol
# Density = 2.546796 g / cm^3
# Si number density = 25.526061 Si / 1000 Ang^3
#
#
#
# Elastic Constant Matrix: (Units=GPa)
#
#
# Indices 1 2 3 4 5 6 
#
# 1 173.8734 31.9431 35.0167 -6.0439 -4.8526 22.6978
# 2 31.9431 90.4867 55.1534 -0.9657 0.0236 1.9160
# 3 35.0167 55.1534 145.9328 0.0071 -4.3619 5.8742
# 4 -6.0439 -0.9657 0.0071 56.6989 4.3907 -8.5800
# 5 -4.8526 0.0236 -4.3619 4.3907 39.8469 7.5734
# 6 22.6978 1.9160 5.8742 -8.5800 7.5734 45.9009
#
#
#
# Elastic Compliance Matrix: (Units=1/GPa)
#
#
# Indices 1 2 3 4 5 6 
#
# 1 0.006720 -0.001852 -0.000736 0.000070 0.001371 -0.003364
# 2 -0.001852 0.014892 -0.005265 0.000323 -0.001075 0.001206
# 3 -0.000736 -0.005265 0.009085 -0.000381 0.001108 -0.000833
# 4 0.000070 0.000323 -0.000381 0.018460 -0.002812 0.003915
# 5 0.001371 -0.001075 0.001108 -0.002812 0.026782 -0.005719
# 6 -0.003364 0.001206 -0.000833 0.003915 -0.005719 0.025182
#
#
# Mechanical properties :
#
#
# Convention : Reuss Voigt Hill
#
# Bulk Modulus (GPa) = 66.70166 72.72437 69.71301
# Shear Modulus (GPa) = 41.04302 47.70132 44.37217
#
# Velocity S-wave (km/s) = 4.01420 4.32757 4.17383
# Velocity P-wave (km/s) = 6.90453 7.31591 7.11320
#
# Compressibility (1/GPa) = 0.01499213
#
# Stress axis : x y z
#
# Youngs Moduli (GPa) = 148.81742 67.14944 110.06575
#
# Poissons Ratio (x) = 0.12435 0.08102
# Poissons Ratio (y) = 0.27558 0.57946
# Poissons Ratio (z) = 0.10955 0.35352
#
# Static dielectric constant tensor:
#      x y z
#    x 2.126990 -0.014340 0.001450 
#    y -0.014340 1.958190 0.065940 
#    z 0.001450 0.065940 1.952720 
# 
# From -- ./inp_files/14258.got.cif
#   From: 2010.05.17/outbox.cif.g08.bks.cpg/sg2_8_cif.got.tgz:14258.got - 2010.06.03 11:33:40.
