data_PCOD9021088
_publ_section_title
;
Structure prediction by ZEFSAII (Michael W. Deem and Ramdas Pophale) SiO2 
 PCOD9021088
Probable space group: P -1
;
_chemical_formula_sum "Si O2"
_cell_formula_units_Z 16
_cell_length_a 23.249230
_cell_length_b 10.291841
_cell_length_c 18.585256
_cell_angle_alpha 138.560097
_cell_angle_beta 16.706223
_cell_angle_gamma 145.748684
_cell_volume 694.783062
_symmetry_space_group_name_H-M "P -1"
_symmetry_group_IT_number 2
_symmetry_cell_setting 'triclinic'
loop_
_space_group_symop_operation_xyz
x,y,z
-x,-y,-z
loop_
_atom_site_type_symbol
_atom_site_label
_atom_site_fract_x
_atom_site_fract_y
_atom_site_fract_z
Si Si1 0.288739 0.349202 0.393718
Si Si2 0.115392 0.590783 0.596357
Si Si3 0.703268 0.074087 0.845836
Si Si4 0.330851 0.160083 0.830486
Si Si5 0.618271 0.378456 0.344646
Si Si6 0.462064 0.048516 0.271750
Si Si7 0.896765 0.799388 0.288263
Si Si8 0.753090 0.079103 0.306545
O O1 0.237204 0.480672 0.448855
O O2 0.565952 0.561949 0.174672
O O3 0.144581 0.277827 0.611747
O O4 0.223382 0.105607 0.335729
O O5 0.054649 0.716873 0.784306
O O6 0.897159 0.356691 0.722947
O O7 0.293355 0.802243 0.416005
O O8 0.598803 0.030113 0.033291
O O9 0.500000 0.000000 0.000000
O O10 0.571246 0.156982 0.535996
O O11 0.169617 0.997460 0.888176
O O12 0.168624 0.019785 0.035319
O O13 0.500000 0.500000 0.500000
O O14 0.653160 0.249093 0.182987
O O15 0.828030 0.576875 0.227238
O O16 0.417540 0.163781 0.545901
O O17 0.286688 0.124506 0.482438
#
# Coordination Sequence:
#
# PCOD9021088 Si02
#       8
#     2   2   2   2   2   2   2   2
#     4  11  24  45  64 103 135 170 225 269 325 395
#     4  10  25  44  68  96 133 173 217 277 333 383
#     4  12  26  44  72  93 131 178 224 279 321 390
#     4  10  22  37  66  95 132 173 208 268 325 386
#     4   9  19  38  61  93 134 166 212 269 319 394
#     4  10  24  44  63  99 131 172 227 269 327 395
#     4  11  22  39  68  97 136 176 214 268 331 393
#     4   9  19  42  60  97 134 162 216 264 325 394
#
# _framework density 23.028769
#
# number of rings (size 3 to 8) (size 9 to 14) (size 15 to 20)
#    0.000    1.750    2.500    0.375    3.500    5.500 
#    0.000    1.875    0.000    0.000    0.000    0.000 
#    0.000    0.000    0.000    0.000    0.000    0.000 
#
# Total GULP energy -89387.026113 kJ/mol
# GULP energy per Si atom -5586.689132 kJ/mol
# Density = 2.297635 g / cm^3
# Si number density = 23.028769 Si / 1000 Ang^3
#
#
#
# Elastic Constant Matrix: (Units=GPa)
#
#
# Indices 1 2 3 4 5 6 
#
# 1 11.6310 -41.8652 29.9073 47.5390 38.3781 4.7995
# 2 -41.8652 43.3668 51.8108 20.3829 20.2975 27.2254
# 3 29.9073 51.8108 58.3934 -4.6899 24.4461 13.3484
# 4 47.5390 20.3829 -4.6899 12.1931 -16.5399 -0.5896
# 5 38.3781 20.2975 24.4461 -16.5399 42.3478 5.9221
# 6 4.7995 27.2254 13.3484 -0.5896 5.9221 52.0322
#
#
#
# Elastic Compliance Matrix: (Units=1/GPa)
#
#
# Indices 1 2 3 4 5 6 
#
# 1 0.003448 -0.010372 0.007337 0.006394 -0.000358 0.003340
# 2 -0.010372 0.022567 -0.019075 0.020202 0.018582 -0.007844
# 3 0.007337 -0.019075 0.040380 -0.020655 -0.029168 0.002030
# 4 0.006394 0.020202 -0.020655 0.024340 0.006842 -0.006365
# 5 -0.000358 0.018582 -0.029168 0.006842 0.035403 -0.006159
# 6 0.003340 -0.007844 0.002030 -0.006365 -0.006159 0.023123
#
#
# Mechanical properties :
#
#
# Convention : Reuss Voigt Hill
#
# Bulk Modulus (GPa) = 45.09491 21.45522 33.27506
# Shear Modulus (GPa) = 24.89147 26.21718 25.55432
#
# Velocity S-wave (km/s) = 3.29125 3.37776 3.33478
# Velocity P-wave (km/s) = 5.83675 4.95472 5.41373
#
# Compressibility (1/GPa) = 0.02217545
#
# Stress axis : x y z
#
# Youngs Moduli (GPa) = 290.05950 44.31204 24.76482
#
# Poissons Ratio (x) = 0.45959 -0.18169
# Poissons Ratio (y) = 3.00841 0.47238
# Poissons Ratio (z) = -2.12811 0.84524
#
# Static dielectric constant tensor:
#      x y z
#    x 1.864350 0.035340 -0.061510 
#    y 0.035340 2.022070 0.006820 
#    z -0.061510 0.006820 1.879390 
# 
# From -- ./inp_files/579242.got.cif
#   From: 2010.05.17/outbox.cif.g08.bks.cpg/sg2_290_cif.got.tgz:579242.got - 2010.06.03 11:33:40.
