data_PCOD9021902
_publ_section_title
;
Structure prediction by ZEFSAII (Michael W. Deem and Ramdas Pophale) SiO2 
 PCOD9021902
Probable space group: P -1
;
_chemical_formula_sum "Si O2"
_cell_formula_units_Z 16
_cell_length_a 18.734709
_cell_length_b 15.039887
_cell_length_c 15.051879
_cell_angle_alpha 38.697689
_cell_angle_beta 130.728712
_cell_angle_gamma 162.114626
_cell_volume 718.760533
_symmetry_space_group_name_H-M "P -1"
_symmetry_group_IT_number 2
_symmetry_cell_setting 'triclinic'
loop_
_space_group_symop_operation_xyz
x,y,z
-x,-y,-z
loop_
_atom_site_type_symbol
_atom_site_label
_atom_site_fract_x
_atom_site_fract_y
_atom_site_fract_z
Si Si1 0.122636 0.414562 0.116305
Si Si2 0.200509 0.581984 0.546226
Si Si3 0.977722 0.356868 0.711278
Si Si4 0.360780 0.841418 0.150779
Si Si5 0.843562 0.182372 0.927475
Si Si6 0.319596 0.085293 0.600202
Si Si7 0.783195 0.737167 0.602149
Si Si8 0.579685 0.267759 0.544545
O O1 0.134270 0.499825 0.158200
O O2 0.162662 0.303413 0.247925
O O3 0.892574 0.142216 0.078001
O O4 0.378453 0.828555 0.948496
O O5 0.991185 0.280321 0.692631
O O6 0.213200 0.478237 0.562010
O O7 0.140567 0.653476 0.399491
O O8 0.500000 0.000000 0.500000
O O9 0.836095 0.106802 0.881664
O O10 0.288452 0.810613 0.631769
O O11 0.349102 0.724032 0.317562
O O12 0.383717 0.032243 0.058716
O O13 0.083886 0.638378 0.759218
O O14 0.498177 0.319572 0.650029
O O15 0.213117 0.093960 0.499975
O O16 0.516089 0.331517 0.484820
O O17 0.000000 0.000000 0.500000
#
# Coordination Sequence:
#
# PCOD9021902 Si02
#       8
#     2   2   2   2   2   2   2   2
#     4  11  21  34  48  75 103 140 180 214 251 306
#     4   9  17  28  48  72 109 135 161 203 271 310
#     4   9  17  29  46  77 106 133 165 210 257 319
#     4  11  19  31  52  74 104 139 174 211 256 303
#     4  11  20  33  55  77 106 137 176 214 260 307
#     4  10  21  34  51  76 101 137 180 218 250 310
#     4  11  23  37  51  68 104 143 182 221 257 292
#     4  10  17  31  50  75 104 136 167 214 257 305
#
# _framework density 22.260543999999999
#
# number of rings (size 3 to 8) (size 9 to 14) (size 15 to 20)
#    0.000    1.750    5.000    1.875    0.000    2.000 
#    0.000    0.000    0.000    0.000    0.000    0.875 
#    0.000   16.500    0.000    0.500    0.000    0.000 
#
# Total GULP energy -89219.521588 kJ/mol
# GULP energy per Si atom -5576.220099 kJ/mol
# Density = 2.220988 g / cm^3
# Si number density = 22.260544 Si / 1000 Ang^3
#
#
#
# Elastic Constant Matrix: (Units=GPa)
#
#
# Indices 1 2 3 4 5 6 
#
# 1 164.9653 13.9477 59.4591 23.5789 -16.5477 32.6567
# 2 13.9477 49.3613 15.8552 18.0400 -7.0575 7.2560
# 3 59.4591 15.8552 84.6347 31.2280 -0.4350 4.2344
# 4 23.5789 18.0400 31.2280 32.4119 -0.1433 3.8327
# 5 -16.5477 -7.0575 -0.4350 -0.1433 35.2662 5.9328
# 6 32.6567 7.2560 4.2344 3.8327 5.9328 24.7434
#
#
#
# Elastic Compliance Matrix: (Units=1/GPa)
#
#
# Indices 1 2 3 4 5 6 
#
# 1 0.014687 0.004107 -0.009504 -0.001227 0.011201 -0.021457
# 2 0.004107 0.028788 -0.001773 -0.015662 0.009874 -0.013500
# 3 -0.009504 -0.001773 0.024517 -0.017309 -0.006799 0.013179
# 4 -0.001227 -0.015662 -0.017309 0.056970 -0.003908 0.001287
# 5 0.011201 0.009874 -0.006799 -0.003908 0.039768 -0.025445
# 6 -0.021457 -0.013500 0.013179 0.001287 -0.025445 0.076340
#
#
# Mechanical properties :
#
#
# Convention : Reuss Voigt Hill
#
# Bulk Modulus (GPa) = 18.63879 53.05391 35.84635
# Shear Modulus (GPa) = 18.29536 32.46424 25.37980
#
# Velocity S-wave (km/s) = 2.86994 3.82301 3.38024
# Velocity P-wave (km/s) = 4.40151 6.58575 5.60113
#
# Compressibility (1/GPa) = 0.05365156
#
# Stress axis : x y z
#
# Youngs Moduli (GPa) = 68.08893 34.73643 40.78882
#
# Poissons Ratio (x) = -0.14265 0.38764
# Poissons Ratio (y) = -0.27962 0.07232
# Poissons Ratio (z) = 0.64709 0.06159
#
# Static dielectric constant tensor:
#      x y z
#    x 1.931320 -0.024040 -0.033270 
#    y -0.024040 1.888230 -0.009430 
#    z -0.033270 -0.009430 1.834300 
# 
# From -- ./inp_files/541485.got.cif
#   From: 2010.05.17/outbox.cif.g08.bks.cpg/sg2_271_cif.got.tgz:541485.got - 2010.06.03 11:33:40.
