data_PCOD9021785
_publ_section_title
;
Structure prediction by ZEFSAII (Michael W. Deem and Ramdas Pophale) SiO2 
 PCOD9021785
Probable space group: P -1
;
_chemical_formula_sum "Si O2"
_cell_formula_units_Z 14
_cell_length_a 8.379883
_cell_length_b 9.621798
_cell_length_c 8.612712
_cell_angle_alpha 98.244643
_cell_angle_beta 128.135401
_cell_angle_gamma 86.798401
_cell_volume 540.091034
_symmetry_space_group_name_H-M "P -1"
_symmetry_group_IT_number 2
_symmetry_cell_setting 'triclinic'
loop_
_space_group_symop_operation_xyz
x,y,z
-x,-y,-z
loop_
_atom_site_type_symbol
_atom_site_label
_atom_site_fract_x
_atom_site_fract_y
_atom_site_fract_z
Si Si1 0.276468 0.559734 0.352112
Si Si2 0.665129 0.239179 0.304750
Si Si3 0.273590 0.055225 0.348578
Si Si4 0.228299 0.062333 0.658393
Si Si5 0.925107 0.415682 0.293031
Si Si6 0.116653 0.160454 0.939769
Si Si7 0.293803 0.435068 0.043562
O O1 0.500000 0.500000 0.500000
O O2 0.260189 0.694222 0.475248
O O3 0.110930 0.439825 0.290883
O O4 0.281422 0.567441 0.171056
O O5 0.633635 0.073293 0.274272
O O6 0.832241 0.268016 0.273752
O O7 0.481296 0.337984 0.169791
O O8 0.256953 0.137270 0.519127
O O9 0.094111 0.931749 0.212760
O O10 0.500000 0.000000 0.500000
O O11 0.228187 0.130255 0.167712
O O12 0.235918 0.131609 0.843717
O O13 0.000000 0.000000 0.500000
O O14 0.738650 0.503339 0.133119
O O15 0.000000 0.500000 0.500000
O O16 0.102462 0.327665 0.946279
#
# Coordination Sequence:
#
# PCOD9021785 Si02
#       7
#     2   2   2   2   2   2   2
#     4   9  21  40  63  92 127 171 218 269 335 392
#     4  10  22  42  66  95 133 176 223 273 337 404
#     4  10  22  42  66  97 132 178 229 275 337 408
#     4  10  23  43  70  95 139 179 221 283 340 399
#     4  10  22  38  65  94 130 173 223 270 334 402
#     4  10  24  43  67 101 138 174 231 277 348 410
#     4  11  22  42  66  97 134 170 220 284 334 404
#
# _framework density 25.921555999999999
#
# number of rings (size 3 to 8) (size 9 to 14) (size 15 to 20)
#    0.000    2.000    0.000    1.714    8.000    5.714 
#    5.143    0.000    0.000    0.000    0.000    0.000 
#    0.000    0.000    0.000    0.000    0.000    0.000 
#
# Total GULP energy -78095.408080 kJ/mol
# GULP energy per Si atom -5578.243434 kJ/mol
# Density = 2.586256 g / cm^3
# Si number density = 25.921556 Si / 1000 Ang^3
#
#
#
# Elastic Constant Matrix: (Units=GPa)
#
#
# Indices 1 2 3 4 5 6 
#
# 1 97.9888 16.8012 44.3370 -10.6615 -12.5467 -7.3944
# 2 16.8012 72.3908 36.9105 -9.5233 -21.2974 -0.9228
# 3 44.3370 36.9105 192.0887 -20.4963 -34.6267 -8.4216
# 4 -10.6615 -9.5233 -20.4963 39.3468 -4.2485 -3.9158
# 5 -12.5467 -21.2974 -34.6267 -4.2485 58.2504 -6.3225
# 6 -7.3944 -0.9228 -8.4216 -3.9158 -6.3225 40.7961
#
#
#
# Elastic Compliance Matrix: (Units=1/GPa)
#
#
# Indices 1 2 3 4 5 6 
#
# 1 0.011857 -0.001005 -0.001940 0.002330 0.001439 0.002173
# 2 -0.001005 0.016958 -0.001612 0.003682 0.005409 0.001060
# 3 -0.001940 -0.001612 0.007065 0.003353 0.003649 0.001958
# 4 0.002330 0.003682 0.003353 0.029900 0.006574 0.005087
# 5 0.001439 0.005409 0.003649 0.006574 0.022677 0.005282
# 6 0.002173 0.001060 0.001958 0.005087 0.005282 0.026641
#
#
# Mechanical properties :
#
#
# Convention : Reuss Voigt Hill
#
# Bulk Modulus (GPa) = 37.36157 62.06285 49.71221
# Shear Modulus (GPa) = 37.55547 45.30664 41.43105
#
# Velocity S-wave (km/s) = 3.81046 4.18525 4.00224
# Velocity P-wave (km/s) = 5.81412 6.88111 6.36999
#
# Compressibility (1/GPa) = 0.02676547
#
# Stress axis : x y z
#
# Youngs Moduli (GPa) = 84.33632 58.96762 141.54088
#
# Poissons Ratio (x) = 0.05926 0.27465
# Poissons Ratio (y) = 0.08476 0.22820
# Poissons Ratio (z) = 0.16365 0.09507
#
# Static dielectric constant tensor:
#      x y z
#    x 2.208390 -0.025540 0.029790 
#    y -0.025540 2.022840 -0.050860 
#    z 0.029790 -0.050860 2.134820 
# 
# From -- ./inp_files/180865.got.cif
#   From: 2010.05.17/outbox.cif.g08.bks.cpg/sg2_91_cif.got.tgz:180865.got - 2010.06.03 11:33:40.
