data_PCOD9021353
_publ_section_title
;
Structure prediction by ZEFSAII (Michael W. Deem and Ramdas Pophale) SiO2 
 PCOD9021353
Probable space group: P -1
;
_chemical_formula_sum "Si O2"
_cell_formula_units_Z 15
_cell_length_a 12.017653
_cell_length_b 16.524251
_cell_length_c 9.989362
_cell_angle_alpha 44.106704
_cell_angle_beta 67.819013
_cell_angle_gamma 37.133767
_cell_volume 738.362807
_symmetry_space_group_name_H-M "P -1"
_symmetry_group_IT_number 2
_symmetry_cell_setting 'triclinic'
loop_
_space_group_symop_operation_xyz
x,y,z
-x,-y,-z
loop_
_atom_site_type_symbol
_atom_site_label
_atom_site_fract_x
_atom_site_fract_y
_atom_site_fract_z
Si Si1 0.057838 0.424209 0.910179
Si Si2 0.498845 0.350775 0.886896
Si Si3 0.782176 0.287070 0.018368
Si Si4 0.912729 0.343671 0.426365
Si Si5 0.363647 0.357183 0.215851
Si Si6 0.787224 0.928515 0.640086
Si Si7 0.910352 0.943774 0.071259
Si Si8 0.000000 0.000000 0.500000
O O1 0.139980 0.478470 0.745376
O O2 0.844736 0.552888 0.784541
O O3 0.199269 0.198279 0.126344
O O4 0.000000 0.500000 0.000000
O O5 0.620751 0.357061 0.902056
O O6 0.417022 0.331300 0.065086
O O7 0.296047 0.552973 0.658132
O O8 0.663827 0.154286 0.951435
O O9 0.843295 0.141486 0.272313
O O10 0.678184 0.480624 0.902839
O O11 0.987890 0.161943 0.991730
O O12 0.999775 0.215872 0.670838
O O13 0.088131 0.193801 0.410058
O O14 0.553759 0.147545 0.452907
O O15 0.912729 0.936397 0.637742
O O16 0.000000 0.000000 0.000000
#
# Coordination Sequence:
#
# PCOD9021353 Si02
#       8
#     2   2   2   2   2   2   2   1
#     4  10  22  38  60  94 127 160 217 258 306 367
#     4  11  21  39  66  94 124 168 210 252 321 370
#     4  11  24  39  62  96 132 161 204 266 319 375
#     4  11  22  41  64  91 128 166 211 263 301 375
#     4  12  21  38  62  96 125 163 209 258 317 366
#     4  11  22  34  61  94 123 163 201 264 310 360
#     4  10  23  43  60  93 127 168 209 255 317 374
#     4  12  20  38  64  86 132 156 202 266 316 360
#
# _framework density 20.315217000000001
#
# number of rings (size 3 to 8) (size 9 to 14) (size 15 to 20)
#    0.000    1.067    6.667    1.200    1.867    5.333 
#    2.400    0.667    0.000    1.600    0.000    0.000 
#    0.000    0.000    0.000    0.000    0.000    0.000 
#
# Total GULP energy -83545.486866 kJ/mol
# GULP energy per Si atom -5569.699124 kJ/mol
# Density = 2.026898 g / cm^3
# Si number density = 20.315217 Si / 1000 Ang^3
#
#
#
# Elastic Constant Matrix: (Units=GPa)
#
#
# Indices 1 2 3 4 5 6 
#
# 1 66.1455 1.7924 28.3219 -1.2377 -5.3892 -0.2865
# 2 1.7924 83.9760 39.1178 -11.0211 3.0712 -4.1526
# 3 28.3219 39.1178 125.0219 -13.3543 -7.1709 2.7631
# 4 -1.2377 -11.0211 -13.3543 25.6378 -7.9281 -0.1890
# 5 -5.3892 3.0712 -7.1709 -7.9281 27.9359 -0.3840
# 6 -0.2865 -4.1526 2.7631 -0.1890 -0.3840 7.5651
#
#
#
# Elastic Compliance Matrix: (Units=1/GPa)
#
#
# Indices 1 2 3 4 5 6 
#
# 1 0.017130 0.001766 -0.004398 -0.000058 0.002011 0.003325
# 2 0.001766 0.015292 -0.005113 0.003613 -0.001485 0.010343
# 3 -0.004398 -0.005113 0.011474 0.004724 0.003906 -0.006848
# 4 -0.000058 0.003613 0.004724 0.047454 0.014301 0.002167
# 5 0.002011 -0.001485 0.003906 0.014301 0.041413 0.000294
# 6 0.003325 0.010343 -0.006848 0.002167 0.000294 0.140560
#
#
# Mechanical properties :
#
#
# Convention : Reuss Voigt Hill
#
# Bulk Modulus (GPa) = 35.20060 45.95639 40.57850
# Shear Modulus (GPa) = 16.76268 25.95515 21.35892
#
# Velocity S-wave (km/s) = 2.87562 3.57826 3.24601
# Velocity P-wave (km/s) = 5.32827 6.30418 5.83666
#
# Compressibility (1/GPa) = 0.02840860
#
# Stress axis : x y z
#
# Youngs Moduli (GPa) = 58.37561 65.39381 87.15018
#
# Poissons Ratio (x) = -0.11549 0.38325
# Poissons Ratio (y) = -0.10310 0.44557
# Poissons Ratio (z) = 0.25671 0.33433
#
# Static dielectric constant tensor:
#      x y z
#    x 1.760850 -0.009130 0.010270 
#    y -0.009130 1.711260 0.001680 
#    z 0.010270 0.001680 1.707300 
# 
# From -- ./inp_files/436518.got.cif
#   From: 2010.05.17/outbox.cif.g08.bks.cpg/sg2_219_cif.got.tgz:436518.got - 2010.06.03 11:33:40.
