data_PCOD9021133
_publ_section_title
;
Structure prediction by ZEFSAII (Michael W. Deem and Ramdas Pophale) SiO2 
 PCOD9021133
Probable space group: P -1
;
_chemical_formula_sum "Si O2"
_cell_formula_units_Z 14
_cell_length_a 11.713926
_cell_length_b 17.100430
_cell_length_c 5.524313
_cell_angle_alpha 96.233352
_cell_angle_beta 79.649222
_cell_angle_gamma 146.712405
_cell_volume 595.683053
_symmetry_space_group_name_H-M "P -1"
_symmetry_group_IT_number 2
_symmetry_cell_setting 'triclinic'
loop_
_space_group_symop_operation_xyz
x,y,z
-x,-y,-z
loop_
_atom_site_type_symbol
_atom_site_label
_atom_site_fract_x
_atom_site_fract_y
_atom_site_fract_z
Si Si1 0.371748 0.444530 0.779906
Si Si2 0.418777 0.125580 0.036145
Si Si3 0.803236 0.357203 0.293750
Si Si4 0.146793 0.044472 0.757550
Si Si5 0.034115 0.134782 0.626163
Si Si6 0.940618 0.594717 0.187101
Si Si7 0.355273 0.861927 0.347864
O O1 0.500000 0.500000 0.500000
O O2 0.264292 0.469926 0.817661
O O3 0.174138 0.274580 0.763482
O O4 0.500000 0.500000 0.000000
O O5 0.364596 0.144675 0.825658
O O6 0.500217 0.087089 0.908439
O O7 0.605686 0.266515 0.165747
O O8 0.199137 0.997553 0.216013
O O9 0.897215 0.496829 0.353883
O O10 0.705777 0.247318 0.499168
O O11 0.961627 0.393486 0.082420
O O12 0.163492 0.125425 0.591205
O O13 0.027847 0.900954 0.645640
O O14 0.000000 0.000000 0.000000
O O15 0.126769 0.754512 0.286618
O O16 0.500000 0.000000 0.500000
#
# Coordination Sequence:
#
# PCOD9021133 Si02
#       7
#     2   2   2   2   2   2   2
#     4  12  32  49  75 110 150 211 256 314 388 460
#     4  10  22  37  69 102 137 183 241 308 383 445
#     4  10  23  46  72 105 142 196 252 306 388 450
#     4   9  20  38  67  96 136 184 235 310 364 444
#     4  10  23  42  67 101 146 188 249 314 372 443
#     4  10  26  47  73 101 151 197 249 315 373 463
#     4  11  25  40  71 110 142 189 245 316 387 452
#
# _framework density 23.502431000000001
#
# number of rings (size 3 to 8) (size 9 to 14) (size 15 to 20)
#    0.000    1.714    0.000    1.286   14.000    4.571 
#    0.000    0.000    0.000    0.000    0.000    0.000 
#    0.000    0.000    0.000    0.000    0.000    0.000 
#
# Total GULP energy -78106.258624 kJ/mol
# GULP energy per Si atom -5579.018473 kJ/mol
# Density = 2.344894 g / cm^3
# Si number density = 23.502431 Si / 1000 Ang^3
#
#
#
# Elastic Constant Matrix: (Units=GPa)
#
#
# Indices 1 2 3 4 5 6 
#
# 1 136.4359 54.0933 38.1377 1.2751 5.4127 24.5976
# 2 54.0933 125.2998 43.1827 24.6279 -15.7009 5.2168
# 3 38.1377 43.1827 92.0363 7.6071 -7.0722 13.5067
# 4 1.2751 24.6279 7.6071 44.8301 7.2668 -4.4141
# 5 5.4127 -15.7009 -7.0722 7.2668 30.9445 3.4863
# 6 24.5976 5.2168 13.5067 -4.4141 3.4863 38.9217
#
#
#
# Elastic Compliance Matrix: (Units=1/GPa)
#
#
# Indices 1 2 3 4 5 6 
#
# 1 0.010965 -0.005094 -0.002138 0.003236 -0.005225 -0.004670
# 2 -0.005094 0.014069 -0.003176 -0.008476 0.009221 0.000648
# 3 -0.002138 -0.003176 0.014075 -0.001364 0.002694 -0.003504
# 4 0.003236 -0.008476 -0.001364 0.029538 -0.012570 0.004040
# 5 -0.005225 0.009221 0.002694 -0.012570 0.041932 -0.004050
# 6 -0.004670 0.000648 -0.003504 0.004040 -0.004050 0.030594
#
#
# Mechanical properties :
#
#
# Convention : Reuss Voigt Hill
#
# Bulk Modulus (GPa) = 54.66058 69.39995 62.03027
# Shear Modulus (GPa) = 29.74652 37.49648 33.62150
#
# Velocity S-wave (km/s) = 3.56150 3.99862 3.78637
# Velocity P-wave (km/s) = 6.34194 7.13523 6.75025
#
# Compressibility (1/GPa) = 0.01829472
#
# Stress axis : x y z
#
# Youngs Moduli (GPa) = 91.19550 71.07898 71.04604
#
# Poissons Ratio (x) = 0.36204 0.15186
# Poissons Ratio (y) = 0.46451 0.22567
# Poissons Ratio (z) = 0.19493 0.22578
#
# Static dielectric constant tensor:
#      x y z
#    x 1.998980 -0.037080 0.107260 
#    y -0.037080 1.944100 0.014160 
#    z 0.107260 0.014160 2.006470 
# 
# From -- ./inp_files/81456.got.cif
#   From: 2010.05.17/outbox.cif.g08.bks.cpg/sg2_41_cif.got.tgz:81456.got - 2010.06.03 11:33:40.
