data_PCOD9021869
_publ_section_title
;
Structure prediction by ZEFSAII (Michael W. Deem and Ramdas Pophale) SiO2 
 PCOD9021869
Probable space group: P -1
;
_chemical_formula_sum "Si O2"
_cell_formula_units_Z 16
_cell_length_a 8.459264
_cell_length_b 8.792193
_cell_length_c 16.919528
_cell_angle_alpha 92.603847
_cell_angle_beta 127.110698
_cell_angle_gamma 55.502213
_cell_volume 738.247398
_symmetry_space_group_name_H-M "P -1"
_symmetry_group_IT_number 2
_symmetry_cell_setting 'triclinic'
loop_
_space_group_symop_operation_xyz
x,y,z
-x,-y,-z
loop_
_atom_site_type_symbol
_atom_site_label
_atom_site_fract_x
_atom_site_fract_y
_atom_site_fract_z
Si Si1 0.075634 0.965648 0.242908
Si Si2 0.250114 0.676052 0.712109
Si Si3 0.111421 0.490847 0.777164
Si Si4 0.688691 0.675852 0.884020
Si Si5 0.196057 0.631283 0.381786
Si Si6 0.652894 0.910175 0.738573
Si Si7 0.928996 0.862043 0.468511
Si Si8 0.542222 0.291806 0.016862
O O1 0.320781 0.928805 0.276122
O O2 0.954026 0.117267 0.288267
O O3 0.854962 0.089370 0.109351
O O4 0.145592 0.766512 0.294713
O O5 0.527999 0.626787 0.784367
O O6 0.272334 0.511474 0.764761
O O7 0.105504 0.703010 0.588484
O O8 0.903762 0.482765 0.676082
O O9 0.924301 0.691787 0.781838
O O10 0.351244 0.303490 0.898868
O O11 0.641282 0.854737 0.823817
O O12 0.543950 0.725527 0.924358
O O13 0.000000 0.500000 0.000000
O O14 0.500000 0.500000 0.500000
O O15 0.011564 0.766469 0.404472
O O16 0.388479 0.990801 0.615951
O O17 0.000000 0.000000 0.500000
O O18 0.500000 0.500000 0.000000
#
# Coordination Sequence:
#
# PCOD9021869 Si02
#       8
#     2   2   2   2   2   2   2   2
#     4  10  22  41  65  95 128 173 215 263 321 395
#     4  10  22  38  66  94 123 169 217 264 316 386
#     4  11  24  41  65 100 130 170 211 268 335 380
#     4  11  18  31  63 101 123 153 214 269 306 373
#     4  12  28  45  62  94 137 173 216 269 334 384
#     4  11  22  38  68  97 124 168 224 264 317 380
#     4  12  22  42  66  90 125 171 224 270 313 387
#     4  11  18  40  69  98 130 166 217 269 317 390
#
# _framework density 21.672951999999999
#
# number of rings (size 3 to 8) (size 9 to 14) (size 15 to 20)
#    0.000    1.000    7.500    1.500    1.750    2.000 
#    0.000    0.000    0.000    1.500    0.000    0.000 
#    0.000    0.000    0.000    0.000    0.000    0.000 
#
# Total GULP energy -89186.368059 kJ/mol
# GULP energy per Si atom -5574.148004 kJ/mol
# Density = 2.162362 g / cm^3
# Si number density = 21.672952 Si / 1000 Ang^3
#
#
#
# Elastic Constant Matrix: (Units=GPa)
#
#
# Indices 1 2 3 4 5 6 
#
# 1 101.0576 0.0203 25.1566 -1.4283 2.2301 12.4398
# 2 0.0203 13.5360 -9.6832 0.5218 -4.6452 3.2671
# 3 25.1566 -9.6832 131.4843 -11.5487 12.4873 -0.0354
# 4 -1.4283 0.5218 -11.5487 19.2815 1.1117 -0.9203
# 5 2.2301 -4.6452 12.4873 1.1117 56.0218 -1.4097
# 6 12.4398 3.2671 -0.0354 -0.9203 -1.4097 12.5664
#
#
#
# Elastic Compliance Matrix: (Units=1/GPa)
#
#
# Indices 1 2 3 4 5 6 
#
# 1 0.011962 0.001309 -0.002277 -0.001091 -0.000147 -0.012285
# 2 0.001309 0.085118 0.005490 -0.000309 0.005213 -0.022848
# 3 -0.002277 0.005490 0.009054 0.005246 -0.001550 0.001063
# 4 -0.001091 -0.000309 0.005246 0.055293 -0.002123 0.004987
# 5 -0.000147 0.005213 -0.001550 -0.002123 0.018694 0.000728
# 6 -0.012285 -0.022848 0.001063 0.004987 0.000728 0.098129
#
#
# Mechanical properties :
#
#
# Convention : Reuss Voigt Hill
#
# Bulk Modulus (GPa) = 8.68232 30.78504 19.73368
# Shear Modulus (GPa) = 16.25497 32.94621 24.60059
#
# Velocity S-wave (km/s) = 2.74161 3.90314 3.37275
# Velocity P-wave (km/s) = 3.74655 5.87775 4.92872
#
# Compressibility (1/GPa) = 0.11517661
#
# Stress axis : x y z
#
# Youngs Moduli (GPa) = 83.59763 11.74845 110.45251
#
# Poissons Ratio (x) = -0.01538 0.25154
# Poissons Ratio (y) = -0.10947 -0.60633
# Poissons Ratio (z) = 0.19038 -0.06449
#
# Static dielectric constant tensor:
#      x y z
#    x 1.855040 0.003190 0.012430 
#    y 0.003190 1.881780 -0.049770 
#    z 0.012430 -0.049770 1.756670 
# 
# From -- ./inp_files/315794.got.cif
#   From: 2010.05.17/outbox.cif.g08.bks.cpg/sg2_158_cif.got.tgz:315794.got - 2010.06.03 11:33:40.
