data_PCOD9021574
_publ_section_title
;
Structure prediction by ZEFSAII (Michael W. Deem and Ramdas Pophale) SiO2 
 PCOD9021574
Probable space group: P -1
;
_chemical_formula_sum "Si O2"
_cell_formula_units_Z 16
_cell_length_a 25.877138
_cell_length_b 32.471538
_cell_length_c 12.468940
_cell_angle_alpha 153.310173
_cell_angle_beta 152.924113
_cell_angle_gamma 9.747629
_cell_volume 790.048846
_symmetry_space_group_name_H-M "P -1"
_symmetry_group_IT_number 2
_symmetry_cell_setting 'triclinic'
loop_
_space_group_symop_operation_xyz
x,y,z
-x,-y,-z
loop_
_atom_site_type_symbol
_atom_site_label
_atom_site_fract_x
_atom_site_fract_y
_atom_site_fract_z
Si Si1 0.755866 0.495155 0.416226
Si Si2 0.478580 0.003483 0.094294
Si Si3 0.677361 0.454874 0.765595
Si Si4 0.606158 0.104200 0.190261
Si Si5 0.205240 0.442310 0.862071
Si Si6 0.713044 0.766032 0.288903
Si Si7 0.755644 0.958998 0.609275
Si Si8 0.323803 0.807291 0.134873
O O1 0.555394 0.679824 0.576848
O O2 0.529192 0.650419 0.257403
O O3 0.001871 0.388183 0.585497
O O4 0.963377 0.254771 0.284277
O O5 0.151862 0.281631 0.186965
O O6 0.732056 0.874942 0.321047
O O7 0.500000 0.000000 0.000000
O O8 0.485351 0.891571 0.869169
O O9 0.500000 0.500000 0.500000
O O10 0.688377 0.530886 0.876959
O O11 0.515094 0.616262 0.947617
O O12 0.027848 0.164809 0.764879
O O13 0.472061 0.146731 0.943383
O O14 0.199278 0.382298 0.814844
O O15 0.444585 0.215949 0.697046
O O16 0.500000 0.000000 0.500000
O O17 0.757717 0.029769 0.680719
O O18 0.000000 0.000000 0.000000
#
# Coordination Sequence:
#
# PCOD9021574 Si02
#       8
#     2   2   2   2   2   2   2   2
#     4  12  24  41  66  97 135 168 215 265 327 390
#     4  11  21  36  60  93 130 167 209 261 322 385
#     4  10  23  45  67  89 124 167 219 270 324 380
#     4  11  23  38  61  96 132 164 205 268 321 379
#     4  10  22  38  63  90 128 166 214 255 324 385
#     4  12  21  38  62  97 133 165 206 258 323 385
#     4  11  23  41  64  92 129 171 213 265 323 387
#     4  11  25  46  69  91 124 170 224 271 325 385
#
# _framework density 20.251912999999998
#
# number of rings (size 3 to 8) (size 9 to 14) (size 15 to 20)
#    0.000    1.000    2.500    4.500    1.750    3.500 
#    0.000    0.625    0.000    0.000    0.000    0.000 
#    0.000    0.000    0.000    0.000    0.000    0.000 
#
# Total GULP energy -89324.488674 kJ/mol
# GULP energy per Si atom -5582.780542 kJ/mol
# Density = 2.020582 g / cm^3
# Si number density = 20.251913 Si / 1000 Ang^3
#
#
#
# Elastic Constant Matrix: (Units=GPa)
#
#
# Indices 1 2 3 4 5 6 
#
# 1 51.5143 19.4062 12.5588 -6.0119 1.4718 11.5366
# 2 19.4062 114.1305 44.5388 2.1607 -5.1490 0.2718
# 3 12.5588 44.5388 90.5533 -15.5943 -7.1183 3.8679
# 4 -6.0119 2.1607 -15.5943 40.9619 -0.4461 -6.5732
# 5 1.4718 -5.1490 -7.1183 -0.4461 26.3475 0.6717
# 6 11.5366 0.2718 3.8679 -6.5732 0.6717 34.2486
#
#
#
# Elastic Compliance Matrix: (Units=1/GPa)
#
#
# Indices 1 2 3 4 5 6 
#
# 1 0.022906 -0.003667 -0.000872 0.002053 -0.002015 -0.007155
# 2 -0.003667 0.011743 -0.005796 -0.003167 0.000850 0.001172
# 3 -0.000872 -0.005796 0.015308 0.005992 0.003161 -0.000301
# 4 0.002053 -0.003167 0.005992 0.027813 0.001255 0.003970
# 5 -0.002015 0.000850 0.003161 0.001255 0.039114 -0.000211
# 6 -0.007155 0.001172 -0.000301 0.003970 -0.000211 0.032399
#
#
# Mechanical properties :
#
#
# Convention : Reuss Voigt Hill
#
# Bulk Modulus (GPa) = 34.14574 45.46728 39.80651
# Shear Modulus (GPa) = 27.82195 32.29122 30.05658
#
# Velocity S-wave (km/s) = 3.71049 3.99742 3.85663
# Velocity P-wave (km/s) = 5.93752 6.61857 6.28727
#
# Compressibility (1/GPa) = 0.02928623
#
# Stress axis : x y z
#
# Youngs Moduli (GPa) = 43.65742 85.15956 65.32549
#
# Poissons Ratio (x) = 0.31228 0.05698
# Poissons Ratio (y) = 0.16009 0.37860
# Poissons Ratio (z) = 0.03808 0.49355
#
# Static dielectric constant tensor:
#      x y z
#    x 1.744850 0.024890 -0.006840 
#    y 0.024890 1.834200 0.102130 
#    z -0.006840 0.102130 1.789490 
# 
# From -- ./inp_files/181657.got.cif
#   From: 2010.05.17/outbox.cif.g08.bks.cpg/sg2_91_cif.got.tgz:181657.got - 2010.06.03 11:33:40.
