data_PCOD9021622
_publ_section_title
;
Structure prediction by ZEFSAII (Michael W. Deem and Ramdas Pophale) SiO2 
 PCOD9021622
Probable space group: P -1
;
_chemical_formula_sum "Si O2"
_cell_formula_units_Z 16
_cell_length_a 28.887201
_cell_length_b 11.946973
_cell_length_c 23.412634
_cell_angle_alpha 28.661057
_cell_angle_beta 169.329912
_cell_angle_gamma 150.005782
_cell_volume 716.897036
_symmetry_space_group_name_H-M "P -1"
_symmetry_group_IT_number 2
_symmetry_cell_setting 'triclinic'
loop_
_space_group_symop_operation_xyz
x,y,z
-x,-y,-z
loop_
_atom_site_type_symbol
_atom_site_label
_atom_site_fract_x
_atom_site_fract_y
_atom_site_fract_z
Si Si1 0.194083 0.884063 0.745196
Si Si2 0.849713 0.953392 0.700509
Si Si3 0.654885 0.282423 0.807068
Si Si4 0.211546 0.330974 0.015901
Si Si5 0.506145 0.335709 0.262820
Si Si6 0.915873 0.647596 0.030556
Si Si7 0.284948 0.840808 0.746045
Si Si8 0.882498 0.022491 0.098694
O O1 0.161515 0.919375 0.621319
O O2 0.181010 0.606065 0.860830
O O3 0.000000 0.000000 0.500000
O O4 0.473662 0.988929 0.049018
O O5 0.555385 0.920961 0.344577
O O6 0.002451 0.870932 0.867600
O O7 0.901956 0.804576 0.887099
O O8 0.970951 0.207729 0.748440
O O9 0.500000 0.500000 0.500000
O O10 0.824494 0.207256 0.994141
O O11 0.810101 0.390681 0.999358
O O12 0.442160 0.286923 0.273756
O O13 0.237126 0.247866 0.149188
O O14 0.800598 0.357925 0.602185
O O15 0.383356 0.581666 0.989762
O O16 0.365565 0.133512 0.146762
O O17 0.088452 0.858767 0.449047
#
# Coordination Sequence:
#
# PCOD9021622 Si02
#       8
#     2   2   2   2   2   2   2   2
#     4  10  22  38  63  96 131 168 212 264 323 383
#     4  10  24  44  62  97 129 171 218 265 325 382
#     4  10  25  41  61  93 129 172 217 262 321 380
#     4  10  22  38  64  92 126 167 215 265 313 380
#     4  10  23  43  65  98 127 170 220 263 324 382
#     4  11  23  39  68  91 130 171 217 266 319 380
#     4  10  23  40  65  98 131 164 217 265 321 389
#     4  11  24  41  69  92 136 172 210 270 327 383
#
# _framework density 22.318407000000001
#
# number of rings (size 3 to 8) (size 9 to 14) (size 15 to 20)
#    0.000    1.750    0.000    2.250    8.750    7.000 
#    0.000    0.000    0.000    9.000    0.000    0.000 
#    0.000    0.000    0.000    0.000    0.000    0.000 
#
# Total GULP energy -89489.073735 kJ/mol
# GULP energy per Si atom -5593.067108 kJ/mol
# Density = 2.226761 g / cm^3
# Si number density = 22.318407 Si / 1000 Ang^3
#
#
#
# Elastic Constant Matrix: (Units=GPa)
#
#
# Indices 1 2 3 4 5 6 
#
# 1 99.9872 33.3815 33.8375 18.1737 10.5483 -11.9076
# 2 33.3815 62.0151 10.0019 16.6717 3.2071 -1.5070
# 3 33.8375 10.0019 49.3228 8.9947 -7.6204 8.2414
# 4 18.1737 16.6717 8.9947 37.4396 -0.4986 0.3727
# 5 10.5483 3.2071 -7.6204 -0.4986 27.9337 1.3068
# 6 -11.9076 -1.5070 8.2414 0.3727 1.3068 31.4620
#
#
#
# Elastic Compliance Matrix: (Units=1/GPa)
#
#
# Indices 1 2 3 4 5 6 
#
# 1 0.021477 -0.006932 -0.016737 -0.003611 -0.012541 0.012744
# 2 -0.006932 0.021184 0.002123 -0.006547 0.000747 -0.002119
# 3 -0.016737 0.002123 0.036951 -0.001308 0.016910 -0.016599
# 4 -0.003611 -0.006547 -0.001308 0.031743 0.002410 -0.001814
# 5 -0.012541 0.000747 0.016910 0.002410 0.045622 -0.011063
# 6 0.012744 -0.002119 -0.016599 -0.001814 -0.011063 0.041335
#
#
# Mechanical properties :
#
#
# Convention : Reuss Voigt Hill
#
# Bulk Modulus (GPa) = 27.38171 40.64075 34.01123
# Shear Modulus (GPa) = 19.71796 28.30734 24.01265
#
# Velocity S-wave (km/s) = 2.97557 3.56524 3.28367
# Velocity P-wave (km/s) = 4.90924 5.93270 5.44507
#
# Compressibility (1/GPa) = 0.03652072
#
# Stress axis : x y z
#
# Youngs Moduli (GPa) = 46.56214 47.20521 27.06312
#
# Poissons Ratio (x) = 0.32723 0.45294
# Poissons Ratio (y) = 0.32278 -0.05747
# Poissons Ratio (z) = 0.77929 -0.10023
#
# Static dielectric constant tensor:
#      x y z
#    x 1.850870 0.025100 -0.008740 
#    y 0.025100 1.834370 0.010750 
#    z -0.008740 0.010750 1.809340 
# 
# From -- ./inp_files/464685.got.cif
#   From: 2010.05.17/outbox.cif.g08.bks.cpg/sg2_233_cif.got.tgz:464685.got - 2010.06.03 11:33:40.
