data_PCOD9021646
_publ_section_title
;
Structure prediction by ZEFSAII (Michael W. Deem and Ramdas Pophale) SiO2 
 PCOD9021646
Probable space group: P -1
;
_chemical_formula_sum "Si O2"
_cell_formula_units_Z 14
_cell_length_a 11.742762
_cell_length_b 24.278962
_cell_length_c 8.386035
_cell_angle_alpha 136.603130
_cell_angle_beta 67.551370
_cell_angle_gamma 149.601839
_cell_volume 590.016445
_symmetry_space_group_name_H-M "P -1"
_symmetry_group_IT_number 2
_symmetry_cell_setting 'triclinic'
loop_
_space_group_symop_operation_xyz
x,y,z
-x,-y,-z
loop_
_atom_site_type_symbol
_atom_site_label
_atom_site_fract_x
_atom_site_fract_y
_atom_site_fract_z
Si Si1 0.068492 0.090014 0.311029
Si Si2 0.458060 0.039340 0.967094
Si Si3 0.241311 0.071040 0.550850
Si Si4 0.162465 0.323086 0.651253
Si Si5 0.357027 0.677649 0.405433
Si Si6 0.990094 0.327410 0.049297
Si Si7 0.271889 0.362794 0.177717
O O1 0.199348 0.253618 0.533405
O O2 0.338412 0.196205 0.463558
O O3 0.777637 0.937988 0.265195
O O4 0.000000 0.000000 0.000000
O O5 0.592802 0.205075 0.301365
O O6 0.649360 0.130074 0.896894
O O7 0.091188 0.824541 0.664884
O O8 0.500000 0.000000 0.000000
O O9 0.593191 0.285808 0.737276
O O10 0.000000 0.000000 0.500000
O O11 0.058625 0.884837 0.176620
O O12 0.500000 0.500000 0.500000
O O13 0.032067 0.292500 0.806264
O O14 0.506856 0.553588 0.889707
O O15 0.092147 0.472253 0.216667
O O16 0.196908 0.407844 0.249010
#
# Coordination Sequence:
#
# PCOD9021646 Si02
#       7
#     2   2   2   2   2   2   2
#     4  11  21  39  71 105 135 177 231 294 345 406
#     4  12  27  47  69  97 143 190 230 281 347 426
#     4  10  22  38  64 101 140 173 221 287 344 400
#     4  12  23  44  72 102 136 179 236 285 350 405
#     4  11  23  44  69 100 138 182 230 285 348 409
#     4  12  25  45  70 103 141 183 233 284 348 417
#     4  12  24  41  70 106 138 177 230 289 343 409
#
# _framework density 23.728151
#
# number of rings (size 3 to 8) (size 9 to 14) (size 15 to 20)
#    0.000    0.571    4.286    5.571    2.000    0.000 
#    0.000    0.714    0.000    0.000    0.000    0.000 
#    0.000    0.000    0.000    0.000    0.000    0.000 
#
# Total GULP energy -78150.165870 kJ/mol
# GULP energy per Si atom -5582.154705 kJ/mol
# Density = 2.367414 g / cm^3
# Si number density = 23.728151 Si / 1000 Ang^3
#
#
#
# Elastic Constant Matrix: (Units=GPa)
#
#
# Indices 1 2 3 4 5 6 
#
# 1 58.8675 13.3574 30.4975 0.6711 -26.9591 -8.0144
# 2 13.3574 118.3753 14.4993 19.2436 8.7486 -0.3274
# 3 30.4975 14.4993 87.2352 -9.8995 -24.7560 -14.8078
# 4 0.6711 19.2436 -9.8995 33.8768 -10.5539 -0.2139
# 5 -26.9591 8.7486 -24.7560 -10.5539 33.6345 -0.1970
# 6 -8.0144 -0.3274 -14.8078 -0.2139 -0.1970 33.0916
#
#
#
# Elastic Compliance Matrix: (Units=1/GPa)
#
#
# Indices 1 2 3 4 5 6 
#
# 1 0.039178 -0.012179 0.006085 0.022375 0.046143 0.012510
# 2 -0.012179 0.016523 -0.010141 -0.020921 -0.028133 -0.007627
# 3 0.006085 -0.010141 0.025556 0.023736 0.033850 0.013164
# 4 0.022375 -0.020921 0.023736 0.067339 0.062074 0.016638
# 5 0.046143 -0.028133 0.033850 0.062074 0.118585 0.027151
# 6 0.012510 -0.007627 0.013164 0.016638 0.027151 0.039333
#
#
# Mechanical properties :
#
#
# Convention : Reuss Voigt Hill
#
# Bulk Modulus (GPa) = 20.49730 42.35404 31.42567
# Shear Modulus (GPa) = 14.07472 33.86218 23.96845
#
# Velocity S-wave (km/s) = 2.43814 3.78178 3.18170
# Velocity P-wave (km/s) = 4.07225 6.07928 5.17401
#
# Compressibility (1/GPa) = 0.04878693
#
# Stress axis : x y z
#
# Youngs Moduli (GPa) = 25.52431 60.52120 39.13026
#
# Poissons Ratio (x) = 0.73710 -0.23810
# Poissons Ratio (y) = 0.31086 0.39681
# Poissons Ratio (z) = -0.15531 0.61373
#
# Static dielectric constant tensor:
#      x y z
#    x 1.976670 -0.173950 0.041570 
#    y -0.173950 2.170050 -0.013360 
#    z 0.041570 -0.013360 1.905340 
# 
# From -- ./inp_files/176077.got.cif
#   From: 2010.05.17/outbox.cif.g08.bks.cpg/sg2_89_cif.got.tgz:176077.got - 2010.06.03 11:33:40.
