data_PCOD9021078
_publ_section_title
;
Structure prediction by ZEFSAII (Michael W. Deem and Ramdas Pophale) SiO2 
 PCOD9021078
Probable space group: P -1
;
_chemical_formula_sum "Si O2"
_cell_formula_units_Z 16
_cell_length_a 8.801266
_cell_length_b 11.671684
_cell_length_c 9.157376
_cell_angle_alpha 61.616225
_cell_angle_beta 88.341284
_cell_angle_gamma 82.911031
_cell_volume 820.806874
_symmetry_space_group_name_H-M "P -1"
_symmetry_group_IT_number 2
_symmetry_cell_setting 'triclinic'
loop_
_space_group_symop_operation_xyz
x,y,z
-x,-y,-z
loop_
_atom_site_type_symbol
_atom_site_label
_atom_site_fract_x
_atom_site_fract_y
_atom_site_fract_z
Si Si1 0.626114 0.029638 0.294479
Si Si2 0.621899 0.911364 0.951374
Si Si3 0.358038 0.434188 0.111894
Si Si4 0.787723 0.631669 0.142172
Si Si5 0.661732 0.426925 0.481300
Si Si6 0.830271 0.064775 0.989644
Si Si7 0.534800 0.207107 0.443582
Si Si8 0.853359 0.369185 0.795554
O O1 0.755937 0.022877 0.170442
O O2 0.646290 0.113519 0.388419
O O3 0.576111 0.888572 0.421932
O O4 0.472496 0.107633 0.178713
O O5 0.696453 0.774129 0.098485
O O6 0.748911 0.008507 0.885439
O O7 0.500000 0.000000 0.000000
O O8 0.432037 0.319138 0.286077
O O9 0.250561 0.541341 0.142133
O O10 0.500000 0.500000 0.000000
O O11 0.252959 0.385268 0.016395
O O12 0.718042 0.516524 0.298291
O O13 0.966887 0.626983 0.178914
O O14 0.500000 0.500000 0.500000
O O15 0.627433 0.286395 0.506509
O O16 0.790831 0.414861 0.610102
O O17 0.818693 0.220099 0.900838
O O18 0.000000 0.000000 0.000000
#
# Coordination Sequence:
#
# PCOD9021078 Si02
#       8
#     2   2   2   2   2   2   2   2
#     4  10  23  40  69  96 131 175 224 281 332 397
#     4  10  22  37  66  92 125 172 225 273 324 393
#     4  12  23  44  72  98 130 179 230 276 327 414
#     4  12  25  44  65  99 138 176 219 281 348 397
#     4  12  26  41  68  98 133 178 227 280 331 405
#     4  11  23  41  66  96 132 175 221 276 336 408
#     4  11  22  41  69 101 131 169 233 277 330 392
#     4  12  26  43  66  98 139 174 221 280 349 394
#
# _framework density 19.493013999999999
#
# number of rings (size 3 to 8) (size 9 to 14) (size 15 to 20)
#    0.000    0.750    5.000    2.250    8.750    0.000 
#    2.250    0.000    0.000    3.000    0.000    0.000 
#    0.000    0.000    0.000    0.000    0.000    0.000 
#
# Total GULP energy -89303.912009 kJ/mol
# GULP energy per Si atom -5581.494501 kJ/mol
# Density = 1.944865 g / cm^3
# Si number density = 19.493014 Si / 1000 Ang^3
#
#
#
# Elastic Constant Matrix: (Units=GPa)
#
#
# Indices 1 2 3 4 5 6 
#
# 1 101.6461 29.0660 29.3687 0.8253 13.8668 -3.4841
# 2 29.0660 123.0658 15.5217 -2.3457 2.0451 -4.9089
# 3 29.3687 15.5217 83.8094 -11.6392 1.0219 -14.0113
# 4 0.8253 -2.3457 -11.6392 37.7040 7.4907 6.9679
# 5 13.8668 2.0451 1.0219 7.4907 36.4148 3.9562
# 6 -3.4841 -4.9089 -14.0113 6.9679 3.9562 32.9754
#
#
#
# Elastic Compliance Matrix: (Units=1/GPa)
#
#
# Indices 1 2 3 4 5 6 
#
# 1 0.012222 -0.002339 -0.003912 -0.000768 -0.004250 -0.000047
# 2 -0.002339 0.008789 -0.000667 0.000204 0.000298 0.000699
# 3 -0.003912 -0.000667 0.014782 0.003721 -0.000197 0.005006
# 4 -0.000768 0.000204 0.003721 0.029535 -0.005458 -0.004055
# 5 -0.004250 0.000298 -0.000197 -0.005458 0.030517 -0.002996
# 6 -0.000047 0.000699 0.005006 -0.004055 -0.002996 0.033768
#
#
# Mechanical properties :
#
#
# Convention : Reuss Voigt Hill
#
# Bulk Modulus (GPa) = 45.54257 50.71489 48.12873
# Shear Modulus (GPa) = 33.16369 37.05650 35.11009
#
# Velocity S-wave (km/s) = 4.12917 4.36479 4.24862
# Velocity P-wave (km/s) = 6.79321 7.17463 6.98652
#
# Compressibility (1/GPa) = 0.02195748
#
# Stress axis : x y z
#
# Youngs Moduli (GPa) = 81.82190 113.77779 67.64846
#
# Poissons Ratio (x) = 0.26613 0.26466
# Poissons Ratio (y) = 0.19138 0.04509
# Poissons Ratio (z) = 0.32011 0.07584
#
# Static dielectric constant tensor:
#      x y z
#    x 1.662890 0.032370 0.009540 
#    y 0.032370 1.771180 0.012480 
#    z 0.009540 0.012480 1.705030 
# 
# From -- ./inp_files/179119.got.cif
#   From: 2010.05.17/outbox.cif.g08.bks.cpg/sg2_90_cif.got.tgz:179119.got - 2010.06.03 11:33:40.
