data_PCOD9021754
_publ_section_title
;
Structure prediction by ZEFSAII (Michael W. Deem and Ramdas Pophale) SiO2 
 PCOD9021754
Probable space group: P -1
;
_chemical_formula_sum "Si O2"
_cell_formula_units_Z 14
_cell_length_a 11.096218
_cell_length_b 13.966410
_cell_length_c 9.387053
_cell_angle_alpha 74.588899
_cell_angle_beta 41.879430
_cell_angle_gamma 53.635196
_cell_volume 739.059883
_symmetry_space_group_name_H-M "P -1"
_symmetry_group_IT_number 2
_symmetry_cell_setting 'triclinic'
loop_
_space_group_symop_operation_xyz
x,y,z
-x,-y,-z
loop_
_atom_site_type_symbol
_atom_site_label
_atom_site_fract_x
_atom_site_fract_y
_atom_site_fract_z
Si Si1 0.775585 0.157788 0.794337
Si Si2 0.076632 0.270209 0.244492
Si Si3 0.341984 0.649128 0.609433
Si Si4 0.253090 0.017558 0.267591
Si Si5 0.845312 0.453144 0.643216
Si Si6 0.456268 0.254320 0.790454
Si Si7 0.309111 0.661148 0.965900
O O1 0.566619 0.264389 0.834100
O O2 0.005787 0.102341 0.527728
O O3 0.757887 0.044333 0.843428
O O4 0.769818 0.215386 0.924904
O O5 0.278570 0.124444 0.167733
O O6 0.884775 0.282770 0.313644
O O7 0.961328 0.351153 0.455161
O O8 0.196819 0.315889 0.029223
O O9 0.500000 0.500000 0.500000
O O10 0.486728 0.694453 0.409907
O O11 0.274098 0.677886 0.822181
O O12 0.406142 0.896571 0.282865
O O13 0.582997 0.562878 0.787738
O O14 0.000000 0.500000 0.500000
O O15 0.816883 0.391439 0.830783
#
# Coordination Sequence:
#
# PCOD9021754 Si02
#       7
#     2   2   2   2   2   2   2
#     4   9  17  38  66  87 114 153 206 251 300 348
#     4  12  21  41  66  90 122 161 206 253 305 359
#     4  12  25  40  58  89 132 169 196 238 312 378
#     4   9  18  38  69  92 112 156 212 256 298 349
#     4  11  24  38  63  91 116 159 211 257 298 352
#     4  10  22  38  65  90 120 158 207 252 300 353
#     4  11  23  40  60  87 128 158 197 255 302 357
#
# _framework density 18.942983999999999
#
# number of rings (size 3 to 8) (size 9 to 14) (size 15 to 20)
#    0.857    0.571    4.286    1.286    4.000    1.714 
#    0.000    2.857    0.000    1.714    0.000    0.000 
#    0.000    0.000    0.000    0.000    0.000    0.000 
#
# Total GULP energy -77994.499347 kJ/mol
# GULP energy per Si atom -5571.035668 kJ/mol
# Density = 1.889987 g / cm^3
# Si number density = 18.942984 Si / 1000 Ang^3
#
#
#
# Elastic Constant Matrix: (Units=GPa)
#
#
# Indices 1 2 3 4 5 6 
#
# 1 61.1373 32.9671 52.4987 -9.7598 23.1595 15.7621
# 2 32.9671 91.8765 62.8503 -0.6907 13.4071 15.7601
# 3 52.4987 62.8503 133.9103 -30.6775 7.3832 16.4322
# 4 -9.7598 -0.6907 -30.6775 30.3744 9.1731 0.4415
# 5 23.1595 13.4071 7.3832 9.1731 43.8679 3.2434
# 6 15.7621 15.7601 16.4322 0.4415 3.2434 24.6339
#
#
#
# Elastic Compliance Matrix: (Units=1/GPa)
#
#
# Indices 1 2 3 4 5 6 
#
# 1 0.036934 -0.002108 -0.008766 0.008651 -0.018138 -0.014204
# 2 -0.002108 0.019134 -0.009913 -0.009990 -0.000681 -0.004011
# 3 -0.008766 -0.009913 0.019387 0.016225 0.001107 -0.001418
# 4 0.008651 -0.009990 0.016225 0.056651 -0.015429 -0.008950
# 5 -0.018138 -0.000681 0.001107 -0.015429 0.035105 0.006958
# 6 -0.014204 -0.004011 -0.001418 -0.008950 0.006958 0.052439
#
#
# Mechanical properties :
#
#
# Convention : Reuss Voigt Hill
#
# Bulk Modulus (GPa) = 29.51450 64.83961 47.17705
# Shear Modulus (GPa) = 18.34743 29.01576 23.68159
#
# Velocity S-wave (km/s) = 3.11555 3.91799 3.53958
# Velocity P-wave (km/s) = 5.34385 7.40072 6.45474
#
# Compressibility (1/GPa) = 0.03388165
#
# Stress axis : x y z
#
# Youngs Moduli (GPa) = 27.07515 52.26259 51.58191
#
# Poissons Ratio (x) = 0.11018 0.45215
# Poissons Ratio (y) = 0.05708 0.51133
# Poissons Ratio (z) = 0.23733 0.51808
#
# Static dielectric constant tensor:
#      x y z
#    x 1.671890 0.016720 -0.048640 
#    y 0.016720 1.712940 -0.013820 
#    z -0.048640 -0.013820 1.671530 
# 
# From -- ./inp_files/272303.got.cif
#   From: 2010.05.17/outbox.cif.g08.bks.cpg/sg2_137_cif.got.tgz:272303.got - 2010.06.03 11:33:40.
