data_PCOD9021408
_publ_section_title
;
Structure prediction by ZEFSAII (Michael W. Deem and Ramdas Pophale) SiO2 
 PCOD9021408
Probable space group: P -1
;
_chemical_formula_sum "Si O2"
_cell_formula_units_Z 16
_cell_length_a 7.434405
_cell_length_b 16.323135
_cell_length_c 9.830837
_cell_angle_alpha 120.438970
_cell_angle_beta 46.646528
_cell_angle_gamma 132.316837
_cell_volume 639.239432
_symmetry_space_group_name_H-M "P -1"
_symmetry_group_IT_number 2
_symmetry_cell_setting 'triclinic'
loop_
_space_group_symop_operation_xyz
x,y,z
-x,-y,-z
loop_
_atom_site_type_symbol
_atom_site_label
_atom_site_fract_x
_atom_site_fract_y
_atom_site_fract_z
Si Si1 0.841773 0.957080 0.240533
Si Si2 0.039125 0.378947 0.706724
Si Si3 0.097327 0.187548 0.414765
Si Si4 0.334455 0.509441 0.397470
Si Si5 0.682414 0.301669 0.072416
Si Si6 0.566070 0.877221 0.599099
Si Si7 0.454375 0.062904 0.899205
Si Si8 0.083508 0.650024 0.716450
O O1 0.881586 0.078292 0.351050
O O2 0.680065 0.884533 0.393956
O O3 0.674320 0.913530 0.150082
O O4 0.169035 0.985566 0.073400
O O5 0.972035 0.255440 0.605379
O O6 0.108756 0.438109 0.575567
O O7 0.343249 0.446770 0.685884
O O8 0.800451 0.366518 0.925503
O O9 0.364844 0.274780 0.255284
O O10 0.247609 0.149768 0.416975
O O11 0.293496 0.614685 0.503427
O O12 0.226088 0.434408 0.256985
O O13 0.885311 0.358337 0.145267
O O14 0.643512 0.179892 0.974081
O O15 0.232848 0.779084 0.708733
O O16 0.598726 0.993595 0.722295
#
# Coordination Sequence:
#
# PCOD9021408 Si02
#       8
#     2   2   2   2   2   2   2   2
#     4  10  22  38  61  90 129 160 205 243 298 371
#     4  11  22  41  70  87 120 166 206 252 313 359
#     4  10  22  40  59  94 128 157 205 252 298 371
#     4  10  23  44  64  90 122 160 211 259 303 363
#     4  10  22  40  65  91 126 158 201 253 308 360
#     4  11  21  37  64  88 125 170 192 246 315 357
#     4  10  23  39  59  96 126 157 205 249 293 376
#     4  10  23  43  62  93 127 155 208 260 302 362
#
# _framework density 25.029744999999998
#
# number of rings (size 3 to 8) (size 9 to 14) (size 15 to 20)
#    0.000    1.750    2.500    1.500    3.500    7.500 
#    0.000    0.000    0.000    0.000    0.000    0.000 
#    0.000    0.000    0.000    0.000    0.000    0.000 
#
# Total GULP energy -89646.136805 kJ/mol
# GULP energy per Si atom -5602.883550 kJ/mol
# Density = 2.497278 g / cm^3
# Si number density = 25.029745 Si / 1000 Ang^3
#
#
#
# Elastic Constant Matrix: (Units=GPa)
#
#
# Indices 1 2 3 4 5 6 
#
# 1 49.2981 9.9868 11.3212 8.6258 17.2652 14.9045
# 2 9.9868 61.2322 17.6694 18.4564 5.4447 11.9153
# 3 11.3212 17.6694 122.7526 -13.6243 9.7396 8.8164
# 4 8.6258 18.4564 -13.6243 52.0169 10.0990 7.7034
# 5 17.2652 5.4447 9.7396 10.0990 33.6263 12.7864
# 6 14.9045 11.9153 8.8164 7.7034 12.7864 32.5886
#
#
#
# Elastic Compliance Matrix: (Units=1/GPa)
#
#
# Indices 1 2 3 4 5 6 
#
# 1 0.026731 -0.001392 -0.001081 -0.001199 -0.010096 -0.007179
# 2 -0.001392 0.020708 -0.003561 -0.007807 0.002711 -0.005190
# 3 -0.001081 -0.003561 0.009540 0.004586 -0.002701 -0.000808
# 4 -0.001199 -0.007807 0.004586 0.024822 -0.006458 -0.001171
# 5 -0.010096 0.002711 -0.002701 -0.006458 0.041100 -0.010242
# 6 -0.007179 -0.005190 -0.000808 -0.001171 -0.010242 0.040381
#
#
# Mechanical properties :
#
#
# Convention : Reuss Voigt Hill
#
# Bulk Modulus (GPa) = 22.26630 34.58199 28.42414
# Shear Modulus (GPa) = 26.27132 36.60003 31.43568
#
# Velocity S-wave (km/s) = 3.24327 3.82810 3.54776
# Velocity P-wave (km/s) = 4.78961 5.77802 5.30688
#
# Compressibility (1/GPa) = 0.04491091
#
# Stress axis : x y z
#
# Youngs Moduli (GPa) = 37.40921 48.29054 104.81945
#
# Poissons Ratio (x) = 0.06720 0.11335
# Poissons Ratio (y) = 0.05206 0.37330
# Poissons Ratio (z) = 0.04045 0.17198
#
# Static dielectric constant tensor:
#      x y z
#    x 1.966040 0.005530 0.004800 
#    y 0.005530 2.006950 -0.017940 
#    z 0.004800 -0.017940 1.952240 
# 
# From -- ./inp_files/215456.got.cif
#   From: 2010.05.17/outbox.cif.g08.bks.cpg/sg2_108_cif.got.tgz:215456.got - 2010.06.03 11:33:40.
