data_PCOD9021836
_publ_section_title
;
Structure prediction by ZEFSAII (Michael W. Deem and Ramdas Pophale) SiO2 
 PCOD9021836
Probable space group: P -1
;
_chemical_formula_sum "Si O2"
_cell_formula_units_Z 14
_cell_length_a 17.719846
_cell_length_b 5.609331
_cell_length_c 10.484544
_cell_angle_alpha 69.660487
_cell_angle_beta 53.324824
_cell_angle_gamma 49.416507
_cell_volume 633.333836
_symmetry_space_group_name_H-M "P -1"
_symmetry_group_IT_number 2
_symmetry_cell_setting 'triclinic'
loop_
_space_group_symop_operation_xyz
x,y,z
-x,-y,-z
loop_
_atom_site_type_symbol
_atom_site_label
_atom_site_fract_x
_atom_site_fract_y
_atom_site_fract_z
Si Si1 0.214419 0.385078 0.775138
Si Si2 0.126809 0.924459 0.898917
Si Si3 0.692125 0.802731 0.675163
Si Si4 0.154627 0.104533 0.092903
Si Si5 0.635938 0.293116 0.866075
Si Si6 0.434342 0.868688 0.522198
Si Si7 0.908358 0.524091 0.347391
O O1 0.238179 0.602663 0.786431
O O2 0.146233 0.585206 0.680649
O O3 0.321229 0.037035 0.696536
O O4 0.137294 0.357063 0.960659
O O5 0.114121 0.190482 0.770128
O O6 0.149623 0.889024 0.034458
O O7 0.000000 0.000000 0.000000
O O8 0.672314 0.534076 0.772201
O O9 0.827161 0.637977 0.530597
O O10 0.656577 0.067578 0.768171
O O11 0.616071 0.971918 0.593724
O O12 0.045670 0.266905 0.267978
O O13 0.276285 0.943221 0.069134
O O14 0.500000 0.500000 0.000000
O O15 0.500000 0.500000 0.500000
O O16 0.500000 0.000000 0.500000
#
# Coordination Sequence:
#
# PCOD9021836 Si02
#       7
#     2   2   2   2   2   2   2
#     4  10  22  38  66 103 138 177 220 296 356 413
#     4  11  19  37  71 106 148 172 225 296 363 420
#     4  11  28  49  72  99 144 181 237 302 348 413
#     4  11  24  40  69 103 141 191 236 280 357 424
#     4  12  30  51  70  97 141 198 243 288 336 426
#     4  11  26  43  72 104 134 179 231 292 357 410
#     4  10  22  41  67 107 139 174 233 300 365 413
#
# _framework density 22.105246999999999
#
# number of rings (size 3 to 8) (size 9 to 14) (size 15 to 20)
#    0.000    1.143    2.857    2.143   16.000    1.143 
#    0.000    0.000    0.000    0.000    0.000    0.000 
#    0.000    0.000    0.000    0.000    0.000    0.000 
#
# Total GULP energy -77944.628895 kJ/mol
# GULP energy per Si atom -5567.473492 kJ/mol
# Density = 2.205493 g / cm^3
# Si number density = 22.105247 Si / 1000 Ang^3
#
#
#
# Elastic Constant Matrix: (Units=GPa)
#
#
# Indices 1 2 3 4 5 6 
#
# 1 111.3134 21.9515 52.0097 33.5094 5.3242 1.1208
# 2 21.9515 88.7581 43.9705 38.3425 3.7571 12.7613
# 3 52.0097 43.9705 125.1945 40.1880 -5.6052 7.9550
# 4 33.5094 38.3425 40.1880 42.5634 2.3782 -1.6124
# 5 5.3242 3.7571 -5.6052 2.3782 43.2529 5.1614
# 6 1.1208 12.7613 7.9550 -1.6124 5.1614 36.3421
#
#
#
# Elastic Compliance Matrix: (Units=1/GPa)
#
#
# Indices 1 2 3 4 5 6 
#
# 1 0.012921 0.002697 -0.003317 -0.009409 -0.001641 -0.000804
# 2 0.002697 0.021201 -0.001680 -0.019920 -0.000342 -0.007995
# 3 -0.003317 -0.001680 0.012981 -0.008415 0.003052 -0.002956
# 4 -0.009409 -0.019920 -0.008415 0.057405 -0.002799 0.012071
# 5 -0.001641 -0.000342 0.003052 -0.002799 0.024388 -0.004085
# 6 -0.000804 -0.007995 -0.002956 0.012071 -0.004085 0.032111
#
#
# Mechanical properties :
#
#
# Convention : Reuss Voigt Hill
#
# Bulk Modulus (GPa) = 23.52746 62.34771 42.93758
# Shear Modulus (GPa) = 27.81282 38.25398 33.03340
#
# Velocity S-wave (km/s) = 3.55096 4.16449 3.86990
# Velocity P-wave (km/s) = 5.24203 7.16869 6.27969
#
# Compressibility (1/GPa) = 0.04250352
#
# Stress axis : x y z
#
# Youngs Moduli (GPa) = 77.39603 47.16856 77.03486
#
# Poissons Ratio (x) = -0.12723 0.25553
# Poissons Ratio (y) = -0.20876 0.12938
# Poissons Ratio (z) = 0.25673 0.07922
#
# Static dielectric constant tensor:
#      x y z
#    x 2.190630 0.265170 -0.002320 
#    y 0.265170 2.049010 0.053140 
#    z -0.002320 0.053140 1.848610 
# 
# From -- ./inp_files/323534.got.cif
#   From: 2010.05.17/outbox.cif.g08.bks.cpg/sg2_162_cif.got.tgz:323534.got - 2010.06.03 11:33:40.
