data_PCOD9021026
_publ_section_title
;
Structure prediction by ZEFSAII (Michael W. Deem and Ramdas Pophale) SiO2 
 PCOD9021026
Probable space group: P -1
;
_chemical_formula_sum "Si O2"
_cell_formula_units_Z 14
_cell_length_a 11.312696
_cell_length_b 12.317715
_cell_length_c 8.223855
_cell_angle_alpha 64.389549
_cell_angle_beta 110.853642
_cell_angle_gamma 56.794041
_cell_volume 535.030164
_symmetry_space_group_name_H-M "P -1"
_symmetry_group_IT_number 2
_symmetry_cell_setting 'triclinic'
loop_
_space_group_symop_operation_xyz
x,y,z
-x,-y,-z
loop_
_atom_site_type_symbol
_atom_site_label
_atom_site_fract_x
_atom_site_fract_y
_atom_site_fract_z
Si Si1 0.720870 0.468585 0.473215
Si Si2 0.634719 0.403760 0.956941
Si Si3 0.173204 0.485905 0.061459
Si Si4 0.980416 0.622870 0.537949
Si Si5 0.558253 0.840342 0.291378
Si Si6 0.999914 0.094447 0.091524
Si Si7 0.705155 0.923998 0.717354
O O1 0.554402 0.494273 0.325763
O O2 0.581669 0.704337 0.277531
O O3 0.850551 0.321190 0.791551
O O4 0.906698 0.349261 0.502238
O O5 0.865658 0.158389 0.147897
O O6 0.500000 0.500000 0.000000
O O7 0.709607 0.481005 0.939162
O O8 0.127412 0.472568 0.866544
O O9 0.921947 0.702372 0.870887
O O10 0.320752 0.307044 0.389337
O O11 0.712266 0.831217 0.318327
O O12 0.000000 0.500000 0.500000
O O13 0.318437 0.067821 0.103577
O O14 0.236028 0.976314 0.332638
O O15 0.000000 0.000000 0.000000
O O16 0.500000 0.000000 0.500000
#
# Coordination Sequence:
#
# PCOD9021026 Si02
#       7
#     2   2   2   2   2   2   2
#     4  11  22  42  68  95 133 179 220 273 343 403
#     4  11  22  40  68  93 129 173 226 272 336 399
#     4  11  22  42  64  98 129 172 225 277 328 406
#     4  10  22  37  64  95 131 171 218 272 333 403
#     4  11  22  41  71  93 131 178 218 274 341 394
#     4  11  25  44  67  98 138 178 230 280 335 413
#     4  11  23  38  67  98 130 169 229 275 331 393
#
# _framework density 26.166747999999998
#
# number of rings (size 3 to 8) (size 9 to 14) (size 15 to 20)
#    0.000    1.143    5.714    1.714    2.000    0.000 
#    0.000    2.857    3.143    0.000    0.000    0.000 
#    0.000    0.000    0.000    0.000    0.000    0.000 
#
# Total GULP energy -78053.265817 kJ/mol
# GULP energy per Si atom -5575.233273 kJ/mol
# Density = 2.610719 g / cm^3
# Si number density = 26.166748 Si / 1000 Ang^3
#
#
#
# Elastic Constant Matrix: (Units=GPa)
#
#
# Indices 1 2 3 4 5 6 
#
# 1 158.8940 54.3334 39.7699 2.8205 46.5438 -29.2163
# 2 54.3334 166.9186 29.7462 4.6528 12.8625 -16.7302
# 3 39.7699 29.7462 85.6724 13.0163 38.4369 0.1523
# 4 2.8205 4.6528 13.0163 44.3600 1.9934 10.6156
# 5 46.5438 12.8625 38.4369 1.9934 53.5376 2.2095
# 6 -29.2163 -16.7302 0.1523 10.6156 2.2095 67.8184
#
#
#
# Elastic Compliance Matrix: (Units=1/GPa)
#
#
# Indices 1 2 3 4 5 6 
#
# 1 0.010430 -0.002255 -0.000021 -0.001082 -0.008652 0.004388
# 2 -0.002255 0.007056 -0.002184 -0.000217 0.001810 0.000749
# 3 -0.000021 -0.002184 0.018985 -0.004902 -0.012929 0.000598
# 4 -0.001082 -0.000217 -0.004902 0.024991 0.003769 -0.004543
# 5 -0.008652 0.001810 -0.012929 0.003769 0.035113 -0.004986
# 6 0.004388 0.000749 0.000598 -0.004543 -0.004986 0.017693
#
#
# Mechanical properties :
#
#
# Convention : Reuss Voigt Hill
#
# Bulk Modulus (GPa) = 36.29416 73.24267 54.76842
# Shear Modulus (GPa) = 37.77314 52.31892 45.04603
#
# Velocity S-wave (km/s) = 3.80354 4.47636 4.15360
# Velocity P-wave (km/s) = 5.76104 7.40058 6.63168
#
# Compressibility (1/GPa) = 0.02755264
#
# Stress axis : x y z
#
# Youngs Moduli (GPa) = 95.87618 141.73051 52.67408
#
# Poissons Ratio (x) = 0.31956 0.00109
# Poissons Ratio (y) = 0.21617 0.11502
# Poissons Ratio (z) = 0.00198 0.30947
#
# Static dielectric constant tensor:
#      x y z
#    x 2.121470 0.038890 -0.030360 
#    y 0.038890 2.308160 -0.168340 
#    z -0.030360 -0.168340 2.205640 
# 
# From -- ./inp_files/272583.got.cif
#   From: 2010.05.17/outbox.cif.g08.bks.cpg/sg2_137_cif.got.tgz:272583.got - 2010.06.03 11:33:40.
