data_PCOD9021289
_publ_section_title
;
Structure prediction by ZEFSAII (Michael W. Deem and Ramdas Pophale) SiO2 
 PCOD9021289
Probable space group: P -1
;
_chemical_formula_sum "Si O2"
_cell_formula_units_Z 16
_cell_length_a 28.492941
_cell_length_b 25.827004
_cell_length_c 16.183974
_cell_angle_alpha 158.809136
_cell_angle_beta 158.317912
_cell_angle_gamma 9.223675
_cell_volume 681.818113
_symmetry_space_group_name_H-M "P -1"
_symmetry_group_IT_number 2
_symmetry_cell_setting 'triclinic'
loop_
_space_group_symop_operation_xyz
x,y,z
-x,-y,-z
loop_
_atom_site_type_symbol
_atom_site_label
_atom_site_fract_x
_atom_site_fract_y
_atom_site_fract_z
Si Si1 0.946152 0.364380 0.484214
Si Si2 0.269834 0.899729 0.801133
Si Si3 0.319933 0.869363 0.499314
Si Si4 0.824146 0.647652 0.545946
Si Si5 0.371697 0.784728 0.193177
Si Si6 0.831879 0.446989 0.114030
Si Si7 0.604514 0.561184 0.672748
Si Si8 0.837537 0.149198 0.201080
O O1 0.872980 0.566601 0.601650
O O2 0.628470 0.639338 0.408001
O O3 0.172803 0.133150 0.588500
O O4 0.104584 0.088610 0.271172
O O5 0.393611 0.782570 0.736013
O O6 0.323767 0.679389 0.588134
O O7 0.482116 0.781194 0.027305
O O8 0.927884 0.290299 0.820668
O O9 0.441324 0.797861 0.679955
O O10 0.600752 0.500588 0.371294
O O11 0.070325 0.003099 0.310201
O O12 0.901918 0.424119 0.288305
O O13 0.039237 0.554694 0.730423
O O14 0.500000 0.000000 0.500000
O O15 0.500000 0.500000 0.000000
O O16 0.327597 0.802875 0.050930
O O17 0.969594 0.152735 0.874784
#
# Coordination Sequence:
#
# PCOD9021289 Si02
#       8
#     2   2   2   2   2   2   2   2
#     4  12  24  40  60  88 128 168 204 258 313 373
#     4  10  22  38  64  88 128 164 204 261 315 374
#     4  12  23  38  62  95 130 162 198 258 329 376
#     4  11  27  44  64  91 127 174 223 257 297 378
#     4  12  21  36  55  90 126 163 205 243 311 390
#     4  11  25  42  63  92 126 173 213 262 309 369
#     4  10  22  38  59  98 124 159 207 258 322 379
#     4  12  23  35  61  92 129 165 199 253 318 380
#
# _framework density 23.466669
#
# number of rings (size 3 to 8) (size 9 to 14) (size 15 to 20)
#    0.000    0.750    5.000    2.625    8.750    0.000 
#    0.000    0.000    0.000    1.500    0.000    0.000 
#    0.000    0.000    0.000    0.000    0.000    0.000 
#
# Total GULP energy -89393.753544 kJ/mol
# GULP energy per Si atom -5587.109596 kJ/mol
# Density = 2.341326 g / cm^3
# Si number density = 23.466669 Si / 1000 Ang^3
#
#
#
# Elastic Constant Matrix: (Units=GPa)
#
#
# Indices 1 2 3 4 5 6 
#
# 1 114.0681 39.2201 12.5456 -8.5242 8.7582 31.9116
# 2 39.2201 99.2348 18.2055 -17.4164 18.4008 9.9858
# 3 12.5456 18.2055 44.7690 -17.7387 6.3152 7.8763
# 4 -8.5242 -17.4164 -17.7387 39.4755 0.9769 -5.6104
# 5 8.7582 18.4008 6.3152 0.9769 30.4935 1.8982
# 6 31.9116 9.9858 7.8763 -5.6104 1.8982 51.7773
#
#
#
# Elastic Compliance Matrix: (Units=1/GPa)
#
#
# Indices 1 2 3 4 5 6 
#
# 1 0.012052 -0.003943 -0.000689 -0.000370 -0.000518 -0.006584
# 2 -0.003943 0.014071 -0.001830 0.004823 -0.007182 0.000781
# 3 -0.000689 -0.001830 0.029083 0.011927 -0.004968 -0.002172
# 4 -0.000370 0.004823 0.011927 0.033083 -0.006415 0.001304
# 5 -0.000518 -0.007182 -0.004968 -0.006415 0.038489 0.000354
# 6 -0.006584 0.000781 -0.002172 0.001304 0.000354 0.023679
#
#
# Mechanical properties :
#
#
# Convention : Reuss Voigt Hill
#
# Bulk Modulus (GPa) = 23.65140 44.22382 33.93761
# Shear Modulus (GPa) = 28.17267 36.88931 32.53099
#
# Velocity S-wave (km/s) = 3.46864 3.96913 3.72730
# Velocity P-wave (km/s) = 5.11298 6.31598 5.74605
#
# Compressibility (1/GPa) = 0.04228079
#
# Stress axis : x y z
#
# Youngs Moduli (GPa) = 82.97135 71.06767 34.38468
#
# Poissons Ratio (x) = 0.28025 0.02369
# Poissons Ratio (y) = 0.32719 0.06293
# Poissons Ratio (z) = 0.05717 0.13007
#
# Static dielectric constant tensor:
#      x y z
#    x 1.871770 -0.059300 -0.030500 
#    y -0.059300 1.718610 0.034470 
#    z -0.030500 0.034470 1.886930 
# 
# From -- ./inp_files/580224.got.cif
#   From: 2010.05.17/outbox.cif.g08.bks.cpg/sg2_291_cif.got.tgz:580224.got - 2010.06.03 11:33:40.
