data_PCOD9021184
_publ_section_title
;
Structure prediction by ZEFSAII (Michael W. Deem and Ramdas Pophale) SiO2 
 PCOD9021184
Probable space group: P -1
;
_chemical_formula_sum "Si O2"
_cell_formula_units_Z 16
_cell_length_a 14.004241
_cell_length_b 7.677666
_cell_length_c 9.151785
_cell_angle_alpha 46.509377
_cell_angle_beta 120.969118
_cell_angle_gamma 107.140865
_cell_volume 609.311679
_symmetry_space_group_name_H-M "P -1"
_symmetry_group_IT_number 2
_symmetry_cell_setting 'triclinic'
loop_
_space_group_symop_operation_xyz
x,y,z
-x,-y,-z
loop_
_atom_site_type_symbol
_atom_site_label
_atom_site_fract_x
_atom_site_fract_y
_atom_site_fract_z
Si Si1 0.660681 0.276482 0.552062
Si Si2 0.154428 0.960209 0.733463
Si Si3 0.538923 0.377136 0.871586
Si Si4 0.361338 0.034888 0.029575
Si Si5 0.010673 0.968157 0.217557
Si Si6 0.155517 0.606979 0.174910
Si Si7 0.250020 0.680506 0.727159
Si Si8 0.948825 0.606314 0.160239
O O1 0.532221 0.382765 0.374998
O O2 0.660402 0.029013 0.783926
O O3 0.730753 0.440542 0.620943
O O4 0.718683 0.275794 0.440405
O O5 0.246363 0.096071 0.815093
O O6 0.167639 0.677830 0.973556
O O7 0.031472 0.056576 0.636543
O O8 0.197791 0.927986 0.622169
O O9 0.584532 0.207348 0.871054
O O10 0.639036 0.404438 0.045909
O O11 0.446657 0.231479 0.963426
O O12 0.015779 0.719775 0.281762
O O13 0.895523 0.119336 0.979089
O O14 0.089612 0.169737 0.111449
O O15 0.051628 0.466394 0.226103
O O16 0.152683 0.507487 0.777585
#
# Coordination Sequence:
#
# PCOD9021184 Si02
#       8
#     2   2   2   2   2   2   2   2
#     4  11  21  34  57  87 112 143 187 237 274 335
#     4   7  16  32  54  78 108 149 182 223 280 331
#     4  10  22  38  57  84 109 154 185 225 288 331
#     4   9  19  40  60  75 112 152 194 224 265 348
#     4   7  14  32  57  80 101 153 195 212 279 335
#     4   7  16  33  55  79 105 146 194 217 270 333
#     4  11  21  31  50  88 120 135 184 240 283 323
#     4   8  16  31  56  85 106 145 189 239 264 331
#
# _framework density 26.259141
#
# number of rings (size 3 to 8) (size 9 to 14) (size 15 to 20)
#    1.500    1.500    0.000    0.750    1.750    3.000 
#    0.000    1.250    0.000    3.750    0.000    0.000 
#    0.000    0.000    0.000    0.000    0.000    0.000 
#
# Total GULP energy -89151.320344 kJ/mol
# GULP energy per Si atom -5571.957521 kJ/mol
# Density = 2.619937 g / cm^3
# Si number density = 26.259141 Si / 1000 Ang^3
#
#
#
# Elastic Constant Matrix: (Units=GPa)
#
#
# Indices 1 2 3 4 5 6 
#
# 1 93.8831 28.1978 25.4912 11.6382 -10.3410 19.9549
# 2 28.1978 45.9274 17.9367 5.8055 -10.9588 8.9444
# 3 25.4912 17.9367 98.6793 12.0683 -14.3045 5.2110
# 4 11.6382 5.8055 12.0683 25.9830 4.6971 -11.5982
# 5 -10.3410 -10.9588 -14.3045 4.6971 64.4273 10.5137
# 6 19.9549 8.9444 5.2110 -11.5982 10.5137 55.3072
#
#
#
# Elastic Compliance Matrix: (Units=1/GPa)
#
#
# Indices 1 2 3 4 5 6 
#
# 1 0.015668 -0.005986 -0.001060 -0.008878 0.003055 -0.007028
# 2 -0.005986 0.028935 -0.002134 -0.005573 0.004605 -0.004363
# 3 -0.001060 -0.002134 0.012111 -0.006235 0.002984 -0.002289
# 4 -0.008878 -0.005573 -0.006235 0.056941 -0.010963 0.018716
# 5 0.003055 0.004605 0.002984 -0.010963 0.019587 -0.008151
# 6 -0.007028 -0.004363 -0.002289 0.018716 -0.008151 0.027012
#
#
# Mechanical properties :
#
#
# Convention : Reuss Voigt Hill
#
# Bulk Modulus (GPa) = 26.07154 42.41569 34.24362
# Shear Modulus (GPa) = 26.12371 40.26777 33.19574
#
# Velocity S-wave (km/s) = 3.15753 3.92021 3.55936
# Velocity P-wave (km/s) = 4.82115 6.05628 5.47366
#
# Compressibility (1/GPa) = 0.03835600
#
# Stress axis : x y z
#
# Youngs Moduli (GPa) = 63.82483 34.56033 82.56737
#
# Poissons Ratio (x) = 0.20687 0.08749
# Poissons Ratio (y) = 0.38205 0.17616
# Poissons Ratio (z) = 0.06763 0.07374
#
# Static dielectric constant tensor:
#      x y z
#    x 2.123360 -0.025260 -0.080530 
#    y -0.025260 2.138630 -0.025140 
#    z -0.080530 -0.025140 2.245550 
# 
# From -- ./inp_files/294218.got.cif
#   From: 2010.05.17/outbox.cif.g08.bks.cpg/sg2_148_cif.got.tgz:294218.got - 2010.06.03 11:33:40.
