data_PCOD9021680
_publ_section_title
;
Structure prediction by ZEFSAII (Michael W. Deem and Ramdas Pophale) SiO2 
 PCOD9021680
Probable space group: P -1
;
_chemical_formula_sum "Si O2"
_cell_formula_units_Z 15
_cell_length_a 7.584617
_cell_length_b 7.882084
_cell_length_c 13.117955
_cell_angle_alpha 94.981322
_cell_angle_beta 48.207758
_cell_angle_gamma 96.313451
_cell_volume 581.048766
_symmetry_space_group_name_H-M "P -1"
_symmetry_group_IT_number 2
_symmetry_cell_setting 'triclinic'
loop_
_space_group_symop_operation_xyz
x,y,z
-x,-y,-z
loop_
_atom_site_type_symbol
_atom_site_label
_atom_site_fract_x
_atom_site_fract_y
_atom_site_fract_z
Si Si1 0.735349 0.491211 0.529745
Si Si2 0.727768 0.123735 0.147056
Si Si3 0.783018 0.411250 0.284094
Si Si4 0.500000 0.500000 0.000000
Si Si5 0.060227 0.727302 0.125409
Si Si6 0.361085 0.877703 0.361941
Si Si7 0.042735 0.045850 0.636981
Si Si8 0.745139 0.698553 0.730920
O O1 0.860706 0.463929 0.371595
O O2 0.499276 0.587582 0.599792
O O3 0.638814 0.306980 0.599208
O O4 0.839362 0.602699 0.590475
O O5 0.841289 0.231602 0.203413
O O6 0.493483 0.218784 0.210693
O O7 0.606243 0.941063 0.217058
O O8 0.891548 0.154388 0.986505
O O9 0.888124 0.555226 0.171900
O O10 0.308048 0.652719 0.061250
O O11 0.337312 0.423574 0.152034
O O12 0.947384 0.836685 0.262862
O O13 0.143892 0.877833 0.365505
O O14 0.285865 0.012679 0.483772
O O15 0.922462 0.859044 0.698223
#
# Coordination Sequence:
#
# PCOD9021680 Si02
#       8
#     2   2   2   1   2   2   2   2
#     4  10  22  39  65  93 123 164 214 257 307 362
#     4   9  21  42  61  85 125 164 205 260 312 357
#     4  10  23  40  64  91 121 167 210 264 303 365
#     4  10  22  38  64  92 124 166 206 252 314 376
#     4  11  23  41  65  91 126 167 206 258 313 377
#     4  10  22  39  63  92 128 163 204 262 310 372
#     4  10  23  37  62  95 129 161 203 257 321 368
#     4   9  20  38  60  91 125 161 206 255 308 370
#
# _framework density 25.815387999999999
#
# number of rings (size 3 to 8) (size 9 to 14) (size 15 to 20)
#    0.000    2.133    0.000    1.200   11.200    6.933 
#    0.000    0.667    0.000    0.000    0.000    0.000 
#    0.000    0.000    0.000    0.000    0.000    0.000 
#
# Total GULP energy -83741.305525 kJ/mol
# GULP energy per Si atom -5582.753702 kJ/mol
# Density = 2.575663 g / cm^3
# Si number density = 25.815388 Si / 1000 Ang^3
#
#
#
# Elastic Constant Matrix: (Units=GPa)
#
#
# Indices 1 2 3 4 5 6 
#
# 1 56.6812 14.7024 17.6548 -9.9800 9.1156 -12.1962
# 2 14.7024 98.1910 40.4274 -23.3287 14.9855 10.4315
# 3 17.6548 40.4274 97.1816 -43.6745 7.5396 -8.0910
# 4 -9.9800 -23.3287 -43.6745 42.5202 -10.5294 -5.8961
# 5 9.1156 14.9855 7.5396 -10.5294 34.0932 1.4533
# 6 -12.1962 10.4315 -8.0910 -5.8961 1.4533 27.8407
#
#
#
# Elastic Compliance Matrix: (Units=1/GPa)
#
#
# Indices 1 2 3 4 5 6 
#
# 1 0.022445 -0.003312 0.001078 0.005418 -0.003653 0.012725
# 2 -0.003312 0.014632 -0.006883 -0.002155 -0.004299 -0.009165
# 3 0.001078 -0.006883 0.025684 0.026156 0.004461 0.015822
# 4 0.005418 -0.002155 0.026156 0.056037 0.010078 0.022124
# 5 -0.003653 -0.004299 0.004461 0.010078 0.034253 0.001653
# 6 0.012725 -0.009165 0.015822 0.022124 0.001653 0.054124
#
#
# Mechanical properties :
#
#
# Convention : Reuss Voigt Hill
#
# Bulk Modulus (GPa) = 22.45843 44.18034 33.31938
# Shear Modulus (GPa) = 20.81156 32.84212 26.82684
#
# Velocity S-wave (km/s) = 2.84239 3.57065 3.22713
# Velocity P-wave (km/s) = 4.41484 5.84384 5.17886
#
# Compressibility (1/GPa) = 0.04452671
#
# Stress axis : x y z
#
# Youngs Moduli (GPa) = 44.55265 68.34418 38.93543
#
# Poissons Ratio (x) = 0.22633 -0.04197
# Poissons Ratio (y) = 0.14754 0.26801
# Poissons Ratio (z) = -0.04803 0.47044
#
# Static dielectric constant tensor:
#      x y z
#    x 2.156470 -0.056080 -0.005430 
#    y -0.056080 2.010810 0.019960 
#    z -0.005430 0.019960 1.966380 
# 
# From -- ./inp_files/382513.got.cif
#   From: 2010.05.17/outbox.cif.g08.bks.cpg/sg2_192_cif.got.tgz:382513.got - 2010.06.03 11:33:40.
