data_PCOD9021891
_publ_section_title
;
Structure prediction by ZEFSAII (Michael W. Deem and Ramdas Pophale) SiO2 
 PCOD9021891
Probable space group: P -1
;
_chemical_formula_sum "Si O2"
_cell_formula_units_Z 12
_cell_length_a 11.297069
_cell_length_b 9.521600
_cell_length_c 8.820619
_cell_angle_alpha 103.142979
_cell_angle_beta 138.854059
_cell_angle_gamma 57.189770
_cell_volume 495.910424
_symmetry_space_group_name_H-M "P -1"
_symmetry_group_IT_number 2
_symmetry_cell_setting 'triclinic'
loop_
_space_group_symop_operation_xyz
x,y,z
-x,-y,-z
loop_
_atom_site_type_symbol
_atom_site_label
_atom_site_fract_x
_atom_site_fract_y
_atom_site_fract_z
Si Si1 0.925746 0.508709 0.103515
Si Si2 0.859818 0.148754 0.552429
Si Si3 0.756970 0.280897 0.821775
Si Si4 0.672849 0.521304 0.376183
Si Si5 0.512160 0.910401 0.831299
Si Si6 0.683609 0.115696 0.965638
O O1 0.123710 0.468871 0.390927
O O2 0.859645 0.373431 0.022515
O O3 0.713561 0.705854 0.976376
O O4 0.000000 0.500000 0.000000
O O5 0.838927 0.232776 0.719175
O O6 0.769114 0.317037 0.396288
O O7 0.705823 0.080809 0.402913
O O8 0.119521 0.993925 0.750609
O O9 0.490792 0.412630 0.618891
O O10 0.798724 0.122982 0.927775
O O11 0.509238 0.676964 0.138120
O O12 0.570083 0.014672 0.800386
O O13 0.500000 0.000000 0.000000
#
# Coordination Sequence:
#
# PCOD9021891 Si02
#       6
#     2   2   2   2   2   2
#     4  12  21  42  72  97 135 176 222 271 335 392
#     4  12  21  44  67  94 142 172 215 280 333 393
#     4  10  22  39  65 104 130 171 220 272 337 388
#     4  10  22  38  66  98 132 171 217 270 334 393
#     4  12  27  45  67  98 135 181 223 273 335 396
#     4  10  25  40  64 103 128 175 224 273 334 391
#
# _framework density 24.197921000000001
#
# number of rings (size 3 to 8) (size 9 to 14) (size 15 to 20)
#    1.000    0.000    5.000    2.000    2.333    1.333 
#    0.000    4.167    0.000    0.000    0.000    0.000 
#    0.000    0.000    0.000    0.000    0.000    0.000 
#
# Total GULP energy -67084.348534 kJ/mol
# GULP energy per Si atom -5590.362378 kJ/mol
# Density = 2.414285 g / cm^3
# Si number density = 24.197921 Si / 1000 Ang^3
#
#
#
# Elastic Constant Matrix: (Units=GPa)
#
#
# Indices 1 2 3 4 5 6 
#
# 1 82.7853 51.5388 28.6142 3.9095 28.7046 20.8742
# 2 51.5388 150.6795 87.7989 2.4352 30.3746 28.3456
# 3 28.6142 87.7989 127.5552 -21.1537 30.8071 23.9871
# 4 3.9095 2.4352 -21.1537 49.2693 1.8382 11.4683
# 5 28.7046 30.3746 30.8071 1.8382 33.0076 14.2119
# 6 20.8742 28.3456 23.9871 11.4683 14.2119 54.8261
#
#
#
# Elastic Compliance Matrix: (Units=1/GPa)
#
#
# Indices 1 2 3 4 5 6 
#
# 1 0.019915 -0.005449 0.003551 0.001421 -0.014464 -0.002867
# 2 -0.005449 0.013730 -0.009049 -0.004059 0.000978 -0.000469
# 3 0.003551 -0.009049 0.018033 0.009176 -0.010482 -0.003766
# 4 0.001421 -0.004059 0.009176 0.026058 -0.004627 -0.006708
# 5 -0.014464 0.000978 -0.010482 -0.004627 0.053434 -0.003296
# 6 -0.002867 -0.000469 -0.003766 -0.006708 -0.003296 0.023479
#
#
# Mechanical properties :
#
#
# Convention : Reuss Voigt Hill
#
# Bulk Modulus (GPa) = 33.57505 77.43596 55.50550
# Shear Modulus (GPa) = 26.81366 40.29180 33.55273
#
# Velocity S-wave (km/s) = 3.33242 4.08498 3.72774
# Velocity P-wave (km/s) = 5.35836 7.37021 6.44329
#
# Compressibility (1/GPa) = 0.02978402
#
# Stress axis : x y z
#
# Youngs Moduli (GPa) = 50.21278 72.83260 55.45279
#
# Poissons Ratio (x) = 0.39687 -0.19692
# Poissons Ratio (y) = 0.27361 0.50182
# Poissons Ratio (z) = -0.17832 0.65910
#
# Static dielectric constant tensor:
#      x y z
#    x 1.883180 0.032560 -0.022460 
#    y 0.032560 1.935400 -0.059370 
#    z -0.022460 -0.059370 1.952770 
# 
# From -- ./inp_files/235454.got.cif
#   From: 2010.05.17/outbox.cif.g08.bks.cpg/sg2_118_cif.got.tgz:235454.got - 2010.06.03 11:33:40.
