data_PCOD9021528
_publ_section_title
;
Structure prediction by ZEFSAII (Michael W. Deem and Ramdas Pophale) SiO2 
 PCOD9021528
Probable space group: P -1
;
_chemical_formula_sum "Si O2"
_cell_formula_units_Z 12
_cell_length_a 15.487916
_cell_length_b 16.431854
_cell_length_c 5.002455
_cell_angle_alpha 66.757769
_cell_angle_beta 62.064835
_cell_angle_gamma 28.708123
_cell_volume 539.877418
_symmetry_space_group_name_H-M "P -1"
_symmetry_group_IT_number 2
_symmetry_cell_setting 'triclinic'
loop_
_space_group_symop_operation_xyz
x,y,z
-x,-y,-z
loop_
_atom_site_type_symbol
_atom_site_label
_atom_site_fract_x
_atom_site_fract_y
_atom_site_fract_z
Si Si1 0.639427 0.454025 0.687960
Si Si2 0.339076 0.446972 0.964221
Si Si3 0.078188 0.210750 0.863132
Si Si4 0.359504 0.905233 0.246649
Si Si5 0.593492 0.975404 0.645771
Si Si6 0.976234 0.920657 0.247802
O O1 0.589940 0.529957 0.370377
O O2 0.838074 0.250401 0.639225
O O3 0.500000 0.500000 0.000000
O O4 0.659744 0.521859 0.772210
O O5 0.473462 0.261567 0.952888
O O6 0.122589 0.598739 0.005061
O O7 0.184682 0.193212 0.525310
O O8 0.041152 0.143571 0.865770
O O9 0.225337 0.076585 0.058227
O O10 0.436348 0.897814 0.402858
O O11 0.216376 0.938531 0.493835
O O12 0.500000 0.000000 0.500000
O O13 0.500000 0.000000 0.000000
O O14 0.000000 0.000000 0.000000
#
# Coordination Sequence:
#
# PCOD9021528 Si02
#       6
#     2   2   2   2   2   2
#     4  11  23  40  58  92 133 174 221 275 309 365
#     4  11  25  41  63  93 130 170 219 266 320 383
#     4  10  23  44  65  95 132 172 214 269 327 379
#     4  11  23  42  70  92 130 177 214 265 330 384
#     4  11  23  43  73  99 127 165 213 271 333 393
#     4  10  22  38  62  95 133 177 222 262 316 383
#
# _framework density 22.227267000000001
#
# number of rings (size 3 to 8) (size 9 to 14) (size 15 to 20)
#    0.000    1.333    3.333    1.500    7.000    2.000 
#    0.000    1.667    0.000    0.000    0.000    0.000 
#    0.000    0.000    0.000    0.000    0.000    0.000 
#
# Total GULP energy -67003.001547 kJ/mol
# GULP energy per Si atom -5583.583462 kJ/mol
# Density = 2.217668 g / cm^3
# Si number density = 22.227267 Si / 1000 Ang^3
#
#
#
# Elastic Constant Matrix: (Units=GPa)
#
#
# Indices 1 2 3 4 5 6 
#
# 1 71.9103 25.5364 29.7182 7.5628 -12.3196 -10.3246
# 2 25.5364 113.8173 29.1127 39.5325 -4.2863 -7.7149
# 3 29.7182 29.1127 140.7819 16.6306 -18.6617 -10.8075
# 4 7.5628 39.5325 16.6306 38.3836 -8.0469 1.5404
# 5 -12.3196 -4.2863 -18.6617 -8.0469 47.9169 2.9955
# 6 -10.3246 -7.7149 -10.8075 1.5404 2.9955 7.8584
#
#
#
# Elastic Compliance Matrix: (Units=1/GPa)
#
#
# Indices 1 2 3 4 5 6 
#
# 1 0.018630 -0.001894 -0.001525 -0.001315 0.002568 0.019798
# 2 -0.001894 0.016697 0.000137 -0.018312 -0.003197 0.018900
# 3 -0.001525 0.000137 0.008872 -0.003724 0.001801 0.010375
# 4 -0.001315 -0.018312 -0.003724 0.049809 0.007274 -0.037363
# 5 0.002568 -0.003197 0.001801 0.007274 0.023650 -0.007728
# 6 0.019798 0.018900 0.010375 -0.037363 -0.007728 0.196359
#
#
# Mechanical properties :
#
#
# Convention : Reuss Voigt Hill
#
# Bulk Modulus (GPa) = 26.57142 55.02714 40.79928
# Shear Modulus (GPa) = 15.00933 34.97458 24.99195
#
# Velocity S-wave (km/s) = 2.60141 3.97104 3.35682
# Velocity P-wave (km/s) = 4.58295 6.77022 5.78098
#
# Compressibility (1/GPa) = 0.03763442
#
# Stress axis : x y z
#
# Youngs Moduli (GPa) = 53.67659 59.89173 112.71493
#
# Poissons Ratio (x) = 0.11345 0.17193
# Poissons Ratio (y) = 0.10168 -0.01549
# Poissons Ratio (z) = 0.08188 -0.00823
#
# Static dielectric constant tensor:
#      x y z
#    x 1.859190 -0.023190 0.005960 
#    y -0.023190 1.814190 -0.018230 
#    z 0.005960 -0.018230 1.897850 
# 
# From -- ./inp_files/29858.got.cif
#   From: 2010.05.17/outbox.cif.g08.bks.cpg/sg2_15_cif.got.tgz:29858.got - 2010.06.03 11:33:40.
