data_PCOD9021352
_publ_section_title
;
Structure prediction by ZEFSAII (Michael W. Deem and Ramdas Pophale) SiO2 
 PCOD9021352
Probable space group: P -1
;
_chemical_formula_sum "Si O2"
_cell_formula_units_Z 15
_cell_length_a 12.782522
_cell_length_b 14.070668
_cell_length_c 9.283589
_cell_angle_alpha 70.579239
_cell_angle_beta 89.932612
_cell_angle_gamma 150.461021
_cell_volume 606.240471
_symmetry_space_group_name_H-M "P -1"
_symmetry_group_IT_number 2
_symmetry_cell_setting 'triclinic'
loop_
_space_group_symop_operation_xyz
x,y,z
-x,-y,-z
loop_
_atom_site_type_symbol
_atom_site_label
_atom_site_fract_x
_atom_site_fract_y
_atom_site_fract_z
Si Si1 0.612614 0.473761 0.907737
Si Si2 0.396019 0.478045 0.800316
Si Si3 0.333211 0.827043 0.941168
Si Si4 0.476005 0.803493 0.372301
Si Si5 0.000000 0.000000 0.000000
Si Si6 0.112574 0.460794 0.282251
Si Si7 0.521098 0.906786 0.611713
Si Si8 0.821165 0.916798 0.342061
O O1 0.383340 0.342057 0.901695
O O2 0.678300 0.429026 0.851570
O O3 0.543336 0.408362 0.110279
O O4 0.890622 0.786506 0.747892
O O5 0.629477 0.700900 0.574436
O O6 0.080181 0.198826 0.907347
O O7 0.325403 0.927067 0.809322
O O8 0.457068 0.862515 0.801186
O O9 0.086886 0.541038 0.148533
O O10 0.500000 0.000000 0.000000
O O11 0.225138 0.589471 0.373375
O O12 0.643176 0.852327 0.321763
O O13 0.375473 0.713198 0.584644
O O14 0.120021 0.104093 0.777936
O O15 0.833744 0.155250 0.461457
O O16 0.500000 0.000000 0.500000
#
# Coordination Sequence:
#
# PCOD9021352 Si02
#       8
#     2   2   2   2   1   2   2   2
#     4  10  22  39  62  94 126 168 221 266 320 398
#     4  10  22  40  64  90 128 173 211 271 329 377
#     4   9  22  41  63  92 126 170 211 267 318 378
#     4  10  22  40  63  96 128 164 224 262 309 395
#     4  10  22  38  60  94 124 162 218 260 314 392
#     4  11  22  41  65  90 131 171 209 270 323 372
#     4  10  22  41  62  91 126 164 216 266 312 389
#     4  11  21  41  63  92 133 169 217 266 327 382
#
# _framework density 24.742659
#
# number of rings (size 3 to 8) (size 9 to 14) (size 15 to 20)
#    0.000    1.867    1.333    1.600    1.867    6.933 
#    0.000   12.000    0.000    0.000    0.000    0.000 
#    0.000    0.000    0.000    0.000    0.000    0.000 
#
# Total GULP energy -83553.635575 kJ/mol
# GULP energy per Si atom -5570.242372 kJ/mol
# Density = 2.468634 g / cm^3
# Si number density = 24.742659 Si / 1000 Ang^3
#
#
#
# Elastic Constant Matrix: (Units=GPa)
#
#
# Indices 1 2 3 4 5 6 
#
# 1 52.5267 -18.1187 14.2000 17.6664 -5.1887 0.7043
# 2 -18.1187 98.3218 52.6589 29.7569 2.8767 -7.8282
# 3 14.2000 52.6589 195.4191 26.6156 -12.9991 -2.0349
# 4 17.6664 29.7569 26.6156 37.2813 -8.7103 -8.5781
# 5 -5.1887 2.8767 -12.9991 -8.7103 32.0662 5.2139
# 6 0.7043 -7.8282 -2.0349 -8.5781 5.2139 21.6116
#
#
#
# Elastic Compliance Matrix: (Units=1/GPa)
#
#
# Indices 1 2 3 4 5 6 
#
# 1 0.036239 0.017652 -0.003497 -0.031321 -0.004598 -0.006439
# 2 0.017652 0.024120 -0.004754 -0.026324 -0.008265 -0.000741
# 3 -0.003497 -0.004754 0.006695 0.001097 0.003082 -0.001286
# 4 -0.031321 -0.026324 0.001097 0.068705 0.013878 0.015511
# 5 -0.004598 -0.008265 0.003082 0.013878 0.037180 -0.006015
# 6 -0.006439 -0.000741 -0.001286 0.015511 -0.006015 0.053700
#
#
# Mechanical properties :
#
#
# Convention : Reuss Voigt Hill
#
# Bulk Modulus (GPa) = 11.64760 49.30532 30.47646
# Shear Modulus (GPa) = 21.14579 38.02698 29.58639
#
# Velocity S-wave (km/s) = 2.92658 3.92458 3.46173
# Velocity P-wave (km/s) = 4.01715 6.36451 5.32187
#
# Compressibility (1/GPa) = 0.08585461
#
# Stress axis : x y z
#
# Youngs Moduli (GPa) = 27.59478 41.46013 149.37195
#
# Poissons Ratio (x) = -0.73186 0.52235
# Poissons Ratio (y) = -0.48711 0.71017
# Poissons Ratio (z) = 0.09650 0.19712
#
# Static dielectric constant tensor:
#      x y z
#    x 2.125370 0.342330 -0.083560 
#    y 0.342330 2.942650 -0.330040 
#    z -0.083560 -0.330040 2.107360 
# 
# From -- ./inp_files/198174.got.cif
#   From: 2010.05.17/outbox.cif.g08.bks.cpg/sg2_100_cif.got.tgz:198174.got - 2010.06.03 11:33:40.
