data_PCOD9021554
_publ_section_title
;
Structure prediction by ZEFSAII (Michael W. Deem and Ramdas Pophale) SiO2 
 PCOD9021554
Probable space group: P -1
;
_chemical_formula_sum "Si O2"
_cell_formula_units_Z 12
_cell_length_a 10.673957
_cell_length_b 9.154625
_cell_length_c 9.553898
_cell_angle_alpha 119.500140
_cell_angle_beta 37.842659
_cell_angle_gamma 111.321052
_cell_volume 497.928381
_symmetry_space_group_name_H-M "P -1"
_symmetry_group_IT_number 2
_symmetry_cell_setting 'triclinic'
loop_
_space_group_symop_operation_xyz
x,y,z
-x,-y,-z
loop_
_atom_site_type_symbol
_atom_site_label
_atom_site_fract_x
_atom_site_fract_y
_atom_site_fract_z
Si Si1 0.011409 0.087377 0.879881
Si Si2 0.362331 0.779254 0.896132
Si Si3 0.211156 0.320545 0.470806
Si Si4 0.813136 0.152365 0.626684
Si Si5 0.759032 0.511851 0.750095
Si Si6 0.153445 0.441000 0.000064
O O1 0.132426 0.975939 0.604716
O O2 0.781171 0.124938 0.044201
O O3 0.118302 0.264643 0.878500
O O4 0.000000 0.000000 0.000000
O O5 0.602243 0.761903 0.646842
O O6 0.317668 0.870622 0.128578
O O7 0.280164 0.589265 0.891437
O O8 0.034916 0.199955 0.518236
O O9 0.321663 0.392278 0.269013
O O10 0.074033 0.470725 0.733240
O O11 0.709628 0.319178 0.723377
O O12 0.000000 0.500000 0.500000
O O13 0.745676 0.594507 0.952875
#
# Coordination Sequence:
#
# PCOD9021554 Si02
#       6
#     2   2   2   2   2   2
#     4  12  22  38  60  85 122 155 185 237 301 344
#     4  10  22  38  63  85 110 158 197 235 280 339
#     4   9  17  36  61  86 113 147 203 237 273 344
#     4   9  20  37  59  85 116 152 190 236 288 340
#     4   7  13  31  55  78 106 146 184 226 271 327
#     4   9  20  37  59  85 116 152 190 236 288 340
#
# _framework density 24.099851000000001
#
# number of rings (size 3 to 8) (size 9 to 14) (size 15 to 20)
#    0.000    3.333    0.000    4.000    0.000    4.000 
#    0.000    1.667    0.000   16.000    0.000    0.000 
#    0.000    0.000    0.000    0.000    0.000    0.000 
#
# Total GULP energy -67062.045232 kJ/mol
# GULP energy per Si atom -5588.503769 kJ/mol
# Density = 2.404500 g / cm^3
# Si number density = 24.099851 Si / 1000 Ang^3
#
#
#
# Elastic Constant Matrix: (Units=GPa)
#
#
# Indices 1 2 3 4 5 6 
#
# 1 104.9633 46.9011 69.0171 7.8714 16.8825 -3.7629
# 2 46.9011 69.6413 48.6877 -10.0331 18.1194 -9.0754
# 3 69.0171 48.6877 131.9360 -1.4313 -1.4640 19.0099
# 4 7.8714 -10.0331 -1.4313 30.9212 10.1593 17.0622
# 5 16.8825 18.1194 -1.4640 10.1593 44.5876 18.7806
# 6 -3.7629 -9.0754 19.0099 17.0622 18.7806 50.4457
#
#
#
# Elastic Compliance Matrix: (Units=1/GPa)
#
#
# Indices 1 2 3 4 5 6 
#
# 1 0.022487 -0.003192 -0.012825 -0.011423 -0.010867 0.013845
# 2 -0.003192 0.036365 -0.014347 0.010309 -0.023545 0.016989
# 3 -0.012825 -0.014347 0.022867 0.004941 0.019135 -0.020950
# 4 -0.011423 0.010309 0.004941 0.048945 -0.004174 -0.015860
# 5 -0.010867 -0.023545 0.019135 -0.004174 0.050117 -0.029504
# 6 0.013845 0.016989 -0.020950 -0.015860 -0.029504 0.048156
#
#
# Mechanical properties :
#
#
# Convention : Reuss Voigt Hill
#
# Bulk Modulus (GPa) = 47.63910 70.63917 59.13913
# Shear Modulus (GPa) = 16.85422 34.65321 25.75371
#
# Velocity S-wave (km/s) = 2.64739 3.79608 3.27253
# Velocity P-wave (km/s) = 5.39956 6.97053 6.23472
#
# Compressibility (1/GPa) = 0.02099116
#
# Stress axis : x y z
#
# Youngs Moduli (GPa) = 44.46993 27.49915 43.73120
#
# Poissons Ratio (x) = 0.08779 0.56083
# Poissons Ratio (y) = 0.14197 0.62741
# Poissons Ratio (z) = 0.57031 0.39453
#
# Static dielectric constant tensor:
#      x y z
#    x 1.967920 -0.037950 0.007640 
#    y -0.037950 2.029980 -0.001070 
#    z 0.007640 -0.001070 1.912910 
# 
# From -- ./inp_files/412784.got.cif
#   From: 2010.05.17/outbox.cif.g08.bks.cpg/sg2_207_cif.got.tgz:412784.got - 2010.06.03 11:33:40.
