data_PCOD9021519
_publ_section_title
;
Structure prediction by ZEFSAII (Michael W. Deem and Ramdas Pophale) SiO2 
 PCOD9021519
Probable space group: P -1
;
_chemical_formula_sum "Si O2"
_cell_formula_units_Z 16
_cell_length_a 6.249332
_cell_length_b 14.189162
_cell_length_c 15.753598
_cell_angle_alpha 142.173938
_cell_angle_beta 124.110373
_cell_angle_gamma 54.417603
_cell_volume 682.234013
_symmetry_space_group_name_H-M "P -1"
_symmetry_group_IT_number 2
_symmetry_cell_setting 'triclinic'
loop_
_space_group_symop_operation_xyz
x,y,z
-x,-y,-z
loop_
_atom_site_type_symbol
_atom_site_label
_atom_site_fract_x
_atom_site_fract_y
_atom_site_fract_z
Si Si1 0.628568 0.946676 0.242770
Si Si2 0.801202 0.636015 0.824652
Si Si3 0.927422 0.366310 0.946085
Si Si4 0.954353 0.377893 0.526814
Si Si5 0.263697 0.585260 0.673998
Si Si6 0.822008 0.876979 0.861071
Si Si7 0.068748 0.097935 0.471158
Si Si8 0.487705 0.805907 0.275235
O O1 0.462900 0.875806 0.224260
O O2 0.854647 0.800302 0.148223
O O3 0.438261 0.042920 0.195623
O O4 0.795009 0.056003 0.404913
O O5 0.521867 0.627539 0.797575
O O6 0.763210 0.801614 0.883437
O O7 0.864230 0.494583 0.669190
O O8 0.023784 0.608796 0.926579
O O9 0.630475 0.345088 0.851799
O O10 0.000000 0.500000 0.000000
O O11 0.219358 0.420795 0.580878
O O12 0.007083 0.198933 0.442683
O O13 0.743966 0.415328 0.429827
O O14 0.003970 0.724494 0.742580
O O15 0.000000 0.000000 0.000000
O O16 0.207657 0.201573 0.636307
O O17 0.293368 0.934366 0.385298
#
# Coordination Sequence:
#
# PCOD9021519 Si02
#       8
#     2   2   2   2   2   2   2   2
#     4  11  23  42  68  94 128 170 216 270 327 383
#     4  11  24  41  63  93 132 171 214 262 326 386
#     4  11  27  44  63  97 131 174 222 264 322 393
#     4  10  22  38  62  94 127 169 210 266 322 383
#     4  10  22  40  62  95 131 165 216 260 324 387
#     4  11  23  40  66  97 130 168 214 268 326 389
#     4  10  22  40  65  95 125 168 219 267 323 381
#     4  10  23  43  65  92 129 166 222 271 320 380
#
# _framework density 23.452363999999999
#
# number of rings (size 3 to 8) (size 9 to 14) (size 15 to 20)
#    0.000    1.500    0.000    3.750    3.500    8.500 
#    0.000    0.000    0.000    0.000    0.000    0.000 
#    0.000    0.000    0.000    0.000    0.000    0.000 
#
# Total GULP energy -89504.793764 kJ/mol
# GULP energy per Si atom -5594.049610 kJ/mol
# Density = 2.339899 g / cm^3
# Si number density = 23.452364 Si / 1000 Ang^3
#
#
#
# Elastic Constant Matrix: (Units=GPa)
#
#
# Indices 1 2 3 4 5 6 
#
# 1 73.4406 38.8574 36.7279 -3.8925 36.1573 11.6962
# 2 38.8574 71.5038 16.6000 -4.7012 20.7545 10.4255
# 3 36.7279 16.6000 90.6512 -6.8347 27.7960 -4.1702
# 4 -3.8925 -4.7012 -6.8347 29.9456 1.3514 0.4147
# 5 36.1573 20.7545 27.7960 1.3514 53.4039 5.7729
# 6 11.6962 10.4255 -4.1702 0.4147 5.7729 36.6213
#
#
#
# Elastic Compliance Matrix: (Units=1/GPa)
#
#
# Indices 1 2 3 4 5 6 
#
# 1 0.028713 -0.009859 -0.006361 0.001336 -0.011764 -0.005249
# 2 -0.009859 0.020015 0.000791 0.002132 -0.001323 -0.002275
# 3 -0.006361 0.000791 0.015247 0.002920 -0.004466 0.004214
# 4 0.001336 0.002132 0.002920 0.034759 -0.004084 -0.000451
# 5 -0.011764 -0.001323 -0.004466 -0.004084 0.029742 -0.001017
# 6 -0.005249 -0.002275 0.004214 -0.000451 -0.001017 0.030276
#
#
# Mechanical properties :
#
#
# Convention : Reuss Voigt Hill
#
# Bulk Modulus (GPa) = 30.19607 46.66291 38.42949
# Shear Modulus (GPa) = 24.91913 33.55486 29.23700
#
# Velocity S-wave (km/s) = 3.26320 3.78665 3.53463
# Velocity P-wave (km/s) = 5.20590 6.24967 5.75151
#
# Compressibility (1/GPa) = 0.03311689
#
# Stress axis : x y z
#
# Youngs Moduli (GPa) = 34.82793 49.96202 65.58612
#
# Poissons Ratio (x) = 0.49257 0.41722
# Poissons Ratio (y) = 0.34336 -0.05189
# Poissons Ratio (z) = 0.22155 -0.03953
#
# Static dielectric constant tensor:
#      x y z
#    x 1.912590 0.001620 0.008130 
#    y 0.001620 1.860850 0.006010 
#    z 0.008130 0.006010 1.919110 
# 
# From -- ./inp_files/71858.got.cif
#   From: 2010.05.17/outbox.cif.g08.bks.cpg/sg2_36_cif.got.tgz:71858.got - 2010.06.03 11:33:40.
