data_PCOD9021847
_publ_section_title
;
Structure prediction by ZEFSAII (Michael W. Deem and Ramdas Pophale) SiO2 
 PCOD9021847
Probable space group: P -1
;
_chemical_formula_sum "Si O2"
_cell_formula_units_Z 14
_cell_length_a 9.347280
_cell_length_b 12.941038
_cell_length_c 21.485165
_cell_angle_alpha 152.164283
_cell_angle_beta 146.531486
_cell_angle_gamma 32.083851
_cell_volume 605.587041
_symmetry_space_group_name_H-M "P -1"
_symmetry_group_IT_number 2
_symmetry_cell_setting 'triclinic'
loop_
_space_group_symop_operation_xyz
x,y,z
-x,-y,-z
loop_
_atom_site_type_symbol
_atom_site_label
_atom_site_fract_x
_atom_site_fract_y
_atom_site_fract_z
Si Si1 0.861728 0.856647 0.012693
Si Si2 0.749610 0.001407 0.181252
Si Si3 0.749490 0.262403 0.531733
Si Si4 0.797793 0.545594 0.172386
Si Si5 0.133921 0.547001 0.511236
Si Si6 0.524421 0.995948 0.224165
Si Si7 0.895534 0.301514 0.193471
O O1 0.912503 0.835049 0.093488
O O2 0.565270 0.840710 0.879143
O O3 0.817027 0.125062 0.115292
O O4 0.107121 0.654990 0.953855
O O5 0.892064 0.179441 0.348187
O O6 0.682467 0.890559 0.160681
O O7 0.472182 0.367242 0.531182
O O8 0.917281 0.430570 0.686485
O O9 0.624943 0.207862 0.393420
O O10 0.000000 0.000000 0.500000
O O11 0.609975 0.801098 0.207201
O O12 0.685633 0.457924 0.145733
O O13 0.976777 0.479055 0.361399
O O14 0.000000 0.500000 0.500000
O O15 0.182899 0.118511 0.163645
#
# Coordination Sequence:
#
# PCOD9021847 Si02
#       7
#     2   2   2   2   2   2   2
#     4  11  23  38  61  88 131 161 201 254 321 370
#     4  11  22  40  61  91 123 167 204 257 310 378
#     4   9  19  37  62  92 123 158 208 261 308 370
#     4  11  21  38  65  90 124 165 204 257 319 365
#     4  11  20  38  68  92 120 167 214 256 314 370
#     4  10  22  38  66  90 121 160 219 253 303 377
#     4  11  22  40  63  94 121 160 209 265 301 370
#
# _framework density 23.118064
#
# number of rings (size 3 to 8) (size 9 to 14) (size 15 to 20)
#    0.000    1.429    4.286    1.286    0.000    3.429 
#    0.000    0.000    6.286    6.000    0.000    0.000 
#    0.000    0.000    0.000    0.000    0.000    0.000 
#
# Total GULP energy -78235.628321 kJ/mol
# GULP energy per Si atom -5588.259166 kJ/mol
# Density = 2.306545 g / cm^3
# Si number density = 23.118064 Si / 1000 Ang^3
#
#
#
# Elastic Constant Matrix: (Units=GPa)
#
#
# Indices 1 2 3 4 5 6 
#
# 1 129.2578 19.7048 25.3116 -2.5238 -10.6586 31.9803
# 2 19.7048 67.6141 12.4689 -1.7428 -3.8851 20.0324
# 3 25.3116 12.4689 131.4064 -4.6740 -4.2915 8.4352
# 4 -2.5238 -1.7428 -4.6740 24.6731 0.1667 2.2647
# 5 -10.6586 -3.8851 -4.2915 0.1667 36.3469 -1.7246
# 6 31.9803 20.0324 8.4352 2.2647 -1.7246 29.7959
#
#
#
# Elastic Compliance Matrix: (Units=1/GPa)
#
#
# Indices 1 2 3 4 5 6 
#
# 1 0.011117 0.000784 -0.001281 0.002043 0.002609 -0.012100
# 2 0.000784 0.018836 -0.000947 0.002446 0.001487 -0.013337
# 3 -0.001281 -0.000947 0.008031 0.001352 0.000449 -0.000339
# 4 0.002043 0.002446 0.001352 0.041841 0.000478 -0.007372
# 5 0.002609 0.001487 0.000449 0.000478 0.028377 -0.002321
# 6 -0.012100 -0.013337 -0.000339 -0.007372 -0.002321 0.056038
#
#
# Mechanical properties :
#
#
# Convention : Reuss Voigt Hill
#
# Bulk Modulus (GPa) = 28.49294 49.24985 38.87139
# Shear Modulus (GPa) = 27.96013 36.21605 32.08809
#
# Velocity S-wave (km/s) = 3.48149 3.96228 3.72964
# Velocity P-wave (km/s) = 5.33973 6.50252 5.94960
#
# Compressibility (1/GPa) = 0.03509642
#
# Stress axis : x y z
#
# Youngs Moduli (GPa) = 89.95515 53.09022 124.51660
#
# Poissons Ratio (x) = -0.04163 0.15952
# Poissons Ratio (y) = -0.07054 0.11787
# Poissons Ratio (z) = 0.11524 0.05026
#
# Static dielectric constant tensor:
#      x y z
#    x 1.872720 0.017440 0.016740 
#    y 0.017440 1.851550 -0.014950 
#    z 0.016740 -0.014950 1.930330 
# 
# From -- ./inp_files/225007.got.cif
#   From: 2010.05.17/outbox.cif.g08.bks.cpg/sg2_113_cif.got.tgz:225007.got - 2010.06.03 11:33:40.
