data_PCOD9021960
_publ_section_title
;
Structure prediction by ZEFSAII (Michael W. Deem and Ramdas Pophale) SiO2 
 PCOD9021960
Probable space group: P -1
;
_chemical_formula_sum "Si O2"
_cell_formula_units_Z 14
_cell_length_a 11.496363
_cell_length_b 10.344035
_cell_length_c 7.162112
_cell_angle_alpha 110.649937
_cell_angle_beta 70.640807
_cell_angle_gamma 62.774778
_cell_volume 571.019145
_symmetry_space_group_name_H-M "P -1"
_symmetry_group_IT_number 2
_symmetry_cell_setting 'triclinic'
loop_
_space_group_symop_operation_xyz
x,y,z
-x,-y,-z
loop_
_atom_site_type_symbol
_atom_site_label
_atom_site_fract_x
_atom_site_fract_y
_atom_site_fract_z
Si Si1 0.268234 0.662114 0.378423
Si Si2 0.641689 0.343580 0.089965
Si Si3 0.642174 0.649881 0.363486
Si Si4 0.344483 0.122552 0.269095
Si Si5 0.198581 0.213598 0.742042
Si Si6 0.740392 0.086844 0.231676
Si Si7 0.989974 0.645338 0.458975
O O1 0.444090 0.484860 0.273683
O O2 0.139262 0.635408 0.407500
O O3 0.195469 0.834715 0.634676
O O4 0.307727 0.696336 0.171894
O O5 0.691123 0.457362 0.205365
O O6 0.721198 0.166033 0.078337
O O7 0.686715 0.695251 0.557262
O O8 0.728529 0.691064 0.190559
O O9 0.448038 0.795470 0.544639
O O10 0.343158 0.056507 0.442120
O O11 0.186798 0.172459 0.286503
O O12 0.500000 0.000000 0.000000
O O13 0.171524 0.118963 0.862588
O O14 0.051776 0.338973 0.734483
O O15 0.000000 0.500000 0.500000
#
# Coordination Sequence:
#
# PCOD9021960 Si02
#       7
#     2   2   2   2   2   2   2
#     4  10  22  40  64  95 137 173 225 259 333 400
#     4  10  22  38  68 100 128 184 217 268 325 399
#     4   8  18  36  61  90 130 163 220 275 310 380
#     4   8  19  38  66  94 126 169 222 263 332 388
#     4   8  21  36  62  91 129 175 211 276 334 372
#     4  11  20  37  66  92 134 174 214 280 319 388
#     4   9  21  40  66  94 138 173 215 283 326 387
#
# _framework density 24.517568000000001
#
# number of rings (size 3 to 8) (size 9 to 14) (size 15 to 20)
#    1.714    0.857    0.000    2.143    8.000    1.714 
#    5.143    3.571    3.143    2.571    0.000    0.000 
#    0.000    0.000    0.000    0.000    0.000    0.000 
#
# Total GULP energy -78036.195273 kJ/mol
# GULP energy per Si atom -5574.013948 kJ/mol
# Density = 2.446177 g / cm^3
# Si number density = 24.517568 Si / 1000 Ang^3
#
#
#
# Elastic Constant Matrix: (Units=GPa)
#
#
# Indices 1 2 3 4 5 6 
#
# 1 140.1746 61.9238 10.0097 -3.2938 -17.8009 13.7375
# 2 61.9238 176.5348 19.9998 -32.4532 4.4901 14.0375
# 3 10.0097 19.9998 49.0352 -5.1262 1.8015 -7.4558
# 4 -3.2938 -32.4532 -5.1262 25.5503 -3.2326 0.0429
# 5 -17.8009 4.4901 1.8015 -3.2326 36.4643 -5.0742
# 6 13.7375 14.0375 -7.4558 0.0429 -5.0742 24.1064
#
#
#
# Elastic Compliance Matrix: (Units=1/GPa)
#
#
# Indices 1 2 3 4 5 6 
#
# 1 0.009648 -0.003700 -0.001384 -0.003151 0.004564 -0.002805
# 2 -0.003700 0.009769 -0.002736 0.011063 -0.002588 -0.004991
# 3 -0.001384 -0.002736 0.023358 0.001007 -0.000069 0.009590
# 4 -0.003151 0.011063 0.001007 0.053143 0.001179 -0.004181
# 5 0.004564 -0.002588 -0.000069 0.001179 0.030826 0.005371
# 6 -0.002805 -0.004991 0.009590 -0.004181 0.005371 0.050092
#
#
# Mechanical properties :
#
#
# Convention : Reuss Voigt Hill
#
# Bulk Modulus (GPa) = 36.85358 61.06791 48.96075
# Shear Modulus (GPa) = 24.81143 35.47828 30.14486
#
# Velocity S-wave (km/s) = 3.18462 3.80815 3.51026
# Velocity P-wave (km/s) = 5.34664 6.65566 6.03674
#
# Compressibility (1/GPa) = 0.02713440
#
# Stress axis : x y z
#
# Youngs Moduli (GPa) = 103.65273 102.36693 42.81155
#
# Poissons Ratio (x) = 0.37872 0.05926
# Poissons Ratio (y) = 0.38347 0.11715
# Poissons Ratio (z) = 0.14346 0.28012
#
# Static dielectric constant tensor:
#      x y z
#    x 2.024740 -0.020140 0.041180 
#    y -0.020140 2.020220 -0.018070 
#    z 0.041180 -0.018070 2.030960 
# 
# From -- ./inp_files/253972.got.cif
#   From: 2010.05.17/outbox.cif.g08.bks.cpg/sg2_127_cif.got.tgz:253972.got - 2010.06.03 11:33:40.
