data_PCOD9021506
_publ_section_title
;
Structure prediction by ZEFSAII (Michael W. Deem and Ramdas Pophale) SiO2 
 PCOD9021506
Probable space group: P -1
;
_chemical_formula_sum "Si O2"
_cell_formula_units_Z 12
_cell_length_a 11.836658
_cell_length_b 10.799995
_cell_length_c 13.145210
_cell_angle_alpha 114.418692
_cell_angle_beta 157.539216
_cell_angle_gamma 77.859389
_cell_volume 508.386428
_symmetry_space_group_name_H-M "P -1"
_symmetry_group_IT_number 2
_symmetry_cell_setting 'triclinic'
loop_
_space_group_symop_operation_xyz
x,y,z
-x,-y,-z
loop_
_atom_site_type_symbol
_atom_site_label
_atom_site_fract_x
_atom_site_fract_y
_atom_site_fract_z
Si Si1 0.242019 0.927594 0.168145
Si Si2 0.893655 0.521873 0.145357
Si Si3 0.109877 0.376588 0.123407
Si Si4 0.837681 0.065487 0.236835
Si Si5 0.589406 0.209394 0.920629
Si Si6 0.688432 0.727182 0.935126
O O1 0.432903 0.919791 0.224115
O O2 0.500000 0.000000 0.500000
O O3 0.975571 0.746535 0.900478
O O4 0.000000 0.000000 0.000000
O O5 0.280008 0.623004 0.969285
O O6 0.880096 0.450186 0.995010
O O7 0.291306 0.628236 0.540028
O O8 0.738199 0.636643 0.041352
O O9 0.500000 0.500000 0.500000
O O10 0.072409 0.283622 0.957581
O O11 0.789199 0.906467 0.091345
O O12 0.208892 0.147285 0.624188
O O13 0.500000 0.000000 0.000000
O O14 0.829559 0.194912 0.199561
#
# Coordination Sequence:
#
# PCOD9021506 Si02
#       6
#     2   2   2   2   2   2
#     4  11  22  36  59  93 127 165 202 241 305 380
#     4  10  22  38  62  93 125 158 195 245 314 381
#     4   9  20  35  58  89 126 160 194 238 301 376
#     4  12  26  45  66  89 119 166 221 270 311 354
#     4  11  23  43  64  90 128 163 204 264 314 367
#     4  11  21  39  61  90 124 162 203 250 300 366
#
# _framework density 23.604092000000001
#
# number of rings (size 3 to 8) (size 9 to 14) (size 15 to 20)
#    0.000    1.333    0.000    6.000    0.000   10.667 
#    0.000    5.000    0.000    0.000    0.000    0.000 
#    0.000    0.000    0.000    0.000    0.000    0.000 
#
# Total GULP energy -66964.865059 kJ/mol
# GULP energy per Si atom -5580.405422 kJ/mol
# Density = 2.355037 g / cm^3
# Si number density = 23.604092 Si / 1000 Ang^3
#
#
#
# Elastic Constant Matrix: (Units=GPa)
#
#
# Indices 1 2 3 4 5 6 
#
# 1 38.3110 25.7424 -1.0636 -3.2734 15.1794 3.4599
# 2 25.7424 104.8630 37.1147 -24.9333 3.0458 16.0144
# 3 -1.0636 37.1147 96.9452 -11.8150 10.0535 7.6545
# 4 -3.2734 -24.9333 -11.8150 38.7274 10.7473 -3.2083
# 5 15.1794 3.0458 10.0535 10.7473 32.1892 -5.1720
# 6 3.4599 16.0144 7.6545 -3.2083 -5.1720 20.2210
#
#
#
# Elastic Compliance Matrix: (Units=1/GPa)
#
#
# Indices 1 2 3 4 5 6 
#
# 1 0.045354 -0.010681 0.008777 0.006313 -0.026579 -0.008420
# 2 -0.010681 0.016965 -0.005199 0.007405 0.001275 -0.008139
# 3 0.008777 -0.005199 0.014368 0.004245 -0.010322 -0.004789
# 4 0.006313 0.007405 0.004245 0.036945 -0.018533 -0.007430
# 5 -0.026579 0.001275 -0.010322 -0.018533 0.055912 0.018805
# 6 -0.008420 -0.008139 -0.004789 -0.007430 0.018805 0.062784
#
#
# Mechanical properties :
#
#
# Convention : Reuss Voigt Hill
#
# Bulk Modulus (GPa) = 16.00515 40.41179 28.20847
# Shear Modulus (GPa) = 18.70125 30.11592 24.40859
#
# Velocity S-wave (km/s) = 2.81782 3.57582 3.21920
# Velocity P-wave (km/s) = 4.16919 5.84863 5.07881
#
# Compressibility (1/GPa) = 0.06247990
#
# Stress axis : x y z
#
# Youngs Moduli (GPa) = 22.04891 58.94380 69.59975
#
# Poissons Ratio (x) = 0.62961 -0.61090
# Poissons Ratio (y) = 0.23551 0.36187
# Poissons Ratio (z) = -0.19353 0.30647
#
# Static dielectric constant tensor:
#      x y z
#    x 1.945800 -0.060760 0.026920 
#    y -0.060760 2.067250 -0.047170 
#    z 0.026920 -0.047170 1.844430 
# 
# From -- ./inp_files/98664.got.cif
#   From: 2010.05.17/outbox.cif.g08.bks.cpg/sg2_50_cif.got.tgz:98664.got - 2010.06.03 11:33:40.
