data_PCOD9021458
_publ_section_title
;
Structure prediction by ZEFSAII (Michael W. Deem and Ramdas Pophale) SiO2 
 PCOD9021458
Probable space group: P -1
;
_chemical_formula_sum "Si O2"
_cell_formula_units_Z 14
_cell_length_a 10.670600
_cell_length_b 17.912796
_cell_length_c 8.255682
_cell_angle_alpha 45.384408
_cell_angle_beta 139.400488
_cell_angle_gamma 140.669795
_cell_volume 625.012613
_symmetry_space_group_name_H-M "P -1"
_symmetry_group_IT_number 2
_symmetry_cell_setting 'triclinic'
loop_
_space_group_symop_operation_xyz
x,y,z
-x,-y,-z
loop_
_atom_site_type_symbol
_atom_site_label
_atom_site_fract_x
_atom_site_fract_y
_atom_site_fract_z
Si Si1 0.664174 0.100981 0.631606
Si Si2 0.036063 0.639906 0.486338
Si Si3 0.273305 0.596936 0.281868
Si Si4 0.763262 0.490132 0.953131
Si Si5 0.244562 0.961550 0.853369
Si Si6 0.866057 0.699930 0.920690
Si Si7 0.413282 0.193037 0.481086
O O1 0.863281 0.223249 0.556420
O O2 0.533761 0.154417 0.526021
O O3 0.500000 0.000000 0.500000
O O4 0.756980 0.045591 0.941241
O O5 0.812284 0.530955 0.513335
O O6 0.214524 0.597010 0.761046
O O7 0.984395 0.651928 0.231578
O O8 0.364134 0.588356 0.208885
O O9 0.419908 0.713458 0.360339
O O10 0.029691 0.583095 0.026323
O O11 0.704191 0.585205 0.824125
O O12 0.059696 0.822438 0.836112
O O13 0.234920 0.068889 0.589330
O O14 0.500000 0.000000 0.000000
O O15 0.718958 0.742683 0.809639
#
# Coordination Sequence:
#
# PCOD9021458 Si02
#       7
#     2   2   2   2   2   2   2
#     4  10  22  38  62  83 107 154 201 237 281 344
#     4   9  20  38  57  85 115 149 196 240 273 347
#     4   9  20  36  59  81 115 150 199 226 282 340
#     4   9  19  36  60  83 112 154 195 232 271 350
#     4   9  20  38  60  80 113 153 197 228 276 353
#     4  11  21  36  59  87 121 149 183 245 295 328
#     4  11  23  37  55  89 119 149 188 240 300 338
#
# _framework density 22.399546000000001
#
# number of rings (size 3 to 8) (size 9 to 14) (size 15 to 20)
#    0.857    1.429    0.000    3.429    4.000    3.429 
#    0.000    4.286    0.000    0.000    0.000    0.000 
#    0.000    0.000    0.000    0.000    0.000    0.000 
#
# Total GULP energy -77999.757684 kJ/mol
# GULP energy per Si atom -5571.411263 kJ/mol
# Density = 2.234856 g / cm^3
# Si number density = 22.399546 Si / 1000 Ang^3
#
#
#
# Elastic Constant Matrix: (Units=GPa)
#
#
# Indices 1 2 3 4 5 6 
#
# 1 53.5363 37.7965 30.8818 -5.1115 2.3673 -12.2901
# 2 37.7965 145.7997 32.0647 0.0479 -22.5581 -21.2081
# 3 30.8818 32.0647 72.2046 -21.0157 -15.5343 -11.2606
# 4 -5.1115 0.0479 -21.0157 33.8225 7.6442 -4.4572
# 5 2.3673 -22.5581 -15.5343 7.6442 16.9661 0.3461
# 6 -12.2901 -21.2081 -11.2606 -4.4572 0.3461 39.3148
#
#
#
# Elastic Compliance Matrix: (Units=1/GPa)
#
#
# Indices 1 2 3 4 5 6 
#
# 1 0.042154 -0.013026 -0.020348 0.003734 -0.043537 0.001129
# 2 -0.013026 0.013940 0.004262 -0.004777 0.026326 0.003895
# 3 -0.020348 0.004262 0.031473 0.009829 0.032777 0.005778
# 4 0.003734 -0.004777 0.009829 0.040755 -0.016362 0.006170
# 5 -0.043537 0.026326 0.032777 -0.016362 0.137261 0.006916
# 6 0.001129 0.003895 0.005778 0.006170 0.006916 0.030184
#
#
# Mechanical properties :
#
#
# Convention : Reuss Voigt Hill
#
# Bulk Modulus (GPa) = 34.08063 52.55853 43.31958
# Shear Modulus (GPa) = 13.74490 29.40718 21.57604
#
# Velocity S-wave (km/s) = 2.47983 3.62725 3.10697
# Velocity P-wave (km/s) = 4.84224 6.40763 5.67913
#
# Compressibility (1/GPa) = 0.02934218
#
# Stress axis : x y z
#
# Youngs Moduli (GPa) = 23.72279 71.73827 31.77289
#
# Poissons Ratio (x) = 0.93444 0.64652
# Poissons Ratio (y) = 0.30901 -0.13541
# Poissons Ratio (z) = 0.48272 -0.30573
#
# Static dielectric constant tensor:
#      x y z
#    x 1.893690 0.013790 0.031280 
#    y 0.013790 1.848110 0.014380 
#    z 0.031280 0.014380 1.900460 
# 
# From -- ./inp_files/277379.got.cif
#   From: 2010.05.17/outbox.cif.g08.bks.cpg/sg2_139_cif.got.tgz:277379.got - 2010.06.03 11:33:40.
