data_PCOD9021726
_publ_section_title
;
Structure prediction by ZEFSAII (Michael W. Deem and Ramdas Pophale) SiO2 
 PCOD9021726
Probable space group: P -1
;
_chemical_formula_sum "Si O2"
_cell_formula_units_Z 14
_cell_length_a 11.557088
_cell_length_b 8.907699
_cell_length_c 8.969538
_cell_angle_alpha 122.028385
_cell_angle_beta 120.632794
_cell_angle_gamma 57.058104
_cell_volume 624.431930
_symmetry_space_group_name_H-M "P -1"
_symmetry_group_IT_number 2
_symmetry_cell_setting 'triclinic'
loop_
_space_group_symop_operation_xyz
x,y,z
-x,-y,-z
loop_
_atom_site_type_symbol
_atom_site_label
_atom_site_fract_x
_atom_site_fract_y
_atom_site_fract_z
Si Si1 0.413641 0.726641 0.555394
Si Si2 0.949595 0.556140 0.826280
Si Si3 0.463646 0.257983 0.965432
Si Si4 0.339262 0.149930 0.085173
Si Si5 0.894664 0.202649 0.104363
Si Si6 0.893476 0.197342 0.459781
Si Si7 0.586158 0.312770 0.800093
O O1 0.500000 0.500000 0.500000
O O2 0.522996 0.817942 0.737014
O O3 0.265643 0.775566 0.572003
O O4 0.383270 0.778499 0.389256
O O5 0.797914 0.735285 0.846286
O O6 0.927581 0.377513 0.639555
O O7 0.000000 0.500000 0.000000
O O8 0.052282 0.634768 0.840779
O O9 0.466050 0.267411 0.793314
O O10 0.607951 0.076337 0.003409
O O11 0.333249 0.229369 0.954505
O O12 0.468062 0.457966 0.126888
O O13 0.099253 0.805985 0.716810
O O14 0.734062 0.250523 0.958580
O O15 0.000000 0.000000 0.000000
O O16 0.000000 0.000000 0.500000
#
# Coordination Sequence:
#
# PCOD9021726 Si02
#       7
#     2   2   2   2   2   2   2
#     4  12  23  44  70  98 141 179 227 289 347 414
#     4  12  25  45  68 102 146 187 235 292 351 422
#     4  10  22  38  64  97 130 175 227 280 340 414
#     4  11  23  42  66  97 137 181 231 281 349 410
#     4  12  26  46  72 101 141 184 240 292 351 425
#     4  12  27  47  74 104 139 191 236 291 359 419
#     4  11  23  42  67  99 134 177 231 287 348 406
#
# _framework density 22.420380000000002
#
# number of rings (size 3 to 8) (size 9 to 14) (size 15 to 20)
#    0.000    0.571    2.857    5.571    2.000    5.143 
#    0.000    1.429    0.000    0.000    0.000    0.000 
#    0.000    0.000    0.000    0.000    0.000    0.000 
#
# Total GULP energy -78344.810876 kJ/mol
# GULP energy per Si atom -5596.057920 kJ/mol
# Density = 2.236935 g / cm^3
# Si number density = 22.420380 Si / 1000 Ang^3
#
#
#
# Elastic Constant Matrix: (Units=GPa)
#
#
# Indices 1 2 3 4 5 6 
#
# 1 158.7156 40.7995 53.9848 -18.5610 -19.8267 16.3500
# 2 40.7995 117.3011 38.9722 -1.8249 -8.0230 -6.2697
# 3 53.9848 38.9722 127.7835 -19.3373 -20.8807 0.6396
# 4 -18.5610 -1.8249 -19.3373 31.3897 5.3087 -9.0269
# 5 -19.8267 -8.0230 -20.8807 5.3087 45.9567 -3.6635
# 6 16.3500 -6.2697 0.6396 -9.0269 -3.6635 52.3285
#
#
#
# Elastic Compliance Matrix: (Units=1/GPa)
#
#
# Indices 1 2 3 4 5 6 
#
# 1 0.008344 -0.002135 -0.002196 0.002503 0.001758 -0.002281
# 2 -0.002135 0.010146 -0.002451 -0.001728 0.000065 0.001619
# 3 -0.002196 -0.002451 0.010756 0.005059 0.003034 0.001346
# 4 0.002503 -0.001728 0.005059 0.038072 -0.000886 0.005454
# 5 0.001758 0.000065 0.003034 -0.000886 0.024087 0.000955
# 6 -0.002281 0.001619 0.001346 0.005454 0.000955 0.021008
#
#
# Mechanical properties :
#
#
# Convention : Reuss Voigt Hill
#
# Bulk Modulus (GPa) = 63.77462 74.59034 69.18248
# Shear Modulus (GPa) = 38.10815 43.93792 41.02304
#
# Velocity S-wave (km/s) = 4.12723 4.43169 4.28216
# Velocity P-wave (km/s) = 7.15672 7.71542 7.44132
#
# Compressibility (1/GPa) = 0.01568022
#
# Stress axis : x y z
#
# Youngs Moduli (GPa) = 119.84889 98.55822 92.97210
#
# Poissons Ratio (x) = 0.21044 0.20420
# Poissons Ratio (y) = 0.25590 0.22791
# Poissons Ratio (z) = 0.26323 0.24161
#
# Static dielectric constant tensor:
#      x y z
#    x 1.851220 0.030840 -0.019270 
#    y 0.030840 1.865580 -0.015350 
#    z -0.019270 -0.015350 1.774660 
# 
# From -- ./inp_files/420114.got.cif
#   From: 2010.05.17/outbox.cif.g08.bks.cpg/sg2_211_cif.got.tgz:420114.got - 2010.06.03 11:33:40.
