data_PCOD9021490
_publ_section_title
;
Structure prediction by ZEFSAII (Michael W. Deem and Ramdas Pophale) SiO2 
 PCOD9021490
Probable space group: P -1
;
_chemical_formula_sum "Si O2"
_cell_formula_units_Z 16
_cell_length_a 5.084323
_cell_length_b 14.403566
_cell_length_c 18.400862
_cell_angle_alpha 143.258374
_cell_angle_beta 84.716457
_cell_angle_gamma 79.227859
_cell_volume 721.727524
_symmetry_space_group_name_H-M "P -1"
_symmetry_group_IT_number 2
_symmetry_cell_setting 'triclinic'
loop_
_space_group_symop_operation_xyz
x,y,z
-x,-y,-z
loop_
_atom_site_type_symbol
_atom_site_label
_atom_site_fract_x
_atom_site_fract_y
_atom_site_fract_z
Si Si1 0.105021 0.298188 0.880237
Si Si2 0.411857 0.583864 0.242706
Si Si3 0.443946 0.354273 0.364304
Si Si4 0.908980 0.356972 0.556140
Si Si5 0.040434 0.160104 0.288748
Si Si6 0.880398 0.877248 0.368650
Si Si7 0.380402 0.769609 0.069627
Si Si8 0.600264 0.794209 0.449385
O O1 0.233116 0.207464 0.744305
O O2 0.343567 0.234220 0.896841
O O3 0.839710 0.254498 0.882592
O O4 0.000000 0.500000 0.000000
O O5 0.247896 0.607432 0.339203
O O6 0.669717 0.631631 0.292561
O O7 0.209705 0.730829 0.282986
O O8 0.516220 0.395864 0.089299
O O9 0.500000 0.500000 0.500000
O O10 0.258397 0.461096 0.366866
O O11 0.242795 0.263319 0.340894
O O12 0.782739 0.213504 0.268553
O O13 0.901454 0.220287 0.411112
O O14 0.250863 0.277695 0.522878
O O15 0.222725 0.955631 0.153624
O O16 0.747714 0.897130 0.465723
O O17 0.743661 0.072196 0.462946
#
# Coordination Sequence:
#
# PCOD9021490 Si02
#       8
#     2   2   2   2   2   2   2   2
#     4  12  24  42  67  91 131 181 230 262 322 382
#     4  11  24  39  62  90 135 173 213 266 329 391
#     4  10  22  43  73 101 131 162 217 279 333 391
#     4  10  23  39  67  96 122 170 213 271 332 391
#     4  11  24  44  70 102 130 168 219 275 330 392
#     4  10  22  39  60  93 124 177 222 273 318 381
#     4  12  27  43  66  97 138 174 222 272 326 389
#     4  10  22  38  62  91 133 164 224 269 327 385
#
# _framework density 22.169028999999998
#
# number of rings (size 3 to 8) (size 9 to 14) (size 15 to 20)
#    0.000    1.250    1.250    4.500   10.500    0.000 
#    0.000    1.250    0.000    0.000    0.000    0.000 
#    0.000    0.000    0.000    0.000    0.000    0.000 
#
# Total GULP energy -89150.245475 kJ/mol
# GULP energy per Si atom -5571.890342 kJ/mol
# Density = 2.211857 g / cm^3
# Si number density = 22.169029 Si / 1000 Ang^3
#
#
#
# Elastic Constant Matrix: (Units=GPa)
#
#
# Indices 1 2 3 4 5 6 
#
# 1 58.7567 40.6791 26.9011 0.3195 -6.4469 -2.8695
# 2 40.6791 160.4727 65.7098 24.1977 0.8587 -31.2022
# 3 26.9011 65.7098 131.3806 16.2952 4.9628 -14.7387
# 4 0.3195 24.1977 16.2952 34.1579 -7.7874 -8.7430
# 5 -6.4469 0.8587 4.9628 -7.7874 21.8409 -2.0369
# 6 -2.8695 -31.2022 -14.7387 -8.7430 -2.0369 48.1109
#
#
#
# Elastic Compliance Matrix: (Units=1/GPa)
#
#
# Indices 1 2 3 4 5 6 
#
# 1 0.023938 -0.006287 -0.003329 0.007792 0.010680 -0.001802
# 2 -0.006287 0.010718 -0.002715 -0.005831 -0.003316 0.004544
# 3 -0.003329 -0.002715 0.010349 -0.003958 -0.004611 0.000297
# 4 0.007792 -0.005831 -0.003958 0.040262 0.018115 0.003554
# 5 0.010680 -0.003316 -0.004611 0.018115 0.056834 0.002772
# 6 -0.001802 0.004544 0.000297 0.003554 0.002772 0.024479
#
#
# Mechanical properties :
#
#
# Convention : Reuss Voigt Hill
#
# Bulk Modulus (GPa) = 49.15718 68.57665 58.86691
# Shear Modulus (GPa) = 25.24974 35.30995 30.27985
#
# Velocity S-wave (km/s) = 3.37852 3.99527 3.69977
# Velocity P-wave (km/s) = 6.11891 7.23074 6.69794
#
# Compressibility (1/GPa) = 0.02034291
#
# Stress axis : x y z
#
# Youngs Moduli (GPa) = 41.77495 93.30385 96.62566
#
# Poissons Ratio (x) = 0.58664 0.32164
# Poissons Ratio (y) = 0.26266 0.26231
# Poissons Ratio (z) = 0.13906 0.25329
#
# Static dielectric constant tensor:
#      x y z
#    x 2.000840 0.033270 -0.033630 
#    y 0.033270 1.837880 0.012730 
#    z -0.033630 0.012730 1.824920 
# 
# From -- ./inp_files/550115.got.cif
#   From: 2010.05.17/outbox.cif.g08.bks.cpg/sg2_276_cif.got.tgz:550115.got - 2010.06.03 11:33:40.
