data_PCOD9021469
_publ_section_title
;
Structure prediction by ZEFSAII (Michael W. Deem and Ramdas Pophale) SiO2 
 PCOD9021469
Probable space group: P -1
;
_chemical_formula_sum "Si O2"
_cell_formula_units_Z 16
_cell_length_a 20.218504
_cell_length_b 8.229370
_cell_length_c 10.883610
_cell_angle_alpha 39.047555
_cell_angle_beta 134.216169
_cell_angle_gamma 135.346045
_cell_volume 757.616675
_symmetry_space_group_name_H-M "P -1"
_symmetry_group_IT_number 2
_symmetry_cell_setting 'triclinic'
loop_
_space_group_symop_operation_xyz
x,y,z
-x,-y,-z
loop_
_atom_site_type_symbol
_atom_site_label
_atom_site_fract_x
_atom_site_fract_y
_atom_site_fract_z
Si Si1 0.428485 0.663086 0.330589
Si Si2 0.771849 0.957415 0.952104
Si Si3 0.906840 0.221826 0.769753
Si Si4 0.763655 0.500780 0.693452
Si Si5 0.872697 0.598863 0.026144
Si Si6 0.232933 0.448746 0.598370
Si Si7 0.556013 0.278460 0.192019
Si Si8 0.674684 0.416665 0.010921
O O1 0.500000 0.500000 0.500000
O O2 0.330707 0.458398 0.394811
O O3 0.390624 0.703955 0.122251
O O4 0.481717 0.959543 0.291308
O O5 0.781906 0.787341 0.182014
O O6 0.704624 0.745090 0.887303
O O7 0.878113 0.130874 0.927498
O O8 0.725113 0.177286 0.796813
O O9 0.830600 0.368243 0.550410
O O10 0.887903 0.926150 0.856528
O O11 0.022050 0.413298 0.795025
O O12 0.840132 0.521310 0.889529
O O13 0.799576 0.656854 0.520147
O O14 0.784466 0.427012 0.107444
O O15 0.351800 0.624229 0.650947
O O16 0.500000 0.500000 0.000000
O O17 0.613411 0.287850 0.129957
#
# Coordination Sequence:
#
# PCOD9021469 Si02
#       8
#     2   2   2   2   2   2   2   2
#     4  11  24  36  60  88 118 156 208 252 302 355
#     4   9  19  39  60  84 122 159 192 247 300 354
#     4   9  19  39  66  84 121 155 202 244 305 358
#     4  10  22  39  58  86 124 153 198 251 303 357
#     4   9  19  39  62  89 119 159 186 256 311 347
#     4  10  22  38  62  88 119 157 208 239 296 371
#     4  11  24  41  61  87 121 166 204 251 306 357
#     4   9  20  40  59  82 120 155 198 247 299 356
#
# _framework density 21.118856999999998
#
# number of rings (size 3 to 8) (size 9 to 14) (size 15 to 20)
#    0.000    2.250    0.000    1.875    8.750    2.500 
#    4.500   13.750    0.000    0.000    0.000    0.000 
#    0.000    0.000    0.000    0.000    0.000    0.000 
#
# Total GULP energy -89131.825898 kJ/mol
# GULP energy per Si atom -5570.739119 kJ/mol
# Density = 2.107079 g / cm^3
# Si number density = 21.118857 Si / 1000 Ang^3
#
#
#
# Elastic Constant Matrix: (Units=GPa)
#
#
# Indices 1 2 3 4 5 6 
#
# 1 54.8211 16.4123 17.7042 5.5042 -0.6169 -0.3867
# 2 16.4123 42.7779 11.6140 8.9340 8.8636 6.6745
# 3 17.7042 11.6140 71.5950 -0.9190 10.0577 1.9413
# 4 5.5042 8.9340 -0.9190 21.8133 3.8103 -0.0231
# 5 -0.6169 8.8636 10.0577 3.8103 39.5449 3.2513
# 6 -0.3867 6.6745 1.9413 -0.0231 3.2513 29.9786
#
#
#
# Elastic Compliance Matrix: (Units=1/GPa)
#
#
# Indices 1 2 3 4 5 6 
#
# 1 0.022498 -0.007614 -0.004912 -0.003370 0.003473 0.001924
# 2 -0.007614 0.031070 -0.002415 -0.010042 -0.004981 -0.006327
# 3 -0.004912 -0.002415 0.016184 0.003607 -0.003988 -0.000138
# 4 -0.003370 -0.010042 0.003607 0.051642 -0.003894 0.002421
# 5 0.003473 -0.004981 -0.003988 -0.003894 0.027981 -0.001626
# 6 0.001924 -0.006327 -0.000138 0.002421 -0.001626 0.034978
#
#
# Mechanical properties :
#
#
# Convention : Reuss Voigt Hill
#
# Bulk Modulus (GPa) = 25.08120 28.96168 27.02144
# Shear Modulus (GPa) = 21.97571 26.49825 24.23698
#
# Velocity S-wave (km/s) = 3.22929 3.54605 3.39137
# Velocity P-wave (km/s) = 5.08000 5.52353 5.30640
#
# Compressibility (1/GPa) = 0.03987051
#
# Stress axis : x y z
#
# Youngs Moduli (GPa) = 44.44871 32.18545 61.78959
#
# Poissons Ratio (x) = 0.24507 0.30348
# Poissons Ratio (y) = 0.33844 0.14922
# Poissons Ratio (z) = 0.21831 0.07772
#
# Static dielectric constant tensor:
#      x y z
#    x 1.848860 0.016590 -0.014500 
#    y 0.016590 1.787970 0.001400 
#    z -0.014500 0.001400 1.752800 
# 
# From -- ./inp_files/469788.got.cif
#   From: 2010.05.17/outbox.cif.g08.bks.cpg/sg2_235_cif.got.tgz:469788.got - 2010.06.03 11:33:40.
