data_PCOD9021051
_publ_section_title
;
Structure prediction by ZEFSAII (Michael W. Deem and Ramdas Pophale) SiO2 
 PCOD9021051
Probable space group: P -1
;
_chemical_formula_sum "Si O2"
_cell_formula_units_Z 16
_cell_length_a 12.454614
_cell_length_b 8.663720
_cell_length_c 8.273933
_cell_angle_alpha 51.910360
_cell_angle_beta 76.299609
_cell_angle_gamma 87.581503
_cell_volume 676.337897
_symmetry_space_group_name_H-M "P -1"
_symmetry_group_IT_number 2
_symmetry_cell_setting 'triclinic'
loop_
_space_group_symop_operation_xyz
x,y,z
-x,-y,-z
loop_
_atom_site_type_symbol
_atom_site_label
_atom_site_fract_x
_atom_site_fract_y
_atom_site_fract_z
Si Si1 0.328222 0.623030 0.140069
Si Si2 0.881893 0.142806 0.928357
Si Si3 0.174252 0.392975 0.136717
Si Si4 0.889758 0.732169 0.099645
Si Si5 0.936220 0.305353 0.453110
Si Si6 0.559556 0.305845 0.599940
Si Si7 0.585057 0.031805 0.304212
Si Si8 0.755018 0.210302 0.347956
O O1 0.220800 0.737856 0.108050
O O2 0.277959 0.414273 0.211669
O O3 0.379101 0.666077 0.268901
O O4 0.413549 0.747090 0.907657
O O5 0.938456 0.216950 0.687907
O O6 0.977051 0.196661 0.993059
O O7 0.844166 0.908494 0.096585
O O8 0.058689 0.350444 0.302767
O O9 0.162153 0.261653 0.064296
O O10 0.192593 0.604094 0.898758
O O11 0.883243 0.515039 0.324409
O O12 0.852033 0.161556 0.463274
O O13 0.500000 0.500000 0.500000
O O14 0.654998 0.279622 0.448811
O O15 0.460832 0.124589 0.715784
O O16 0.702602 0.042002 0.350889
O O17 0.500000 0.000000 0.500000
#
# Coordination Sequence:
#
# PCOD9021051 Si02
#       8
#     2   2   2   2   2   2   2   2
#     4  11  22  42  65  94 121 171 214 258 328 382
#     4  11  23  37  63  92 129 170 214 254 306 380
#     4  10  22  37  65  93 131 172 203 253 317 385
#     4  10  22  39  57  93 131 172 207 251 302 376
#     4  11  20  39  66  92 136 173 204 257 315 380
#     4  11  23  42  65  93 122 160 217 278 322 368
#     4   9  21  41  63  86 120 163 209 267 321 370
#     4   9  19  39  63  88 123 168 211 247 328 378
#
# _framework density 23.656815000000002
#
# number of rings (size 3 to 8) (size 9 to 14) (size 15 to 20)
#    0.000    1.750    2.500    2.250    1.750    2.500 
#    2.250    5.625    0.000    0.000    0.000    0.000 
#    0.000    0.000    0.000    0.000    0.000    0.000 
#
# Total GULP energy -89189.565855 kJ/mol
# GULP energy per Si atom -5574.347866 kJ/mol
# Density = 2.360297 g / cm^3
# Si number density = 23.656815 Si / 1000 Ang^3
#
#
#
# Elastic Constant Matrix: (Units=GPa)
#
#
# Indices 1 2 3 4 5 6 
#
# 1 101.8781 58.7686 30.5992 6.3980 -5.9080 51.0465
# 2 58.7686 98.4444 21.8454 11.2584 15.2902 52.0620
# 3 30.5992 21.8454 79.4745 18.0686 -5.1207 -0.1443
# 4 6.3980 11.2584 18.0686 33.2368 0.2988 4.2936
# 5 -5.9080 15.2902 -5.1207 0.2988 31.1885 9.0235
# 6 51.0465 52.0620 -0.1443 4.2936 9.0235 52.3765
#
#
#
# Elastic Compliance Matrix: (Units=1/GPa)
#
#
# Indices 1 2 3 4 5 6 
#
# 1 0.029627 -0.002435 -0.011009 0.004756 0.013396 -0.029182
# 2 -0.002435 0.026202 -0.006356 -0.002017 -0.007920 -0.022159
# 3 -0.011009 -0.006356 0.020666 -0.009280 -0.000690 0.017984
# 4 0.004756 -0.002017 -0.009280 0.035643 0.001724 -0.005874
# 5 0.013396 -0.007920 -0.000690 0.001724 0.041988 -0.012560
# 6 -0.029182 -0.022159 0.017984 -0.005874 -0.012560 0.072254
#
#
# Mechanical properties :
#
#
# Convention : Reuss Voigt Hill
#
# Bulk Modulus (GPa) = 27.10451 55.80258 41.45355
# Shear Modulus (GPa) = 17.96766 34.59928 26.28347
#
# Velocity S-wave (km/s) = 2.75892 3.82848 3.33683
# Velocity P-wave (km/s) = 4.65092 6.57135 5.69270
#
# Compressibility (1/GPa) = 0.03689422
#
# Stress axis : x y z
#
# Youngs Moduli (GPa) = 33.75323 38.16561 48.38807
#
# Poissons Ratio (x) = 0.09294 0.53268
# Poissons Ratio (y) = 0.08220 0.30757
# Poissons Ratio (z) = 0.37158 0.24259
#
# Static dielectric constant tensor:
#      x y z
#    x 1.986210 0.100300 0.026880 
#    y 0.100300 2.038290 0.020460 
#    z 0.026880 0.020460 1.956940 
# 
# From -- ./inp_files/242029.got.cif
#   From: 2010.05.17/outbox.cif.g08.bks.cpg/sg2_122_cif.got.tgz:242029.got - 2010.06.03 11:33:40.
