data_PCOD9021365
_publ_section_title
;
Structure prediction by ZEFSAII (Michael W. Deem and Ramdas Pophale) SiO2 
 PCOD9021365
Probable space group: P -1
;
_chemical_formula_sum "Si O2"
_cell_formula_units_Z 15
_cell_length_a 13.125482
_cell_length_b 11.098416
_cell_length_c 4.997613
_cell_angle_alpha 73.655139
_cell_angle_beta 60.387925
_cell_angle_gamma 69.040477
_cell_volume 586.116494
_symmetry_space_group_name_H-M "P -1"
_symmetry_group_IT_number 2
_symmetry_cell_setting 'triclinic'
loop_
_space_group_symop_operation_xyz
x,y,z
-x,-y,-z
loop_
_atom_site_type_symbol
_atom_site_label
_atom_site_fract_x
_atom_site_fract_y
_atom_site_fract_z
Si Si1 0.028683 0.111675 0.587234
Si Si2 0.918856 0.408771 0.552782
Si Si3 0.500000 0.500000 0.000000
Si Si4 0.693193 0.569634 0.479147
Si Si5 0.305952 0.636390 0.780108
Si Si6 0.396326 0.901577 0.940684
Si Si7 0.807737 0.091475 0.205892
Si Si8 0.563858 0.829631 0.246380
O O1 0.997087 0.264057 0.447328
O O2 0.933741 0.119402 0.945183
O O3 0.000000 0.000000 0.500000
O O4 0.159224 0.043303 0.592771
O O5 0.832265 0.496134 0.386998
O O6 0.000000 0.500000 0.500000
O O7 0.814244 0.391202 0.910158
O O8 0.390711 0.420899 0.157731
O O9 0.589533 0.377349 0.127741
O O10 0.636684 0.462595 0.469734
O O11 0.665756 0.699647 0.267032
O O12 0.260511 0.780078 0.627291
O O13 0.267888 0.902496 0.972290
O O14 0.485035 0.871022 0.589340
O O15 0.381332 0.050217 0.962132
O O16 0.471750 0.820331 0.135943
#
# Coordination Sequence:
#
# PCOD9021365 Si02
#       8
#     2   2   1   2   2   2   2   2
#     4  10  22  42  64  92 126 170 233 282 334 405
#     4  10  24  43  63  96 134 173 225 285 346 413
#     4  10  22  38  60  98 130 170 216 274 338 412
#     4  11  23  40  66  96 133 178 221 282 347 416
#     4  10  22  40  63  92 132 171 222 278 340 412
#     4  10  23  44  65 101 133 183 219 283 334 420
#     4  10  22  39  65  90 126 170 228 277 338 393
#     4  10  24  42  67  97 143 169 230 271 347 415
#
# _framework density 25.592181
#
# number of rings (size 3 to 8) (size 9 to 14) (size 15 to 20)
#    0.000    1.867    0.000    2.000    9.333    0.533 
#    4.800    0.000    0.000    0.000    0.000    0.000 
#    0.000    0.000    0.000    0.000    0.000    0.000 
#
# Total GULP energy -83523.445073 kJ/mol
# GULP energy per Si atom -5568.229672 kJ/mol
# Density = 2.553393 g / cm^3
# Si number density = 25.592181 Si / 1000 Ang^3
#
#
#
# Elastic Constant Matrix: (Units=GPa)
#
#
# Indices 1 2 3 4 5 6 
#
# 1 135.8665 89.0102 19.3380 -9.8282 15.4489 -34.7656
# 2 89.0102 233.8412 18.1960 -13.6663 16.2061 -47.9543
# 3 19.3380 18.1960 48.5558 3.2732 9.0222 -11.3697
# 4 -9.8282 -13.6663 3.2732 18.3760 -3.3169 17.3134
# 5 15.4489 16.2061 9.0222 -3.3169 41.0107 -9.5881
# 6 -34.7656 -47.9543 -11.3697 17.3134 -9.5881 47.2140
#
#
#
# Elastic Compliance Matrix: (Units=1/GPa)
#
#
# Indices 1 2 3 4 5 6 
#
# 1 0.010851 -0.003018 -0.001861 -0.000475 -0.001508 0.004345
# 2 -0.003018 0.006317 0.000088 -0.001373 -0.000406 0.004636
# 3 -0.001861 0.000088 0.025290 -0.015162 -0.003884 0.009581
# 4 -0.000475 -0.001373 -0.015162 0.093049 0.002461 -0.039017
# 5 -0.001508 -0.000406 -0.003884 0.002461 0.026645 0.002050
# 6 0.004345 0.004636 0.009581 -0.039017 0.002050 0.046119
#
#
# Mechanical properties :
#
#
# Convention : Reuss Voigt Hill
#
# Bulk Modulus (GPa) = 30.41656 74.59464 52.50560
# Shear Modulus (GPa) = 21.85200 40.76812 31.31006
#
# Velocity S-wave (km/s) = 2.92525 3.99556 3.50154
# Velocity P-wave (km/s) = 4.82911 7.10610 6.07524
#
# Compressibility (1/GPa) = 0.03287683
#
# Stress axis : x y z
#
# Youngs Moduli (GPa) = 92.15789 158.30626 39.54104
#
# Poissons Ratio (x) = 0.47774 0.07359
# Poissons Ratio (y) = 0.27811 -0.00349
# Poissons Ratio (z) = 0.17151 -0.01397
#
# Static dielectric constant tensor:
#      x y z
#    x 2.025500 -0.007740 0.025260 
#    y -0.007740 2.055830 -0.375550 
#    z 0.025260 -0.375550 0.884270 
# 
# From -- ./inp_files/69715.got.cif
#   From: 2010.05.17/outbox.cif.g08.bks.cpg/sg2_35_cif.got.tgz:69715.got - 2010.06.03 11:33:40.
