data_PCOD9021060
_publ_section_title
;
Structure prediction by ZEFSAII (Michael W. Deem and Ramdas Pophale) SiO2 
 PCOD9021060
Probable space group: P -1
;
_chemical_formula_sum "Si O2"
_cell_formula_units_Z 14
_cell_length_a 11.762675
_cell_length_b 10.797656
_cell_length_c 12.662552
_cell_angle_alpha 113.048092
_cell_angle_beta 123.575268
_cell_angle_gamma 24.798482
_cell_volume 533.153670
_symmetry_space_group_name_H-M "P -1"
_symmetry_group_IT_number 2
_symmetry_cell_setting 'triclinic'
loop_
_space_group_symop_operation_xyz
x,y,z
-x,-y,-z
loop_
_atom_site_type_symbol
_atom_site_label
_atom_site_fract_x
_atom_site_fract_y
_atom_site_fract_z
Si Si1 0.505350 0.826823 0.344630
Si Si2 0.830099 0.031993 0.486433
Si Si3 0.015996 0.479139 0.351599
Si Si4 0.899483 0.747470 0.023352
Si Si5 0.694193 0.395310 0.218217
Si Si6 0.884872 0.386722 0.686370
Si Si7 0.358547 0.430760 0.982787
O O1 0.790950 0.592567 0.496217
O O2 0.456975 0.714496 0.257010
O O3 0.714622 0.437549 0.124223
O O4 0.667429 0.761852 0.308254
O O5 0.013661 0.860341 0.635056
O O6 0.865592 0.887762 0.364157
O O7 0.459313 0.366862 0.432121
O O8 0.000000 0.000000 0.500000
O O9 0.081714 0.484004 0.274167
O O10 0.211855 0.167324 0.352778
O O11 0.050376 0.687970 0.182852
O O12 0.000000 0.500000 0.000000
O O13 0.045037 0.681486 0.970745
O O14 0.544746 0.122629 0.971695
O O15 0.561813 0.363055 0.126575
#
# Coordination Sequence:
#
# PCOD9021060 Si02
#       7
#     2   2   2   2   2   2   2
#     4  10  22  37  65  97 146 175 226 287 363 419
#     4  12  26  45  74 109 146 186 236 306 379 436
#     4  10  22  39  61 104 137 181 228 289 350 439
#     4  12  28  52  77 104 149 203 248 302 365 435
#     4  11  26  48  78 109 150 194 244 308 375 430
#     4  12  25  44  71 106 142 186 245 296 364 435
#     4  11  29  50  74 109 146 197 258 299 353 457
#
# _framework density 26.258844
#
# number of rings (size 3 to 8) (size 9 to 14) (size 15 to 20)
#    0.000    0.857    1.429    4.286    8.000    5.714 
#    0.000    0.000    0.000    0.000    0.000    0.000 
#    0.000    0.000    0.000    0.000    0.000    0.000 
#
# Total GULP energy -78322.790236 kJ/mol
# GULP energy per Si atom -5594.485017 kJ/mol
# Density = 2.619908 g / cm^3
# Si number density = 26.258844 Si / 1000 Ang^3
#
#
#
# Elastic Constant Matrix: (Units=GPa)
#
#
# Indices 1 2 3 4 5 6 
#
# 1 106.7196 25.6677 22.1964 3.4313 -6.5894 3.4125
# 2 25.6677 105.7925 18.9716 12.8264 3.0780 -13.0457
# 3 22.1964 18.9716 145.4119 14.1480 9.9648 3.7719
# 4 3.4313 12.8264 14.1480 33.8448 1.1792 5.2324
# 5 -6.5894 3.0780 9.9648 1.1792 49.2962 7.0328
# 6 3.4125 -13.0457 3.7719 5.2324 7.0328 44.2739
#
#
#
# Elastic Compliance Matrix: (Units=1/GPa)
#
#
# Indices 1 2 3 4 5 6 
#
# 1 0.010475 -0.002675 -0.001420 0.000766 0.002107 -0.001900
# 2 -0.002675 0.011327 -0.000658 -0.004368 -0.001447 0.004346
# 3 -0.001420 -0.000658 0.007554 -0.002685 -0.001589 -0.000158
# 4 0.000766 -0.004368 -0.002685 0.033014 0.000864 -0.005156
# 5 0.002107 -0.001447 -0.001589 0.000864 0.021525 -0.003975
# 6 -0.001900 0.004346 -0.000158 -0.005156 -0.003975 0.025268
#
#
# Mechanical properties :
#
#
# Convention : Reuss Voigt Hill
#
# Bulk Modulus (GPa) = 50.37708 54.62171 52.49939
# Shear Modulus (GPa) = 39.90880 44.88885 42.39883
#
# Velocity S-wave (km/s) = 3.90272 4.13907 4.02263
# Velocity P-wave (km/s) = 6.28767 6.60976 6.45072
#
# Compressibility (1/GPa) = 0.01985030
#
# Stress axis : x y z
#
# Youngs Moduli (GPa) = 95.46260 88.28311 132.38494
#
# Poissons Ratio (x) = 0.23619 0.18793
# Poissons Ratio (y) = 0.25540 0.08711
# Poissons Ratio (z) = 0.13551 0.05809
#
# Static dielectric constant tensor:
#      x y z
#    x 2.104180 0.131100 0.009420 
#    y 0.131100 2.068880 -0.005520 
#    z 0.009420 -0.005520 2.118280 
# 
# From -- ./inp_files/423682.got.cif
#   From: 2010.05.17/outbox.cif.g08.bks.cpg/sg2_212_cif.got.tgz:423682.got - 2010.06.03 11:33:40.
