data_PCOD9021985
_publ_section_title
;
Structure prediction by ZEFSAII (Michael W. Deem and Ramdas Pophale) SiO2 
 PCOD9021985
Probable space group: P -1
;
_chemical_formula_sum "Si O2"
_cell_formula_units_Z 12
_cell_length_a 5.292175
_cell_length_b 16.405357
_cell_length_c 9.125889
_cell_angle_alpha 58.006649
_cell_angle_beta 94.450439
_cell_angle_gamma 80.799675
_cell_volume 650.735909
_symmetry_space_group_name_H-M "P -1"
_symmetry_group_IT_number 2
_symmetry_cell_setting 'triclinic'
loop_
_space_group_symop_operation_xyz
x,y,z
-x,-y,-z
loop_
_atom_site_type_symbol
_atom_site_label
_atom_site_fract_x
_atom_site_fract_y
_atom_site_fract_z
Si Si1 0.426616 0.616935 0.368721
Si Si2 0.824410 0.215730 0.630751
Si Si3 0.442402 0.106763 0.203027
Si Si4 0.281708 0.940714 0.019350
Si Si5 0.860704 0.722716 0.178993
Si Si6 0.777427 0.068217 0.525710
O O1 0.500000 0.500000 0.500000
O O2 0.348934 0.672252 0.470602
O O3 0.659319 0.655725 0.267299
O O4 0.154366 0.656560 0.229954
O O5 0.863180 0.151473 0.547373
O O6 0.089202 0.219707 0.724528
O O7 0.676388 0.158205 0.791199
O O8 0.690781 0.084227 0.126801
O O9 0.544943 0.121330 0.355448
O O10 0.329026 0.009153 0.304548
O O11 0.243903 0.197785 0.028791
O O12 0.500000 0.000000 0.000000
O O13 0.000000 0.000000 0.000000
O O14 0.000000 0.000000 0.500000
#
# Coordination Sequence:
#
# PCOD9021985 Si02
#       6
#     2   2   2   2   2   2
#     4  10  22  40  68  96 115 147 210 277 322 364
#     4  10  23  36  63  90 122 165 208 256 312 363
#     4  11  23  39  57  92 129 174 207 251 306 373
#     4  12  22  34  60  86 122 159 213 249 296 363
#     4  10  22  38  68  91 119 157 207 258 316 372
#     4  11  25  38  56  90 138 174 207 245 300 372
#
# _framework density 18.440662
#
# number of rings (size 3 to 8) (size 9 to 14) (size 15 to 20)
#    1.000    0.333    3.333    2.500    4.667    2.667 
#    0.000    0.000    0.000    2.000    0.000    0.000 
#    0.000    0.000    0.000    0.000    0.000    0.000 
#
# Total GULP energy -66881.872510 kJ/mol
# GULP energy per Si atom -5573.489376 kJ/mol
# Density = 1.839869 g / cm^3
# Si number density = 18.440662 Si / 1000 Ang^3
#
#
#
# Elastic Constant Matrix: (Units=GPa)
#
#
# Indices 1 2 3 4 5 6 
#
# 1 140.1907 46.7672 56.1156 -17.7160 2.5911 2.9818
# 2 46.7672 124.0930 63.3208 -19.1753 12.1117 -2.2229
# 3 56.1156 63.3208 99.2415 -8.9220 14.5604 5.4388
# 4 -17.7160 -19.1753 -8.9220 27.7418 -2.2045 -1.6835
# 5 2.5911 12.1117 14.5604 -2.2045 35.5045 2.7059
# 6 2.9818 -2.2229 5.4388 -1.6835 2.7059 27.5750
#
#
#
# Elastic Compliance Matrix: (Units=1/GPa)
#
#
# Indices 1 2 3 4 5 6 
#
# 1 0.009895 -0.000655 -0.005052 0.004386 0.001848 -0.000040
# 2 -0.000655 0.013332 -0.007545 0.006463 -0.001245 0.003150
# 3 -0.005052 -0.007545 0.018315 -0.003117 -0.004501 -0.003423
# 4 0.004386 0.006463 -0.003117 0.042596 0.001158 0.003148
# 5 0.001848 -0.001245 -0.004501 0.001158 0.030551 -0.002340
# 6 -0.000040 0.003150 -0.003423 0.003148 -0.002340 0.037620
#
#
# Mechanical properties :
#
#
# Convention : Reuss Voigt Hill
#
# Bulk Modulus (GPa) = 66.49809 77.32580 71.91194
# Shear Modulus (GPa) = 27.19988 31.31902 29.25945
#
# Velocity S-wave (km/s) = 3.84473 4.12560 3.98764
# Velocity P-wave (km/s) = 7.47316 8.04471 7.76420
#
# Compressibility (1/GPa) = 0.01503803
#
# Stress axis : x y z
#
# Youngs Moduli (GPa) = 101.06478 75.00856 54.59998
#
# Poissons Ratio (x) = 0.04910 0.27584
# Poissons Ratio (y) = 0.06615 0.41197
# Poissons Ratio (z) = 0.51057 0.56596
#
# Static dielectric constant tensor:
#      x y z
#    x 1.717550 -0.004050 0.030530 
#    y -0.004050 1.700790 0.018940 
#    z 0.030530 0.018940 1.640260 
# 
# From -- ./inp_files/132863.got.cif
#   From: 2010.05.17/outbox.cif.g08.bks.cpg/sg2_67_cif.got.tgz:132863.got - 2010.06.03 11:33:40.
