data_PCOD9021861
_publ_section_title
;
Structure prediction by ZEFSAII (Michael W. Deem and Ramdas Pophale) SiO2 
 PCOD9021861
Probable space group: P -1
;
_chemical_formula_sum "Si O2"
_cell_formula_units_Z 16
_cell_length_a 12.009083
_cell_length_b 8.792244
_cell_length_c 18.515140
_cell_angle_alpha 121.130765
_cell_angle_beta 27.495877
_cell_angle_gamma 114.845856
_cell_volume 768.933677
_symmetry_space_group_name_H-M "P -1"
_symmetry_group_IT_number 2
_symmetry_cell_setting 'triclinic'
loop_
_space_group_symop_operation_xyz
x,y,z
-x,-y,-z
loop_
_atom_site_type_symbol
_atom_site_label
_atom_site_fract_x
_atom_site_fract_y
_atom_site_fract_z
Si Si1 0.513948 0.166413 0.588012
Si Si2 0.466617 0.311590 0.506007
Si Si3 0.617331 0.739298 0.072670
Si Si4 0.744321 0.977884 0.180439
Si Si5 0.005299 0.213374 0.402380
Si Si6 0.946731 0.404457 0.783187
Si Si7 0.141670 0.541546 0.317215
Si Si8 0.391322 0.894534 0.101152
O O1 0.524458 0.317813 0.559309
O O2 0.753906 0.164697 0.498615
O O3 0.500000 0.000000 0.500000
O O4 0.281750 0.162675 0.773069
O O5 0.500000 0.500000 0.500000
O O6 0.621187 0.158431 0.332920
O O7 0.180541 0.301277 0.659353
O O8 0.405427 0.609297 0.170197
O O9 0.582039 0.835615 0.039599
O O10 0.593638 0.893689 0.183356
O O11 0.863556 0.607251 0.905862
O O12 0.000000 0.000000 0.000000
O O13 0.967393 0.332831 0.524984
O O14 0.127675 0.340427 0.304893
O O15 0.169464 0.036260 0.287927
O O16 0.981205 0.423610 0.681597
O O17 0.730746 0.282424 0.892733
O O18 0.500000 0.000000 0.000000
#
# Coordination Sequence:
#
# PCOD9021861 Si02
#       8
#     2   2   2   2   2   2   2   2
#     4  10  22  43  67  93 131 175 218 269 327 392
#     4  11  24  43  69  96 128 176 225 268 331 395
#     4  11  23  42  63  93 134 168 212 271 329 388
#     4  11  24  43  66  94 129 175 222 276 327 385
#     4  11  21  39  65  98 126 168 218 267 325 394
#     4  11  23  40  64  91 132 169 212 262 329 386
#     4  10  22  38  66  92 134 167 208 270 333 385
#     4  11  23  37  62  95 129 167 215 259 327 390
#
# _framework density 20.808035
#
# number of rings (size 3 to 8) (size 9 to 14) (size 15 to 20)
#    0.000    1.250    1.250    6.000    1.750    5.000 
#    0.000    2.500    0.000    0.000    0.000    0.000 
#    0.000    0.000    0.000    0.000    0.000    0.000 
#
# Total GULP energy -89223.098557 kJ/mol
# GULP energy per Si atom -5576.443660 kJ/mol
# Density = 2.076067 g / cm^3
# Si number density = 20.808035 Si / 1000 Ang^3
#
#
#
# Elastic Constant Matrix: (Units=GPa)
#
#
# Indices 1 2 3 4 5 6 
#
# 1 43.5595 11.1460 34.8219 -2.9224 13.4349 -2.8164
# 2 11.1460 106.6958 31.6081 -4.9778 11.3457 -15.1754
# 3 34.8219 31.6081 99.8728 2.0142 10.0038 -15.8694
# 4 -2.9224 -4.9778 2.0142 41.2121 -8.8618 1.6755
# 5 13.4349 11.3457 10.0038 -8.8618 28.8992 -3.2211
# 6 -2.8164 -15.1754 -15.8694 1.6755 -3.2211 32.3078
#
#
#
# Elastic Compliance Matrix: (Units=1/GPa)
#
#
# Indices 1 2 3 4 5 6 
#
# 1 0.036412 0.000701 -0.012215 0.000576 -0.013226 -0.003845
# 2 0.000701 0.011005 -0.002886 0.000726 -0.003038 0.003472
# 3 -0.012215 -0.002886 0.015994 -0.001945 0.001311 0.005667
# 4 0.000576 0.000726 -0.001945 0.026265 0.008049 -0.001124
# 5 -0.013226 -0.003038 0.001311 0.008049 0.044188 0.002052
# 6 -0.003845 0.003472 0.005667 -0.001124 0.002052 0.035295
#
#
# Mechanical properties :
#
#
# Convention : Reuss Voigt Hill
#
# Bulk Modulus (GPa) = 28.89278 45.03111 36.96195
# Shear Modulus (GPa) = 23.86701 31.98729 27.92715
#
# Velocity S-wave (km/s) = 3.39043 3.92504 3.66749
# Velocity P-wave (km/s) = 5.40761 6.49842 5.97794
#
# Compressibility (1/GPa) = 0.03461072
#
# Stress axis : x y z
#
# Youngs Moduli (GPa) = 27.46346 90.86862 62.52532
#
# Poissons Ratio (x) = -0.06373 0.76376
# Poissons Ratio (y) = -0.01926 0.18045
# Poissons Ratio (z) = 0.33547 0.26225
#
# Static dielectric constant tensor:
#      x y z
#    x 1.966740 0.106620 -0.148300 
#    y 0.106620 1.892850 -0.082770 
#    z -0.148300 -0.082770 1.869490 
# 
# From -- ./inp_files/403534.got.cif
#   From: 2010.05.17/outbox.cif.g08.bks.cpg/sg2_202_cif.got.tgz:403534.got - 2010.06.03 11:33:40.
