data_PCOD9021443
_publ_section_title
;
Structure prediction by ZEFSAII (Michael W. Deem and Ramdas Pophale) SiO2 
 PCOD9021443
Probable space group: P -1
;
_chemical_formula_sum "Si O2"
_cell_formula_units_Z 16
_cell_length_a 20.613339
_cell_length_b 5.533736
_cell_length_c 8.928017
_cell_angle_alpha 137.394735
_cell_angle_beta 113.160388
_cell_angle_gamma 78.864247
_cell_volume 626.202248
_symmetry_space_group_name_H-M "P -1"
_symmetry_group_IT_number 2
_symmetry_cell_setting 'triclinic'
loop_
_space_group_symop_operation_xyz
x,y,z
-x,-y,-z
loop_
_atom_site_type_symbol
_atom_site_label
_atom_site_fract_x
_atom_site_fract_y
_atom_site_fract_z
Si Si1 0.596715 0.900508 0.334115
Si Si2 0.956560 0.214407 0.949343
Si Si3 0.460735 0.951560 0.101209
Si Si4 0.720864 0.873932 0.611143
Si Si5 0.081341 0.098758 0.683000
Si Si6 0.677310 0.014469 0.143040
Si Si7 0.834536 0.883165 0.498312
Si Si8 0.802507 0.037924 0.067976
O O1 0.524484 0.077765 0.333099
O O2 0.645914 0.015225 0.576097
O O3 0.646508 0.936882 0.246516
O O4 0.566460 0.475663 0.109714
O O5 0.911187 0.468653 0.115544
O O6 0.000000 0.500000 0.000000
O O7 0.904366 0.912477 0.677317
O O8 0.000000 0.000000 0.000000
O O9 0.387255 0.109609 0.089352
O O10 0.500000 0.000000 0.000000
O O11 0.698673 0.448423 0.364082
O O12 0.775815 0.049136 0.612770
O O13 0.763875 0.899975 0.816363
O O14 0.132062 0.930722 0.536421
O O15 0.117302 0.024374 0.841080
O O16 0.000000 0.000000 0.500000
O O17 0.747547 0.880052 0.079882
O O18 0.805184 0.468115 0.256975
#
# Coordination Sequence:
#
# PCOD9021443 Si02
#       8
#     2   2   2   2   2   2   2   2
#     4   9  16  33  60  89 130 175 221 271 334 400
#     4  12  28  47  75 104 139 176 228 292 360 428
#     4   8  15  30  60  94 125 173 222 271 327 397
#     4  10  22  38  61  94 131 176 226 281 345 407
#     4  12  26  44  68  97 130 176 226 283 352 423
#     4   9  19  37  61  92 131 173 225 276 339 405
#     4  11  25  43  68  94 134 176 227 282 351 414
#     4  11  25  42  66  95 133 174 228 288 347 419
#
# _framework density 25.550847999999998
#
# number of rings (size 3 to 8) (size 9 to 14) (size 15 to 20)
#    0.000    1.750    1.250    2.250    3.500    4.000 
#    0.000    0.625    0.000   25.500    0.000    0.000 
#    0.000    0.000    0.000    0.000    0.000    0.000 
#
# Total GULP energy -89260.143508 kJ/mol
# GULP energy per Si atom -5578.758969 kJ/mol
# Density = 2.549269 g / cm^3
# Si number density = 25.550848 Si / 1000 Ang^3
#
#
#
# Elastic Constant Matrix: (Units=GPa)
#
#
# Indices 1 2 3 4 5 6 
#
# 1 112.6232 37.6345 46.3767 -22.2403 33.1519 9.5390
# 2 37.6345 84.0894 40.7241 -25.0046 21.6947 -7.1489
# 3 46.3767 40.7241 145.9564 -47.3771 41.7888 -18.8849
# 4 -22.2403 -25.0046 -47.3771 54.1748 -22.8035 22.3952
# 5 33.1519 21.6947 41.7888 -22.8035 37.3580 -7.5976
# 6 9.5390 -7.1489 -18.8849 22.3952 -7.5976 47.8090
#
#
#
# Elastic Compliance Matrix: (Units=1/GPa)
#
#
# Indices 1 2 3 4 5 6 
#
# 1 0.014104 -0.003321 -0.000994 0.001886 -0.009566 -0.006107
# 2 -0.003321 0.015769 -0.001502 0.003428 -0.002346 0.000449
# 3 -0.000994 -0.001502 0.011724 0.005543 -0.007821 0.000765
# 4 0.001886 0.003428 0.005543 0.034433 0.008625 -0.012433
# 5 -0.009566 -0.002346 -0.007821 0.008625 0.051153 0.002558
# 6 -0.006107 0.000449 0.000765 -0.012433 0.002558 0.028735
#
#
# Mechanical properties :
#
#
# Convention : Reuss Voigt Hill
#
# Bulk Modulus (GPa) = 33.37517 65.79329 49.58423
# Shear Modulus (GPa) = 28.16301 42.39727 35.28014
#
# Velocity S-wave (km/s) = 3.32359 4.07791 3.71992
# Velocity P-wave (km/s) = 5.27437 6.92663 6.15619
#
# Compressibility (1/GPa) = 0.02996240
#
# Stress axis : x y z
#
# Youngs Moduli (GPa) = 70.90269 63.41670 85.29747
#
# Poissons Ratio (x) = 0.21062 0.08477
# Poissons Ratio (y) = 0.23549 0.12810
# Poissons Ratio (z) = 0.07046 0.09524
#
# Static dielectric constant tensor:
#      x y z
#    x 2.151840 0.023430 -0.010680 
#    y 0.023430 2.030760 -0.085130 
#    z -0.010680 -0.085130 2.034840 
# 
# From -- ./inp_files/340771.got.cif
#   From: 2010.05.17/outbox.cif.g08.bks.cpg/sg2_171_cif.got.tgz:340771.got - 2010.06.03 11:33:40.
