data_PCOD9021122
_publ_section_title
;
Structure prediction by ZEFSAII (Michael W. Deem and Ramdas Pophale) SiO2 
 PCOD9021122
Probable space group: P -1
;
_chemical_formula_sum "Si O2"
_cell_formula_units_Z 12
_cell_length_a 5.255311
_cell_length_b 10.017649
_cell_length_c 14.453933
_cell_angle_alpha 94.649294
_cell_angle_beta 123.872815
_cell_angle_gamma 108.849862
_cell_volume 563.922751
_symmetry_space_group_name_H-M "P -1"
_symmetry_group_IT_number 2
_symmetry_cell_setting 'triclinic'
loop_
_space_group_symop_operation_xyz
x,y,z
-x,-y,-z
loop_
_atom_site_type_symbol
_atom_site_label
_atom_site_fract_x
_atom_site_fract_y
_atom_site_fract_z
Si Si1 0.763205 0.983376 0.258103
Si Si2 0.793533 0.185363 0.426074
Si Si3 0.500560 0.387143 0.652916
Si Si4 0.783120 0.728468 0.748846
Si Si5 0.804025 0.095713 0.995549
Si Si6 0.921058 0.228108 0.661026
O O1 0.999947 0.900618 0.287645
O O2 0.749970 0.030803 0.363555
O O3 0.394185 0.886392 0.132619
O O4 0.937771 0.143024 0.251097
O O5 0.553023 0.244739 0.329461
O O6 0.716058 0.171055 0.519276
O O7 0.191318 0.307724 0.512072
O O8 0.699732 0.563212 0.691293
O O9 0.741412 0.305569 0.688951
O O10 0.291176 0.349496 0.704554
O O11 0.932377 0.763069 0.885054
O O12 0.500000 0.000000 0.000000
O O13 0.000000 0.000000 0.000000
#
# Coordination Sequence:
#
# PCOD9021122 Si02
#       6
#     2   2   2   2   2   2
#     4  11  23  40  67  91 123 163 210 255 302 362
#     4  10  22  37  68  89 128 156 212 246 312 358
#     4  10  25  41  59  94 131 160 200 250 314 369
#     4  11  23  40  67  91 123 163 210 255 302 362
#     4  10  22  40  62  94 118 156 209 259 298 350
#     4  10  25  41  59  94 131 160 200 250 314 369
#
# _framework density 21.279512
#
# number of rings (size 3 to 8) (size 9 to 14) (size 15 to 20)
#    1.000    0.667    1.667    2.000    4.667    2.667 
#    0.000    1.667    0.000    0.000    0.000    0.000 
#    0.000    0.000    0.000    0.000    0.000    0.000 
#
# Total GULP energy -67005.429821 kJ/mol
# GULP energy per Si atom -5583.785818 kJ/mol
# Density = 2.123108 g / cm^3
# Si number density = 21.279512 Si / 1000 Ang^3
#
#
#
# Elastic Constant Matrix: (Units=GPa)
#
#
# Indices 1 2 3 4 5 6 
#
# 1 76.5688 32.9830 15.3127 2.0741 13.4171 -22.6152
# 2 32.9830 114.0986 48.5227 4.1987 18.6695 -15.3331
# 3 15.3127 48.5227 123.4883 0.8549 19.7960 -15.6583
# 4 2.0741 4.1987 0.8549 6.8345 -3.0506 0.8787
# 5 13.4171 18.6695 19.7960 -3.0506 20.4829 -7.8215
# 6 -22.6152 -15.3331 -15.6583 0.8787 -7.8215 41.4214
#
#
#
# Elastic Compliance Matrix: (Units=1/GPa)
#
#
# Indices 1 2 3 4 5 6 
#
# 1 0.018190 -0.003035 0.001408 -0.008777 -0.008814 0.007862
# 2 -0.003035 0.012738 -0.003241 -0.010038 -0.007763 0.000580
# 3 0.001408 -0.003241 0.010803 -0.003694 -0.008119 0.002198
# 4 -0.008777 -0.010038 -0.003694 0.175268 0.042429 -0.005610
# 5 -0.008814 -0.007763 -0.008119 0.042429 0.076933 0.002872
# 6 0.007862 0.000580 0.002198 -0.005610 0.002872 0.030141
#
#
# Mechanical properties :
#
#
# Convention : Reuss Voigt Hill
#
# Bulk Modulus (GPa) = 31.25662 56.42140 43.83901
# Shear Modulus (GPa) = 14.51484 28.23693 21.37588
#
# Velocity S-wave (km/s) = 2.61455 3.64669 3.17287
# Velocity P-wave (km/s) = 4.88210 6.65606 5.83687
#
# Compressibility (1/GPa) = 0.03199323
#
# Stress axis : x y z
#
# Youngs Moduli (GPa) = 54.97378 78.50726 92.56881
#
# Poissons Ratio (x) = 0.23829 -0.13031
# Poissons Ratio (y) = 0.16686 0.30004
# Poissons Ratio (z) = -0.07739 0.25446
#
# Static dielectric constant tensor:
#      x y z
#    x 1.839720 0.049380 -0.031760 
#    y 0.049380 1.730410 -0.010500 
#    z -0.031760 -0.010500 1.809040 
# 
# From -- ./inp_files/547427.got.cif
#   From: 2010.05.17/outbox.cif.g08.bks.cpg/sg2_274_cif.got.tgz:547427.got - 2010.06.03 11:33:40.
