data_PCOD9021887
_publ_section_title
;
Structure prediction by ZEFSAII (Michael W. Deem and Ramdas Pophale) SiO2 
 PCOD9021887
Probable space group: P -1
;
_chemical_formula_sum "Si O2"
_cell_formula_units_Z 14
_cell_length_a 9.242436
_cell_length_b 9.401142
_cell_length_c 13.813304
_cell_angle_alpha 38.653573
_cell_angle_beta 127.599785
_cell_angle_gamma 107.470446
_cell_volume 555.006531
_symmetry_space_group_name_H-M "P -1"
_symmetry_group_IT_number 2
_symmetry_cell_setting 'triclinic'
loop_
_space_group_symop_operation_xyz
x,y,z
-x,-y,-z
loop_
_atom_site_type_symbol
_atom_site_label
_atom_site_fract_x
_atom_site_fract_y
_atom_site_fract_z
Si Si1 0.219197 0.351292 0.037461
Si Si2 0.060075 0.695904 0.482327
Si Si3 0.839019 0.781438 0.536996
Si Si4 0.611442 0.152317 0.404840
Si Si5 0.426684 0.907437 0.248707
Si Si6 0.363819 0.517925 0.300669
Si Si7 0.903788 0.248014 0.100065
O O1 0.445329 0.296116 0.185825
O O2 0.094488 0.269635 0.112233
O O3 0.256068 0.161852 0.065054
O O4 0.124847 0.642170 0.860501
O O5 0.284103 0.690683 0.577053
O O6 0.000000 0.500000 0.500000
O O7 0.011973 0.699779 0.574818
O O8 0.933083 0.968065 0.251020
O O9 0.643016 0.912937 0.321157
O O10 0.819063 0.529769 0.698533
O O11 0.780218 0.960752 0.510185
O O12 0.500000 0.000000 0.500000
O O13 0.387829 0.755052 0.227284
O O14 0.466385 0.722567 0.457558
O O15 0.286264 0.578650 0.128417
#
# Coordination Sequence:
#
# PCOD9021887 Si02
#       7
#     2   2   2   2   2   2   2
#     4  10  22  38  66  98 125 174 237 280 312 403
#     4  12  28  45  66 103 148 178 219 291 366 398
#     4   9  21  41  69  97 132 182 227 279 337 413
#     4  11  21  44  75  95 128 194 237 260 333 436
#     4   8  19  38  68  95 130 181 227 268 342 408
#     4   9  19  38  68  98 130 178 231 281 321 415
#     4  11  24  38  65 104 133 170 238 290 326 401
#
# _framework density 25.224928999999999
#
# number of rings (size 3 to 8) (size 9 to 14) (size 15 to 20)
#    0.857    1.143    1.429    1.286    4.000    2.857 
#    0.000    5.714    0.000    0.000    0.000    0.000 
#    0.000    0.000    0.000    0.000    0.000    0.000 
#
# Total GULP energy -77955.838165 kJ/mol
# GULP energy per Si atom -5568.274155 kJ/mol
# Density = 2.516752 g / cm^3
# Si number density = 25.224929 Si / 1000 Ang^3
#
#
#
# Elastic Constant Matrix: (Units=GPa)
#
#
# Indices 1 2 3 4 5 6 
#
# 1 77.6023 34.2635 2.0578 -9.6260 2.2041 -6.1914
# 2 34.2635 149.9652 10.0425 -25.1109 4.0423 20.3557
# 3 2.0578 10.0425 90.7949 -19.4005 25.7309 -0.6254
# 4 -9.6260 -25.1109 -19.4005 35.2570 -7.5936 -7.7801
# 5 2.2041 4.0423 25.7309 -7.5936 31.3323 -5.4905
# 6 -6.1914 20.3557 -0.6254 -7.7801 -5.4905 32.7078
#
#
#
# Elastic Compliance Matrix: (Units=1/GPa)
#
#
# Indices 1 2 3 4 5 6 
#
# 1 0.015486 -0.003895 0.000604 0.003358 0.000836 0.006306
# 2 -0.003895 0.008998 0.000212 0.004006 -0.001065 -0.005559
# 3 0.000604 0.000212 0.015550 0.006419 -0.011300 -0.000091
# 4 0.003358 0.004006 0.006419 0.038502 0.004747 0.008220
# 5 0.000836 -0.001065 -0.011300 0.004747 0.044024 0.009124
# 6 0.006306 -0.005559 -0.000091 0.008220 0.009124 0.038712
#
#
# Mechanical properties :
#
#
# Convention : Reuss Voigt Hill
#
# Bulk Modulus (GPa) = 29.51898 45.67666 37.59782
# Shear Modulus (GPa) = 27.97664 37.99266 32.98465
#
# Velocity S-wave (km/s) = 3.33391 3.88513 3.62003
# Velocity P-wave (km/s) = 5.15244 6.18650 5.69299
#
# Compressibility (1/GPa) = 0.03387651
#
# Stress axis : x y z
#
# Youngs Moduli (GPa) = 64.57554 111.13719 64.30878
#
# Poissons Ratio (x) = 0.43286 -0.03883
# Poissons Ratio (y) = 0.25151 -0.01366
# Poissons Ratio (z) = -0.03899 -0.02361
#
# Static dielectric constant tensor:
#      x y z
#    x 2.020330 0.010140 0.026000 
#    y 0.010140 2.055980 0.069620 
#    z 0.026000 0.069620 2.155050 
# 
# From -- ./inp_files/494344.got.cif
#   From: 2010.05.17/outbox.cif.g08.bks.cpg/sg2_248_cif.got.tgz:494344.got - 2010.06.03 11:33:40.
