data_PCOD9021227
_publ_section_title
;
Structure prediction by ZEFSAII (Michael W. Deem and Ramdas Pophale) SiO2 
 PCOD9021227
Probable space group: P -1
;
_chemical_formula_sum "Si O2"
_cell_formula_units_Z 16
_cell_length_a 9.278267
_cell_length_b 12.484471
_cell_length_c 12.571131
_cell_angle_alpha 70.565743
_cell_angle_beta 35.605485
_cell_angle_gamma 74.548077
_cell_volume 799.456441
_symmetry_space_group_name_H-M "P -1"
_symmetry_group_IT_number 2
_symmetry_cell_setting 'triclinic'
loop_
_space_group_symop_operation_xyz
x,y,z
-x,-y,-z
loop_
_atom_site_type_symbol
_atom_site_label
_atom_site_fract_x
_atom_site_fract_y
_atom_site_fract_z
Si Si1 0.571526 0.844308 0.533604
Si Si2 0.400989 0.191818 0.808833
Si Si3 0.268874 0.080807 0.139852
Si Si4 0.274791 0.634767 0.318702
Si Si5 0.974892 0.876068 0.109681
Si Si6 0.309536 0.373775 0.337564
Si Si7 0.440950 0.746033 0.960061
Si Si8 0.711976 0.045001 0.515238
O O1 0.817092 0.883436 0.309699
O O2 0.599284 0.717611 0.600296
O O3 0.354709 0.869486 0.571268
O O4 0.569427 0.929929 0.605964
O O5 0.565115 0.298819 0.711135
O O6 0.192904 0.203209 0.839879
O O7 0.591218 0.099659 0.674552
O O8 0.256062 0.148678 0.014077
O O9 0.347448 0.166459 0.157674
O O10 0.005415 0.027367 0.346333
O O11 0.500000 0.000000 0.000000
O O12 0.336394 0.501895 0.319593
O O13 0.980805 0.647013 0.505829
O O14 0.337859 0.690781 0.148399
O O15 0.227554 0.817145 0.007769
O O16 0.000000 0.000000 0.000000
O O17 0.458411 0.347586 0.149731
#
# Coordination Sequence:
#
# PCOD9021227 Si02
#       8
#     2   2   2   2   2   2   2   2
#     4  10  22  38  61  94 123 163 202 247 304 372
#     4  10  23  39  62  87 123 161 197 253 305 354
#     4  11  23  36  57  92 125 158 194 250 303 365
#     4  10  23  46  61  90 122 155 218 261 296 353
#     4  11  22  40  62  94 131 163 195 247 310 377
#     4  11  23  40  69  85 120 168 206 258 303 352
#     4  11  23  39  65  90 120 165 208 244 312 366
#     4  10  22  38  58  90 130 153 200 245 305 379
#
# _framework density 20.013597000000001
#
# number of rings (size 3 to 8) (size 9 to 14) (size 15 to 20)
#    0.000    1.500    1.250    3.375   10.500    0.500 
#    0.000    3.125    2.750    0.000    0.000    0.000 
#    0.000    0.000    0.000    0.000    0.000    0.000 
#
# Total GULP energy -89427.023753 kJ/mol
# GULP energy per Si atom -5589.188985 kJ/mol
# Density = 1.996805 g / cm^3
# Si number density = 20.013597 Si / 1000 Ang^3
#
#
#
# Elastic Constant Matrix: (Units=GPa)
#
#
# Indices 1 2 3 4 5 6 
#
# 1 98.2649 48.3187 35.3257 -0.2739 1.2304 1.0359
# 2 48.3187 96.5185 21.3339 -1.4958 8.8587 -5.6507
# 3 35.3257 21.3339 83.9329 12.4528 -3.6597 8.7944
# 4 -0.2739 -1.4958 12.4528 30.3747 0.8478 0.2851
# 5 1.2304 8.8587 -3.6597 0.8478 21.1861 8.3032
# 6 1.0359 -5.6507 8.7944 0.2851 8.3032 29.1429
#
#
#
# Elastic Compliance Matrix: (Units=1/GPa)
#
#
# Indices 1 2 3 4 5 6 
#
# 1 0.015188 -0.006677 -0.004818 0.001754 0.001309 -0.000771
# 2 -0.006677 0.015521 -0.002515 0.001930 -0.009204 0.006609
# 3 -0.004818 -0.002515 0.016745 -0.007170 0.007416 -0.007412
# 4 0.001754 0.001930 -0.007170 0.036078 -0.004979 0.003541
# 5 0.001309 -0.009204 0.007416 -0.004979 0.060820 -0.021349
# 6 -0.000771 0.006609 -0.007412 0.003541 -0.021349 0.043907
#
#
# Mechanical properties :
#
#
# Convention : Reuss Voigt Hill
#
# Bulk Modulus (GPa) = 51.45397 54.29698 52.87547
# Shear Modulus (GPa) = 22.44597 27.72327 25.08462
#
# Velocity S-wave (km/s) = 3.35257 3.72589 3.54415
# Velocity P-wave (km/s) = 6.38370 6.76008 6.57458
#
# Compressibility (1/GPa) = 0.01943485
#
# Stress axis : x y z
#
# Youngs Moduli (GPa) = 65.84060 64.43009 59.71938
#
# Poissons Ratio (x) = 0.43018 0.28771
# Poissons Ratio (y) = 0.43960 0.15020
# Poissons Ratio (z) = 0.31720 0.16205
#
# Static dielectric constant tensor:
#      x y z
#    x 1.718450 -0.009260 0.012480 
#    y -0.009260 1.699290 0.004620 
#    z 0.012480 0.004620 1.720840 
# 
# From -- ./inp_files/258342.got.cif
#   From: 2010.05.17/outbox.cif.g08.bks.cpg/sg2_130_cif.got.tgz:258342.got - 2010.06.03 11:33:40.
