data_PCOD9021187
_publ_section_title
;
Structure prediction by ZEFSAII (Michael W. Deem and Ramdas Pophale) SiO2 
 PCOD9021187
Probable space group: P -1
;
_chemical_formula_sum "Si O2"
_cell_formula_units_Z 16
_cell_length_a 15.748522
_cell_length_b 5.377523
_cell_length_c 14.712625
_cell_angle_alpha 86.631535
_cell_angle_beta 40.908662
_cell_angle_gamma 105.721030
_cell_volume 713.485142
_symmetry_space_group_name_H-M "P -1"
_symmetry_group_IT_number 2
_symmetry_cell_setting 'triclinic'
loop_
_space_group_symop_operation_xyz
x,y,z
-x,-y,-z
loop_
_atom_site_type_symbol
_atom_site_label
_atom_site_fract_x
_atom_site_fract_y
_atom_site_fract_z
Si Si1 0.972060 0.069006 0.299215
Si Si2 0.918464 0.033008 0.977936
Si Si3 0.321963 0.822122 0.143083
Si Si4 0.154054 0.135985 0.316743
Si Si5 0.659192 0.480824 0.198399
Si Si6 0.680235 0.735088 0.478180
Si Si7 0.670310 0.226102 0.374951
Si Si8 0.167415 0.639348 0.086924
O O1 0.013824 0.045982 0.162221
O O2 0.087144 0.043544 0.271561
O O3 0.023822 0.399859 0.261480
O O4 0.803360 0.840542 0.454594
O O5 0.914054 0.301288 0.933228
O O6 0.744819 0.817130 0.136283
O O7 0.000000 0.000000 0.000000
O O8 0.250511 0.483098 0.233617
O O9 0.272674 0.832853 0.078255
O O10 0.251750 0.979886 0.257229
O O11 0.500000 0.000000 0.000000
O O12 0.000000 0.000000 0.500000
O O13 0.485060 0.361264 0.352119
O O14 0.720944 0.363527 0.232346
O O15 0.717227 0.434734 0.057099
O O16 0.682131 0.480040 0.424891
O O17 0.729490 0.025322 0.373797
O O18 0.500000 0.000000 0.500000
#
# Coordination Sequence:
#
# PCOD9021187 Si02
#       8
#     2   2   2   2   2   2   2   2
#     4  10  24  42  63  97 136 178 221 277 341 408
#     4  11  23  38  65  90 135 182 226 268 332 397
#     4  11  24  48  76 105 140 185 230 296 363 424
#     4  11  24  47  74 107 144 179 232 294 362 434
#     4  10  23  37  58  92 125 169 229 277 323 393
#     4  11  24  39  63  89 126 175 226 278 335 388
#     4  10  22  38  57  85 127 171 220 278 330 379
#     4  10  24  42  64  95 139 173 225 280 338 408
#
# _framework density 22.425135000000001
#
# number of rings (size 3 to 8) (size 9 to 14) (size 15 to 20)
#    0.000    1.500    1.250    3.000   10.500    2.000 
#    2.250    0.000    0.000    0.000    0.000    0.000 
#    0.000    0.000    0.000    0.000    0.000    0.000 
#
# Total GULP energy -89069.436782 kJ/mol
# GULP energy per Si atom -5566.839799 kJ/mol
# Density = 2.237409 g / cm^3
# Si number density = 22.425135 Si / 1000 Ang^3
#
#
#
# Elastic Constant Matrix: (Units=GPa)
#
#
# Indices 1 2 3 4 5 6 
#
# 1 75.5604 42.0353 39.6311 -4.1467 -22.5649 8.4316
# 2 42.0353 131.0004 53.8457 0.8884 -24.0080 -7.5062
# 3 39.6311 53.8457 123.8871 -4.9427 -33.1228 4.3709
# 4 -4.1467 0.8884 -4.9427 27.0993 7.3033 -3.3311
# 5 -22.5649 -24.0080 -33.1228 7.3033 39.0159 -2.5297
# 6 8.4316 -7.5062 4.3709 -3.3311 -2.5297 26.1160
#
#
#
# Elastic Compliance Matrix: (Units=1/GPa)
#
#
# Indices 1 2 3 4 5 6 
#
# 1 0.019593 -0.004572 -0.002442 0.000282 0.005964 -0.006617
# 2 -0.004572 0.011045 -0.002981 -0.001577 0.002252 0.005167
# 3 -0.002442 -0.002981 0.012040 -0.000116 0.006904 -0.001430
# 4 0.000282 -0.001577 -0.000116 0.039612 -0.008078 0.003745
# 5 0.005964 0.002252 0.006904 -0.008078 0.037852 0.000202
# 6 -0.006617 0.005167 -0.001430 0.003745 0.000202 0.042649
#
#
# Mechanical properties :
#
#
# Convention : Reuss Voigt Hill
#
# Bulk Modulus (GPa) = 44.07230 66.83022 55.45126
# Shear Modulus (GPa) = 26.26811 31.44197 28.85504
#
# Velocity S-wave (km/s) = 3.42624 3.74851 3.59099
# Velocity P-wave (km/s) = 5.94541 6.97146 6.47878
#
# Compressibility (1/GPa) = 0.02268999
#
# Stress axis : x y z
#
# Youngs Moduli (GPa) = 51.03807 90.53565 83.05306
#
# Poissons Ratio (x) = 0.41389 0.20278
# Poissons Ratio (y) = 0.23332 0.24762
# Poissons Ratio (z) = 0.12461 0.26993
#
# Static dielectric constant tensor:
#      x y z
#    x 1.879870 -0.032150 -0.002040 
#    y -0.032150 1.973480 -0.021550 
#    z -0.002040 -0.021550 1.790200 
# 
# From -- ./inp_files/525684.got.cif
#   From: 2010.05.17/outbox.cif.g08.bks.cpg/sg2_263_cif.got.tgz:525684.got - 2010.06.03 11:33:40.
