data_PCOD9021503
_publ_section_title
;
Structure prediction by ZEFSAII (Michael W. Deem and Ramdas Pophale) SiO2 
 PCOD9021503
Probable space group: P -1
;
_chemical_formula_sum "Si O2"
_cell_formula_units_Z 15
_cell_length_a 8.039713
_cell_length_b 14.665283
_cell_length_c 8.278957
_cell_angle_alpha 83.623453
_cell_angle_beta 48.836272
_cell_angle_gamma 65.318175
_cell_volume 648.299358
_symmetry_space_group_name_H-M "P -1"
_symmetry_group_IT_number 2
_symmetry_cell_setting 'triclinic'
loop_
_space_group_symop_operation_xyz
x,y,z
-x,-y,-z
loop_
_atom_site_type_symbol
_atom_site_label
_atom_site_fract_x
_atom_site_fract_y
_atom_site_fract_z
Si Si1 0.118588 0.683193 0.374535
Si Si2 0.750108 0.995216 0.178276
Si Si3 0.799106 0.443266 0.321520
Si Si4 0.643264 0.172831 0.809034
Si Si5 0.000000 0.000000 0.500000
Si Si6 0.442313 0.151309 0.623876
Si Si7 0.960962 0.622844 0.163921
Si Si8 0.709353 0.870163 0.755137
O O1 0.138045 0.621368 0.539235
O O2 0.325869 0.724506 0.234393
O O3 0.115909 0.629616 0.218332
O O4 0.852741 0.784386 0.544478
O O5 0.597991 0.078283 0.396399
O O6 0.551247 0.039503 0.152729
O O7 0.774391 0.881642 0.204900
O O8 0.000000 0.000000 0.000000
O O9 0.500000 0.500000 0.500000
O O10 0.908312 0.525347 0.239810
O O11 0.906840 0.384417 0.092750
O O12 0.905669 0.079108 0.709749
O O13 0.649631 0.117700 0.641749
O O14 0.386258 0.186260 0.042718
O O15 0.117879 0.076821 0.329695
O O16 0.306356 0.274239 0.681609
#
# Coordination Sequence:
#
# PCOD9021503 Si02
#       8
#     2   2   2   2   1   2   2   2
#     4  11  25  46  72 105 145 187 238 299 362 438
#     4  11  26  39  67 100 145 192 239 294 353 420
#     4  11  26  48  76 108 139 186 238 307 372 431
#     4  11  24  38  66  96 138 184 240 292 356 417
#     4  10  22  38  62  92 138 186 238 296 342 416
#     4  11  24  45  63 101 142 189 238 295 355 432
#     4  11  25  47  75 103 144 186 244 298 365 435
#     4  11  23  43  66 101 140 191 241 292 355 426
#
# _framework density 23.137457999999999
#
# number of rings (size 3 to 8) (size 9 to 14) (size 15 to 20)
#    0.000    1.067    2.667    2.400    3.733    5.867 
#    0.000    0.000    0.000    0.000    0.000    0.000 
#    0.000    0.000    0.000    0.000    0.000    0.000 
#
# Total GULP energy -83551.804245 kJ/mol
# GULP energy per Si atom -5570.120283 kJ/mol
# Density = 2.308480 g / cm^3
# Si number density = 23.137458 Si / 1000 Ang^3
#
#
#
# Elastic Constant Matrix: (Units=GPa)
#
#
# Indices 1 2 3 4 5 6 
#
# 1 108.9613 48.6673 69.2713 -18.4537 3.6762 23.9061
# 2 48.6673 113.7383 53.1378 -17.5911 8.2844 19.2959
# 3 69.2713 53.1378 142.3037 -24.0979 -6.7575 29.3960
# 4 -18.4537 -17.5911 -24.0979 39.0045 9.1437 -4.2081
# 5 3.6762 8.2844 -6.7575 9.1437 45.8762 -4.1046
# 6 23.9061 19.2959 29.3960 -4.2081 -4.1046 39.7738
#
#
#
# Elastic Compliance Matrix: (Units=1/GPa)
#
#
# Indices 1 2 3 4 5 6 
#
# 1 0.015105 -0.002790 -0.005142 0.002851 -0.002378 -0.003869
# 2 -0.002790 0.012220 -0.002277 0.003258 -0.003196 -0.002553
# 3 -0.005142 -0.002277 0.011803 0.003022 0.001598 -0.004044
# 4 0.002851 0.003258 0.003022 0.031637 -0.006936 -0.002896
# 5 -0.002378 -0.003196 0.001598 -0.006936 0.024505 0.003594
# 6 -0.003869 -0.002553 -0.004044 -0.002896 0.003594 0.031759
#
#
# Mechanical properties :
#
#
# Convention : Reuss Voigt Hill
#
# Bulk Modulus (GPa) = 53.45025 78.57288 66.01157
# Shear Modulus (GPa) = 32.53420 37.85936 35.19678
#
# Velocity S-wave (km/s) = 3.75390 4.04948 3.90449
# Velocity P-wave (km/s) = 6.47614 7.47645 6.99420
#
# Compressibility (1/GPa) = 0.01870899
#
# Stress axis : x y z
#
# Youngs Moduli (GPa) = 66.20518 81.83365 84.72086
#
# Poissons Ratio (x) = 0.22835 0.43561
# Poissons Ratio (y) = 0.18474 0.19294
# Poissons Ratio (z) = 0.34041 0.18637
#
# Static dielectric constant tensor:
#      x y z
#    x 1.071850 0.446340 0.574040 
#    y 0.446340 1.583530 -0.373630 
#    z 0.574040 -0.373630 1.708120 
# 
# From -- ./inp_files/201255.got.cif
#   From: 2010.05.17/outbox.cif.g08.bks.cpg/sg2_101_cif.got.tgz:201255.got - 2010.06.03 11:33:40.
