data_PCOD9021445
_publ_section_title
;
Structure prediction by ZEFSAII (Michael W. Deem and Ramdas Pophale) SiO2 
 PCOD9021445
Probable space group: P -1
;
_chemical_formula_sum "Si O2"
_cell_formula_units_Z 14
_cell_length_a 8.790499
_cell_length_b 7.774872
_cell_length_c 10.710730
_cell_angle_alpha 68.022676
_cell_angle_beta 103.787182
_cell_angle_gamma 131.320901
_cell_volume 509.776700
_symmetry_space_group_name_H-M "P -1"
_symmetry_group_IT_number 2
_symmetry_cell_setting 'triclinic'
loop_
_space_group_symop_operation_xyz
x,y,z
-x,-y,-z
loop_
_atom_site_type_symbol
_atom_site_label
_atom_site_fract_x
_atom_site_fract_y
_atom_site_fract_z
Si Si1 0.637355 0.050602 0.195053
Si Si2 0.190653 0.419221 0.466288
Si Si3 0.182011 0.385346 0.947565
Si Si4 0.206426 0.089178 0.411254
Si Si5 0.895105 0.610542 0.803939
Si Si6 0.294335 0.059362 0.009909
Si Si7 0.382263 0.739295 0.656697
O O1 0.458700 0.050769 0.109876
O O2 0.613880 0.049914 0.340731
O O3 0.876784 0.288058 0.167083
O O4 0.646957 0.892017 0.139863
O O5 0.730564 0.402878 0.452907
O O6 0.278553 0.278623 0.488370
O O7 0.203214 0.533961 0.304649
O O8 0.958445 0.186310 0.509500
O O9 0.277947 0.540683 0.799159
O O10 0.223785 0.502316 0.061254
O O11 0.276300 0.250389 0.007663
O O12 0.935922 0.189765 0.948963
O O13 0.094363 0.160246 0.283939
O O14 0.389133 0.147106 0.353734
#
# Coordination Sequence:
#
# PCOD9021445 Si02
#       7
#     2   2   2   2   2   2   2
#     4  10  22  38  61  96 138 163 211 262 332 381
#     4   9  22  42  69  89 130 171 217 264 309 379
#     4  10  22  38  71  96 123 168 226 261 311 380
#     4   9  21  42  69  88 132 167 222 259 311 381
#     4   9  20  41  64  91 130 172 208 262 319 382
#     4   9  21  40  62  92 135 174 206 262 325 383
#     4  12  24  37  71 102 124 166 217 269 320 379
#
# _framework density 27.463001999999999
#
# number of rings (size 3 to 8) (size 9 to 14) (size 15 to 20)
#    0.857    1.429    0.000    1.286    8.000    5.143 
#    0.000    2.143    6.286    0.000    0.000    0.000 
#    0.000    0.000    0.000    0.000    0.000    0.000 
#
# Total GULP energy -78271.035834 kJ/mol
# GULP energy per Si atom -5590.788274 kJ/mol
# Density = 2.740050 g / cm^3
# Si number density = 27.463002 Si / 1000 Ang^3
#
#
#
# Elastic Constant Matrix: (Units=GPa)
#
#
# Indices 1 2 3 4 5 6 
#
# 1 179.7560 59.2057 62.4476 15.0351 -44.9527 -12.4806
# 2 59.2057 131.6476 75.3429 32.8377 -19.3554 4.0550
# 3 62.4476 75.3429 185.3752 24.6595 -36.3819 -10.0408
# 4 15.0351 32.8377 24.6595 53.0211 -8.3665 -17.2458
# 5 -44.9527 -19.3554 -36.3819 -8.3665 48.9606 8.1085
# 6 -12.4806 4.0550 -10.0408 -17.2458 8.1085 34.2539
#
#
#
# Elastic Compliance Matrix: (Units=1/GPa)
#
#
# Indices 1 2 3 4 5 6 
#
# 1 0.008243 -0.003054 -0.000449 0.001540 0.005856 0.002622
# 2 -0.003054 0.013408 -0.003836 -0.008294 -0.000464 -0.007890
# 3 -0.000449 -0.003836 0.007923 -0.000043 0.003666 0.001724
# 4 0.001540 -0.008294 -0.000043 0.028831 0.000388 0.015954
# 5 0.005856 -0.000464 0.003666 0.000388 0.028971 -0.003400
# 6 0.002622 -0.007890 0.001724 0.015954 -0.003400 0.040425
#
#
# Mechanical properties :
#
#
# Convention : Reuss Voigt Hill
#
# Bulk Modulus (GPa) = 67.12983 98.97459 83.05221
# Shear Modulus (GPa) = 33.91093 47.23263 40.57178
#
# Velocity S-wave (km/s) = 3.51776 4.15162 3.84777
# Velocity P-wave (km/s) = 6.40284 7.68757 7.07443
#
# Compressibility (1/GPa) = 0.01489651
#
# Stress axis : x y z
#
# Youngs Moduli (GPa) = 121.32109 74.58000 126.20767
#
# Poissons Ratio (x) = 0.22776 0.05667
# Poissons Ratio (y) = 0.37049 0.48414
# Poissons Ratio (z) = 0.05448 0.28610
#
# Static dielectric constant tensor:
#      x y z
#    x 2.113460 -0.026130 0.065540 
#    y -0.026130 2.212010 0.008270 
#    z 0.065540 0.008270 2.139590 
# 
# From -- ./inp_files/213253.got.cif
#   From: 2010.05.17/outbox.cif.g08.bks.cpg/sg2_107_cif.got.tgz:213253.got - 2010.06.03 11:33:40.
