data_PCOD9021896
_publ_section_title
;
Structure prediction by ZEFSAII (Michael W. Deem and Ramdas Pophale) SiO2 
 PCOD9021896
Probable space group: P -1
;
_chemical_formula_sum "Si O2"
_cell_formula_units_Z 15
_cell_length_a 19.641684
_cell_length_b 20.976962
_cell_length_c 8.997831
_cell_angle_alpha 26.394755
_cell_angle_beta 152.069070
_cell_angle_gamma 157.914279
_cell_volume 587.088497
_symmetry_space_group_name_H-M "P -1"
_symmetry_group_IT_number 2
_symmetry_cell_setting 'triclinic'
loop_
_space_group_symop_operation_xyz
x,y,z
-x,-y,-z
loop_
_atom_site_type_symbol
_atom_site_label
_atom_site_fract_x
_atom_site_fract_y
_atom_site_fract_z
Si Si1 0.000000 0.000000 0.500000
Si Si2 0.371216 0.265920 0.668738
Si Si3 0.013725 0.841166 0.391413
Si Si4 0.591289 0.470676 0.376851
Si Si5 0.288697 0.887688 0.262249
Si Si6 0.573151 0.890203 0.343351
Si Si7 0.013137 0.270168 0.751083
Si Si8 0.620617 0.320809 0.306187
O O1 0.819301 0.785732 0.527154
O O2 0.975705 0.886834 0.844077
O O3 0.471377 0.404370 0.435266
O O4 0.525921 0.322451 0.970541
O O5 0.260261 0.044201 0.864802
O O6 0.048948 0.775366 0.443746
O O7 0.809278 0.652918 0.441905
O O8 0.211815 0.961618 0.609231
O O9 0.000000 0.000000 0.000000
O O10 0.559839 0.285237 0.656476
O O11 0.500000 0.500000 0.000000
O O12 0.137839 0.753376 0.379591
O O13 0.287800 0.774385 0.363833
O O14 0.500000 0.000000 0.500000
O O15 0.548373 0.802234 0.642068
O O16 0.500000 0.000000 0.000000
O O17 0.211967 0.479119 0.717100
#
# Coordination Sequence:
#
# PCOD9021896 Si02
#       8
#     1   2   2   2   2   2   2   2
#     4  10  22  38  66  98 136 176 240 290 356 420
#     4  10  23  42  70 101 140 187 242 300 362 435
#     4  12  26  47  76 102 149 204 246 307 379 449
#     4  12  25  48  73 109 151 197 255 306 374 463
#     4   9  19  41  66  97 134 181 231 298 362 429
#     4  12  27  49  76 111 151 196 252 316 380 444
#     4  11  23  42  68 104 140 185 245 297 365 439
#     4  11  23  45  71 103 143 188 241 306 366 444
#
# _framework density 25.549810000000001
#
# number of rings (size 3 to 8) (size 9 to 14) (size 15 to 20)
#    0.000    1.067    2.667    4.400    0.000    3.200 
#    9.600    0.000    0.000    0.000    0.000    0.000 
#    0.000    0.000    0.000    0.000    0.000    0.000 
#
# Total GULP energy -83749.181837 kJ/mol
# GULP energy per Si atom -5583.278789 kJ/mol
# Density = 2.549166 g / cm^3
# Si number density = 25.549810 Si / 1000 Ang^3
#
#
#
# Elastic Constant Matrix: (Units=GPa)
#
#
# Indices 1 2 3 4 5 6 
#
# 1 108.2934 65.0143 14.4977 -6.2825 -2.3870 2.1536
# 2 65.0143 211.8072 23.3227 -20.7574 -0.4313 33.5409
# 3 14.4977 23.3227 51.0541 -4.8355 -6.6447 3.1213
# 4 -6.2825 -20.7574 -4.8355 27.5210 -3.3789 11.4604
# 5 -2.3870 -0.4313 -6.6447 -3.3789 49.0406 -7.7948
# 6 2.1536 33.5409 3.1213 11.4604 -7.7948 56.4773
#
#
#
# Elastic Compliance Matrix: (Units=1/GPa)
#
#
# Indices 1 2 3 4 5 6 
#
# 1 0.011699 -0.003919 -0.001744 -0.001506 0.000570 0.002362
# 2 -0.003919 0.007702 -0.001484 0.007003 -0.000775 -0.005871
# 3 -0.001744 -0.001484 0.021429 0.002772 0.002934 -0.000394
# 4 -0.001506 0.007003 0.002772 0.047656 0.001466 -0.013723
# 5 0.000570 -0.000775 0.002934 0.001466 0.021376 0.002929
# 6 0.002362 -0.005871 -0.000394 -0.013723 0.002929 0.024313
#
#
# Mechanical properties :
#
#
# Convention : Reuss Voigt Hill
#
# Bulk Modulus (GPa) = 37.68738 64.09157 50.88947
# Shear Modulus (GPa) = 31.78305 44.49577 38.13941
#
# Velocity S-wave (km/s) = 3.53081 4.17769 3.86780
# Velocity P-wave (km/s) = 5.60400 6.95775 6.31724
#
# Compressibility (1/GPa) = 0.02653408
#
# Stress axis : x y z
#
# Youngs Moduli (GPa) = 85.47765 129.83317 46.66595
#
# Poissons Ratio (x) = 0.50886 0.08141
# Poissons Ratio (y) = 0.33502 0.06926
# Poissons Ratio (z) = 0.14911 0.19269
#
# Static dielectric constant tensor:
#      x y z
#    x 1.810260 -0.176840 -0.148670 
#    y -0.176840 1.947650 -0.091490 
#    z -0.148670 -0.091490 2.011490 
# 
# From -- ./inp_files/349682.got.cif
#   From: 2010.05.17/outbox.cif.g08.bks.cpg/sg2_175_cif.got.tgz:349682.got - 2010.06.03 11:33:40.
