data_PCOD9021525
_publ_section_title
;
Structure prediction by ZEFSAII (Michael W. Deem and Ramdas Pophale) SiO2 
 PCOD9021525
Probable space group: P -1
;
_chemical_formula_sum "Si O2"
_cell_formula_units_Z 13
_cell_length_a 13.056778
_cell_length_b 12.334117
_cell_length_c 6.597736
_cell_angle_alpha 102.465154
_cell_angle_beta 141.275561
_cell_angle_gamma 71.819267
_cell_volume 630.825954
_symmetry_space_group_name_H-M "P -1"
_symmetry_group_IT_number 2
_symmetry_cell_setting 'triclinic'
loop_
_space_group_symop_operation_xyz
x,y,z
-x,-y,-z
loop_
_atom_site_type_symbol
_atom_site_label
_atom_site_fract_x
_atom_site_fract_y
_atom_site_fract_z
Si Si1 0.911848 0.349801 0.271654
Si Si2 0.891782 0.548590 0.049580
Si Si3 0.681850 0.982064 0.167679
Si Si4 0.000000 0.000000 0.000000
Si Si5 0.646248 0.791895 0.718851
Si Si6 0.863646 0.831822 0.713605
Si Si7 0.733397 0.146979 0.964571
O O1 0.827321 0.448798 0.024546
O O2 0.977152 0.409407 0.584708
O O3 0.075140 0.277800 0.372080
O O4 0.807951 0.258893 0.141340
O O5 0.741638 0.659921 0.830522
O O6 0.000000 0.500000 0.000000
O O7 0.820812 0.947015 0.549314
O O8 0.699286 0.871275 0.005731
O O9 0.500000 0.000000 0.000000
O O10 0.704672 0.085920 0.106934
O O11 0.981261 0.134921 0.925946
O O12 0.139777 0.945089 0.010682
O O13 0.711237 0.829378 0.619946
O O14 0.446405 0.817620 0.410473
#
# Coordination Sequence:
#
# PCOD9021525 Si02
#       7
#     2   2   2   1   2   2   2
#     4  10  24  44  65  97 126 172 224 274 322 392
#     4  11  23  44  72  89 128 176 224 273 334 379
#     4  12  23  39  66  96 134 177 209 262 328 395
#     4  10  22  38  62  94 138 170 210 268 320 400
#     4  12  23  42  67  99 131 175 217 271 324 391
#     4  11  21  39  64  95 130 174 218 259 327 392
#     4  11  24  42  65  99 139 167 221 269 326 390
#
# _framework density 20.607900999999998
#
# number of rings (size 3 to 8) (size 9 to 14) (size 15 to 20)
#    0.000    0.923    6.154    1.385    0.000    4.308 
#    2.769    0.769    0.000    0.000    0.000    0.000 
#    0.000    0.000    0.000    0.000    0.000    0.000 
#
# Total GULP energy -72429.894166 kJ/mol
# GULP energy per Si atom -5571.530320 kJ/mol
# Density = 2.056100 g / cm^3
# Si number density = 20.607901 Si / 1000 Ang^3
#
#
#
# Elastic Constant Matrix: (Units=GPa)
#
#
# Indices 1 2 3 4 5 6 
#
# 1 152.4061 66.5650 41.6801 -1.7985 0.2574 2.2192
# 2 66.5650 138.5076 42.8398 -1.1463 -22.0845 9.9070
# 3 41.6801 42.8398 71.8823 -8.6547 -7.2463 3.6328
# 4 -1.7985 -1.1463 -8.6547 42.5364 -3.6817 -8.8087
# 5 0.2574 -22.0845 -7.2463 -3.6817 21.6584 0.5976
# 6 2.2192 9.9070 3.6328 -8.8087 0.5976 39.4500
#
#
#
# Elastic Compliance Matrix: (Units=1/GPa)
#
#
# Indices 1 2 3 4 5 6 
#
# 1 0.009485 -0.004481 -0.003576 -0.000797 -0.006037 0.000835
# 2 -0.004481 0.012541 -0.003573 -0.000141 0.011699 -0.002777
# 3 -0.003576 -0.003573 0.018921 0.003934 0.003393 0.000183
# 4 -0.000797 -0.000141 0.003934 0.025863 0.005429 0.005411
# 5 -0.006037 0.011699 0.003393 0.005429 0.060302 -0.002612
# 6 0.000835 -0.002777 0.000183 0.005411 -0.002612 0.027230
#
#
# Mechanical properties :
#
#
# Convention : Reuss Voigt Hill
#
# Bulk Modulus (GPa) = 56.53924 73.88507 65.21216
# Shear Modulus (GPa) = 27.24811 34.84303 31.04557
#
# Velocity S-wave (km/s) = 3.64017 4.11635 3.88556
# Velocity P-wave (km/s) = 6.72035 7.65003 7.20021
#
# Compressibility (1/GPa) = 0.01768683
#
# Stress axis : x y z
#
# Youngs Moduli (GPa) = 105.42639 79.73540 52.85134
#
# Poissons Ratio (x) = 0.35733 0.18899
# Poissons Ratio (y) = 0.47246 0.18885
# Poissons Ratio (z) = 0.37699 0.28491
#
# Static dielectric constant tensor:
#      x y z
#    x 1.772780 0.113870 0.114490 
#    y 0.113870 1.865980 0.198860 
#    z 0.114490 0.198860 2.227020 
# 
# From -- ./inp_files/19590.got.cif
#   From: 2010.05.17/outbox.cif.g08.bks.cpg/sg2_10_cif.got.tgz:19590.got - 2010.06.03 11:33:40.
