data_PCOD9021736
_publ_section_title
;
Structure prediction by ZEFSAII (Michael W. Deem and Ramdas Pophale) SiO2 
 PCOD9021736
Probable space group: P -1
;
_chemical_formula_sum "Si O2"
_cell_formula_units_Z 14
_cell_length_a 13.050655
_cell_length_b 12.653282
_cell_length_c 5.426419
_cell_angle_alpha 62.981839
_cell_angle_beta 128.983951
_cell_angle_gamma 122.091579
_cell_volume 580.226379
_symmetry_space_group_name_H-M "P -1"
_symmetry_group_IT_number 2
_symmetry_cell_setting 'triclinic'
loop_
_space_group_symop_operation_xyz
x,y,z
-x,-y,-z
loop_
_atom_site_type_symbol
_atom_site_label
_atom_site_fract_x
_atom_site_fract_y
_atom_site_fract_z
Si Si1 0.599137 0.131270 0.899233
Si Si2 0.414128 0.572314 0.644655
Si Si3 0.925144 0.154883 0.320779
Si Si4 0.206466 0.321448 0.426929
Si Si5 0.143955 0.931041 0.194861
Si Si6 0.706504 0.779259 0.825409
Si Si7 0.336434 0.764587 0.613264
O O1 0.763833 0.145505 0.116123
O O2 0.602370 0.225334 0.031598
O O3 0.566905 0.144735 0.549208
O O4 0.500000 0.000000 0.000000
O O5 0.307035 0.468382 0.416855
O O6 0.544782 0.691239 0.617871
O O7 0.320391 0.629160 0.615607
O O8 0.500000 0.500000 0.000000
O O9 0.959223 0.109725 0.685381
O O10 0.043083 0.289135 0.287024
O O11 0.920011 0.067456 0.171163
O O12 0.214185 0.258064 0.244043
O O13 0.260891 0.259522 0.808201
O O14 0.209296 0.818423 0.386512
O O15 0.255956 0.069560 0.278772
#
# Coordination Sequence:
#
# PCOD9021736 Si02
#       7
#     2   2   2   2   2   2   2
#     4  10  22  38  64  98 130 158 207 259 327 388
#     4  10  25  45  66  93 129 175 226 258 315 379
#     4  10  22  39  63  93 136 161 211 259 324 391
#     4  11  24  44  61  91 130 179 212 260 310 384
#     4  10  22  40  63 101 121 162 211 267 337 377
#     4  11  24  39  67  91 129 168 216 269 315 378
#     4  10  23  40  65  95 124 164 208 274 320 373
#
# _framework density 24.128513000000002
#
# number of rings (size 3 to 8) (size 9 to 14) (size 15 to 20)
#    0.000    1.714    0.000    2.571    8.000    8.000 
#    0.000    5.714    0.000    0.000    0.000    0.000 
#    0.000    0.000    0.000    0.000    0.000    0.000 
#
# Total GULP energy -78050.441712 kJ/mol
# GULP energy per Si atom -5575.031551 kJ/mol
# Density = 2.407360 g / cm^3
# Si number density = 24.128513 Si / 1000 Ang^3
#
#
#
# Elastic Constant Matrix: (Units=GPa)
#
#
# Indices 1 2 3 4 5 6 
#
# 1 114.9628 34.5451 29.8385 11.5388 -18.9424 -3.8029
# 2 34.5451 111.3872 17.4598 29.4601 16.8820 -5.0742
# 3 29.8385 17.4598 105.2491 8.1597 -29.3774 -14.0284
# 4 11.5388 29.4601 8.1597 30.6830 -10.1413 4.9391
# 5 -18.9424 16.8820 -29.3774 -10.1413 52.5125 9.9855
# 6 -3.8029 -5.0742 -14.0284 4.9391 9.9855 57.3606
#
#
#
# Elastic Compliance Matrix: (Units=1/GPa)
#
#
# Indices 1 2 3 4 5 6 
#
# 1 0.011106 -0.005033 -0.001087 0.003081 0.005850 -0.001259
# 2 -0.005033 0.019338 -0.003693 -0.021517 -0.015199 0.004973
# 3 -0.001087 -0.003693 0.012617 0.003181 0.008283 0.000971
# 4 0.003081 -0.021517 0.003181 0.060649 0.023466 -0.010228
# 5 0.005850 -0.015199 0.008283 0.023466 0.036598 -0.007323
# 6 -0.001259 0.004973 0.000971 -0.010228 -0.007323 0.020183
#
#
# Mechanical properties :
#
#
# Convention : Reuss Voigt Hill
#
# Bulk Modulus (GPa) = 42.67026 55.03176 48.85101
# Shear Modulus (GPa) = 26.60590 44.76162 35.68376
#
# Velocity S-wave (km/s) = 3.32426 4.31180 3.84982
# Velocity P-wave (km/s) = 5.69712 6.90262 6.32864
#
# Compressibility (1/GPa) = 0.02343553
#
# Stress axis : x y z
#
# Youngs Moduli (GPa) = 90.04096 51.71058 79.25849
#
# Poissons Ratio (x) = 0.26025 0.08619
# Poissons Ratio (y) = 0.45315 0.29268
# Poissons Ratio (z) = 0.09791 0.19095
#
# Static dielectric constant tensor:
#      x y z
#    x 2.339270 0.073010 0.917090 
#    y 0.073010 1.982810 0.203470 
#    z 0.917090 0.203470 4.072660 
# 
# From -- ./inp_files/67060.got.cif
#   From: 2010.05.17/outbox.cif.g08.bks.cpg/sg2_34_cif.got.tgz:67060.got - 2010.06.03 11:33:40.
