data_PCOD9021267
_publ_section_title
;
Structure prediction by ZEFSAII (Michael W. Deem and Ramdas Pophale) SiO2 
 PCOD9021267
Probable space group: P -1
;
_chemical_formula_sum "Si O2"
_cell_formula_units_Z 15
_cell_length_a 12.256119
_cell_length_b 21.886209
_cell_length_c 5.521825
_cell_angle_alpha 105.764299
_cell_angle_beta 83.280236
_cell_angle_gamma 153.079473
_cell_volume 618.156478
_symmetry_space_group_name_H-M "P -1"
_symmetry_group_IT_number 2
_symmetry_cell_setting 'triclinic'
loop_
_space_group_symop_operation_xyz
x,y,z
-x,-y,-z
loop_
_atom_site_type_symbol
_atom_site_label
_atom_site_fract_x
_atom_site_fract_y
_atom_site_fract_z
Si Si1 0.555002 0.473536 0.263868
Si Si2 0.251882 0.508020 0.395164
Si Si3 0.687172 0.924138 0.158839
Si Si4 0.401200 0.009035 0.389890
Si Si5 0.104998 0.301804 0.969937
Si Si6 0.393136 0.215656 0.593766
Si Si7 0.717702 0.274929 0.340988
Si Si8 0.000000 0.000000 0.000000
O O1 0.500000 0.500000 0.500000
O O2 0.592574 0.426516 0.334043
O O3 0.815314 0.629043 0.237039
O O4 0.316603 0.358796 0.027675
O O5 0.440668 0.634938 0.286021
O O6 0.015792 0.430547 0.418031
O O7 0.140593 0.382813 0.209346
O O8 0.716110 0.867001 0.208925
O O9 0.710192 0.994393 0.407310
O O10 0.420675 0.790057 0.951203
O O11 0.916861 0.033623 0.036299
O O12 0.174124 0.868998 0.128982
O O13 0.500000 0.000000 0.500000
O O14 0.621925 0.158540 0.349189
O O15 0.591142 0.262624 0.527131
O O16 0.201779 0.119892 0.316528
#
# Coordination Sequence:
#
# PCOD9021267 Si02
#       8
#     2   2   2   2   2   2   2   1
#     4   9  21  39  56  84 121 156 198 246 301 361
#     4  11  22  38  63  89 121 160 201 252 307 368
#     4  10  23  41  62  90 124 161 206 257 307 363
#     4  11  23  40  64  92 126 165 207 255 306 368
#     4  10  22  38  59  91 124 159 203 250 306 367
#     4  10  23  41  63  91 122 158 204 256 308 365
#     4  10  23  41  61  89 121 161 206 253 309 365
#     4  10  22  42  64  90 120 160 208 250 306 364
#
# _framework density 24.265698
#
# number of rings (size 3 to 8) (size 9 to 14) (size 15 to 20)
#    0.000    1.867    0.000    2.400    0.000   14.400 
#    0.000    0.000    0.000    0.000    0.000    0.000 
#    0.000    0.000    0.000    0.000    0.000    0.000 
#
# Total GULP energy -83595.495687 kJ/mol
# GULP energy per Si atom -5573.033046 kJ/mol
# Density = 2.421047 g / cm^3
# Si number density = 24.265698 Si / 1000 Ang^3
#
#
#
# Elastic Constant Matrix: (Units=GPa)
#
#
# Indices 1 2 3 4 5 6 
#
# 1 119.9748 36.8174 17.4151 18.0371 21.4567 5.8755
# 2 36.8174 75.2951 -6.2106 7.4512 17.0495 -11.6507
# 3 17.4151 -6.2106 44.6840 5.6033 12.6387 -13.1233
# 4 18.0371 7.4512 5.6033 20.6460 -2.4337 -0.9274
# 5 21.4567 17.0495 12.6387 -2.4337 39.4642 -4.9100
# 6 5.8755 -11.6507 -13.1233 -0.9274 -4.9100 31.6672
#
#
#
# Elastic Compliance Matrix: (Units=1/GPa)
#
#
# Indices 1 2 3 4 5 6 
#
# 1 0.013902 -0.006945 -0.006742 -0.008680 -0.004030 -0.008807
# 2 -0.006945 0.022387 0.012968 -0.005963 -0.008753 0.013367
# 3 -0.006742 0.012968 0.037023 -0.009386 -0.011980 0.019232
# 4 -0.008680 -0.005963 -0.009386 0.062358 0.014089 -0.000462
# 5 -0.004030 -0.008753 -0.011980 0.014089 0.035835 -0.001469
# 6 -0.008807 0.013367 0.019232 -0.000462 -0.001469 0.045859
#
#
# Mechanical properties :
#
#
# Convention : Reuss Voigt Hill
#
# Bulk Modulus (GPa) = 13.91323 37.33309 25.62316
# Shear Modulus (GPa) = 20.59639 31.15096 25.87368
#
# Velocity S-wave (km/s) = 2.91655 3.58683 3.26891
# Velocity P-wave (km/s) = 4.13375 5.70721 4.98298
#
# Compressibility (1/GPa) = 0.07187405
#
# Stress axis : x y z
#
# Youngs Moduli (GPa) = 71.93225 44.66834 27.01011
#
# Poissons Ratio (x) = 0.31023 0.18210
# Poissons Ratio (y) = 0.49958 -0.35026
# Poissons Ratio (z) = 0.48495 -0.57925
#
# Static dielectric constant tensor:
#      x y z
#    x 1.891440 -0.163180 0.102510 
#    y -0.163180 1.577150 0.199900 
#    z 0.102510 0.199900 1.828150 
# 
# From -- ./inp_files/68357.got.cif
#   From: 2010.05.17/outbox.cif.g08.bks.cpg/sg2_35_cif.got.tgz:68357.got - 2010.06.03 11:33:40.
