data_PCOD9021378
_publ_section_title
;
Structure prediction by ZEFSAII (Michael W. Deem and Ramdas Pophale) SiO2 
 PCOD9021378
Probable space group: P -1
;
_chemical_formula_sum "Si O2"
_cell_formula_units_Z 16
_cell_length_a 7.748542
_cell_length_b 18.724874
_cell_length_c 19.933435
_cell_angle_alpha 159.284440
_cell_angle_beta 43.975631
_cell_angle_gamma 133.908807
_cell_volume 707.893276
_symmetry_space_group_name_H-M "P -1"
_symmetry_group_IT_number 2
_symmetry_cell_setting 'triclinic'
loop_
_space_group_symop_operation_xyz
x,y,z
-x,-y,-z
loop_
_atom_site_type_symbol
_atom_site_label
_atom_site_fract_x
_atom_site_fract_y
_atom_site_fract_z
Si Si1 0.364263 0.659560 0.134673
Si Si2 0.139163 0.127934 0.979849
Si Si3 0.452255 0.538115 0.851669
Si Si4 0.384978 0.955211 0.891573
Si Si5 0.140506 0.174854 0.569283
Si Si6 0.184654 0.247924 0.475296
Si Si7 0.790206 0.976982 0.277842
Si Si8 0.764341 0.310089 0.091392
O O1 0.082138 0.678265 0.250671
O O2 0.525378 0.875361 0.286473
O O3 0.500000 0.500000 0.000000
O O4 0.364005 0.595724 0.000693
O O5 0.266808 0.357437 0.139986
O O6 0.252649 0.019868 0.916666
O O7 0.211530 0.005229 0.786142
O O8 0.842973 0.123808 0.067421
O O9 0.317154 0.646114 0.923557
O O10 0.371010 0.302037 0.652916
O O11 0.593714 0.805126 0.682552
O O12 0.542373 0.158524 0.050626
O O13 0.213861 0.123458 0.427830
O O14 0.000000 0.000000 0.500000
O O15 0.208485 0.481808 0.693178
O O16 0.918693 0.169445 0.449253
O O17 0.985959 0.804597 0.081390
#
# Coordination Sequence:
#
# PCOD9021378 Si02
#       8
#     2   2   2   2   2   2   2   2
#     4  11  23  39  62  86 116 163 208 251 305 354
#     4   9  19  39  62  93 110 159 197 251 300 357
#     4   9  20  40  62  80 119 158 202 244 299 364
#     4   9  19  39  68  81 122 155 205 239 302 367
#     4  11  25  38  59  90 120 162 209 246 300 367
#     4  10  22  39  58  88 124 157 196 247 303 359
#     4  10  22  38  61  85 127 150 198 255 301 350
#     4   9  19  39  60  86 118 161 197 241 300 365
#
# _framework density 22.602277000000001
#
# number of rings (size 3 to 8) (size 9 to 14) (size 15 to 20)
#    0.000    2.250    0.000    1.875    8.750    2.500 
#    4.500   13.750    0.000    0.000    0.000    0.000 
#    0.000    0.000    0.000    0.000    0.000    0.000 
#
# Total GULP energy -89441.475409 kJ/mol
# GULP energy per Si atom -5590.092213 kJ/mol
# Density = 2.255083 g / cm^3
# Si number density = 22.602277 Si / 1000 Ang^3
#
#
#
# Elastic Constant Matrix: (Units=GPa)
#
#
# Indices 1 2 3 4 5 6 
#
# 1 99.3466 30.1522 33.8228 11.7659 24.9191 14.3241
# 2 30.1522 123.0309 40.8938 3.7957 10.8009 39.0966
# 3 33.8228 40.8938 87.5537 22.9817 21.9985 12.1190
# 4 11.7659 3.7957 22.9817 27.8454 8.5933 2.2287
# 5 24.9191 10.8009 21.9985 8.5933 37.2417 9.1000
# 6 14.3241 39.0966 12.1190 2.2287 9.1000 33.3514
#
#
#
# Elastic Compliance Matrix: (Units=1/GPa)
#
#
# Indices 1 2 3 4 5 6 
#
# 1 0.013259 -0.001485 -0.002247 -0.001447 -0.006468 -0.001276
# 2 -0.001485 0.015278 -0.006172 0.003929 0.003255 -0.016180
# 3 -0.002247 -0.006172 0.019575 -0.012737 -0.006219 0.003635
# 4 -0.001447 0.003929 -0.012737 0.047631 -0.003233 -0.001657
# 5 -0.006468 0.003255 -0.006219 -0.003233 0.036754 -0.008591
# 6 -0.001276 -0.016180 0.003635 -0.001657 -0.008591 0.050633
#
#
# Mechanical properties :
#
#
# Convention : Reuss Voigt Hill
#
# Bulk Modulus (GPa) = 35.32931 57.74096 46.53514
# Shear Modulus (GPa) = 23.54347 33.35853 28.45100
#
# Velocity S-wave (km/s) = 3.23095 3.84590 3.55176
# Velocity P-wave (km/s) = 5.43907 6.73226 6.11992
#
# Compressibility (1/GPa) = 0.02830511
#
# Stress axis : x y z
#
# Youngs Moduli (GPa) = 75.41914 65.45275 51.08574
#
# Poissons Ratio (x) = 0.09717 0.11479
# Poissons Ratio (y) = 0.11197 0.31531
# Poissons Ratio (z) = 0.16946 0.40398
#
# Static dielectric constant tensor:
#      x y z
#    x 1.854300 -0.020700 -0.014890 
#    y -0.020700 1.846660 0.040020 
#    z -0.014890 0.040020 1.834770 
# 
# From -- ./inp_files/590227.got.cif
#   From: 2010.05.17/outbox.cif.g08.bks.cpg/sg2_296_cif.got.tgz:590227.got - 2010.06.03 11:33:40.
