data_PCOD9021701
_publ_section_title
;
Structure prediction by ZEFSAII (Michael W. Deem and Ramdas Pophale) SiO2 
 PCOD9021701
Probable space group: P -1
;
_chemical_formula_sum "Si O2"
_cell_formula_units_Z 16
_cell_length_a 17.888845
_cell_length_b 9.466472
_cell_length_c 5.377184
_cell_angle_alpha 96.859869
_cell_angle_beta 81.975299
_cell_angle_gamma 130.000762
_cell_volume 690.188283
_symmetry_space_group_name_H-M "P -1"
_symmetry_group_IT_number 2
_symmetry_cell_setting 'triclinic'
loop_
_space_group_symop_operation_xyz
x,y,z
-x,-y,-z
loop_
_atom_site_type_symbol
_atom_site_label
_atom_site_fract_x
_atom_site_fract_y
_atom_site_fract_z
Si Si1 0.717307 0.501186 0.156909
Si Si2 0.915968 0.250400 0.259289
Si Si3 0.495186 0.162801 0.094645
Si Si4 0.798739 0.887387 0.981898
Si Si5 0.446016 0.260505 0.656358
Si Si6 0.883342 0.511998 0.115669
Si Si7 0.654952 0.638827 0.578228
Si Si8 0.985423 0.136216 0.636744
O O1 0.607535 0.352722 0.073634
O O2 0.776222 0.427094 0.057609
O O3 0.699691 0.540757 0.453579
O O4 0.774848 0.704121 0.060580
O O5 0.887799 0.380067 0.259338
O O6 0.938033 0.201115 0.499578
O O7 0.023951 0.378763 0.095186
O O8 0.817895 0.050225 0.170513
O O9 0.457573 0.171796 0.387266
O O10 0.435099 0.162339 0.896400
O O11 0.500000 0.000000 0.000000
O O12 0.724340 0.805418 0.769156
O O13 0.911294 0.019336 0.867822
O O14 0.546489 0.471908 0.687357
O O15 0.365380 0.282755 0.632414
O O16 0.909739 0.679626 0.303127
O O17 0.000000 0.000000 0.500000
#
# Coordination Sequence:
#
# PCOD9021701 Si02
#       8
#     2   2   2   2   2   2   2   2
#     4  11  23  40  64  91 129 166 224 273 328 399
#     4  10  22  39  61  89 128 168 215 261 330 400
#     4  11  24  45  69  99 138 179 222 274 341 409
#     4  11  21  37  60  91 124 160 218 269 319 392
#     4  10  23  42  70  95 132 178 221 276 340 397
#     4  10  22  40  60  89 128 173 207 268 328 391
#     4  10  22  38  64  94 124 166 220 278 328 393
#     4  11  21  37  62  90 124 166 213 266 325 389
#
# _framework density 23.182079000000002
#
# number of rings (size 3 to 8) (size 9 to 14) (size 15 to 20)
#    0.000    1.500    1.250    3.750    1.750    4.500 
#    2.250    0.000    0.000    0.000    0.000    0.000 
#    0.000    0.000    0.000    0.000    0.000    0.000 
#
# Total GULP energy -89180.804568 kJ/mol
# GULP energy per Si atom -5573.800285 kJ/mol
# Density = 2.312932 g / cm^3
# Si number density = 23.182079 Si / 1000 Ang^3
#
#
#
# Elastic Constant Matrix: (Units=GPa)
#
#
# Indices 1 2 3 4 5 6 
#
# 1 106.7611 3.1463 10.3878 0.8450 -6.0883 -10.3287
# 2 3.1463 82.1394 11.4135 -0.1224 -7.5575 -10.3617
# 3 10.3878 11.4135 41.5366 7.2847 10.3582 -1.4334
# 4 0.8450 -0.1224 7.2847 26.0335 4.4682 8.6291
# 5 -6.0883 -7.5575 10.3582 4.4682 25.7841 5.4321
# 6 -10.3287 -10.3617 -1.4334 8.6291 5.4321 32.8064
#
#
#
# Elastic Compliance Matrix: (Units=1/GPa)
#
#
# Indices 1 2 3 4 5 6 
#
# 1 0.010167 0.000775 -0.003360 -0.000976 0.003520 0.002973
# 2 0.000775 0.013841 -0.005164 -0.000692 0.005669 0.003633
# 3 -0.003360 -0.005164 0.031243 -0.007184 -0.014229 0.002922
# 4 -0.000976 -0.000692 -0.007184 0.044973 -0.002768 -0.012211
# 5 0.003520 0.005669 -0.014229 -0.002768 0.048532 -0.005031
# 6 0.002973 0.003633 0.002922 -0.012211 -0.005031 0.036738
#
#
# Mechanical properties :
#
#
# Convention : Reuss Voigt Hill
#
# Bulk Modulus (GPa) = 25.15479 31.14805 28.15142
# Shear Modulus (GPa) = 23.33791 30.62410 26.98100
#
# Velocity S-wave (km/s) = 3.17633 3.63853 3.41526
# Velocity P-wave (km/s) = 4.93220 5.57829 5.26517
#
# Compressibility (1/GPa) = 0.03975386
#
# Stress axis : x y z
#
# Youngs Moduli (GPa) = 98.35904 72.24808 32.00668
#
# Poissons Ratio (x) = -0.05598 0.10753
# Poissons Ratio (y) = -0.07621 0.16528
# Poissons Ratio (z) = 0.33046 0.37309
#
# Static dielectric constant tensor:
#      x y z
#    x 1.893600 0.003620 -0.020680 
#    y 0.003620 1.791370 -0.016770 
#    z -0.020680 -0.016770 2.036520 
# 
# From -- ./inp_files/37432.got.cif
#   From: 2010.05.17/outbox.cif.g08.bks.cpg/sg2_19_cif.got.tgz:37432.got - 2010.06.03 11:33:40.
