data_PCOD9021153
_publ_section_title
;
Structure prediction by ZEFSAII (Michael W. Deem and Ramdas Pophale) SiO2 
 PCOD9021153
Probable space group: P -1
;
_chemical_formula_sum "Si O2"
_cell_formula_units_Z 16
_cell_length_a 8.351930
_cell_length_b 9.190685
_cell_length_c 15.405577
_cell_angle_alpha 119.226315
_cell_angle_beta 121.015618
_cell_angle_gamma 96.757537
_cell_volume 769.139672
_symmetry_space_group_name_H-M "P -1"
_symmetry_group_IT_number 2
_symmetry_cell_setting 'triclinic'
loop_
_space_group_symop_operation_xyz
x,y,z
-x,-y,-z
loop_
_atom_site_type_symbol
_atom_site_label
_atom_site_fract_x
_atom_site_fract_y
_atom_site_fract_z
Si Si1 0.681964 0.784962 0.040092
Si Si2 0.371808 0.039416 0.401695
Si Si3 0.228522 0.329776 0.472815
Si Si4 0.993178 0.364460 0.879184
Si Si5 0.695730 0.942665 0.903302
Si Si6 0.604961 0.712604 0.664159
Si Si7 0.794212 0.192548 0.263770
Si Si8 0.807823 0.345193 0.123249
O O1 0.808360 0.674931 0.065801
O O2 0.783394 0.992820 0.174933
O O3 0.700343 0.830914 0.956507
O O4 0.429097 0.677525 0.960073
O O5 0.216391 0.843406 0.250556
O O6 0.500000 0.000000 0.500000
O O7 0.250877 0.143392 0.444586
O O8 0.493373 0.195073 0.404045
O O9 0.430409 0.529845 0.615719
O O10 0.264924 0.347952 0.383079
O O11 0.993526 0.296222 0.414544
O O12 0.021005 0.470574 0.826050
O O13 0.000000 0.500000 0.000000
O O14 0.771670 0.877476 0.821734
O O15 0.444837 0.870364 0.790673
O O16 0.799518 0.163317 0.019507
O O17 0.831477 0.317085 0.223333
#
# Coordination Sequence:
#
# PCOD9021153 Si02
#       8
#     2   2   2   2   2   2   2   2
#     4   9  18  37  53  80 111 144 169 222 279 323
#     4  10  22  38  53  75 111 148 179 218 269 324
#     4   9  19  34  55  72 101 143 186 210 269 319
#     4  12  23  34  55  86 110 145 186 224 264 324
#     4   9  18  34  57  82 109 132 172 235 272 307
#     4   9  19  35  54  77 102 142 183 223 265 310
#     4   9  17  34  56  79 103 139 180 218 269 324
#     4   9  20  32  56  81 112 140 174 215 280 329
#
# _framework density 20.802461999999998
#
# number of rings (size 3 to 8) (size 9 to 14) (size 15 to 20)
#    0.750    1.750    1.250    2.625    1.750    2.500 
#    0.000    3.125    0.000    0.750    0.000    0.000 
#    0.000    0.000    0.000    0.000    0.000    0.000 
#
# Total GULP energy -89144.969225 kJ/mol
# GULP energy per Si atom -5571.560577 kJ/mol
# Density = 2.075512 g / cm^3
# Si number density = 20.802462 Si / 1000 Ang^3
#
#
#
# Elastic Constant Matrix: (Units=GPa)
#
#
# Indices 1 2 3 4 5 6 
#
# 1 31.3446 21.4075 13.5167 4.3629 0.9929 -12.8855
# 2 21.4075 86.7328 19.9865 12.9362 5.6869 -9.1449
# 3 13.5167 19.9865 51.9101 5.7900 3.9807 -14.3411
# 4 4.3629 12.9362 5.7900 22.8020 -4.0627 4.1959
# 5 0.9929 5.6869 3.9807 -4.0627 36.6498 1.2089
# 6 -12.8855 -9.1449 -14.3411 4.1959 1.2089 26.8528
#
#
#
# Elastic Compliance Matrix: (Units=1/GPa)
#
#
# Indices 1 2 3 4 5 6 
#
# 1 0.047856 -0.007748 -0.002954 -0.007934 -0.001314 0.020047
# 2 -0.007748 0.015465 -0.002474 -0.007440 -0.002796 0.001516
# 3 -0.002954 -0.002474 0.025625 -0.007523 -0.003574 0.012762
# 4 -0.007934 -0.007440 -0.007523 0.056744 0.009125 -0.019636
# 5 -0.001314 -0.002796 -0.003574 0.009125 0.029360 -0.006239
# 6 0.020047 0.001516 0.012762 -0.019636 -0.006239 0.057541
#
#
# Mechanical properties :
#
#
# Convention : Reuss Voigt Hill
#
# Bulk Modulus (GPa) = 15.97593 31.08989 23.53291
# Shear Modulus (GPa) = 17.86948 24.93272 21.40110
#
# Velocity S-wave (km/s) = 2.93406 3.46576 3.21094
# Velocity P-wave (km/s) = 4.37890 5.56714 5.00839
#
# Compressibility (1/GPa) = 0.06259416
#
# Stress axis : x y z
#
# Youngs Moduli (GPa) = 20.89605 64.66248 39.02500
#
# Poissons Ratio (x) = 0.50100 0.11528
# Poissons Ratio (y) = 0.16190 0.09654
# Poissons Ratio (z) = 0.06173 0.15996
#
# Static dielectric constant tensor:
#      x y z
#    x 1.817220 0.001160 0.014070 
#    y 0.001160 1.726840 0.019820 
#    z 0.014070 0.019820 1.772520 
# 
# From -- ./inp_files/514035.got.cif
#   From: 2010.05.17/outbox.cif.g08.bks.cpg/sg2_258_cif.got.tgz:514035.got - 2010.06.03 11:33:40.
