data_PCOD9021505
_publ_section_title
;
Structure prediction by ZEFSAII (Michael W. Deem and Ramdas Pophale) SiO2 
 PCOD9021505
Probable space group: P -1
;
_chemical_formula_sum "Si O2"
_cell_formula_units_Z 14
_cell_length_a 11.224960
_cell_length_b 11.892196
_cell_length_c 11.728994
_cell_angle_alpha 78.433209
_cell_angle_beta 64.211327
_cell_angle_gamma 132.045184
_cell_volume 709.179738
_symmetry_space_group_name_H-M "P -1"
_symmetry_group_IT_number 2
_symmetry_cell_setting 'triclinic'
loop_
_space_group_symop_operation_xyz
x,y,z
-x,-y,-z
loop_
_atom_site_type_symbol
_atom_site_label
_atom_site_fract_x
_atom_site_fract_y
_atom_site_fract_z
Si Si1 0.282206 0.193691 0.202782
Si Si2 0.239043 0.412829 0.913563
Si Si3 0.721494 0.195124 0.458495
Si Si4 0.684562 0.004451 0.174315
Si Si5 0.983933 0.557142 0.113873
Si Si6 0.982170 0.794541 0.561351
Si Si7 0.416196 0.297946 0.859728
O O1 0.119525 0.184452 0.311589
O O2 0.559224 0.410647 0.106765
O O3 0.326539 0.222663 0.044068
O O4 0.131484 0.973725 0.363357
O O5 0.935045 0.185473 0.117548
O O6 0.244479 0.519313 0.796387
O O7 0.307239 0.338599 0.852531
O O8 0.931543 0.429426 0.260503
O O9 0.837210 0.165294 0.465831
O O10 0.500000 0.000000 0.500000
O O11 0.578171 0.163077 0.620131
O O12 0.673787 0.879582 0.135028
O O13 0.766567 0.176705 0.030485
O O14 0.000000 0.500000 0.000000
O O15 0.724078 0.539851 0.678080
#
# Coordination Sequence:
#
# PCOD9021505 Si02
#       7
#     2   2   2   2   2   2   2
#     4  10  22  40  68  92 122 164 209 260 300 361
#     4   9  20  42  65  92 121 161 214 252 296 370
#     4  12  23  39  65  88 125 163 205 261 297 364
#     4  10  25  40  62  97 126 161 206 251 317 365
#     4  10  22  38  62  93 119 157 215 248 301 361
#     4  10  24  40  64  94 123 164 216 246 307 371
#     4  11  23  42  64  92 131 163 197 261 315 364
#
# _framework density 19.741115000000001
#
# number of rings (size 3 to 8) (size 9 to 14) (size 15 to 20)
#    0.857    0.857    1.429    3.000    8.000    1.714 
#    0.000    2.143    0.000    0.000    0.000    0.000 
#    0.000    0.000    0.000    0.000    0.000    0.000 
#
# Total GULP energy -78113.314677 kJ/mol
# GULP energy per Si atom -5579.522477 kJ/mol
# Density = 1.969618 g / cm^3
# Si number density = 19.741115 Si / 1000 Ang^3
#
#
#
# Elastic Constant Matrix: (Units=GPa)
#
#
# Indices 1 2 3 4 5 6 
#
# 1 99.2805 22.6578 25.4259 -3.1224 -6.3887 -11.1967
# 2 22.6578 81.8685 32.3485 -6.2707 0.2015 -21.6400
# 3 25.4259 32.3485 87.9769 -11.9244 0.4441 -4.3747
# 4 -3.1224 -6.2707 -11.9244 19.9202 -1.9701 2.4601
# 5 -6.3887 0.2015 0.4441 -1.9701 23.3449 -9.6183
# 6 -11.1967 -21.6400 -4.3747 2.4601 -9.6183 19.9737
#
#
#
# Elastic Compliance Matrix: (Units=1/GPa)
#
#
# Indices 1 2 3 4 5 6 
#
# 1 0.012520 0.000737 -0.003444 -0.000432 0.007960 0.010949
# 2 0.000737 0.022454 -0.007007 0.000611 0.012129 0.028972
# 3 -0.003444 -0.007007 0.015487 0.007222 -0.004315 -0.009098
# 4 -0.000432 0.000611 0.007222 0.055362 0.003027 -0.003359
# 5 0.007960 0.012129 -0.004315 0.003027 0.064816 0.047497
# 6 0.010949 0.028972 -0.009098 -0.003359 0.047497 0.108885
#
#
# Mechanical properties :
#
#
# Convention : Reuss Voigt Hill
#
# Bulk Modulus (GPa) = 32.22343 47.77672 40.00008
# Shear Modulus (GPa) = 16.16576 25.22734 20.69655
#
# Velocity S-wave (km/s) = 2.86473 3.57866 3.24141
# Velocity P-wave (km/s) = 5.22500 6.42884 5.85793
#
# Compressibility (1/GPa) = 0.03103332
#
# Stress axis : x y z
#
# Youngs Moduli (GPa) = 79.87512 44.53480 64.57236
#
# Poissons Ratio (x) = -0.03283 0.22236
# Poissons Ratio (y) = -0.05888 0.45247
# Poissons Ratio (z) = 0.27505 0.31206
#
# Static dielectric constant tensor:
#      x y z
#    x 1.719490 -0.003690 -0.008170 
#    y -0.003690 1.679140 -0.017540 
#    z -0.008170 -0.017540 1.717280 
# 
# From -- ./inp_files/428111.got.cif
#   From: 2010.05.17/outbox.cif.g08.bks.cpg/sg2_215_cif.got.tgz:428111.got - 2010.06.03 11:33:40.
