data_PCOD9021300
_publ_section_title
;
Structure prediction by ZEFSAII (Michael W. Deem and Ramdas Pophale) SiO2 
 PCOD9021300
Probable space group: P -1
;
_chemical_formula_sum "Si O2"
_cell_formula_units_Z 14
_cell_length_a 14.618228
_cell_length_b 6.908444
_cell_length_c 11.292642
_cell_angle_alpha 45.289266
_cell_angle_beta 49.555099
_cell_angle_gamma 49.699842
_cell_volume 577.306374
_symmetry_space_group_name_H-M "P -1"
_symmetry_group_IT_number 2
_symmetry_cell_setting 'triclinic'
loop_
_space_group_symop_operation_xyz
x,y,z
-x,-y,-z
loop_
_atom_site_type_symbol
_atom_site_label
_atom_site_fract_x
_atom_site_fract_y
_atom_site_fract_z
Si Si1 0.097604 0.911026 0.599660
Si Si2 0.765895 0.402599 0.157162
Si Si3 0.699850 0.488204 0.564233
Si Si4 0.711497 0.789991 0.667668
Si Si5 0.688599 0.247229 0.047694
Si Si6 0.815851 0.961313 0.833652
Si Si7 0.549044 0.811837 0.337188
O O1 0.132467 0.811865 0.748108
O O2 0.180494 0.629943 0.575046
O O3 0.416685 0.328447 0.500826
O O4 0.947741 0.996956 0.669268
O O5 0.644156 0.603367 0.250657
O O6 0.728462 0.233865 0.155613
O O7 0.821876 0.635765 0.955337
O O8 0.725348 0.666523 0.575786
O O9 0.699639 0.193971 0.757464
O O10 0.839496 0.842254 0.579547
O O11 0.669919 0.570822 0.878948
O O12 0.596749 0.099688 0.620362
O O13 0.793103 0.046921 0.953993
O O14 0.575563 0.116682 0.187964
#
# Coordination Sequence:
#
# PCOD9021300 Si02
#       7
#     2   2   2   2   2   2   2
#     4  11  23  38  60  88 118 154 192 236 290 345
#     4  10  22  39  60  86 116 154 194 238 290 340
#     4  10  22  38  60  86 116 152 192 240 288 336
#     4  11  23  38  60  88 118 154 192 236 290 345
#     4  10  22  39  60  86 116 154 194 238 290 340
#     4  10  22  40  60  87 118 150 195 240 286 345
#     4  10  22  40  60  87 118 150 195 240 286 345
#
# _framework density 24.250554000000001
#
# number of rings (size 3 to 8) (size 9 to 14) (size 15 to 20)
#    0.000    1.714    0.000    3.429    0.000    8.000 
#    0.000    0.000    0.000    0.000    0.000    0.000 
#    0.000    0.000    0.000    0.000    0.000    0.000 
#
# Total GULP energy -78348.466423 kJ/mol
# GULP energy per Si atom -5596.319030 kJ/mol
# Density = 2.419536 g / cm^3
# Si number density = 24.250554 Si / 1000 Ang^3
#
#
#
# Elastic Constant Matrix: (Units=GPa)
#
#
# Indices 1 2 3 4 5 6 
#
# 1 92.4289 22.9706 39.3153 2.3687 4.9699 10.6221
# 2 22.9706 43.8564 13.0165 4.2121 2.6225 16.1058
# 3 39.3153 13.0165 120.1256 -28.3025 2.2040 3.5274
# 4 2.3687 4.2121 -28.3025 42.0670 10.5520 9.7540
# 5 4.9699 2.6225 2.2040 10.5520 40.0528 3.3211
# 6 10.6221 16.1058 3.5274 9.7540 3.3211 32.5772
#
#
#
# Elastic Compliance Matrix: (Units=1/GPa)
#
#
# Indices 1 2 3 4 5 6 
#
# 1 0.014448 -0.005643 -0.004907 -0.003414 -0.000225 -0.000345
# 2 -0.005643 0.031033 -0.001264 -0.000577 -0.000016 -0.013191
# 3 -0.004907 -0.001264 0.012483 0.009835 -0.002435 -0.001823
# 4 -0.003414 -0.000577 0.009835 0.034919 -0.008512 -0.009254
# 5 -0.000225 -0.000016 -0.002435 -0.008512 0.027364 0.000104
# 6 -0.000345 -0.013191 -0.001823 -0.009254 0.000104 0.040288
#
#
# Mechanical properties :
#
#
# Convention : Reuss Voigt Hill
#
# Bulk Modulus (GPa) = 29.12441 45.22397 37.17419
# Shear Modulus (GPa) = 25.56112 35.01329 30.28721
#
# Velocity S-wave (km/s) = 3.25012 3.80388 3.53785
# Velocity P-wave (km/s) = 5.11080 6.16293 5.66136
#
# Compressibility (1/GPa) = 0.03433546
#
# Stress axis : x y z
#
# Youngs Moduli (GPa) = 69.21333 32.22347 80.10864
#
# Poissons Ratio (x) = 0.18184 0.39311
# Poissons Ratio (y) = 0.39058 0.10127
# Poissons Ratio (z) = 0.33964 0.04074
#
# Static dielectric constant tensor:
#      x y z
#    x 1.884260 0.010500 0.010180 
#    y 0.010500 1.931540 -0.003850 
#    z 0.010180 -0.003850 1.974470 
# 
# From -- ./inp_files/67203.got.cif
#   From: 2010.05.17/outbox.cif.g08.bks.cpg/sg2_34_cif.got.tgz:67203.got - 2010.06.03 11:33:40.
