data_PCOD9021052
_publ_section_title
;
Structure prediction by ZEFSAII (Michael W. Deem and Ramdas Pophale) SiO2 
 PCOD9021052
Probable space group: P -1
;
_chemical_formula_sum "Si O2"
_cell_formula_units_Z 14
_cell_length_a 11.753381
_cell_length_b 8.908580
_cell_length_c 14.374290
_cell_angle_alpha 100.980409
_cell_angle_beta 127.907385
_cell_angle_gamma 122.601326
_cell_volume 620.284834
_symmetry_space_group_name_H-M "P -1"
_symmetry_group_IT_number 2
_symmetry_cell_setting 'triclinic'
loop_
_space_group_symop_operation_xyz
x,y,z
-x,-y,-z
loop_
_atom_site_type_symbol
_atom_site_label
_atom_site_fract_x
_atom_site_fract_y
_atom_site_fract_z
Si Si1 0.310865 0.721765 0.309800
Si Si2 0.251359 0.766742 0.072160
Si Si3 0.462085 0.220099 0.996659
Si Si4 0.195844 0.053866 0.148979
Si Si5 0.775339 0.257453 0.280777
Si Si6 0.140421 0.226500 0.865473
Si Si7 0.415302 0.361302 0.542335
O O1 0.288333 0.727619 0.188020
O O2 0.410855 0.637727 0.359748
O O3 0.500000 0.000000 0.500000
O O4 0.004259 0.494036 0.153167
O O5 0.220248 0.917696 0.094363
O O6 0.521518 0.977572 0.180408
O O7 0.311537 0.226468 0.972588
O O8 0.220277 0.885889 0.803097
O O9 0.669830 0.308227 0.174489
O O10 0.646555 0.465753 0.037428
O O11 0.482644 0.398905 0.323421
O O12 0.045077 0.886295 0.153236
O O13 0.000000 0.000000 0.000000
O O14 0.000000 0.500000 0.500000
O O15 0.898488 0.960944 0.642063
O O16 0.500000 0.500000 0.500000
#
# Coordination Sequence:
#
# PCOD9021052 Si02
#       7
#     2   2   2   2   2   2   2
#     4  11  24  41  66 103 136 171 212 280 347 399
#     4  11  26  42  68 103 133 172 223 279 338 397
#     4  10  25  48  68  91 135 183 221 282 319 400
#     4  11  21  41  66 100 136 164 216 283 332 396
#     4  11  27  46  69  95 134 182 232 268 333 397
#     4  10  23  44  68  96 130 174 226 268 341 390
#     4  10  22  37  65  94 124 172 212 262 335 393
#
# _framework density 22.570277000000001
#
# number of rings (size 3 to 8) (size 9 to 14) (size 15 to 20)
#    0.000    1.429    1.429    2.571   12.000    1.143 
#    0.000    1.429    0.000    0.000    0.000    0.000 
#    0.000    0.000    0.000    0.000    0.000    0.000 
#
# Total GULP energy -78026.379375 kJ/mol
# GULP energy per Si atom -5573.312812 kJ/mol
# Density = 2.251891 g / cm^3
# Si number density = 22.570277 Si / 1000 Ang^3
#
#
#
# Elastic Constant Matrix: (Units=GPa)
#
#
# Indices 1 2 3 4 5 6 
#
# 1 51.1094 9.2928 18.3695 6.1826 -3.7457 -19.5324
# 2 9.2928 93.9647 60.7987 -8.4058 -5.5047 -32.5638
# 3 18.3695 60.7987 149.0024 10.5885 -11.8093 -21.8448
# 4 6.1826 -8.4058 10.5885 43.7284 -4.1463 9.9083
# 5 -3.7457 -5.5047 -11.8093 -4.1463 28.3985 4.5182
# 6 -19.5324 -32.5638 -21.8448 9.9083 4.5182 39.1674
#
#
#
# Elastic Compliance Matrix: (Units=1/GPa)
#
#
# Indices 1 2 3 4 5 6 
#
# 1 0.026951 0.004038 -0.001978 -0.006509 -0.000198 0.017364
# 2 0.004038 0.019506 -0.006504 0.001475 -0.000448 0.014283
# 3 -0.001978 -0.006504 0.009960 -0.003102 0.002216 -0.000310
# 4 -0.006509 0.001475 -0.003102 0.027744 0.003974 -0.011227
# 5 -0.000198 -0.000448 0.002216 0.003974 0.037325 -0.004546
# 6 0.017364 0.014283 -0.000310 -0.011227 -0.004546 0.049257
#
#
# Mechanical properties :
#
#
# Convention : Reuss Voigt Hill
#
# Bulk Modulus (GPa) = 21.03917 52.33318 36.68618
# Shear Modulus (GPa) = 25.57890 35.96656 30.77273
#
# Velocity S-wave (km/s) = 3.37010 3.99624 3.69646
# Velocity P-wave (km/s) = 4.94827 6.67311 5.87434
#
# Compressibility (1/GPa) = 0.04753038
#
# Stress axis : x y z
#
# Youngs Moduli (GPa) = 37.10402 51.26535 100.40658
#
# Poissons Ratio (x) = -0.20700 0.19858
# Poissons Ratio (y) = -0.14982 0.65299
# Poissons Ratio (z) = 0.07338 0.33340
#
# Static dielectric constant tensor:
#      x y z
#    x 1.950510 0.032900 -0.142850 
#    y 0.032900 1.902730 0.114050 
#    z -0.142850 0.114050 2.197420 
# 
# From -- ./inp_files/514465.got.cif
#   From: 2010.05.17/outbox.cif.g08.bks.cpg/sg2_258_cif.got.tgz:514465.got - 2010.06.03 11:33:40.
