data_PCOD9021562
_publ_section_title
;
Structure prediction by ZEFSAII (Michael W. Deem and Ramdas Pophale) SiO2 
 PCOD9021562
Probable space group: P -1
;
_chemical_formula_sum "Si O2"
_cell_formula_units_Z 16
_cell_length_a 8.265650
_cell_length_b 24.078193
_cell_length_c 6.096353
_cell_angle_alpha 115.320825
_cell_angle_beta 56.767934
_cell_angle_gamma 137.216017
_cell_volume 688.650380
_symmetry_space_group_name_H-M "P -1"
_symmetry_group_IT_number 2
_symmetry_cell_setting 'triclinic'
loop_
_space_group_symop_operation_xyz
x,y,z
-x,-y,-z
loop_
_atom_site_type_symbol
_atom_site_label
_atom_site_fract_x
_atom_site_fract_y
_atom_site_fract_z
Si Si1 0.114608 0.116051 0.578701
Si Si2 0.513694 0.846433 0.957726
Si Si3 0.298837 0.904054 0.911566
Si Si4 0.183797 0.690345 0.198300
Si Si5 0.307458 0.044421 0.618148
Si Si6 0.668001 0.401686 0.829456
Si Si7 0.960210 0.420975 0.265350
Si Si8 0.304902 0.423839 0.351278
O O1 0.210330 0.078488 0.587866
O O2 0.348728 0.175013 0.335472
O O3 0.884211 0.049926 0.470311
O O4 0.988248 0.134809 0.881083
O O5 0.373356 0.784745 0.160259
O O6 0.699387 0.934560 0.091419
O O7 0.342559 0.852446 0.937425
O O8 0.403552 0.912673 0.604105
O O9 0.500000 0.000000 0.000000
O O10 0.318192 0.658349 0.147433
O O11 0.938832 0.654051 0.467293
O O12 0.082339 0.646161 0.965566
O O13 0.923039 0.498401 0.822857
O O14 0.703489 0.387713 0.527323
O O15 0.444437 0.399392 0.071579
O O16 0.179396 0.447019 0.319500
O O17 0.500000 0.500000 0.500000
#
# Coordination Sequence:
#
# PCOD9021562 Si02
#       8
#     2   2   2   2   2   2   2   2
#     4   9  19  36  60  86 111 153 196 238 289 350
#     4  11  23  38  58  86 123 156 191 246 296 343
#     4   9  20  37  59  87 114 150 197 243 288 348
#     4  11  25  40  56  88 127 155 197 244 296 351
#     4   9  19  37  60  85 116 147 197 243 285 345
#     4  10  22  38  63  88 113 156 199 242 290 351
#     4  10  22  39  63  87 116 154 196 246 294 342
#     4  11  23  38  64  92 114 147 202 245 289 353
#
# _framework density 23.233851000000001
#
# number of rings (size 3 to 8) (size 9 to 14) (size 15 to 20)
#    0.000    2.000    1.250    1.875    3.500    8.000 
#    0.000    2.500    0.000    0.000    0.000    0.000 
#    0.000    0.000    0.000    0.000    0.000    0.000 
#
# Total GULP energy -89296.102108 kJ/mol
# GULP energy per Si atom -5581.006382 kJ/mol
# Density = 2.318097 g / cm^3
# Si number density = 23.233851 Si / 1000 Ang^3
#
#
#
# Elastic Constant Matrix: (Units=GPa)
#
#
# Indices 1 2 3 4 5 6 
#
# 1 54.9702 15.3747 45.9884 -14.7124 -25.3982 -17.3643
# 2 15.3747 60.6745 8.9496 -20.1807 -10.9203 -17.4299
# 3 45.9884 8.9496 135.7772 -16.9092 -50.6785 -6.8463
# 4 -14.7124 -20.1807 -16.9092 35.1835 7.2447 5.1310
# 5 -25.3982 -10.9203 -50.6785 7.2447 50.8848 2.3444
# 6 -17.3643 -17.4299 -6.8463 5.1310 2.3444 12.7529
#
#
#
# Elastic Compliance Matrix: (Units=1/GPa)
#
#
# Indices 1 2 3 4 5 6 
#
# 1 0.072422 0.028840 -0.008260 0.019940 0.025704 0.120843
# 2 0.028840 0.045279 0.001251 0.021818 0.018118 0.089716
# 3 -0.008260 0.001251 0.013788 0.002611 0.009735 -0.004975
# 4 0.019940 0.021818 0.002611 0.042864 0.009317 0.039413
# 5 0.025704 0.018118 0.009735 0.009317 0.042276 0.053468
# 6 0.120843 0.089716 -0.004975 0.039413 0.053468 0.337214
#
#
# Mechanical properties :
#
#
# Convention : Reuss Voigt Hill
#
# Bulk Modulus (GPa) = 5.70938 43.56081 24.63509
# Shear Modulus (GPa) = 8.79408 31.83819 20.31613
#
# Velocity S-wave (km/s) = 1.94763 3.70582 2.96027
# Velocity P-wave (km/s) = 2.74233 6.09101 4.72338
#
# Compressibility (1/GPa) = 0.17515048
#
# Stress axis : x y z
#
# Youngs Moduli (GPa) = 13.80804 22.08526 72.52549
#
# Poissons Ratio (x) = -0.63694 0.59905
# Poissons Ratio (y) = -0.39822 -0.09070
# Poissons Ratio (z) = 0.11405 -0.02762
#
# Static dielectric constant tensor:
#      x y z
#    x 1.856520 0.031440 -0.010010 
#    y 0.031440 1.946650 0.011520 
#    z -0.010010 0.011520 1.934580 
# 
# From -- ./inp_files/55575.got.cif
#   From: 2010.05.17/outbox.cif.g08.bks.cpg/sg2_28_cif.got.tgz:55575.got - 2010.06.03 11:33:40.
