data_PCOD9021700
_publ_section_title
;
Structure prediction by ZEFSAII (Michael W. Deem and Ramdas Pophale) SiO2 
 PCOD9021700
Probable space group: P -1
;
_chemical_formula_sum "Si O2"
_cell_formula_units_Z 16
_cell_length_a 15.528427
_cell_length_b 13.672666
_cell_length_c 6.605552
_cell_angle_alpha 74.964658
_cell_angle_beta 107.390097
_cell_angle_gamma 149.642427
_cell_volume 676.394095
_symmetry_space_group_name_H-M "P -1"
_symmetry_group_IT_number 2
_symmetry_cell_setting 'triclinic'
loop_
_space_group_symop_operation_xyz
x,y,z
-x,-y,-z
loop_
_atom_site_type_symbol
_atom_site_label
_atom_site_fract_x
_atom_site_fract_y
_atom_site_fract_z
Si Si1 0.663035 0.105116 0.271253
Si Si2 0.846260 0.431714 0.944916
Si Si3 0.718719 0.818408 0.908276
Si Si4 0.819389 0.853245 0.553390
Si Si5 0.664300 0.891093 0.178089
Si Si6 0.343209 0.429294 0.708638
Si Si7 0.300035 0.560276 0.885125
Si Si8 0.685072 0.260081 0.529085
O O1 0.768546 0.247583 0.465910
O O2 0.695349 0.028681 0.230620
O O3 0.477546 0.925662 0.347173
O O4 0.696425 0.220971 0.061091
O O5 0.809505 0.427583 0.691852
O O6 0.849418 0.532017 0.036604
O O7 0.000000 0.500000 0.000000
O O8 0.843602 0.894961 0.785140
O O9 0.538163 0.654448 0.747451
O O10 0.755483 0.953484 0.992289
O O11 0.680128 0.696414 0.114695
O O12 0.735342 0.874329 0.389925
O O13 0.703893 0.646482 0.511900
O O14 0.000000 0.000000 0.500000
O O15 0.460762 0.688125 0.079592
O O16 0.240122 0.412238 0.778208
O O17 0.367156 0.708182 0.692226
#
# Coordination Sequence:
#
# PCOD9021700 Si02
#       8
#     2   2   2   2   2   2   2   2
#     4  10  22  39  65  94 121 164 213 256 304 361
#     4  11  24  43  60  92 136 164 197 257 312 372
#     4   9  20  39  65  86 121 161 206 262 304 362
#     4  11  24  42  61  93 129 162 202 260 320 374
#     4  10  22  38  64  94 120 160 220 257 295 369
#     4   9  20  39  62  91 118 161 208 257 305 364
#     4  10  22  39  65  95 121 163 219 254 300 367
#     4  10  22  38  69  91 124 162 208 263 300 360
#
# _framework density 23.654848999999999
#
# number of rings (size 3 to 8) (size 9 to 14) (size 15 to 20)
#    0.000    2.000    1.250    1.500    7.000    5.000 
#    9.000    0.000    0.000    0.000    0.000    0.000 
#    0.000    0.000    0.000    0.000    0.000    0.000 
#
# Total GULP energy -89188.880183 kJ/mol
# GULP energy per Si atom -5574.305011 kJ/mol
# Density = 2.360101 g / cm^3
# Si number density = 23.654849 Si / 1000 Ang^3
#
#
#
# Elastic Constant Matrix: (Units=GPa)
#
#
# Indices 1 2 3 4 5 6 
#
# 1 147.7383 19.5337 54.9543 10.0812 -47.0369 -25.8875
# 2 19.5337 28.7730 18.7575 0.1953 -8.9184 -9.4227
# 3 54.9543 18.7575 113.6140 1.1708 -30.3285 -0.6048
# 4 10.0812 0.1953 1.1708 10.5185 -3.3906 -12.2154
# 5 -47.0369 -8.9184 -30.3285 -3.3906 58.8552 15.0058
# 6 -25.8875 -9.4227 -0.6048 -12.2154 15.0058 38.6624
#
#
#
# Elastic Compliance Matrix: (Units=1/GPa)
#
#
# Indices 1 2 3 4 5 6 
#
# 1 0.010990 -0.002542 -0.003321 -0.004859 0.005652 0.002958
# 2 -0.002542 0.045790 -0.006912 0.021215 -0.001693 0.016710
# 3 -0.003321 -0.006912 0.012718 -0.004689 0.004334 -0.006873
# 4 -0.004859 0.021215 -0.004689 0.162754 -0.008090 0.056406
# 5 0.005652 -0.001693 0.004334 -0.008090 0.025297 -0.008934
# 6 0.002958 0.016710 -0.006873 0.056406 -0.008934 0.053100
#
#
# Mechanical properties :
#
#
# Convention : Reuss Voigt Hill
#
# Bulk Modulus (GPa) = 22.75450 52.95738 37.85594
# Shear Modulus (GPa) = 14.25122 34.73255 24.49188
#
# Velocity S-wave (km/s) = 2.45718 3.83600 3.22123
# Velocity P-wave (km/s) = 4.20602 6.48506 5.46565
#
# Compressibility (1/GPa) = 0.04394735
#
# Stress axis : x y z
#
# Youngs Moduli (GPa) = 90.99477 21.83888 78.62802
#
# Poissons Ratio (x) = 0.05551 0.26115
# Poissons Ratio (y) = 0.23130 0.54347
# Poissons Ratio (z) = 0.30222 0.15095
#
# Static dielectric constant tensor:
#      x y z
#    x 2.004020 0.004420 -0.036280 
#    y 0.004420 2.004510 0.068090 
#    z -0.036280 0.068090 1.933140 
# 
# From -- ./inp_files/84126.got.cif
#   From: 2010.05.17/outbox.cif.g08.bks.cpg/sg2_43_cif.got.tgz:84126.got - 2010.06.03 11:33:40.
