data_PCOD9021092
_publ_section_title
;
Structure prediction by ZEFSAII (Michael W. Deem and Ramdas Pophale) SiO2 
 PCOD9021092
Probable space group: P -1
;
_chemical_formula_sum "Si O2"
_cell_formula_units_Z 16
_cell_length_a 11.748026
_cell_length_b 19.860059
_cell_length_c 17.546704
_cell_angle_alpha 31.027765
_cell_angle_beta 21.272385
_cell_angle_gamma 31.428525
_cell_volume 732.040059
_symmetry_space_group_name_H-M "P -1"
_symmetry_group_IT_number 2
_symmetry_cell_setting 'triclinic'
loop_
_space_group_symop_operation_xyz
x,y,z
-x,-y,-z
loop_
_atom_site_type_symbol
_atom_site_label
_atom_site_fract_x
_atom_site_fract_y
_atom_site_fract_z
Si Si1 0.278870 0.355497 0.459435
Si Si2 0.189179 0.943056 0.757468
Si Si3 0.947602 0.107609 0.536456
Si Si4 0.864474 0.197648 0.333384
Si Si5 0.090582 0.865927 0.128333
Si Si6 0.208474 0.191968 0.969379
Si Si7 0.748448 0.452369 0.960464
Si Si8 0.383898 0.250402 0.200251
O O1 0.503685 0.301715 0.444777
O O2 0.537576 0.384940 0.211822
O O3 0.000000 0.500000 0.500000
O O4 0.147866 0.230332 0.634991
O O5 0.340793 0.813116 0.845475
O O6 0.500000 0.000000 0.500000
O O7 0.921213 0.064516 0.850176
O O8 0.023313 0.894364 0.836642
O O9 0.940942 0.192725 0.379819
O O10 0.582474 0.120133 0.781918
O O11 0.134139 0.162256 0.433137
O O12 0.142232 0.954632 0.537920
O O13 0.121872 0.219205 0.087239
O O14 0.425610 0.770412 0.978472
O O15 0.000000 0.000000 0.000000
O O16 0.090683 0.335172 0.857467
O O17 0.500000 0.500000 0.000000
O O18 0.792053 0.592512 0.828304
#
# Coordination Sequence:
#
# PCOD9021092 Si02
#       8
#     2   2   2   2   2   2   2   2
#     4  11  22  41  69 100 135 181 229 288 352 418
#     4  11  22  39  66 100 135 171 237 304 345 397
#     4  11  25  43  70  95 142 190 228 288 354 422
#     4  10  24  43  67  99 137 184 238 280 349 426
#     4  10  22  37  66  97 136 170 228 293 343 399
#     4  11  24  43  70  98 135 186 234 290 352 417
#     4  11  23  42  66  98 138 179 227 289 355 419
#     4  11  23  42  62  99 136 178 234 284 348 418
#
# _framework density 21.856728
#
# number of rings (size 3 to 8) (size 9 to 14) (size 15 to 20)
#    0.000    1.250    2.500    4.125    8.750    0.500 
#    0.000    2.500    0.000    0.000    0.000    0.000 
#    0.000    0.000    0.000    0.000    0.000    0.000 
#
# Total GULP energy -89291.584729 kJ/mol
# GULP energy per Si atom -5580.724046 kJ/mol
# Density = 2.180698 g / cm^3
# Si number density = 21.856728 Si / 1000 Ang^3
#
#
#
# Elastic Constant Matrix: (Units=GPa)
#
#
# Indices 1 2 3 4 5 6 
#
# 1 81.5115 15.6852 13.7112 4.2357 2.9636 -11.5830
# 2 15.6852 97.5169 -9.1672 -2.3365 -6.9421 -9.5235
# 3 13.7112 -9.1672 52.6341 1.4356 -8.5415 -2.4566
# 4 4.2357 -2.3365 1.4356 36.0622 3.6305 -1.6467
# 5 2.9636 -6.9421 -8.5415 3.6305 30.4501 -3.0856
# 6 -11.5830 -9.5235 -2.4566 -1.6467 -3.0856 33.6407
#
#
#
# Elastic Compliance Matrix: (Units=1/GPa)
#
#
# Indices 1 2 3 4 5 6 
#
# 1 0.014159 -0.002565 -0.004373 -0.001224 -0.002687 0.003523
# 2 -0.002565 0.011601 0.003480 0.000641 0.004105 0.003063
# 3 -0.004373 0.003480 0.022098 -0.000835 0.007696 0.001758
# 4 -0.001224 0.000641 -0.000835 0.028313 -0.003265 0.000786
# 5 -0.002687 0.004105 0.007696 -0.003265 0.036994 0.004032
# 6 0.003523 0.003063 0.001758 0.000786 0.004032 0.032343
#
#
# Mechanical properties :
#
#
# Convention : Reuss Voigt Hill
#
# Bulk Modulus (GPa) = 24.42462 30.23564 27.33013
# Shear Modulus (GPa) = 30.10726 34.12617 32.11672
#
# Velocity S-wave (km/s) = 3.71547 3.95569 3.83746
# Velocity P-wave (km/s) = 5.44109 5.89295 5.67152
#
# Compressibility (1/GPa) = 0.04094230
#
# Stress axis : x y z
#
# Youngs Moduli (GPa) = 70.62423 86.19871 45.25257
#
# Poissons Ratio (x) = 0.22111 0.19791
# Poissons Ratio (y) = 0.18116 -0.15749
# Poissons Ratio (z) = 0.30887 -0.30000
#
# Static dielectric constant tensor:
#      x y z
#    x 1.902680 -0.052210 0.036990 
#    y -0.052210 1.939260 -0.032500 
#    z 0.036990 -0.032500 1.876590 
# 
# From -- ./inp_files/184303.got.cif
#   From: 2010.05.17/outbox.cif.g08.bks.cpg/sg2_93_cif.got.tgz:184303.got - 2010.06.03 11:33:40.
