data_PCOD9021333
_publ_section_title
;
Structure prediction by ZEFSAII (Michael W. Deem and Ramdas Pophale) SiO2 
 PCOD9021333
Probable space group: P -1
;
_chemical_formula_sum "Si O2"
_cell_formula_units_Z 14
_cell_length_a 6.886072
_cell_length_b 19.467287
_cell_length_c 5.323834
_cell_angle_alpha 115.866972
_cell_angle_beta 101.540117
_cell_angle_gamma 103.470413
_cell_volume 586.219328
_symmetry_space_group_name_H-M "P -1"
_symmetry_group_IT_number 2
_symmetry_cell_setting 'triclinic'
loop_
_space_group_symop_operation_xyz
x,y,z
-x,-y,-z
loop_
_atom_site_type_symbol
_atom_site_label
_atom_site_fract_x
_atom_site_fract_y
_atom_site_fract_z
Si Si1 0.495377 0.947117 0.664067
Si Si2 0.619350 0.831162 0.221547
Si Si3 0.404833 0.424159 0.548459
Si Si4 0.758871 0.198129 0.319800
Si Si5 0.892231 0.754211 0.894017
Si Si6 0.804261 0.477302 0.095755
Si Si7 0.244697 0.691238 0.115495
O O1 0.662975 0.904507 0.551540
O O2 0.297796 0.864663 0.559720
O O3 0.500000 0.000000 0.500000
O O4 0.500000 0.000000 0.000000
O O5 0.482956 0.746973 0.191353
O O6 0.443293 0.835836 0.976974
O O7 0.817786 0.820088 0.120388
O O8 0.500000 0.500000 0.500000
O O9 0.314096 0.329515 0.301424
O O10 0.587516 0.438308 0.821281
O O11 0.211217 0.444367 0.650554
O O12 0.767898 0.287139 0.559214
O O13 0.983594 0.208119 0.270629
O O14 0.067392 0.723161 0.012343
O O15 0.806391 0.400630 0.133483
O O16 0.000000 0.500000 0.000000
#
# Coordination Sequence:
#
# PCOD9021333 Si02
#       7
#     2   2   2   2   2   2   2
#     4  11  22  44  76 103 142 181 225 281 350 419
#     4  10  22  41  68  97 131 183 219 280 346 411
#     4  11  24  39  61  92 134 175 233 285 342 403
#     4  10  22  41  68  96 136 178 227 281 343 412
#     4  11  23  40  63  98 132 176 234 286 340 415
#     4  11  23  39  60  90 127 181 227 285 343 398
#     4  10  22  38  60  90 132 174 232 282 343 410
#
# _framework density 23.881844000000001
#
# number of rings (size 3 to 8) (size 9 to 14) (size 15 to 20)
#    0.000    1.429    1.429    3.429    0.000   10.286 
#    0.000    1.429    0.000    0.000    0.000    0.000 
#    0.000    0.000    0.000    0.000    0.000    0.000 
#
# Total GULP energy -78079.661950 kJ/mol
# GULP energy per Si atom -5577.118711 kJ/mol
# Density = 2.382749 g / cm^3
# Si number density = 23.881844 Si / 1000 Ang^3
#
#
#
# Elastic Constant Matrix: (Units=GPa)
#
#
# Indices 1 2 3 4 5 6 
#
# 1 119.7989 29.5944 35.2950 -3.6316 -42.8912 -1.8605
# 2 29.5944 101.4138 19.0561 -3.0990 -16.9384 1.3330
# 3 35.2950 19.0561 97.8402 7.5619 -25.3987 -11.7863
# 4 -3.6316 -3.0990 7.5619 36.3019 -3.5540 -13.2625
# 5 -42.8912 -16.9384 -25.3987 -3.5540 59.3462 -2.4211
# 6 -1.8605 1.3330 -11.7863 -13.2625 -2.4211 21.4409
#
#
#
# Elastic Compliance Matrix: (Units=1/GPa)
#
#
# Indices 1 2 3 4 5 6 
#
# 1 0.012357 -0.001860 -0.001930 0.003392 0.007904 0.003118
# 2 -0.001860 0.010888 -0.001308 0.000795 0.001213 -0.000928
# 3 -0.001930 -0.001308 0.013181 0.000194 0.004201 0.007754
# 4 0.003392 0.000795 0.000194 0.037304 0.005979 0.024102
# 5 0.007904 0.001213 0.004201 0.005979 0.025452 0.009492
# 6 0.003118 -0.000928 0.007754 0.024102 0.009492 0.067211
#
#
# Mechanical properties :
#
#
# Convention : Reuss Voigt Hill
#
# Bulk Modulus (GPa) = 38.12492 54.10489 46.11491
# Shear Modulus (GPa) = 26.97844 39.09163 33.03503
#
# Velocity S-wave (km/s) = 3.36469 4.05022 3.72327
# Velocity P-wave (km/s) = 5.57616 6.67659 6.15103
#
# Compressibility (1/GPa) = 0.02622956
#
# Stress axis : x y z
#
# Youngs Moduli (GPa) = 80.92892 91.84084 75.86448
#
# Poissons Ratio (x) = 0.17086 0.14642
# Poissons Ratio (y) = 0.15056 0.09923
# Poissons Ratio (z) = 0.15619 0.12012
#
# Static dielectric constant tensor:
#      x y z
#    x 1.871010 -0.016180 0.001620 
#    y -0.016180 2.048050 -0.026630 
#    z 0.001620 -0.026630 2.098830 
# 
# From -- ./inp_files/7377.got.cif
#   From: 2010.05.17/outbox.cif.g08.bks.cpg/sg2_4_cif.got.tgz:7377.got - 2010.06.03 11:33:40.
