data_PCOD9021735
_publ_section_title
;
Structure prediction by ZEFSAII (Michael W. Deem and Ramdas Pophale) SiO2 
 PCOD9021735
Probable space group: P -1
;
_chemical_formula_sum "Si O2"
_cell_formula_units_Z 15
_cell_length_a 6.620689
_cell_length_b 10.750887
_cell_length_c 9.452697
_cell_angle_alpha 93.197884
_cell_angle_beta 99.034251
_cell_angle_gamma 97.730655
_cell_volume 656.404438
_symmetry_space_group_name_H-M "P -1"
_symmetry_group_IT_number 2
_symmetry_cell_setting 'triclinic'
loop_
_space_group_symop_operation_xyz
x,y,z
-x,-y,-z
loop_
_atom_site_type_symbol
_atom_site_label
_atom_site_fract_x
_atom_site_fract_y
_atom_site_fract_z
Si Si1 0.854654 0.314826 0.538978
Si Si2 0.523764 0.882383 0.592095
Si Si3 0.163867 0.297235 0.339987
Si Si4 0.375884 0.541490 0.251690
Si Si5 0.166395 0.386488 0.805637
Si Si6 0.024446 0.204383 0.023758
Si Si7 0.000000 0.500000 0.000000
Si Si8 0.681584 0.993796 0.914842
O O1 0.699020 0.202655 0.446937
O O2 0.700622 0.393044 0.611905
O O3 0.019349 0.360434 0.436547
O O4 0.013852 0.296621 0.682939
O O5 0.706892 0.799672 0.571533
O O6 0.500000 0.000000 0.500000
O O7 0.591480 0.939246 0.754884
O O8 0.337033 0.395361 0.284979
O O9 0.029190 0.225853 0.193363
O O10 0.606761 0.594197 0.230435
O O11 0.229157 0.557230 0.103570
O O12 0.106120 0.335287 0.958832
O O13 0.096755 0.519726 0.844096
O O14 0.814823 0.131964 0.932653
O O15 0.183061 0.106023 0.011347
O O16 0.500000 0.000000 0.000000
#
# Coordination Sequence:
#
# PCOD9021735 Si02
#       8
#     2   2   2   2   2   2   1   2
#     4  11  25  42  67 101 134 186 223 276 336 412
#     4  11  25  44  67  97 131 180 230 277 343 398
#     4  11  24  44  67  99 141 177 222 284 336 409
#     4  11  24  44  68 102 140 180 224 274 345 400
#     4  11  23  42  66  97 139 177 222 274 329 406
#     4  10  22  41  66  98 130 174 221 276 340 385
#     4  10  22  38  64  98 128 174 216 272 322 402
#     4  10  22  41  66  96 129 170 223 282 331 395
#
# _framework density 22.851766999999999
#
# number of rings (size 3 to 8) (size 9 to 14) (size 15 to 20)
#    0.000    1.333    1.333    3.200    0.000    9.067 
#    4.800    0.000    0.000    0.000    0.000    0.000 
#    0.000    0.000    0.000    0.000    0.000    0.000 
#
# Total GULP energy -83517.264825 kJ/mol
# GULP energy per Si atom -5567.817655 kJ/mol
# Density = 2.279976 g / cm^3
# Si number density = 22.851767 Si / 1000 Ang^3
#
#
#
# Elastic Constant Matrix: (Units=GPa)
#
#
# Indices 1 2 3 4 5 6 
#
# 1 164.8563 47.4612 68.9756 16.1757 -11.2459 19.8501
# 2 47.4612 84.9332 31.7396 4.3647 9.8002 8.5907
# 3 68.9756 31.7396 121.6295 14.3584 2.9238 16.8868
# 4 16.1757 4.3647 14.3584 32.7377 4.9268 8.1123
# 5 -11.2459 9.8002 2.9238 4.9268 43.1232 9.3801
# 6 19.8501 8.5907 16.8868 8.1123 9.3801 31.3324
#
#
#
# Elastic Compliance Matrix: (Units=1/GPa)
#
#
# Indices 1 2 3 4 5 6 
#
# 1 0.009907 -0.004154 -0.003821 -0.002434 0.004917 -0.003920
# 2 -0.004154 0.015158 -0.001711 0.001375 -0.004664 0.000438
# 3 -0.003821 -0.001711 0.011461 -0.002193 -0.000580 -0.002546
# 4 -0.002434 0.001375 -0.002193 0.034423 -0.003533 -0.005508
# 5 0.004917 -0.004664 -0.000580 -0.003533 0.027926 -0.008969
# 6 -0.003920 0.000438 -0.002546 -0.005508 -0.008969 0.039763
#
#
# Mechanical properties :
#
#
# Convention : Reuss Voigt Hill
#
# Bulk Modulus (GPa) = 58.29331 74.19687 66.24509
# Shear Modulus (GPa) = 30.53880 36.32149 33.43015
#
# Velocity S-wave (km/s) = 3.65963 3.99110 3.82895
# Velocity P-wave (km/s) = 6.58953 7.33333 6.97136
#
# Compressibility (1/GPa) = 0.01715463
#
# Stress axis : x y z
#
# Youngs Moduli (GPa) = 100.94285 65.97270 87.25176
#
# Poissons Ratio (x) = 0.27405 0.33336
# Poissons Ratio (y) = 0.41931 0.14928
# Poissons Ratio (z) = 0.38567 0.11287
#
# Static dielectric constant tensor:
#      x y z
#    x 2.177120 -0.729740 -0.153290 
#    y -0.729740 3.487350 0.382070 
#    z -0.153290 0.382070 1.945390 
# 
# From -- ./inp_files/131856.got.cif
#   From: 2010.05.17/outbox.cif.g08.bks.cpg/sg2_66_cif.got.tgz:131856.got - 2010.06.03 11:33:40.
