data_PCOD9021889
_publ_section_title
;
Structure prediction by ZEFSAII (Michael W. Deem and Ramdas Pophale) SiO2 
 PCOD9021889
Probable space group: P -1
;
_chemical_formula_sum "Si O2"
_cell_formula_units_Z 16
_cell_length_a 19.302570
_cell_length_b 8.406090
_cell_length_c 17.765126
_cell_angle_alpha 150.734103
_cell_angle_beta 30.967778
_cell_angle_gamma 138.289486
_cell_volume 725.086505
_symmetry_space_group_name_H-M "P -1"
_symmetry_group_IT_number 2
_symmetry_cell_setting 'triclinic'
loop_
_space_group_symop_operation_xyz
x,y,z
-x,-y,-z
loop_
_atom_site_type_symbol
_atom_site_label
_atom_site_fract_x
_atom_site_fract_y
_atom_site_fract_z
Si Si1 0.427079 0.352965 0.794808
Si Si2 0.990003 0.947799 0.751106
Si Si3 0.983876 0.177280 0.167633
Si Si4 0.181041 0.794085 0.245091
Si Si5 0.694306 0.270491 0.425621
Si Si6 0.218669 0.157798 0.518862
Si Si7 0.575137 0.308198 0.785200
Si Si8 0.830520 0.705137 0.671285
O O1 0.562568 0.424588 0.651293
O O2 0.476450 0.208029 0.768731
O O3 0.346270 0.084831 0.712062
O O4 0.328409 0.650367 0.028193
O O5 0.971430 0.042894 0.894042
O O6 0.063296 0.593737 0.547376
O O7 0.858874 0.899959 0.802920
O O8 0.092570 0.153772 0.690717
O O9 0.823486 0.248254 0.350375
O O10 0.076154 0.498012 0.214266
O O11 0.000000 0.000000 0.000000
O O12 0.183887 0.944674 0.388422
O O13 0.148226 0.063554 0.324129
O O14 0.739622 0.494974 0.407536
O O15 0.340325 0.983768 0.377550
O O16 0.683417 0.555127 0.750715
O O17 0.500000 0.500000 0.000000
#
# Coordination Sequence:
#
# PCOD9021889 Si02
#       8
#     2   2   2   2   2   2   2   2
#     4  11  25  43  65  94 141 174 217 270 329 392
#     4  10  22  42  65 100 134 164 213 287 330 378
#     4  12  24  44  70  92 133 178 215 268 334 394
#     4  12  23  41  71 104 125 176 224 270 323 398
#     4  11  25  45  66  94 131 181 219 267 330 395
#     4  11  23  41  72  98 128 170 225 271 328 389
#     4  11  22  38  61  95 131 171 209 271 321 377
#     4  10  22  38  66  98 132 163 217 277 323 381
#
# _framework density 22.066333
#
# number of rings (size 3 to 8) (size 9 to 14) (size 15 to 20)
#    0.000    1.000    2.500    6.000    1.750    3.000 
#    0.000    3.750    0.000    0.000    0.000    0.000 
#    0.000    0.000    0.000    0.000    0.000    0.000 
#
# Total GULP energy -89552.860031 kJ/mol
# GULP energy per Si atom -5597.053752 kJ/mol
# Density = 2.201611 g / cm^3
# Si number density = 22.066333 Si / 1000 Ang^3
#
#
#
# Elastic Constant Matrix: (Units=GPa)
#
#
# Indices 1 2 3 4 5 6 
#
# 1 128.5237 25.8148 13.4448 -5.7695 8.4957 -9.5324
# 2 25.8148 84.4460 21.4717 -12.7505 1.8398 -20.4499
# 3 13.4448 21.4717 71.2986 -15.9680 10.1071 0.0200
# 4 -5.7695 -12.7505 -15.9680 17.8296 -7.6775 -1.8040
# 5 8.4957 1.8398 10.1071 -7.6775 33.4565 -13.5252
# 6 -9.5324 -20.4499 0.0200 -1.8040 -13.5252 32.8890
#
#
#
# Elastic Compliance Matrix: (Units=1/GPa)
#
#
# Indices 1 2 3 4 5 6 
#
# 1 0.008448 -0.002359 -0.000703 -0.000328 -0.001785 0.000230
# 2 -0.002359 0.019990 -0.003348 0.017257 0.011518 0.017431
# 3 -0.000703 -0.003348 0.018360 0.011887 -0.003743 -0.003184
# 4 -0.000328 0.017257 0.011887 0.093849 0.028135 0.027346
# 5 -0.001785 0.011518 -0.003743 0.028135 0.048705 0.028219
# 6 0.000230 0.017431 -0.003184 0.027346 0.028219 0.054417
#
#
# Mechanical properties :
#
#
# Convention : Reuss Voigt Hill
#
# Bulk Modulus (GPa) = 29.43023 45.08123 37.25573
# Shear Modulus (GPa) = 18.66252 31.73747 25.20000
#
# Velocity S-wave (km/s) = 2.91133 3.79658 3.38303
# Velocity P-wave (km/s) = 4.96661 6.30023 5.67275
#
# Compressibility (1/GPa) = 0.03397867
#
# Stress axis : x y z
#
# Youngs Moduli (GPa) = 118.36615 50.02430 54.46561
#
# Poissons Ratio (x) = 0.11800 0.03830
# Poissons Ratio (y) = 0.27920 0.18235
# Poissons Ratio (z) = 0.08324 0.16748
#
# Static dielectric constant tensor:
#      x y z
#    x 1.822340 0.004570 0.033140 
#    y 0.004570 1.777000 -0.008450 
#    z 0.033140 -0.008450 1.883050 
# 
# From -- ./inp_files/577512.got.cif
#   From: 2010.05.17/outbox.cif.g08.bks.cpg/sg2_289_cif.got.tgz:577512.got - 2010.06.03 11:33:40.
