data_PCOD9021126
_publ_section_title
;
Structure prediction by ZEFSAII (Michael W. Deem and Ramdas Pophale) SiO2 
 PCOD9021126
Probable space group: P -1
;
_chemical_formula_sum "Si O2"
_cell_formula_units_Z 16
_cell_length_a 5.286432
_cell_length_b 15.804263
_cell_length_c 13.539814
_cell_angle_alpha 56.014227
_cell_angle_beta 66.390706
_cell_angle_gamma 100.124860
_cell_volume 730.951503
_symmetry_space_group_name_H-M "P -1"
_symmetry_group_IT_number 2
_symmetry_cell_setting 'triclinic'
loop_
_space_group_symop_operation_xyz
x,y,z
-x,-y,-z
loop_
_atom_site_type_symbol
_atom_site_label
_atom_site_fract_x
_atom_site_fract_y
_atom_site_fract_z
Si Si1 0.828194 0.645070 0.663227
Si Si2 0.239782 0.453031 0.982553
Si Si3 0.861738 0.967288 0.433321
Si Si4 0.476150 0.375307 0.701339
Si Si5 0.221628 0.127884 0.832356
Si Si6 0.864664 0.484518 0.369439
Si Si7 0.123520 0.798215 0.707175
Si Si8 0.087233 0.840923 0.337826
O O1 0.084866 0.601458 0.654741
O O2 0.908610 0.737308 0.681135
O O3 0.874279 0.711940 0.509154
O O4 0.477385 0.526723 0.808120
O O5 0.020992 0.309670 0.120931
O O6 0.500000 0.500000 0.000000
O O7 0.000000 0.500000 0.000000
O O8 0.492154 0.855628 0.573659
O O9 0.067055 0.933448 0.353927
O O10 0.874175 0.088267 0.321346
O O11 0.000000 0.000000 0.500000
O O12 0.293588 0.232893 0.829124
O O13 0.618553 0.407486 0.546083
O O14 0.247964 0.429266 0.710955
O O15 0.785871 0.435976 0.684228
O O16 0.558466 0.139281 0.741438
O O17 0.051187 0.147139 0.752025
O O18 0.000000 0.000000 0.000000
#
# Coordination Sequence:
#
# PCOD9021126 Si02
#       8
#     2   2   2   2   2   2   2   2
#     4  11  22  43  70 103 130 185 235 276 339 426
#     4  10  23  41  63  96 137 176 217 275 337 393
#     4  11  23  41  70 103 142 186 232 286 335 407
#     4  10  22  42  62  94 131 163 208 284 343 387
#     4  12  27  49  71  98 137 181 231 293 349 409
#     4  10  22  37  68  96 128 163 218 275 329 400
#     4  10  23  43  65  98 149 184 225 281 342 403
#     4  12  25  43  74 101 131 182 240 276 343 424
#
# _framework density 21.889278000000001
#
# number of rings (size 3 to 8) (size 9 to 14) (size 15 to 20)
#    0.000    1.250    2.500    2.625    7.000    3.000 
#    4.500    0.000    0.000    0.000    0.000    0.000 
#    0.000    0.000    0.000    0.000    0.000    0.000 
#
# Total GULP energy -89469.023273 kJ/mol
# GULP energy per Si atom -5591.813955 kJ/mol
# Density = 2.183946 g / cm^3
# Si number density = 21.889278 Si / 1000 Ang^3
#
#
#
# Elastic Constant Matrix: (Units=GPa)
#
#
# Indices 1 2 3 4 5 6 
#
# 1 120.9309 27.0662 54.3808 -8.3528 -0.4887 -29.2817
# 2 27.0662 90.5961 35.5305 -17.2066 -2.3855 -23.5715
# 3 54.3808 35.5305 176.9360 -34.5915 7.4650 -14.2825
# 4 -8.3528 -17.2066 -34.5915 38.8417 -5.5939 0.3345
# 5 -0.4887 -2.3855 7.4650 -5.5939 21.1506 5.5107
# 6 -29.2817 -23.5715 -14.2825 0.3345 5.5107 43.9290
#
#
#
# Elastic Compliance Matrix: (Units=1/GPa)
#
#
# Indices 1 2 3 4 5 6 
#
# 1 0.011189 -0.000730 -0.002889 -0.000628 -0.000587 0.006205
# 2 -0.000730 0.014526 -0.001165 0.005432 0.001731 0.006670
# 3 -0.002889 -0.001165 0.007977 0.005743 -0.001545 0.000192
# 4 -0.000628 0.005432 0.005743 0.034073 0.006734 0.003259
# 5 -0.000587 0.001731 -0.001545 0.006734 0.051474 -0.006473
# 6 0.006205 0.006670 0.000192 0.003259 -0.006473 0.031329
#
#
# Mechanical properties :
#
#
# Convention : Reuss Voigt Hill
#
# Bulk Modulus (GPa) = 41.45459 69.15755 55.30607
# Shear Modulus (GPa) = 29.73041 38.88331 34.30686
#
# Velocity S-wave (km/s) = 3.68940 4.21926 3.96320
# Velocity P-wave (km/s) = 6.09330 7.44306 6.80174
#
# Compressibility (1/GPa) = 0.02412278
#
# Stress axis : x y z
#
# Youngs Moduli (GPa) = 89.37651 68.84283 125.35678
#
# Poissons Ratio (x) = 0.05024 0.36221
# Poissons Ratio (y) = 0.06522 0.14607
# Poissons Ratio (z) = 0.25825 0.08022
#
# Static dielectric constant tensor:
#      x y z
#    x 1.859770 0.025480 -0.016820 
#    y 0.025480 1.845650 -0.022000 
#    z -0.016820 -0.022000 1.847050 
# 
# From -- ./inp_files/484355.got.cif
#   From: 2010.05.17/outbox.cif.g08.bks.cpg/sg2_243_cif.got.tgz:484355.got - 2010.06.03 11:33:40.
