data_PCOD9021607
_publ_section_title
;
Structure prediction by ZEFSAII (Michael W. Deem and Ramdas Pophale) SiO2 
 PCOD9021607
Probable space group: P -1
;
_chemical_formula_sum "Si O2"
_cell_formula_units_Z 16
_cell_length_a 28.684995
_cell_length_b 5.439946
_cell_length_c 17.797789
_cell_angle_alpha 60.289052
_cell_angle_beta 18.932775
_cell_angle_gamma 55.466784
_cell_volume 733.717262
_symmetry_space_group_name_H-M "P -1"
_symmetry_group_IT_number 2
_symmetry_cell_setting 'triclinic'
loop_
_space_group_symop_operation_xyz
x,y,z
-x,-y,-z
loop_
_atom_site_type_symbol
_atom_site_label
_atom_site_fract_x
_atom_site_fract_y
_atom_site_fract_z
Si Si1 0.291248 0.789364 0.455351
Si Si2 0.632298 0.741990 0.938711
Si Si3 0.638802 0.687657 0.455804
Si Si4 0.277849 0.843871 0.018535
Si Si5 0.335128 0.661698 0.687888
Si Si6 0.855509 0.443522 0.869084
Si Si7 0.680578 0.295190 0.752327
Si Si8 0.840927 0.658564 0.502517
O O1 0.275549 0.547705 0.573923
O O2 0.298817 0.699800 0.370368
O O3 0.166998 0.124403 0.588307
O O4 0.456479 0.816017 0.216021
O O5 0.718572 0.407399 0.886931
O O6 0.674299 0.755110 0.784565
O O7 0.681620 0.018058 0.846723
O O8 0.668963 0.509932 0.357618
O O9 0.682392 0.987869 0.346749
O O10 0.455232 0.789723 0.735026
O O11 0.198000 0.739404 0.085419
O O12 0.205699 0.191196 0.101751
O O13 0.500000 0.500000 0.500000
O O14 0.213119 0.620768 0.938021
O O15 0.035978 0.344378 0.623661
O O16 0.838768 0.344003 0.526100
O O17 0.500000 0.500000 0.000000
#
# Coordination Sequence:
#
# PCOD9021607 Si02
#       8
#     2   2   2   2   2   2   2   2
#     4  10  22  39  63  99 120 161 214 265 314 368
#     4  10  22  38  63  94 124 163 214 265 305 371
#     4  11  23  41  74  96 121 156 216 277 309 369
#     4  11  24  42  64  98 126 163 215 258 317 376
#     4  12  22  44  67  96 125 164 214 261 323 373
#     4  12  27  42  64  92 133 172 206 260 323 384
#     4  11  19  37  65  88 127 168 213 256 309 370
#     4  11  24  41  60  90 133 173 204 254 319 378
#
# _framework density 21.806766
#
# number of rings (size 3 to 8) (size 9 to 14) (size 15 to 20)
#    0.000    1.000    5.000    1.875    7.000    1.000 
#    0.000    1.250    0.000    0.000    0.000    0.000 
#    0.000    0.000    0.000    0.000    0.000    0.000 
#
# Total GULP energy -89099.751066 kJ/mol
# GULP energy per Si atom -5568.734442 kJ/mol
# Density = 2.175713 g / cm^3
# Si number density = 21.806766 Si / 1000 Ang^3
#
#
#
# Elastic Constant Matrix: (Units=GPa)
#
#
# Indices 1 2 3 4 5 6 
#
# 1 43.0258 16.4952 -5.5579 -7.0835 5.6696 -1.9325
# 2 16.4952 139.3330 20.4387 -31.1996 -1.6771 -17.8732
# 3 -5.5579 20.4387 37.7566 -7.9897 -6.5843 -2.4421
# 4 -7.0835 -31.1996 -7.9897 24.2289 -3.1486 6.3071
# 5 5.6696 -1.6771 -6.5843 -3.1486 28.0184 -7.5572
# 6 -1.9325 -17.8732 -2.4421 6.3071 -7.5572 31.7880
#
#
#
# Elastic Compliance Matrix: (Units=1/GPa)
#
#
# Indices 1 2 3 4 5 6 
#
# 1 0.026556 -0.002980 0.005953 0.005818 -0.003958 -0.001699
# 2 -0.002980 0.011228 -0.003221 0.011806 0.002992 0.004253
# 3 0.005953 -0.003221 0.032380 0.008974 0.007501 0.001041
# 4 0.005818 0.011806 0.008974 0.062925 0.007922 -0.002921
# 5 -0.003958 0.002992 0.007501 0.007922 0.042147 0.010466
# 6 -0.001699 0.004253 0.001041 -0.002921 0.010466 0.036894
#
#
# Mechanical properties :
#
#
# Convention : Reuss Voigt Hill
#
# Bulk Modulus (GPa) = 14.35380 31.42969 22.89174
# Shear Modulus (GPa) = 21.20004 29.38969 25.29487
#
# Velocity S-wave (km/s) = 3.12136 3.67513 3.40951
# Velocity P-wave (km/s) = 4.42573 5.69674 5.10098
#
# Compressibility (1/GPa) = 0.06966797
#
# Stress axis : x y z
#
# Youngs Moduli (GPa) = 37.65567 89.06642 30.88325
#
# Poissons Ratio (x) = 0.26543 -0.18386
# Poissons Ratio (y) = 0.11222 0.09949
# Poissons Ratio (z) = -0.22418 0.28692
#
# Static dielectric constant tensor:
#      x y z
#    x 4.581330 1.253290 -1.579260 
#    y 1.253290 2.649130 -0.569330 
#    z -1.579260 -0.569330 2.716520 
# 
# From -- ./inp_files/77222.got.cif
#   From: 2010.05.17/outbox.cif.g08.bks.cpg/sg2_39_cif.got.tgz:77222.got - 2010.06.03 11:33:40.
