data_PCOD9021295
_publ_section_title
;
Structure prediction by ZEFSAII (Michael W. Deem and Ramdas Pophale) SiO2 
 PCOD9021295
Probable space group: P -1
;
_chemical_formula_sum "Si O2"
_cell_formula_units_Z 14
_cell_length_a 6.784657
_cell_length_b 8.113540
_cell_length_c 15.392890
_cell_angle_alpha 135.844521
_cell_angle_beta 108.580048
_cell_angle_gamma 67.795130
_cell_volume 545.006194
_symmetry_space_group_name_H-M "P -1"
_symmetry_group_IT_number 2
_symmetry_cell_setting 'triclinic'
loop_
_space_group_symop_operation_xyz
x,y,z
-x,-y,-z
loop_
_atom_site_type_symbol
_atom_site_label
_atom_site_fract_x
_atom_site_fract_y
_atom_site_fract_z
Si Si1 0.316623 0.062279 0.425770
Si Si2 0.228791 0.235196 0.895062
Si Si3 0.345494 0.862015 0.628021
Si Si4 0.996798 0.915200 0.844296
Si Si5 0.025878 0.711718 0.280911
Si Si6 0.074822 0.525847 0.406377
Si Si7 0.625748 0.151317 0.012150
O O1 0.441158 0.114667 0.378645
O O2 0.136641 0.291489 0.519248
O O3 0.500000 0.000000 0.500000
O O4 0.211475 0.830375 0.314629
O O5 0.336566 0.975402 0.765447
O O6 0.067387 0.152927 0.908082
O O7 0.094960 0.381599 0.852132
O O8 0.424959 0.323007 0.999528
O O9 0.268907 0.614900 0.512066
O O10 0.156229 0.056598 0.626088
O O11 0.957549 0.745904 0.696136
O O12 0.204579 0.764037 0.869156
O O13 0.790387 0.995434 0.906827
O O14 0.101377 0.556097 0.317240
O O15 0.500000 0.000000 0.000000
#
# Coordination Sequence:
#
# PCOD9021295 Si02
#       7
#     2   2   2   2   2   2   2
#     4  11  16  32  55  77 116 160 176 203 265 329
#     4   9  20  36  58  80 108 147 182 218 272 329
#     4   9  19  31  53  81 112 147 176 213 259 324
#     4  10  22  38  60  78 107 143 178 239 269 319
#     4   9  19  33  52  82 112 143 183 214 262 322
#     4  11  20  34  53  88 115 138 186 219 266 320
#     4   9  20  42  60  75 101 145 190 218 283 329
#
# _framework density 25.687781000000001
#
# number of rings (size 3 to 8) (size 9 to 14) (size 15 to 20)
#    0.857    1.429    2.857    0.857    2.000    2.857 
#    0.000    2.143    0.000    7.714    0.000    0.000 
#    0.000    0.000    0.000    0.000    0.000    0.000 
#
# Total GULP energy -78223.044366 kJ/mol
# GULP energy per Si atom -5587.360312 kJ/mol
# Density = 2.562931 g / cm^3
# Si number density = 25.687781 Si / 1000 Ang^3
#
#
#
# Elastic Constant Matrix: (Units=GPa)
#
#
# Indices 1 2 3 4 5 6 
#
# 1 195.2687 22.9634 52.8247 -8.6862 -6.7172 0.8541
# 2 22.9634 45.8023 17.4477 -13.8317 -6.9035 7.2271
# 3 52.8247 17.4477 106.9459 -9.3591 0.4943 -9.0744
# 4 -8.6862 -13.8317 -9.3591 30.0924 -4.6201 5.1394
# 5 -6.7172 -6.9035 0.4943 -4.6201 35.2575 -22.4776
# 6 0.8541 7.2271 -9.0744 5.1394 -22.4776 38.6618
#
#
#
# Elastic Compliance Matrix: (Units=1/GPa)
#
#
# Indices 1 2 3 4 5 6 
#
# 1 0.006108 -0.001850 -0.002694 0.000201 0.000921 0.000087
# 2 -0.001850 0.029582 -0.003254 0.013612 0.003383 -0.006095
# 3 -0.002694 -0.003254 0.011629 0.000860 0.001418 0.004107
# 4 0.000201 0.013612 0.000860 0.041422 0.004946 -0.004978
# 5 0.000921 0.003383 0.001418 0.004946 0.046406 0.026003
# 6 0.000087 -0.006095 0.004107 -0.004978 0.026003 0.043746
#
#
# Mechanical properties :
#
#
# Convention : Reuss Voigt Hill
#
# Bulk Modulus (GPa) = 31.52306 59.38760 45.45533
# Shear Modulus (GPa) = 24.38245 37.78774 31.08509
#
# Velocity S-wave (km/s) = 3.08423 3.83957 3.48244
# Velocity P-wave (km/s) = 4.99815 6.54413 5.82268
#
# Compressibility (1/GPa) = 0.03172281
#
# Stress axis : x y z
#
# Youngs Moduli (GPa) = 163.72390 33.80398 85.98893
#
# Poissons Ratio (x) = 0.06254 0.23168
# Poissons Ratio (y) = 0.30289 0.27981
# Poissons Ratio (z) = 0.44112 0.11000
#
# Static dielectric constant tensor:
#      x y z
#    x 1.972260 -0.008680 0.006430 
#    y -0.008680 2.127890 -0.040410 
#    z 0.006430 -0.040410 1.986810 
# 
# From -- ./inp_files/549325.got.cif
#   From: 2010.05.17/outbox.cif.g08.bks.cpg/sg2_275_cif.got.tgz:549325.got - 2010.06.03 11:33:40.
