data_PCOD9021507
_publ_section_title
;
Structure prediction by ZEFSAII (Michael W. Deem and Ramdas Pophale) SiO2 
 PCOD9021507
Probable space group: P -1
;
_chemical_formula_sum "Si O2"
_cell_formula_units_Z 14
_cell_length_a 10.612045
_cell_length_b 18.614119
_cell_length_c 9.900478
_cell_angle_alpha 145.732675
_cell_angle_beta 76.302453
_cell_angle_gamma 128.996844
_cell_volume 652.325999
_symmetry_space_group_name_H-M "P -1"
_symmetry_group_IT_number 2
_symmetry_cell_setting 'triclinic'
loop_
_space_group_symop_operation_xyz
x,y,z
-x,-y,-z
loop_
_atom_site_type_symbol
_atom_site_label
_atom_site_fract_x
_atom_site_fract_y
_atom_site_fract_z
Si Si1 0.325549 0.745781 0.570873
Si Si2 0.814014 0.178457 0.089423
Si Si3 0.466585 0.578828 0.248900
Si Si4 0.200219 0.168692 0.810954
Si Si5 0.052318 0.978978 0.097472
Si Si6 0.787601 0.251692 0.669715
Si Si7 0.322997 0.996993 0.447890
O O1 0.329924 0.602365 0.293512
O O2 0.257843 0.795377 0.550750
O O3 0.576618 0.957113 0.856893
O O4 0.181619 0.673104 0.623004
O O5 0.962995 0.187106 0.132745
O O6 0.795353 0.141114 0.874259
O O7 0.704980 0.797794 0.576390
O O8 0.500000 0.500000 0.000000
O O9 0.329674 0.398615 0.115884
O O10 0.340002 0.160711 0.712945
O O11 0.000000 0.000000 0.500000
O O12 0.109004 0.086856 0.855976
O O13 0.000000 0.000000 0.000000
O O14 0.566948 0.143210 0.606309
O O15 0.801522 0.149378 0.615425
O O16 0.000000 0.500000 0.000000
#
# Coordination Sequence:
#
# PCOD9021507 Si02
#       7
#     2   2   2   2   2   2   2
#     4   9  20  37  66  91 123 168 212 264 325 383
#     4   9  18  41  62  89 129 168 209 262 329 389
#     4  11  22  43  71  98 129 175 229 268 325 411
#     4  12  23  41  71  93 128 182 225 270 326 398
#     4  11  25  42  67  98 135 174 218 279 338 390
#     4  10  22  38  62  93 126 162 209 270 319 376
#     4  10  22  41  63  95 127 166 219 265 320 396
#
# _framework density 21.461660999999999
#
# number of rings (size 3 to 8) (size 9 to 14) (size 15 to 20)
#    0.000    1.714    2.857    1.714    4.000    1.714 
#    2.571    2.857    0.000    0.000    0.000    0.000 
#    0.000    0.000    0.000    0.000    0.000    0.000 
#
# Total GULP energy -77937.265675 kJ/mol
# GULP energy per Si atom -5566.947548 kJ/mol
# Density = 2.141281 g / cm^3
# Si number density = 21.461661 Si / 1000 Ang^3
#
#
#
# Elastic Constant Matrix: (Units=GPa)
#
#
# Indices 1 2 3 4 5 6 
#
# 1 77.8273 27.9483 23.9069 -29.2772 -17.3001 -9.1865
# 2 27.9483 129.3823 32.3448 -13.7872 -6.2974 -6.0182
# 3 23.9069 32.3448 49.6507 -7.6413 -6.8036 2.2823
# 4 -29.2772 -13.7872 -7.6413 41.3615 6.4683 -1.8214
# 5 -17.3001 -6.2974 -6.8036 6.4683 32.1436 -1.9180
# 6 -9.1865 -6.0182 2.2823 -1.8214 -1.9180 27.6263
#
#
#
# Elastic Compliance Matrix: (Units=1/GPa)
#
#
# Indices 1 2 3 4 5 6 
#
# 1 0.024246 -0.000738 -0.008221 0.014459 0.008861 0.010149
# 2 -0.000738 0.009628 -0.005754 0.001720 0.000071 0.002446
# 3 -0.008221 -0.005754 0.027759 -0.002976 0.000538 -0.006439
# 4 0.014459 0.001720 -0.002976 0.034623 0.000986 0.007780
# 5 0.008861 0.000071 0.000538 0.000986 0.036137 0.005491
# 6 0.010149 0.002446 -0.006439 0.007780 0.005491 0.041531
#
#
# Mechanical properties :
#
#
# Convention : Reuss Voigt Hill
#
# Bulk Modulus (GPa) = 31.04980 47.25113 39.15046
# Shear Modulus (GPa) = 23.35506 31.73697 27.54601
#
# Velocity S-wave (km/s) = 3.30240 3.84966 3.58648
# Velocity P-wave (km/s) = 5.38889 6.46716 5.95249
#
# Compressibility (1/GPa) = 0.03220633
#
# Stress axis : x y z
#
# Youngs Moduli (GPa) = 41.24375 103.86850 36.02383
#
# Poissons Ratio (x) = 0.07668 0.29614
# Poissons Ratio (y) = 0.03045 0.20729
# Poissons Ratio (z) = 0.33905 0.59770
#
# Static dielectric constant tensor:
#      x y z
#    x 2.311160 -0.664690 -0.545480 
#    y -0.664690 3.139960 1.074220 
#    z -0.545480 1.074220 2.771400 
# 
# From -- ./inp_files/280103.got.cif
#   From: 2010.05.17/outbox.cif.g08.bks.cpg/sg2_141_cif.got.tgz:280103.got - 2010.06.03 11:33:40.
