data_PCOD9021446
_publ_section_title
;
Structure prediction by ZEFSAII (Michael W. Deem and Ramdas Pophale) SiO2 
 PCOD9021446
Probable space group: P -1
;
_chemical_formula_sum "Si O2"
_cell_formula_units_Z 15
_cell_length_a 6.646536
_cell_length_b 11.987327
_cell_length_c 11.832545
_cell_angle_alpha 49.964782
_cell_angle_beta 88.851553
_cell_angle_gamma 79.779647
_cell_volume 704.801028
_symmetry_space_group_name_H-M "P -1"
_symmetry_group_IT_number 2
_symmetry_cell_setting 'triclinic'
loop_
_space_group_symop_operation_xyz
x,y,z
-x,-y,-z
loop_
_atom_site_type_symbol
_atom_site_label
_atom_site_fract_x
_atom_site_fract_y
_atom_site_fract_z
Si Si1 0.573082 0.627220 0.985329
Si Si2 0.829315 0.993074 0.099729
Si Si3 0.500000 0.000000 0.500000
Si Si4 0.856474 0.724541 0.754031
Si Si5 0.097074 0.480921 0.329702
Si Si6 0.803017 0.115813 0.255524
Si Si7 0.271907 0.329079 0.649087
Si Si8 0.595133 0.306775 0.829003
O O1 0.786416 0.648107 0.916952
O O2 0.382354 0.764086 0.875081
O O3 0.500000 0.500000 0.000000
O O4 0.569566 0.610861 0.130420
O O5 0.905310 0.024791 0.204141
O O6 0.767862 0.834081 0.213999
O O7 0.648995 0.131498 0.972269
O O8 0.000000 0.000000 0.000000
O O9 0.352636 0.157396 0.353289
O O10 0.693326 0.022572 0.402109
O O11 0.919125 0.609569 0.725322
O O12 0.037066 0.807171 0.731013
O O13 0.235239 0.369950 0.491700
O O14 0.210154 0.616699 0.214013
O O15 0.889541 0.550731 0.354385
O O16 0.498761 0.330359 0.690632
#
# Coordination Sequence:
#
# PCOD9021446 Si02
#       8
#     2   2   1   2   2   2   2   2
#     4  10  22  38  61  97 128 159 215 268 318 394
#     4  11  23  45  65  97 134 172 228 273 317 408
#     4  10  22  44  62  94 134 166 220 262 316 406
#     4  11  23  41  68  96 132 170 212 272 334 387
#     4  11  24  43  64 100 133 166 226 273 321 404
#     4  10  24  41  66  96 129 173 213 269 333 382
#     4  11  25  42  66  93 131 179 217 271 334 383
#     4  11  23  43  67  94 132 174 220 272 331 385
#
# _framework density 21.282603000000002
#
# number of rings (size 3 to 8) (size 9 to 14) (size 15 to 20)
#    0.000    1.333    2.667    2.000    3.733    0.533 
#    4.800    2.667    0.000    0.000    0.000    0.000 
#    0.000    0.000    0.000    0.000    0.000    0.000 
#
# Total GULP energy -83500.936288 kJ/mol
# GULP energy per Si atom -5566.729086 kJ/mol
# Density = 2.123416 g / cm^3
# Si number density = 21.282603 Si / 1000 Ang^3
#
#
#
# Elastic Constant Matrix: (Units=GPa)
#
#
# Indices 1 2 3 4 5 6 
#
# 1 44.4217 36.1950 9.0941 13.9815 -6.7730 1.2759
# 2 36.1950 89.9765 11.2760 19.9189 2.2912 2.4866
# 3 9.0941 11.2760 56.6929 1.4329 -7.8858 0.7187
# 4 13.9815 19.9189 1.4329 28.9939 -6.9701 -3.3283
# 5 -6.7730 2.2912 -7.8858 -6.9701 37.3431 6.7308
# 6 1.2759 2.4866 0.7187 -3.3283 6.7308 25.4024
#
#
#
# Elastic Compliance Matrix: (Units=1/GPa)
#
#
# Indices 1 2 3 4 5 6 
#
# 1 0.036990 -0.012960 -0.002264 -0.007705 0.006158 -0.003167
# 2 -0.012960 0.018439 -0.002113 -0.007652 -0.005228 -0.000712
# 3 -0.002264 -0.002113 0.018982 0.002541 0.004390 -0.001047
# 4 -0.007705 -0.007652 0.002541 0.045659 0.007205 0.005137
# 5 0.006158 -0.005228 0.004390 0.007205 0.031824 -0.007410
# 6 -0.003167 -0.000712 -0.001047 0.005137 -0.007410 0.042261
#
#
# Mechanical properties :
#
#
# Convention : Reuss Voigt Hill
#
# Bulk Modulus (GPa) = 25.16605 33.80235 29.48420
# Shear Modulus (GPa) = 20.65471 27.31629 23.98550
#
# Velocity S-wave (km/s) = 3.11866 3.58649 3.36072
# Velocity P-wave (km/s) = 4.98181 5.75045 5.37987
#
# Compressibility (1/GPa) = 0.03973608
#
# Stress axis : x y z
#
# Youngs Moduli (GPa) = 27.03451 54.23271 52.68091
#
# Poissons Ratio (x) = 0.70284 0.11929
# Poissons Ratio (y) = 0.35036 0.11134
# Poissons Ratio (z) = 0.06122 0.11461
#
# Static dielectric constant tensor:
#      x y z
#    x 1.755630 -0.025890 0.035110 
#    y -0.025890 1.823800 -0.005160 
#    z 0.035110 -0.005160 1.829300 
# 
# From -- ./inp_files/69091.got.cif
#   From: 2010.05.17/outbox.cif.g08.bks.cpg/sg2_35_cif.got.tgz:69091.got - 2010.06.03 11:33:40.
