data_PCOD9021603
_publ_section_title
;
Structure prediction by ZEFSAII (Michael W. Deem and Ramdas Pophale) SiO2 
 PCOD9021603
Probable space group: P -1
;
_chemical_formula_sum "Si O2"
_cell_formula_units_Z 14
_cell_length_a 15.118762
_cell_length_b 8.796861
_cell_length_c 15.341222
_cell_angle_alpha 56.729031
_cell_angle_beta 152.484909
_cell_angle_gamma 105.556943
_cell_volume 650.090030
_symmetry_space_group_name_H-M "P -1"
_symmetry_group_IT_number 2
_symmetry_cell_setting 'triclinic'
loop_
_space_group_symop_operation_xyz
x,y,z
-x,-y,-z
loop_
_atom_site_type_symbol
_atom_site_label
_atom_site_fract_x
_atom_site_fract_y
_atom_site_fract_z
Si Si1 0.447129 0.396529 0.068288
Si Si2 0.866796 0.181564 0.902052
Si Si3 0.001975 0.823273 0.618497
Si Si4 0.839210 0.956272 0.622132
Si Si5 0.739618 0.712086 0.211023
Si Si6 0.557336 0.801262 0.201321
Si Si7 0.614370 0.681502 0.482208
O O1 0.657462 0.217948 0.367177
O O2 0.500000 0.500000 0.000000
O O3 0.369258 0.263315 0.986204
O O4 0.229397 0.587078 0.869999
O O5 0.804701 0.423167 0.747325
O O6 0.616746 0.228918 0.691813
O O7 0.021176 0.098250 0.150200
O O8 0.000000 0.000000 0.000000
O O9 0.995167 0.878250 0.696171
O O10 0.775303 0.822578 0.400349
O O11 0.000000 0.000000 0.500000
O O12 0.713255 0.827197 0.546547
O O13 0.617998 0.680653 0.198483
O O14 0.000000 0.500000 0.500000
O O15 0.676277 0.956538 0.092627
O O16 0.549621 0.700057 0.316917
#
# Coordination Sequence:
#
# PCOD9021603 Si02
#       7
#     2   2   2   2   2   2   2
#     4  12  23  38  61  97 136 178 226 263 329 408
#     4  11  27  47  75 101 129 176 236 299 349 410
#     4  11  21  40  61  92 139 180 215 269 330 401
#     4  11  25  46  70 101 141 182 224 284 350 406
#     4  11  21  36  61  95 133 177 219 263 320 402
#     4  10  22  38  63  93 135 178 217 277 335 397
#     4  10  24  48  70 101 136 172 237 286 352 411
#
# _framework density 21.53548
#
# number of rings (size 3 to 8) (size 9 to 14) (size 15 to 20)
#    0.000    1.143    5.714    0.429    0.000   12.000 
#    0.000    0.000    0.000    0.000    0.000    0.000 
#    0.000    0.000    0.000    0.000    0.000    0.000 
#
# Total GULP energy -78252.806543 kJ/mol
# GULP energy per Si atom -5589.486182 kJ/mol
# Density = 2.148646 g / cm^3
# Si number density = 21.535480 Si / 1000 Ang^3
#
#
#
# Elastic Constant Matrix: (Units=GPa)
#
#
# Indices 1 2 3 4 5 6 
#
# 1 125.1535 52.4530 61.6885 -23.6737 -6.3218 -27.0070
# 2 52.4530 83.4682 59.3756 -18.8338 3.8408 -10.1244
# 3 61.6885 59.3756 157.2131 -36.8004 -14.0249 -24.1859
# 4 -23.6737 -18.8338 -36.8004 44.4402 -9.9159 3.7297
# 5 -6.3218 3.8408 -14.0249 -9.9159 48.6331 -0.2644
# 6 -27.0070 -10.1244 -24.1859 3.7297 -0.2644 47.4264
#
#
#
# Elastic Compliance Matrix: (Units=1/GPa)
#
#
# Indices 1 2 3 4 5 6 
#
# 1 0.013013 -0.006234 -0.000785 0.003804 0.002762 0.005395
# 2 -0.006234 0.019909 -0.005931 -0.000542 -0.004216 -0.002305
# 3 -0.000785 -0.005931 0.011754 0.007683 0.005342 0.003707
# 4 0.003804 -0.000542 0.007683 0.032465 0.009391 0.003468
# 5 0.002762 -0.004216 0.005342 0.009391 0.024725 0.002797
# 6 0.005395 -0.002305 0.003707 0.003468 0.002797 0.025299
#
#
# Mechanical properties :
#
#
# Convention : Reuss Voigt Hill
#
# Bulk Modulus (GPa) = 53.25542 79.20766 66.23154
# Shear Modulus (GPa) = 31.38300 40.92114 36.15207
#
# Velocity S-wave (km/s) = 3.82156 4.36383 4.10167
# Velocity P-wave (km/s) = 6.65246 7.88990 7.29746
#
# Compressibility (1/GPa) = 0.01877743
#
# Stress axis : x y z
#
# Youngs Moduli (GPa) = 76.84614 50.22885 85.07869
#
# Poissons Ratio (x) = 0.31311 0.06679
# Poissons Ratio (y) = 0.47903 0.50457
# Poissons Ratio (z) = 0.06032 0.29789
#
# Static dielectric constant tensor:
#      x y z
#    x 1.779540 0.015590 0.016010 
#    y 0.015590 1.940700 -0.011500 
#    z 0.016010 -0.011500 1.877730 
# 
# From -- ./inp_files/528318.got.cif
#   From: 2010.05.17/outbox.cif.g08.bks.cpg/sg2_265_cif.got.tgz:528318.got - 2010.06.03 11:33:40.
