data_PCOD9021972
_publ_section_title
;
Structure prediction by ZEFSAII (Michael W. Deem and Ramdas Pophale) SiO2 
 PCOD9021972
Probable space group: P -1
;
_chemical_formula_sum "Si O2"
_cell_formula_units_Z 16
_cell_length_a 10.719005
_cell_length_b 8.330738
_cell_length_c 11.920415
_cell_angle_alpha 123.535653
_cell_angle_beta 53.197141
_cell_angle_gamma 113.649658
_cell_volume 706.500935
_symmetry_space_group_name_H-M "P -1"
_symmetry_group_IT_number 2
_symmetry_cell_setting 'triclinic'
loop_
_space_group_symop_operation_xyz
x,y,z
-x,-y,-z
loop_
_atom_site_type_symbol
_atom_site_label
_atom_site_fract_x
_atom_site_fract_y
_atom_site_fract_z
Si Si1 0.245238 0.053652 0.532961
Si Si2 0.112501 0.043043 0.062240
Si Si3 0.553985 0.322598 0.473413
Si Si4 0.432877 0.150558 0.012080
Si Si5 0.132510 0.716465 0.643619
Si Si6 0.991552 0.310104 0.852503
Si Si7 0.709153 0.514435 0.668865
Si Si8 0.246394 0.736926 0.236246
O O1 0.426700 0.138699 0.464254
O O2 0.149351 0.234301 0.686878
O O3 0.200833 0.889745 0.588765
O O4 0.210487 0.942158 0.390557
O O5 0.079774 0.870023 0.102064
O O6 0.039092 0.235086 0.218949
O O7 0.298725 0.078631 0.966939
O O8 0.000000 0.000000 0.000000
O O9 0.500000 0.500000 0.500000
O O10 0.732876 0.280402 0.332017
O O11 0.573783 0.396144 0.620101
O O12 0.583546 0.249658 0.906874
O O13 0.345017 0.283168 0.194537
O O14 0.500000 0.000000 0.000000
O O15 0.855762 0.492215 0.499651
O O16 0.879826 0.332830 0.815886
O O17 0.000000 0.500000 0.000000
O O18 0.740521 0.404705 0.722211
#
# Coordination Sequence:
#
# PCOD9021972 Si02
#       8
#     2   2   2   2   2   2   2   2
#     4  10  22  42  72  97 131 183 227 281 342 412
#     4  11  26  44  68 100 140 182 226 283 360 403
#     4  10  22  38  68 103 137 169 223 286 345 406
#     4  12  26  43  69 101 143 180 227 292 346 415
#     4   8  21  43  65  94 133 174 229 271 334 415
#     4  11  26  45  69 100 138 180 233 292 337 416
#     4   9  24  43  66  99 132 181 231 277 342 413
#     4  11  24  45  71  97 138 184 239 275 347 420
#
# _framework density 22.646822
#
# number of rings (size 3 to 8) (size 9 to 14) (size 15 to 20)
#    0.750    1.000    1.250    1.125    7.000    2.500 
#    0.000    0.000    0.000    0.000    0.000    0.000 
#    0.000    0.000    0.000    0.000    0.000    0.000 
#
# Total GULP energy -89275.549282 kJ/mol
# GULP energy per Si atom -5579.721830 kJ/mol
# Density = 2.259528 g / cm^3
# Si number density = 22.646822 Si / 1000 Ang^3
#
#
#
# Elastic Constant Matrix: (Units=GPa)
#
#
# Indices 1 2 3 4 5 6 
#
# 1 172.6345 34.5376 54.8094 13.9370 2.6891 -10.0155
# 2 34.5376 42.9422 24.1742 16.0204 1.5281 -10.0990
# 3 54.8094 24.1742 102.3544 45.0326 -7.5054 -4.9884
# 4 13.9370 16.0204 45.0326 40.3850 0.5375 0.3120
# 5 2.6891 1.5281 -7.5054 0.5375 49.0578 1.8111
# 6 -10.0155 -10.0990 -4.9884 0.3120 1.8111 35.3464
#
#
#
# Elastic Compliance Matrix: (Units=1/GPa)
#
#
# Indices 1 2 3 4 5 6 
#
# 1 0.008279 -0.005538 -0.005760 0.005778 -0.001224 -0.000037
# 2 -0.005538 0.033961 0.000795 -0.012501 -0.000806 0.008398
# 3 -0.005760 0.000795 0.024283 -0.025477 0.004210 0.002031
# 4 0.005778 -0.012501 -0.025477 0.056237 -0.004227 -0.005810
# 5 -0.001224 -0.000806 0.004210 -0.004227 0.021205 -0.001032
# 6 -0.000037 0.008398 0.002031 -0.005810 -0.001032 0.031071
#
#
# Mechanical properties :
#
#
# Convention : Reuss Voigt Hill
#
# Bulk Modulus (GPa) = 21.96885 60.55261 41.26073
# Shear Modulus (GPa) = 23.67256 38.58516 31.12886
#
# Velocity S-wave (km/s) = 3.23661 4.13216 3.71150
# Velocity P-wave (km/s) = 4.86715 7.04004 6.05192
#
# Compressibility (1/GPa) = 0.04551899
#
# Stress axis : x y z
#
# Youngs Moduli (GPa) = 120.78084 29.44548 41.18045
#
# Poissons Ratio (x) = 0.16306 0.23718
# Poissons Ratio (y) = 0.66884 -0.03273
# Poissons Ratio (z) = 0.69565 -0.02340
#
# Static dielectric constant tensor:
#      x y z
#    x 1.907150 0.072200 0.024280 
#    y 0.072200 1.838830 0.085490 
#    z 0.024280 0.085490 1.887690 
# 
# From -- ./inp_files/383136.got.cif
#   From: 2010.05.17/outbox.cif.g08.bks.cpg/sg2_192_cif.got.tgz:383136.got - 2010.06.03 11:33:40.
