data_PCOD9021746
_publ_section_title
;
Structure prediction by ZEFSAII (Michael W. Deem and Ramdas Pophale) SiO2 
 PCOD9021746
Probable space group: P -1
;
_chemical_formula_sum "Si O2"
_cell_formula_units_Z 13
_cell_length_a 9.306236
_cell_length_b 11.279979
_cell_length_c 9.024166
_cell_angle_alpha 125.175975
_cell_angle_beta 128.707739
_cell_angle_gamma 48.784174
_cell_volume 533.912425
_symmetry_space_group_name_H-M "P -1"
_symmetry_group_IT_number 2
_symmetry_cell_setting 'triclinic'
loop_
_space_group_symop_operation_xyz
x,y,z
-x,-y,-z
loop_
_atom_site_type_symbol
_atom_site_label
_atom_site_fract_x
_atom_site_fract_y
_atom_site_fract_z
Si Si1 0.316574 0.314662 0.109168
Si Si2 0.957305 0.811016 0.327453
Si Si3 0.350768 0.447449 0.949587
Si Si4 0.892383 0.707420 0.752894
Si Si5 0.789962 0.126825 0.257809
Si Si6 0.000000 0.000000 0.000000
Si Si7 0.334919 0.160514 0.590136
O O1 0.254581 0.320561 0.243574
O O2 0.550548 0.165312 0.137411
O O3 0.128038 0.300805 0.890321
O O4 0.343475 0.451054 0.126656
O O5 0.791516 0.888443 0.410184
O O6 0.171019 0.753381 0.515059
O O7 0.929799 0.947421 0.289283
O O8 0.426180 0.260560 0.812265
O O9 0.120043 0.563064 0.827717
O O10 0.500000 0.500000 0.000000
O O11 0.809496 0.717539 0.541470
O O12 0.899058 0.879649 0.901506
O O13 0.878251 0.126625 0.152137
O O14 0.500000 0.000000 0.500000
#
# Coordination Sequence:
#
# PCOD9021746 Si02
#       7
#     2   2   2   2   2   1   2
#     4  11  24  45  71  98 147 192 244 294 373 430
#     4  10  22  38  65 102 149 178 239 294 365 415
#     4  11  27  48  73 103 150 190 243 301 374 432
#     4  12  25  46  71 107 146 193 240 306 363 436
#     4  11  22  40  64 108 141 189 237 313 345 440
#     4  12  24  38  76 104 146 186 254 292 372 422
#     4  11  25  44  75 106 143 192 242 300 365 441
#
# _framework density 24.348562000000001
#
# number of rings (size 3 to 8) (size 9 to 14) (size 15 to 20)
#    0.000    0.923    3.077    3.231    6.462    0.000 
#    2.769    0.769    0.000    0.000    0.000    0.000 
#    0.000    0.000    0.000    0.000    0.000    0.000 
#
# Total GULP energy -72384.806493 kJ/mol
# GULP energy per Si atom -5568.062038 kJ/mol
# Density = 2.429314 g / cm^3
# Si number density = 24.348562 Si / 1000 Ang^3
#
#
#
# Elastic Constant Matrix: (Units=GPa)
#
#
# Indices 1 2 3 4 5 6 
#
# 1 183.1802 16.8568 27.1671 -8.4138 -8.9828 15.6706
# 2 16.8568 50.7040 8.2727 -9.1232 5.2761 0.4835
# 3 27.1671 8.2727 88.0607 -10.4878 -0.5069 1.5267
# 4 -8.4138 -9.1232 -10.4878 35.0649 11.3197 0.3693
# 5 -8.9828 5.2761 -0.5069 11.3197 32.8201 3.0566
# 6 15.6706 0.4835 1.5267 0.3693 3.0566 38.0440
#
#
#
# Elastic Compliance Matrix: (Units=1/GPa)
#
#
# Indices 1 2 3 4 5 6 
#
# 1 0.006232 -0.002065 -0.001703 -0.000284 0.002357 -0.002659
# 2 -0.002065 0.022544 -0.000661 0.007370 -0.006841 0.001069
# 3 -0.001703 -0.000661 0.012355 0.003573 -0.001429 0.000294
# 4 -0.000284 0.007370 0.003573 0.035828 -0.013623 0.000627
# 5 0.002357 -0.006841 -0.001429 -0.013623 0.037234 -0.003686
# 6 -0.002659 0.001069 0.000294 0.000627 -0.003686 0.027645
#
#
# Mechanical properties :
#
#
# Convention : Reuss Voigt Hill
#
# Bulk Modulus (GPa) = 30.98467 47.39313 39.18890
# Shear Modulus (GPa) = 30.96878 39.16237 35.06558
#
# Velocity S-wave (km/s) = 3.57023 4.01484 3.79905
# Velocity P-wave (km/s) = 5.45422 6.40302 5.94757
#
# Compressibility (1/GPa) = 0.03227403
#
# Stress axis : x y z
#
# Youngs Moduli (GPa) = 160.47158 44.35707 80.93629
#
# Poissons Ratio (x) = 0.09159 0.13781
# Poissons Ratio (y) = 0.33136 0.05350
# Poissons Ratio (z) = 0.27323 0.02932
#
# Static dielectric constant tensor:
#      x y z
#    x 1.933090 0.064650 -0.027410 
#    y 0.064650 2.201690 -0.153610 
#    z -0.027410 -0.153610 2.245880 
# 
# From -- ./inp_files/153500.got.cif
#   From: 2010.05.17/outbox.cif.g08.bks.cpg/sg2_77_cif.got.tgz:153500.got - 2010.06.03 11:33:40.
