data_PCOD9021381
_publ_section_title
;
Structure prediction by ZEFSAII (Michael W. Deem and Ramdas Pophale) SiO2 
 PCOD9021381
Probable space group: P -1
;
_chemical_formula_sum "Si O2"
_cell_formula_units_Z 16
_cell_length_a 10.983885
_cell_length_b 14.163391
_cell_length_c 13.545119
_cell_angle_alpha 149.934333
_cell_angle_beta 53.154388
_cell_angle_gamma 136.260707
_cell_volume 727.882293
_symmetry_space_group_name_H-M "P -1"
_symmetry_group_IT_number 2
_symmetry_cell_setting 'triclinic'
loop_
_space_group_symop_operation_xyz
x,y,z
-x,-y,-z
loop_
_atom_site_type_symbol
_atom_site_label
_atom_site_fract_x
_atom_site_fract_y
_atom_site_fract_z
Si Si1 0.965410 0.861219 0.516784
Si Si2 0.213134 0.672699 0.185172
Si Si3 0.781219 0.668358 0.245234
Si Si4 0.933788 0.627603 0.823869
Si Si5 0.612960 0.022174 0.296849
Si Si6 0.194554 0.105910 0.077501
Si Si7 0.603958 0.457171 0.691099
Si Si8 0.028050 0.753714 0.597733
O O1 0.106508 0.799096 0.348595
O O2 0.938953 0.786010 0.574090
O O3 0.799419 0.736846 0.412886
O O4 0.060330 0.120554 0.693969
O O5 0.127018 0.494875 0.153098
O O6 0.418549 0.840126 0.257245
O O7 0.202637 0.542481 0.973619
O O8 0.593399 0.616915 0.247912
O O9 0.752812 0.583246 0.818124
O O10 0.004941 0.489618 0.603680
O O11 0.088306 0.878456 0.983600
O O12 0.611329 0.241464 0.467137
O O13 0.760248 0.094457 0.376062
O O14 0.689273 0.941513 0.099280
O O15 0.340335 0.363260 0.260590
O O16 0.031439 0.158846 0.200781
#
# Coordination Sequence:
#
# PCOD9021381 Si02
#       8
#     2   2   2   2   2   2   2   2
#     4  10  23  41  60  85 124 155 202 244 295 351
#     4  11  22  39  63  93 119 150 199 254 298 350
#     4  11  22  38  61  89 116 164 195 244 296 351
#     4  10  23  36  60  92 125 155 191 245 304 353
#     4  11  22  36  63  93 121 152 195 248 304 351
#     4  12  22  40  60  90 124 162 195 238 300 364
#     4  11  22  36  60  89 124 155 198 241 297 355
#     4  10  22  38  61  86 121 160 195 243 297 354
#
# _framework density 21.981577000000001
#
# number of rings (size 3 to 8) (size 9 to 14) (size 15 to 20)
#    0.000    1.250    2.500    4.125    1.750    4.000 
#    0.000    0.625    0.000    3.750    0.000    0.000 
#    0.000    0.000    0.000    0.000    0.000    0.000 
#
# Total GULP energy -89175.803364 kJ/mol
# GULP energy per Si atom -5573.487710 kJ/mol
# Density = 2.193155 g / cm^3
# Si number density = 21.981577 Si / 1000 Ang^3
#
#
#
# Elastic Constant Matrix: (Units=GPa)
#
#
# Indices 1 2 3 4 5 6 
#
# 1 33.7923 1.1154 0.4897 -1.6276 -0.0626 -10.7133
# 2 1.1154 86.1682 22.7877 17.8531 1.4797 -3.3001
# 3 0.4897 22.7877 130.4097 9.3199 -18.9891 -0.7611
# 4 -1.6276 17.8531 9.3199 37.9362 4.6231 -8.0928
# 5 -0.0626 1.4797 -18.9891 4.6231 22.5968 -6.7585
# 6 -10.7133 -3.3001 -0.7611 -8.0928 -6.7585 18.9742
#
#
#
# Elastic Compliance Matrix: (Units=1/GPa)
#
#
# Indices 1 2 3 4 5 6 
#
# 1 0.038627 -0.001246 0.000852 0.006927 0.007655 0.027308
# 2 -0.001246 0.013408 -0.002223 -0.005935 -0.002050 -0.001722
# 3 0.000852 -0.002223 0.009579 -0.001765 0.009487 0.003105
# 4 0.006927 -0.005935 -0.001765 0.033694 -0.003168 0.016051
# 5 0.007655 -0.002050 0.009487 -0.003168 0.060356 0.024493
# 6 0.027308 -0.001722 0.003105 0.016051 0.024493 0.083517
#
#
# Mechanical properties :
#
#
# Convention : Reuss Voigt Hill
#
# Bulk Modulus (GPa) = 17.73689 33.23954 25.48821
# Shear Modulus (GPa) = 18.99636 30.96660 24.98148
#
# Velocity S-wave (km/s) = 2.94291 3.75741 3.37482
# Velocity P-wave (km/s) = 4.43104 5.82911 5.17748
#
# Compressibility (1/GPa) = 0.05637968
#
# Stress axis : x y z
#
# Youngs Moduli (GPa) = 25.88876 74.58215 104.39491
#
# Poissons Ratio (x) = 0.09293 -0.08890
# Poissons Ratio (y) = 0.03226 0.23204
# Poissons Ratio (z) = -0.02205 0.16577
#
# Static dielectric constant tensor:
#      x y z
#    x 1.835320 -0.010050 0.030440 
#    y -0.010050 1.840580 -0.011050 
#    z 0.030440 -0.011050 1.878020 
# 
# From -- ./inp_files/521749.got.cif
#   From: 2010.05.17/outbox.cif.g08.bks.cpg/sg2_261_cif.got.tgz:521749.got - 2010.06.03 11:33:40.
