data_PCOD9021111
_publ_section_title
;
Structure prediction by ZEFSAII (Michael W. Deem and Ramdas Pophale) SiO2 
 PCOD9021111
Probable space group: P -1
;
_chemical_formula_sum "Si O2"
_cell_formula_units_Z 16
_cell_length_a 8.706158
_cell_length_b 16.649949
_cell_length_c 15.625392
_cell_angle_alpha 32.466513
_cell_angle_beta 54.162055
_cell_angle_gamma 37.569614
_cell_volume 716.974285
_symmetry_space_group_name_H-M "P -1"
_symmetry_group_IT_number 2
_symmetry_cell_setting 'triclinic'
loop_
_space_group_symop_operation_xyz
x,y,z
-x,-y,-z
loop_
_atom_site_type_symbol
_atom_site_label
_atom_site_fract_x
_atom_site_fract_y
_atom_site_fract_z
Si Si1 0.451871 0.690949 0.879072
Si Si2 0.970939 0.558118 0.763990
Si Si3 0.098656 0.201989 0.280880
Si Si4 0.418787 0.734749 0.402446
Si Si5 0.931362 0.031216 0.381527
Si Si6 0.596161 0.101684 0.135521
Si Si7 0.586317 0.917899 0.950296
Si Si8 0.093727 0.689820 0.436066
O O1 0.186683 0.891648 0.742353
O O2 0.676908 0.671443 0.780977
O O3 0.429076 0.731566 0.951392
O O4 0.500000 0.500000 0.000000
O O5 0.011373 0.636843 0.595066
O O6 0.051630 0.603805 0.782629
O O7 0.141691 0.316545 0.920447
O O8 0.930617 0.194124 0.278022
O O9 0.217969 0.010174 0.477007
O O10 0.328122 0.162016 0.193751
O O11 0.275132 0.728422 0.376004
O O12 0.711485 0.515706 0.500866
O O13 0.408591 0.918862 0.236450
O O14 0.226934 0.809926 0.477261
O O15 0.843774 0.881558 0.293024
O O16 0.595151 0.089152 0.044324
O O17 0.500000 0.000000 0.000000
#
# Coordination Sequence:
#
# PCOD9021111 Si02
#       8
#     2   2   2   2   2   2   2   2
#     4  11  24  39  66  97 141 171 211 275 334 401
#     4  11  23  42  68  98 134 172 221 267 339 396
#     4  10  22  37  67  99 129 168 213 277 327 403
#     4  11  22  43  69  91 135 177 219 274 329 387
#     4  11  20  40  64 100 132 167 216 271 335 386
#     4  11  24  42  68  97 132 173 227 271 332 391
#     4  12  26  46  65  95 137 178 219 277 334 394
#     4  11  23  43  72  95 127 179 228 273 319 395
#
# _framework density 22.316002999999998
#
# number of rings (size 3 to 8) (size 9 to 14) (size 15 to 20)
#    0.000    1.000    5.000    1.500    1.750    3.500 
#    0.000    0.625    0.000    0.000    0.000    0.000 
#    0.000    0.000    0.000    0.000    0.000    0.000 
#
# Total GULP energy -89301.854128 kJ/mol
# GULP energy per Si atom -5581.365883 kJ/mol
# Density = 2.226521 g / cm^3
# Si number density = 22.316003 Si / 1000 Ang^3
#
#
#
# Elastic Constant Matrix: (Units=GPa)
#
#
# Indices 1 2 3 4 5 6 
#
# 1 73.9211 36.3758 24.5553 -3.9245 0.0605 33.3055
# 2 36.3758 132.7842 23.4354 -24.7665 7.6160 26.6434
# 3 24.5553 23.4354 37.5423 -19.0729 3.2535 7.4764
# 4 -3.9245 -24.7665 -19.0729 33.6914 7.1747 1.5286
# 5 0.0605 7.6160 3.2535 7.1747 35.7543 -3.7149
# 6 33.3055 26.6434 7.4764 1.5286 -3.7149 36.3988
#
#
#
# Elastic Compliance Matrix: (Units=1/GPa)
#
#
# Indices 1 2 3 4 5 6 
#
# 1 0.029840 -0.002165 -0.017760 -0.007460 0.001277 -0.021628
# 2 -0.002165 0.011817 0.001728 0.010996 -0.005716 -0.008069
# 3 -0.017760 0.001728 0.054411 0.032432 -0.011667 0.001256
# 4 -0.007460 0.010996 0.032432 0.059763 -0.018550 -0.012287
# 5 0.001277 -0.005716 -0.011667 -0.018550 0.034982 0.009761
# 6 -0.021628 -0.008069 0.001256 -0.012287 0.009761 0.054424
#
#
# Mechanical properties :
#
#
# Convention : Reuss Voigt Hill
#
# Bulk Modulus (GPa) = 16.75735 45.88674 31.32205
# Shear Modulus (GPa) = 16.58251 31.82762 24.20507
#
# Velocity S-wave (km/s) = 2.72890 3.78064 3.29698
# Velocity P-wave (km/s) = 4.17787 6.29798 5.34411
#
# Compressibility (1/GPa) = 0.05967530
#
# Stress axis : x y z
#
# Youngs Moduli (GPa) = 33.51174 84.62450 18.37852
#
# Poissons Ratio (x) = 0.18323 0.32639
# Poissons Ratio (y) = 0.07256 -0.03176
# Poissons Ratio (z) = 0.59515 -0.14624
#
# Static dielectric constant tensor:
#      x y z
#    x 1.860000 0.016020 -0.013890 
#    y 0.016020 1.889330 0.046210 
#    z -0.013890 0.046210 1.883460 
# 
# From -- ./inp_files/503789.got.cif
#   From: 2010.05.17/outbox.cif.g08.bks.cpg/sg2_252_cif.got.tgz:503789.got - 2010.06.03 11:33:40.
