data_PCOD9021419
_publ_section_title
;
Structure prediction by ZEFSAII (Michael W. Deem and Ramdas Pophale) SiO2 
 PCOD9021419
Probable space group: P -1
;
_chemical_formula_sum "Si O2"
_cell_formula_units_Z 14
_cell_length_a 8.868065
_cell_length_b 19.426183
_cell_length_c 4.921243
_cell_angle_alpha 110.801798
_cell_angle_beta 64.066771
_cell_angle_gamma 133.954629
_cell_volume 547.116940
_symmetry_space_group_name_H-M "P -1"
_symmetry_group_IT_number 2
_symmetry_cell_setting 'triclinic'
loop_
_space_group_symop_operation_xyz
x,y,z
-x,-y,-z
loop_
_atom_site_type_symbol
_atom_site_label
_atom_site_fract_x
_atom_site_fract_y
_atom_site_fract_z
Si Si1 0.654883 0.946420 0.052293
Si Si2 0.229169 0.606018 0.523393
Si Si3 0.800918 0.633834 0.274212
Si Si4 0.044205 0.079386 0.363356
Si Si5 0.766603 0.110903 0.829532
Si Si6 0.083134 0.724920 0.674949
Si Si7 0.409737 0.587284 0.852342
O O1 0.854698 0.023030 0.203218
O O2 0.680857 0.006887 0.854219
O O3 0.408319 0.900400 0.250436
O O4 0.713748 0.877012 0.862388
O O5 0.209793 0.685855 0.583932
O O6 0.277450 0.607405 0.801590
O O7 0.000000 0.500000 0.500000
O O8 0.405399 0.616751 0.201727
O O9 0.627235 0.633766 0.574231
O O10 0.714477 0.525886 0.209589
O O11 0.017608 0.704424 0.384582
O O12 0.864082 0.661734 0.949211
O O13 0.007071 0.150872 0.602020
O O14 0.000000 0.000000 0.500000
O O15 0.792979 0.171184 0.149589
#
# Coordination Sequence:
#
# PCOD9021419 Si02
#       7
#     2   2   2   2   2   2   2
#     4   9  19  40  65  89 119 168 215 254 322 404
#     4  12  21  39  63  92 125 168 213 266 315 388
#     4  11  23  42  63  92 124 169 218 267 324 383
#     4   9  18  37  64  90 116 157 213 259 315 386
#     4  10  22  38  61  91 126 167 210 270 323 388
#     4  12  25  40  62  95 131 164 212 272 327 370
#     4  11  22  41  67  87 122 173 222 261 317 393
#
# _framework density 25.588677000000001
#
# number of rings (size 3 to 8) (size 9 to 14) (size 15 to 20)
#    0.000    1.429    2.857    2.571    2.000    2.286 
#    5.143    0.000    0.000    0.000    0.000    0.000 
#    0.000    0.000    0.000    0.000    0.000    0.000 
#
# Total GULP energy -78194.841626 kJ/mol
# GULP energy per Si atom -5585.345830 kJ/mol
# Density = 2.553044 g / cm^3
# Si number density = 25.588677 Si / 1000 Ang^3
#
#
#
# Elastic Constant Matrix: (Units=GPa)
#
#
# Indices 1 2 3 4 5 6 
#
# 1 151.3229 17.8489 46.4242 -5.6862 -22.8791 7.6665
# 2 17.8489 59.3692 15.1232 -1.8064 -17.5492 4.0006
# 3 46.4242 15.1232 133.7781 -3.4166 -26.3762 -1.8219
# 4 -5.6862 -1.8064 -3.4166 28.6509 -7.5730 1.6954
# 5 -22.8791 -17.5492 -26.3762 -7.5730 63.5634 -1.2200
# 6 7.6665 4.0006 -1.8219 1.6954 -1.2200 18.0622
#
#
#
# Elastic Compliance Matrix: (Units=1/GPa)
#
#
# Indices 1 2 3 4 5 6 
#
# 1 0.007946 -0.000983 -0.002289 0.001922 0.001802 -0.003444
# 2 -0.000983 0.019100 -0.000868 0.002392 0.004771 -0.003803
# 3 -0.002289 -0.000868 0.008989 0.001189 0.002849 0.002151
# 4 0.001922 0.002392 0.001189 0.037479 0.006228 -0.004323
# 5 0.001802 0.004771 0.002849 0.006228 0.019607 -0.000794
# 6 -0.003444 -0.003803 0.002151 -0.004323 -0.000794 0.058238
#
#
# Mechanical properties :
#
#
# Convention : Reuss Voigt Hill
#
# Bulk Modulus (GPa) = 36.02929 55.91809 45.97369
# Shear Modulus (GPa) = 29.60524 39.72690 34.66607
#
# Velocity S-wave (km/s) = 3.40511 3.94448 3.68468
# Velocity P-wave (km/s) = 5.43787 6.53034 6.00898
#
# Compressibility (1/GPa) = 0.02775519
#
# Stress axis : x y z
#
# Youngs Moduli (GPa) = 125.85543 52.35680 111.24768
#
# Poissons Ratio (x) = 0.05144 0.25463
# Poissons Ratio (y) = 0.12366 0.09658
# Poissons Ratio (z) = 0.28806 0.04545
#
# Static dielectric constant tensor:
#      x y z
#    x 1.994090 0.086400 -0.085770 
#    y 0.086400 2.081960 -0.131360 
#    z -0.085770 -0.131360 2.132550 
# 
# From -- ./inp_files/55678.got.cif
#   From: 2010.05.17/outbox.cif.g08.bks.cpg/sg2_28_cif.got.tgz:55678.got - 2010.06.03 11:33:40.
