data_PCOD9021826
_publ_section_title
;
Structure prediction by ZEFSAII (Michael W. Deem and Ramdas Pophale) SiO2 
 PCOD9021826
Probable space group: P -1
;
_chemical_formula_sum "Si O2"
_cell_formula_units_Z 15
_cell_length_a 10.785083
_cell_length_b 11.370493
_cell_length_c 11.398438
_cell_angle_alpha 67.575037
_cell_angle_beta 84.005932
_cell_angle_gamma 142.530438
_cell_volume 542.123089
_symmetry_space_group_name_H-M "P -1"
_symmetry_group_IT_number 2
_symmetry_cell_setting 'triclinic'
loop_
_space_group_symop_operation_xyz
x,y,z
-x,-y,-z
loop_
_atom_site_type_symbol
_atom_site_label
_atom_site_fract_x
_atom_site_fract_y
_atom_site_fract_z
Si Si1 0.904546 0.084364 0.265019
Si Si2 0.613239 0.199443 0.814678
Si Si3 0.675851 0.569511 0.328655
Si Si4 0.677542 0.545872 0.720771
Si Si5 0.178518 0.715605 0.689834
Si Si6 0.000000 0.500000 0.500000
Si Si7 0.217221 0.493490 0.878201
Si Si8 0.875832 0.084756 0.672520
O O1 0.181771 0.283610 0.234208
O O2 0.882638 0.203249 0.283464
O O3 0.987989 0.194250 0.083213
O O4 0.599913 0.727392 0.448713
O O5 0.555150 0.288407 0.826789
O O6 0.614045 0.162843 0.694394
O O7 0.977492 0.518368 0.664917
O O8 0.500000 0.000000 0.000000
O O9 0.561631 0.579014 0.257257
O O10 0.727699 0.503745 0.258536
O O11 0.975372 0.862253 0.260841
O O12 0.958730 0.803240 0.506282
O O13 0.104718 0.532937 0.854638
O O14 0.500000 0.000000 0.500000
O O15 0.973064 0.319008 0.598256
O O16 0.526359 0.765274 0.812263
#
# Coordination Sequence:
#
# PCOD9021826 Si02
#       8
#     2   2   2   2   2   1   2   2
#     4  11  25  44  74 104 142 195 241 298 366 431
#     4  10  23  42  72 105 141 181 237 299 359 427
#     4  12  25  49  75 100 149 199 242 294 371 433
#     4  10  23  49  71 105 146 194 239 302 362 438
#     4  11  21  45  70 103 147 189 233 302 371 424
#     4  10  22  38  66 100 140 178 232 294 366 410
#     4  12  26  45  72 109 148 188 246 305 359 435
#     4  11  25  45  75 103 144 195 242 306 360 430
#
# _framework density 27.668991999999999
#
# number of rings (size 3 to 8) (size 9 to 14) (size 15 to 20)
#    0.000    1.067    2.667    3.600    5.600    2.667 
#    2.400    0.667    0.000    0.000    0.000    0.000 
#    0.000    0.000    0.000    0.000    0.000    0.000 
#
# Total GULP energy -84055.603132 kJ/mol
# GULP energy per Si atom -5603.706875 kJ/mol
# Density = 2.760602 g / cm^3
# Si number density = 27.668992 Si / 1000 Ang^3
#
#
#
# Elastic Constant Matrix: (Units=GPa)
#
#
# Indices 1 2 3 4 5 6 
#
# 1 127.3615 51.8379 24.1340 -12.1412 23.5361 21.7002
# 2 51.8379 118.7078 24.9615 -6.6592 5.2279 37.3301
# 3 24.1340 24.9615 107.7072 2.5342 28.8116 6.9919
# 4 -12.1412 -6.6592 2.5342 14.2948 -3.3074 -0.8456
# 5 23.5361 5.2279 28.8116 -3.3074 41.4366 0.3662
# 6 21.7002 37.3301 6.9919 -0.8456 0.3662 59.4554
#
#
#
# Elastic Compliance Matrix: (Units=1/GPa)
#
#
# Indices 1 2 3 4 5 6 
#
# 1 0.011306 -0.003767 -0.000327 0.006614 -0.005177 -0.001597
# 2 -0.003767 0.012614 -0.002440 0.003335 0.002566 -0.006227
# 3 -0.000327 -0.002440 0.012321 -0.005560 -0.008519 0.000176
# 4 0.006614 0.003335 -0.005560 0.079347 0.006046 -0.002762
# 5 -0.005177 0.002566 -0.008519 0.006046 0.033146 0.001162
# 6 -0.001597 -0.006227 0.000176 -0.002762 0.001162 0.021244
#
#
# Mechanical properties :
#
#
# Convention : Reuss Voigt Hill
#
# Bulk Modulus (GPa) = 43.15408 61.73814 52.44611
# Shear Modulus (GPa) = 26.20911 39.89355 33.05133
#
# Velocity S-wave (km/s) = 3.08106 3.80124 3.45994
# Velocity P-wave (km/s) = 5.31861 6.45194 5.91249
#
# Compressibility (1/GPa) = 0.02317278
#
# Stress axis : x y z
#
# Youngs Moduli (GPa) = 88.44627 79.27471 81.15935
#
# Poissons Ratio (x) = 0.29865 0.02657
# Poissons Ratio (y) = 0.33320 0.19802
# Poissons Ratio (z) = 0.02896 0.19343
#
# Static dielectric constant tensor:
#      x y z
#    x 2.207590 0.010200 -0.044280 
#    y 0.010200 2.492630 0.244370 
#    z -0.044280 0.244370 2.415910 
# 
# From -- ./inp_files/425631.got.cif
#   From: 2010.05.17/outbox.cif.g08.bks.cpg/sg2_213_cif.got.tgz:425631.got - 2010.06.03 11:33:40.
