data_PCOD9021379
_publ_section_title
;
Structure prediction by ZEFSAII (Michael W. Deem and Ramdas Pophale) SiO2 
 PCOD9021379
Probable space group: P -1
;
_chemical_formula_sum "Si O2"
_cell_formula_units_Z 12
_cell_length_a 7.694944
_cell_length_b 9.869866
_cell_length_c 9.989457
_cell_angle_alpha 86.816602
_cell_angle_beta 73.934413
_cell_angle_gamma 45.490891
_cell_volume 509.190215
_symmetry_space_group_name_H-M "P -1"
_symmetry_group_IT_number 2
_symmetry_cell_setting 'triclinic'
loop_
_space_group_symop_operation_xyz
x,y,z
-x,-y,-z
loop_
_atom_site_type_symbol
_atom_site_label
_atom_site_fract_x
_atom_site_fract_y
_atom_site_fract_z
Si Si1 0.015436 0.122428 0.213457
Si Si2 0.118759 0.744781 0.478468
Si Si3 0.274725 0.981395 0.680646
Si Si4 0.986717 0.561059 0.850737
Si Si5 0.379224 0.342303 0.558644
Si Si6 0.423040 0.911802 0.934505
O O1 0.063812 0.115503 0.362965
O O2 0.776234 0.149364 0.259369
O O3 0.960914 0.304149 0.167195
O O4 0.226262 0.945910 0.077274
O O5 0.216462 0.540775 0.498563
O O6 0.370123 0.708423 0.437059
O O7 0.963839 0.845953 0.369447
O O8 0.525377 0.833164 0.542442
O O9 0.305577 0.029408 0.815393
O O10 0.199801 0.390023 0.714625
O O11 0.693109 0.694456 0.856702
O O12 0.000000 0.500000 0.000000
O O13 0.500000 0.000000 0.000000
#
# Coordination Sequence:
#
# PCOD9021379 Si02
#       6
#     2   2   2   2   2   2
#     4   9  19  40  62  91 120 159 210 248 301 380
#     4   9  19  36  68  93 123 157 200 269 310 348
#     4  11  21  38  69  94 117 165 208 265 303 352
#     4  10  22  38  61  85 130 175 187 251 321 362
#     4   9  19  38  60  97 125 153 215 249 302 384
#     4  10  23  42  58  87 130 164 205 251 314 378
#
# _framework density 23.566832999999999
#
# number of rings (size 3 to 8) (size 9 to 14) (size 15 to 20)
#    0.000    2.333    0.000    3.500    4.667    0.667 
#    6.000    8.333    0.000    0.000    0.000    0.000 
#    0.000    0.000    0.000    0.000    0.000    0.000 
#
# Total GULP energy -67045.003131 kJ/mol
# GULP energy per Si atom -5587.083594 kJ/mol
# Density = 2.351319 g / cm^3
# Si number density = 23.566833 Si / 1000 Ang^3
#
#
#
# Elastic Constant Matrix: (Units=GPa)
#
#
# Indices 1 2 3 4 5 6 
#
# 1 46.7623 29.6185 53.7558 -10.3234 10.3945 -3.0676
# 2 29.6185 89.7291 65.8627 -15.2756 1.6891 -19.8593
# 3 53.7558 65.8627 201.7325 5.5724 5.6005 -40.5280
# 4 -10.3234 -15.2756 5.5724 49.9695 -11.9675 -2.0875
# 5 10.3945 1.6891 5.6005 -11.9675 46.7033 -6.5584
# 6 -3.0676 -19.8593 -40.5280 -2.0875 -6.5584 30.7250
#
#
#
# Elastic Compliance Matrix: (Units=1/GPa)
#
#
# Indices 1 2 3 4 5 6 
#
# 1 0.042654 -0.008240 -0.012373 0.004678 -0.009185 -0.019031
# 2 -0.008240 0.018442 -0.002191 0.005580 0.004191 0.009481
# 3 -0.012373 -0.002191 0.011593 -0.003408 0.002383 0.012917
# 4 0.004678 0.005580 -0.003408 0.024559 0.005808 0.002486
# 5 -0.009185 0.004191 0.002383 0.005808 0.026036 0.010888
# 6 -0.019031 0.009481 0.012917 0.002486 0.010888 0.056306
#
#
# Mechanical properties :
#
#
# Convention : Reuss Voigt Hill
#
# Bulk Modulus (GPa) = 36.92838 70.74422 53.83630
# Shear Modulus (GPa) = 21.34700 38.07868 29.71284
#
# Velocity S-wave (km/s) = 3.01293 4.02403 3.55461
# Velocity P-wave (km/s) = 5.27326 7.18847 6.30402
#
# Compressibility (1/GPa) = 0.02707944
#
# Stress axis : x y z
#
# Youngs Moduli (GPa) = 23.44465 54.22309 86.26264
#
# Poissons Ratio (x) = 0.44680 1.06735
# Poissons Ratio (y) = 0.19319 0.18901
# Poissons Ratio (z) = 0.29009 0.11881
#
# Static dielectric constant tensor:
#      x y z
#    x 1.955430 -0.008910 -0.047360 
#    y -0.008910 1.977080 0.124450 
#    z -0.047360 0.124450 2.099340 
# 
# From -- ./inp_files/175959.got.cif
#   From: 2010.05.17/outbox.cif.g08.bks.cpg/sg2_88_cif.got.tgz:175959.got - 2010.06.03 11:33:40.
