data_PCOD9021501
_publ_section_title
;
Structure prediction by ZEFSAII (Michael W. Deem and Ramdas Pophale) SiO2 
 PCOD9021501
Probable space group: P -1
;
_chemical_formula_sum "Si O2"
_cell_formula_units_Z 16
_cell_length_a 15.562039
_cell_length_b 19.087944
_cell_length_c 10.018064
_cell_angle_alpha 48.850957
_cell_angle_beta 62.497856
_cell_angle_gamma 23.053866
_cell_volume 766.263974
_symmetry_space_group_name_H-M "P -1"
_symmetry_group_IT_number 2
_symmetry_cell_setting 'triclinic'
loop_
_space_group_symop_operation_xyz
x,y,z
-x,-y,-z
loop_
_atom_site_type_symbol
_atom_site_label
_atom_site_fract_x
_atom_site_fract_y
_atom_site_fract_z
Si Si1 0.982562 0.944982 0.779655
Si Si2 0.045894 0.684026 0.386102
Si Si3 0.774933 0.270300 0.856023
Si Si4 0.770874 0.313297 0.357241
Si Si5 0.119455 0.578379 0.753048
Si Si6 0.783124 0.663886 0.347391
Si Si7 0.677992 0.038979 0.961149
Si Si8 0.777080 0.804730 0.946322
O O1 0.078378 0.832181 0.706698
O O2 0.879949 0.140459 0.598008
O O3 0.766492 0.064819 0.828470
O O4 0.204352 0.739534 0.986021
O O5 0.176199 0.669407 0.310007
O O6 0.965776 0.730125 0.536008
O O7 0.227395 0.438531 0.520634
O O8 0.827281 0.880436 0.187146
O O9 0.515858 0.458760 0.753724
O O10 0.000000 0.000000 0.000000
O O11 0.808697 0.383209 0.293074
O O12 0.384114 0.297140 0.878205
O O13 0.967331 0.660678 0.873521
O O14 0.000000 0.500000 0.500000
O O15 0.506400 0.949819 0.215896
O O16 0.149947 0.350559 0.826071
O O17 0.758225 0.901851 0.952536
#
# Coordination Sequence:
#
# PCOD9021501 Si02
#       8
#     2   2   2   2   2   2   2   2
#     4  10  22  38  62  92 133 176 225 271 326 391
#     4  11  24  42  69  98 136 179 224 277 337 396
#     4  11  23  40  61  97 139 177 220 276 327 394
#     4  11  22  38  64  97 131 179 225 270 328 400
#     4  12  25  42  69 102 133 178 225 273 336 398
#     4  11  24  47  74  98 133 176 221 282 341 395
#     4  11  22  45  66  95 136 175 218 276 333 396
#     4  11  25  46  71  98 133 172 223 276 340 396
#
# _framework density 20.880534000000001
#
# number of rings (size 3 to 8) (size 9 to 14) (size 15 to 20)
#    0.000    1.000    3.750    3.375    0.000    3.000 
#    0.000    2.500    0.000    0.000    0.000    0.000 
#    0.000    0.000    0.000    0.000    0.000    0.000 
#
# Total GULP energy -89490.212966 kJ/mol
# GULP energy per Si atom -5593.138310 kJ/mol
# Density = 2.083301 g / cm^3
# Si number density = 20.880534 Si / 1000 Ang^3
#
#
#
# Elastic Constant Matrix: (Units=GPa)
#
#
# Indices 1 2 3 4 5 6 
#
# 1 71.5225 18.9182 29.1682 -2.1613 -9.4719 -1.3059
# 2 18.9182 106.9830 58.6352 18.0237 0.0088 -13.7855
# 3 29.1682 58.6352 136.8299 11.1849 -8.3704 -8.5785
# 4 -2.1613 18.0237 11.1849 26.6664 0.3056 1.0653
# 5 -9.4719 0.0088 -8.3704 0.3056 42.7283 0.1230
# 6 -1.3059 -13.7855 -8.5785 1.0653 0.1230 24.3812
#
#
#
# Elastic Compliance Matrix: (Units=1/GPa)
#
#
# Indices 1 2 3 4 5 6 
#
# 1 0.016180 -0.002239 -0.002728 0.003996 0.003029 -0.001549
# 2 -0.002239 0.014647 -0.004774 -0.008337 -0.001395 0.006854
# 3 -0.002728 -0.004774 0.010177 -0.001311 0.001397 0.000786
# 4 0.003996 -0.008337 -0.001311 0.044281 0.000334 -0.006898
# 5 0.003029 -0.001395 0.001397 0.000334 0.024347 -0.000272
# 6 -0.001549 0.006854 0.000786 -0.006898 -0.000272 0.045387
#
#
# Mechanical properties :
#
#
# Convention : Reuss Voigt Hill
#
# Bulk Modulus (GPa) = 46.46144 58.75318 52.60731
# Shear Modulus (GPa) = 27.52154 32.66275 30.09215
#
# Velocity S-wave (km/s) = 3.63443 3.95937 3.80038
# Velocity P-wave (km/s) = 6.31756 7.00721 6.67130
#
# Compressibility (1/GPa) = 0.02152322
#
# Stress axis : x y z
#
# Youngs Moduli (GPa) = 61.80469 68.27164 98.25683
#
# Poissons Ratio (x) = 0.15286 0.26806
# Poissons Ratio (y) = 0.13838 0.46904
# Poissons Ratio (z) = 0.16861 0.32590
#
# Static dielectric constant tensor:
#      x y z
#    x 1.781660 0.033280 -0.003530 
#    y 0.033280 1.720530 0.005870 
#    z -0.003530 0.005870 1.754840 
# 
# From -- ./inp_files/337575.got.cif
#   From: 2010.05.17/outbox.cif.g08.bks.cpg/sg2_169_cif.got.tgz:337575.got - 2010.06.03 11:33:40.
