data_PCOD9021780
_publ_section_title
;
Structure prediction by ZEFSAII (Michael W. Deem and Ramdas Pophale) SiO2 
 PCOD9021780
Probable space group: P -1
;
_chemical_formula_sum "Si O2"
_cell_formula_units_Z 16
_cell_length_a 9.336288
_cell_length_b 11.271735
_cell_length_c 9.171640
_cell_angle_alpha 72.465530
_cell_angle_beta 73.744743
_cell_angle_gamma 66.958723
_cell_volume 832.360982
_symmetry_space_group_name_H-M "P -1"
_symmetry_group_IT_number 2
_symmetry_cell_setting 'triclinic'
loop_
_space_group_symop_operation_xyz
x,y,z
-x,-y,-z
loop_
_atom_site_type_symbol
_atom_site_label
_atom_site_fract_x
_atom_site_fract_y
_atom_site_fract_z
Si Si1 0.973553 0.972398 0.350262
Si Si2 0.781025 0.737766 0.809904
Si Si3 0.929343 0.472694 0.683389
Si Si4 0.239369 0.239183 0.748070
Si Si5 0.963504 0.829461 0.963657
Si Si6 0.497449 0.155097 0.935100
Si Si7 0.318757 0.084839 0.502586
Si Si8 0.803224 0.248385 0.813187
O O1 0.787865 0.999415 0.383563
O O2 0.072878 0.825752 0.322400
O O3 0.027214 0.056388 0.185545
O O4 0.000000 0.000000 0.500000
O O5 0.850644 0.603529 0.750759
O O6 0.741976 0.857750 0.660221
O O7 0.908003 0.739827 0.897609
O O8 0.614586 0.767714 0.929463
O O9 0.798708 0.398746 0.733113
O O10 0.000000 0.500000 0.500000
O O11 0.087186 0.371506 0.754236
O O12 0.399330 0.222192 0.794066
O O13 0.277763 0.205769 0.582267
O O14 0.174609 0.133400 0.888845
O O15 0.119240 0.780680 0.036406
O O16 0.658579 0.190787 0.872065
O O17 0.500000 0.000000 0.000000
O O18 0.500000 0.000000 0.500000
#
# Coordination Sequence:
#
# PCOD9021780 Si02
#       8
#     2   2   2   2   2   2   2   2
#     4  12  23  38  61  94 133 170 219 270 331 401
#     4  11  23  43  66  96 130 177 222 268 336 393
#     4  11  22  45  72  90 132 177 234 275 317 398
#     4  10  22  42  64  93 128 177 216 266 334 383
#     4  10  22  38  65  94 126 168 224 267 326 396
#     4  11  25  42  66 100 141 171 214 281 341 390
#     4  12  24  38  61  97 130 168 212 271 344 393
#     4  11  24  42  67  96 131 178 224 273 328 391
#
# _framework density 19.222429999999999
#
# number of rings (size 3 to 8) (size 9 to 14) (size 15 to 20)
#    0.000    1.000    5.000    2.625    5.250    5.000 
#    0.000    0.625    0.000    0.000    0.000    0.000 
#    0.000    0.000    0.000    0.000    0.000    0.000 
#
# Total GULP energy -89092.636773 kJ/mol
# GULP energy per Si atom -5568.289798 kJ/mol
# Density = 1.917868 g / cm^3
# Si number density = 19.222430 Si / 1000 Ang^3
#
#
#
# Elastic Constant Matrix: (Units=GPa)
#
#
# Indices 1 2 3 4 5 6 
#
# 1 160.1945 44.1251 45.1397 -0.2806 -11.1989 4.7260
# 2 44.1251 82.3014 24.4418 13.8091 -7.7278 -0.6692
# 3 45.1397 24.4418 105.4318 7.2263 15.7913 2.2415
# 4 -0.2806 13.8091 7.2263 33.4714 -4.1569 -2.2272
# 5 -11.1989 -7.7278 15.7913 -4.1569 31.3697 -0.4673
# 6 4.7260 -0.6692 2.2415 -2.2272 -0.4673 25.5798
#
#
#
# Elastic Compliance Matrix: (Units=1/GPa)
#
#
# Indices 1 2 3 4 5 6 
#
# 1 0.008615 -0.003593 -0.003687 0.002829 0.004406 -0.001036
# 2 -0.003593 0.015997 -0.002253 -0.005709 0.003048 0.000838
# 3 -0.003687 -0.002253 0.013156 -0.003114 -0.008921 -0.000965
# 4 0.002829 -0.005709 -0.003114 0.033810 0.005691 0.002649
# 5 0.004406 0.003048 -0.008921 0.005691 0.039465 0.001264
# 6 -0.001036 0.000838 -0.000965 0.002649 0.001264 0.039645
#
#
# Mechanical properties :
#
#
# Convention : Reuss Voigt Hill
#
# Bulk Modulus (GPa) = 53.47412 63.92677 58.70044
# Shear Modulus (GPa) = 28.41100 33.69891 31.05495
#
# Velocity S-wave (km/s) = 3.84866 4.19155 4.02376
# Velocity P-wave (km/s) = 6.90135 7.53352 7.22436
#
# Compressibility (1/GPa) = 0.01870063
#
# Stress axis : x y z
#
# Youngs Moduli (GPa) = 116.08289 62.51188 76.01207
#
# Poissons Ratio (x) = 0.22461 0.28026
# Poissons Ratio (y) = 0.41709 0.17128
# Poissons Ratio (z) = 0.42800 0.14086
#
# Static dielectric constant tensor:
#      x y z
#    x 1.703920 0.023270 0.015050 
#    y 0.023270 1.725600 -0.023250 
#    z 0.015050 -0.023250 1.694550 
# 
# From -- ./inp_files/186547.got.cif
#   From: 2010.05.17/outbox.cif.g08.bks.cpg/sg2_94_cif.got.tgz:186547.got - 2010.06.03 11:33:40.
