data_PCOD9021313
_publ_section_title
;
Structure prediction by ZEFSAII (Michael W. Deem and Ramdas Pophale) SiO2 
 PCOD9021313
Probable space group: P -1
;
_chemical_formula_sum "Si O2"
_cell_formula_units_Z 16
_cell_length_a 5.275984
_cell_length_b 25.331251
_cell_length_c 5.225918
_cell_angle_alpha 74.138321
_cell_angle_beta 84.746429
_cell_angle_gamma 116.275385
_cell_volume 583.841464
_symmetry_space_group_name_H-M "P -1"
_symmetry_group_IT_number 2
_symmetry_cell_setting 'triclinic'
loop_
_space_group_symop_operation_xyz
x,y,z
-x,-y,-z
loop_
_atom_site_type_symbol
_atom_site_label
_atom_site_fract_x
_atom_site_fract_y
_atom_site_fract_z
Si Si1 0.263429 0.512686 0.266058
Si Si2 0.425807 0.285165 0.139595
Si Si3 0.165670 0.808969 0.616577
Si Si4 0.827364 0.397534 0.242410
Si Si5 0.513009 0.928491 0.709236
Si Si6 0.064953 0.959634 0.838152
Si Si7 0.749984 0.251357 0.791928
Si Si8 0.312554 0.370856 0.710770
O O1 0.581560 0.557870 0.300664
O O2 0.000000 0.500000 0.500000
O O3 0.157295 0.443770 0.247017
O O4 0.232771 0.556643 0.996057
O O5 0.483568 0.258624 0.910250
O O6 0.301762 0.331457 0.015390
O O7 0.728150 0.332641 0.186566
O O8 0.174256 0.225564 0.383204
O O9 0.328012 0.882362 0.559581
O O10 0.301814 0.786910 0.410338
O O11 0.184476 0.782326 0.930400
O O12 0.589902 0.378758 0.513565
O O13 0.280690 0.931861 0.919847
O O14 0.740995 0.909798 0.840064
O O15 0.742206 0.994764 0.472115
O O16 0.000000 0.000000 0.000000
O O17 0.019412 0.323144 0.655341
#
# Coordination Sequence:
#
# PCOD9021313 Si02
#       8
#     2   2   2   2   2   2   2   2
#     4   8  15  27  54  84 112 159 201 266 337 398
#     4  10  22  38  60  88 123 169 215 276 332 405
#     4  11  26  43  64  98 132 175 224 275 333 405
#     4   9  15  31  56  81 118 159 206 266 337 397
#     4  10  24  42  69 106 141 184 240 284 350 416
#     4  10  22  45  71 105 142 187 229 293 348 412
#     4  11  25  42  64  93 129 175 222 276 337 397
#     4   9  18  36  55  84 120 159 214 266 337 400
#
# _framework density 27.404702
#
# number of rings (size 3 to 8) (size 9 to 14) (size 15 to 20)
#    0.000    2.250    1.250    0.375    5.250    0.000 
#    0.000    0.625    0.000   25.500    0.000    0.000 
#    0.000    0.000    0.000    0.000    0.000    0.000 
#
# Total GULP energy -89450.002239 kJ/mol
# GULP energy per Si atom -5590.625140 kJ/mol
# Density = 2.734233 g / cm^3
# Si number density = 27.404702 Si / 1000 Ang^3
#
#
#
# Elastic Constant Matrix: (Units=GPa)
#
#
# Indices 1 2 3 4 5 6 
#
# 1 128.1980 47.2120 41.5028 10.5152 -27.0687 13.9182
# 2 47.2120 161.5447 26.7072 27.5190 -16.4282 19.5690
# 3 41.5028 26.7072 80.0842 21.4460 -9.5444 3.6357
# 4 10.5152 27.5190 21.4460 41.9096 -10.6968 -3.3563
# 5 -27.0687 -16.4282 -9.5444 -10.6968 47.5633 11.1233
# 6 13.9182 19.5690 3.6357 -3.3563 11.1233 32.1320
#
#
#
# Elastic Compliance Matrix: (Units=1/GPa)
#
#
# Indices 1 2 3 4 5 6 
#
# 1 0.012012 -0.001560 -0.005116 0.001966 0.007099 -0.005927
# 2 -0.001560 0.008437 -0.000151 -0.004964 0.002220 -0.005733
# 3 -0.005116 -0.000151 0.017096 -0.007688 -0.001264 0.000008
# 4 0.001966 -0.004964 -0.007688 0.031952 0.003869 0.005039
# 5 0.007099 0.002220 -0.001264 0.003869 0.029765 -0.014184
# 6 -0.005927 -0.005733 0.000008 0.005039 -0.014184 0.042616
#
#
# Mechanical properties :
#
#
# Convention : Reuss Voigt Hill
#
# Bulk Modulus (GPa) = 41.85697 66.74124 54.29910
# Shear Modulus (GPa) = 30.58167 41.28130 35.93149
#
# Velocity S-wave (km/s) = 3.34417 3.88539 3.62490
# Velocity P-wave (km/s) = 5.49710 6.67347 6.11365
#
# Compressibility (1/GPa) = 0.02389088
#
# Stress axis : x y z
#
# Youngs Moduli (GPa) = 83.24737 118.52780 58.49178
#
# Poissons Ratio (x) = 0.18488 0.29927
# Poissons Ratio (y) = 0.12985 0.00884
# Poissons Ratio (z) = 0.42593 0.01792
#
# Static dielectric constant tensor:
#      x y z
#    x 2.229830 0.012630 0.131650 
#    y 0.012630 2.189300 0.015220 
#    z 0.131650 0.015220 2.180910 
# 
# From -- ./inp_files/12395.got.cif
#   From: 2010.05.17/outbox.cif.g08.bks.cpg/sg2_7_cif.got.tgz:12395.got - 2010.06.03 11:33:40.
