data_PCOD9021500
_publ_section_title
;
Structure prediction by ZEFSAII (Michael W. Deem and Ramdas Pophale) SiO2 
 PCOD9021500
Probable space group: P -1
;
_chemical_formula_sum "Si O2"
_cell_formula_units_Z 11
_cell_length_a 9.580093
_cell_length_b 13.403635
_cell_length_c 17.543113
_cell_angle_alpha 21.006671
_cell_angle_beta 42.556560
_cell_angle_gamma 52.804652
_cell_volume 513.048320
_symmetry_space_group_name_H-M "P -1"
_symmetry_group_IT_number 2
_symmetry_cell_setting 'triclinic'
loop_
_space_group_symop_operation_xyz
x,y,z
-x,-y,-z
loop_
_atom_site_type_symbol
_atom_site_label
_atom_site_fract_x
_atom_site_fract_y
_atom_site_fract_z
Si Si1 0.262851 0.131167 0.531277
Si Si2 0.373656 0.255257 0.096249
Si Si3 0.861141 0.209644 0.718813
Si Si4 0.515065 0.198372 0.740081
Si Si5 0.000000 0.500000 0.000000
Si Si6 0.336943 0.886336 0.523118
O O1 0.213546 0.896992 0.647943
O O2 0.038490 0.121039 0.663620
O O3 0.420305 0.071750 0.574777
O O4 0.411514 0.445526 0.211167
O O5 0.341760 0.119442 0.291039
O O6 0.417524 0.007435 0.201483
O O7 0.168184 0.346075 0.088893
O O8 0.692129 0.268034 0.686521
O O9 0.000000 0.500000 0.500000
O O10 0.718128 0.982199 0.000228
O O11 0.500000 0.500000 0.500000
O O12 0.173601 0.558494 0.808823
#
# Coordination Sequence:
#
# PCOD9021500 Si02
#       6
#     2   2   2   2   1   2
#     4  10  22  41  64  96 132 176 227 273 344 408
#     4  11  22  41  65  97 136 173 229 282 340 403
#     4  11  24  46  69  94 140 185 224 284 338 401
#     4  11  27  43  69 104 135 182 235 277 341 410
#     4  10  22  38  62  92 132 172 218 276 342 396
#     4  10  22  38  66  96 131 175 219 284 343 401
#
# _framework density 21.440477999999999
#
# number of rings (size 3 to 8) (size 9 to 14) (size 15 to 20)
#    0.000    1.455    1.818    2.182    2.545    5.091 
#    0.000    1.818    0.000    0.000    0.000    0.000 
#    0.000    0.000    0.000    0.000    0.000    0.000 
#
# Total GULP energy -61302.972895 kJ/mol
# GULP energy per Si atom -5572.997536 kJ/mol
# Density = 2.139168 g / cm^3
# Si number density = 21.440478 Si / 1000 Ang^3
#
#
#
# Elastic Constant Matrix: (Units=GPa)
#
#
# Indices 1 2 3 4 5 6 
#
# 1 70.1926 9.9588 137.6800 -2.4140 26.0031 -19.4255
# 2 9.9588 49.7830 91.5616 0.5764 14.0760 -1.9175
# 3 137.6800 91.5616 174.9168 -4.7598 15.6389 -26.3268
# 4 -2.4140 0.5764 -4.7598 38.4061 -5.0291 -13.0407
# 5 26.0031 14.0760 15.6389 -5.0291 53.7651 -4.8802
# 6 -19.4255 -1.9175 -26.3268 -13.0407 -4.8802 29.5661
#
#
#
# Elastic Compliance Matrix: (Units=1/GPa)
#
#
# Indices 1 2 3 4 5 6 
#
# 1 0.002025 -0.016498 0.008584 0.005357 0.002311 0.010648
# 2 -0.016498 0.010615 0.006434 -0.001630 0.002751 -0.004687
# 3 0.008584 0.006434 -0.003687 0.000087 -0.004569 0.002058
# 4 0.005357 -0.001630 0.000087 0.033022 0.002577 0.018482
# 5 0.002311 0.002751 -0.004569 0.002577 0.018497 0.001818
# 6 0.010648 -0.004687 0.002058 0.018482 0.001818 0.050799
#
#
# Mechanical properties :
#
#
# Convention : Reuss Voigt Hill
#
# Bulk Modulus (GPa) = 166.88245 85.92146 126.40196
# Shear Modulus (GPa) = 43.01852 28.06026 35.53939
#
# Velocity S-wave (km/s) = 4.48416 3.62159 4.07576
# Velocity P-wave (km/s) = 10.23790 7.59271 9.01287
#
# Compressibility (1/GPa) = 0.00599224
#
# Stress axis : x y z
#
# Youngs Moduli (GPa) = 493.81718 94.20932 -271.22602
#
# Poissons Ratio (x) = 1.55430 2.32823
# Poissons Ratio (y) = 8.14715 1.74506
# Poissons Ratio (z) = -4.23897 -0.60614
#
# Static dielectric constant tensor:
#      x y z
#    x 1.801920 0.076390 -0.129980 
#    y 0.076390 1.814020 -0.063980 
#    z -0.129980 -0.063980 1.960180 
# 
# From -- ./inp_files/21559.got.cif
#   From: 2010.05.17/outbox.cif.g08.bks.cpg/sg2_11_cif.got.tgz:21559.got - 2010.06.03 11:33:40.
