data_PCOD9021369
_publ_section_title
;
Structure prediction by ZEFSAII (Michael W. Deem and Ramdas Pophale) SiO2 
 PCOD9021369
Probable space group: P -1
;
_chemical_formula_sum "Si O2"
_cell_formula_units_Z 15
_cell_length_a 6.031895
_cell_length_b 16.222321
_cell_length_c 25.378277
_cell_angle_alpha 19.053217
_cell_angle_beta 62.734900
_cell_angle_gamma 74.180109
_cell_volume 600.503881
_symmetry_space_group_name_H-M "P -1"
_symmetry_group_IT_number 2
_symmetry_cell_setting 'triclinic'
loop_
_space_group_symop_operation_xyz
x,y,z
-x,-y,-z
loop_
_atom_site_type_symbol
_atom_site_label
_atom_site_fract_x
_atom_site_fract_y
_atom_site_fract_z
Si Si1 0.511457 0.858645 0.451449
Si Si2 0.000000 0.500000 0.500000
Si Si3 0.988102 0.734649 0.195949
Si Si4 0.710526 0.753765 0.781282
Si Si5 0.286599 0.099988 0.789048
Si Si6 0.307167 0.545111 0.133325
Si Si7 0.250298 0.377673 0.357939
Si Si8 0.987810 0.020764 0.222847
O O1 0.290305 0.589454 0.597925
O O2 0.501748 0.662891 0.619783
O O3 0.433913 0.102756 0.324756
O O4 0.818597 0.058633 0.265098
O O5 0.365244 0.663257 0.378263
O O6 0.027795 0.289786 0.581001
O O7 0.922203 0.802283 0.220708
O O8 0.248959 0.668214 0.202018
O O9 0.000000 0.000000 0.000000
O O10 0.837436 0.629744 0.799581
O O11 0.500000 0.500000 0.000000
O O12 0.957551 0.057440 0.600698
O O13 0.188703 0.026131 0.783848
O O14 0.224357 0.787811 0.007316
O O15 0.244218 0.370582 0.299967
O O16 0.663595 0.726442 0.974521
#
# Coordination Sequence:
#
# PCOD9021369 Si02
#       8
#     2   1   2   2   2   2   2   2
#     4  11  26  44  67 102 133 183 228 281 345 405
#     4  10  22  38  60  98 132 176 222 272 336 398
#     4  11  24  43  66  99 142 183 224 275 343 412
#     4  11  25  48  72  97 135 179 233 290 342 404
#     4  11  23  42  68  98 139 180 224 282 338 405
#     4  11  25  43  68 102 132 181 229 280 340 406
#     4  11  26  44  70 100 138 180 231 283 340 409
#     4  11  24  39  65  98 136 176 224 276 342 401
#
# _framework density 24.979022000000001
#
# number of rings (size 3 to 8) (size 9 to 14) (size 15 to 20)
#    0.000    1.067    2.667    2.400    3.733    6.400 
#    0.000    0.000    0.000    0.000    0.000    0.000 
#    0.000    0.000    0.000    0.000    0.000    0.000 
#
# Total GULP energy -83553.640318 kJ/mol
# GULP energy per Si atom -5570.242688 kJ/mol
# Density = 2.492217 g / cm^3
# Si number density = 24.979022 Si / 1000 Ang^3
#
#
#
# Elastic Constant Matrix: (Units=GPa)
#
#
# Indices 1 2 3 4 5 6 
#
# 1 53.5887 7.8259 17.5069 -2.9680 10.1550 2.3663
# 2 7.8259 83.0652 25.7467 -2.9684 19.3215 4.4801
# 3 17.5069 25.7467 107.6654 -5.9493 12.5463 -0.9878
# 4 -2.9680 -2.9684 -5.9493 36.7257 1.0421 7.3528
# 5 10.1550 19.3215 12.5463 1.0421 35.6822 5.8718
# 6 2.3663 4.4801 -0.9878 7.3528 5.8718 37.8731
#
#
#
# Elastic Compliance Matrix: (Units=1/GPa)
#
#
# Indices 1 2 3 4 5 6 
#
# 1 0.020583 0.000147 -0.002737 0.001555 -0.004869 -0.000922
# 2 0.000147 0.014532 -0.002646 0.001144 -0.006857 -0.000956
# 3 -0.002737 -0.002646 0.010635 0.001177 -0.001693 0.000795
# 4 0.001555 0.001144 0.001177 0.028793 -0.001399 -0.005575
# 5 -0.004869 -0.006857 -0.001693 -0.001399 0.034417 -0.003993
# 6 -0.000922 -0.000956 0.000795 -0.005575 -0.003993 0.028297
#
#
# Mechanical properties :
#
#
# Convention : Reuss Voigt Hill
#
# Bulk Modulus (GPa) = 28.34567 38.49759 33.42163
# Shear Modulus (GPa) = 31.35011 34.93885 33.14448
#
# Velocity S-wave (km/s) = 3.54652 3.74401 3.64661
# Velocity P-wave (km/s) = 5.30498 5.84257 5.58025
#
# Compressibility (1/GPa) = 0.03527876
#
# Stress axis : x y z
#
# Youngs Moduli (GPa) = 48.58423 68.81220 94.02546
#
# Poissons Ratio (x) = -0.01011 0.25737
# Poissons Ratio (y) = -0.00714 0.24876
# Poissons Ratio (z) = 0.13299 0.18205
#
# Static dielectric constant tensor:
#      x y z
#    x 2.235280 -0.016870 0.018580 
#    y -0.016870 1.917170 0.049380 
#    z 0.018580 0.049380 2.033400 
# 
# From -- ./inp_files/141718.got.cif
#   From: 2010.05.17/outbox.cif.g08.bks.cpg/sg2_71_cif.got.tgz:141718.got - 2010.06.03 11:33:40.
