data_PCOD9021494
_publ_section_title
;
Structure prediction by ZEFSAII (Michael W. Deem and Ramdas Pophale) SiO2 
 PCOD9021494
Probable space group: P -1
;
_chemical_formula_sum "Si O2"
_cell_formula_units_Z 11
_cell_length_a 8.254834
_cell_length_b 12.306972
_cell_length_c 18.376740
_cell_angle_alpha 28.204542
_cell_angle_beta 134.737203
_cell_angle_gamma 113.408502
_cell_volume 468.523101
_symmetry_space_group_name_H-M "P -1"
_symmetry_group_IT_number 2
_symmetry_cell_setting 'triclinic'
loop_
_space_group_symop_operation_xyz
x,y,z
-x,-y,-z
loop_
_atom_site_type_symbol
_atom_site_label
_atom_site_fract_x
_atom_site_fract_y
_atom_site_fract_z
Si Si1 0.347249 0.942933 0.221667
Si Si2 0.099767 0.252425 0.579325
Si Si3 0.950943 0.857540 0.711821
Si Si4 0.059245 0.190843 0.834494
Si Si5 0.500000 0.000000 0.000000
Si Si6 0.591698 0.835999 0.739605
O O1 0.349879 0.089129 0.208618
O O2 0.676628 0.757177 0.398609
O O3 0.230851 0.763529 0.305134
O O4 0.114795 0.176566 0.946177
O O5 0.852459 0.625845 0.289310
O O6 0.271575 0.075532 0.810632
O O7 0.979941 0.107168 0.588651
O O8 0.772490 0.861967 0.720542
O O9 0.755397 0.939023 0.529708
O O10 0.271391 0.512329 0.012129
O O11 0.357365 0.872004 0.082108
#
# Coordination Sequence:
#
# PCOD9021494 Si02
#       6
#     2   2   2   2   1   2
#     4  10  23  40  63  92 131 165 216 260 330 380
#     4  11  23  40  64  95 124 169 210 273 316 394
#     4  10  24  43  68  92 132 167 227 259 326 378
#     4  10  22  42  61  96 125 168 209 269 323 385
#     4  10  22  38  62  92 122 162 212 258 324 376
#     4  10  23  45  64  96 126 179 210 274 315 389
#
# _framework density 23.478031999999999
#
# number of rings (size 3 to 8) (size 9 to 14) (size 15 to 20)
#    0.000    1.818    0.000    2.182    7.636    1.455 
#    9.818    0.000    0.000    0.000    0.000    0.000 
#    0.000    0.000    0.000    0.000    0.000    0.000 
#
# Total GULP energy -61282.348744 kJ/mol
# GULP energy per Si atom -5571.122613 kJ/mol
# Density = 2.342459 g / cm^3
# Si number density = 23.478032 Si / 1000 Ang^3
#
#
#
# Elastic Constant Matrix: (Units=GPa)
#
#
# Indices 1 2 3 4 5 6 
#
# 1 75.2792 55.8120 23.7894 8.5380 -7.1433 0.0442
# 2 55.8120 159.5965 34.1160 10.1839 -17.2224 -0.8005
# 3 23.7894 34.1160 106.5017 10.1425 -12.4122 -0.6917
# 4 8.5380 10.1839 10.1425 34.8240 0.7664 -13.3341
# 5 -7.1433 -17.2224 -12.4122 0.7664 22.7231 7.5037
# 6 0.0442 -0.8005 -0.6917 -13.3341 7.5037 42.8457
#
#
#
# Elastic Compliance Matrix: (Units=1/GPa)
#
#
# Indices 1 2 3 4 5 6 
#
# 1 0.018615 -0.005834 -0.001935 -0.002760 0.000852 -0.001168
# 2 -0.005834 0.009135 -0.000894 -0.001554 0.005052 -0.001206
# 3 -0.001935 -0.000894 0.011047 -0.003298 0.005460 -0.001819
# 4 -0.002760 -0.001554 -0.003298 0.035876 -0.009253 0.012706
# 5 0.000852 0.005052 0.005460 -0.009253 0.055500 -0.012418
# 6 -0.001168 -0.001206 -0.001819 0.012706 -0.012418 0.029418
#
#
# Mechanical properties :
#
#
# Convention : Reuss Voigt Hill
#
# Bulk Modulus (GPa) = 46.57356 63.20135 54.88746
# Shear Modulus (GPa) = 27.16277 35.25590 31.20933
#
# Velocity S-wave (km/s) = 3.40508 3.87932 3.64991
# Velocity P-wave (km/s) = 5.94471 6.85881 6.41806
#
# Compressibility (1/GPa) = 0.02147141
#
# Stress axis : x y z
#
# Youngs Moduli (GPa) = 53.71934 109.46338 90.52420
#
# Poissons Ratio (x) = 0.63862 0.17513
# Poissons Ratio (y) = 0.31340 0.08095
# Poissons Ratio (z) = 0.10393 0.09789
#
# Static dielectric constant tensor:
#      x y z
#    x 2.015000 -0.067530 0.204010 
#    y -0.067530 1.952800 -0.322110 
#    z 0.204010 -0.322110 2.472480 
# 
# From -- ./inp_files/17155.got.cif
#   From: 2010.05.17/outbox.cif.g08.bks.cpg/sg2_9_cif.got.tgz:17155.got - 2010.06.03 11:33:40.
