data_PCOD9021878
_publ_section_title
;
Structure prediction by ZEFSAII (Michael W. Deem and Ramdas Pophale) SiO2 
 PCOD9021878
Probable space group: P -1
;
_chemical_formula_sum "Si O2"
_cell_formula_units_Z 14
_cell_length_a 16.829675
_cell_length_b 9.902935
_cell_length_c 8.626145
_cell_angle_alpha 60.453761
_cell_angle_beta 32.428571
_cell_angle_gamma 61.218821
_cell_volume 664.097267
_symmetry_space_group_name_H-M "P -1"
_symmetry_group_IT_number 2
_symmetry_cell_setting 'triclinic'
loop_
_space_group_symop_operation_xyz
x,y,z
-x,-y,-z
loop_
_atom_site_type_symbol
_atom_site_label
_atom_site_fract_x
_atom_site_fract_y
_atom_site_fract_z
Si Si1 0.664275 0.712875 0.701040
Si Si2 0.963799 0.684187 0.417678
Si Si3 0.455325 0.018529 0.884660
Si Si4 0.135850 0.087446 0.273183
Si Si5 0.858818 0.350377 0.147020
Si Si6 0.844469 0.675551 0.132187
Si Si7 0.478959 0.650538 0.335078
O O1 0.811132 0.734090 0.545871
O O2 0.736496 0.631382 0.472322
O O3 0.567408 0.874722 0.710886
O O4 0.572364 0.631436 0.029805
O O5 0.940807 0.781703 0.555900
O O6 0.000000 0.500000 0.500000
O O7 0.090347 0.712899 0.070454
O O8 0.475516 0.201254 0.726106
O O9 0.283779 0.994588 0.158222
O O10 0.500000 0.000000 0.000000
O O11 0.203088 0.164586 0.969239
O O12 0.000000 0.000000 0.500000
O O13 0.852366 0.538186 0.070311
O O14 0.692359 0.313031 0.459897
O O15 0.993477 0.302055 0.074348
O O16 0.500000 0.500000 0.500000
#
# Coordination Sequence:
#
# PCOD9021878 Si02
#       7
#     2   2   2   2   2   2   2
#     4  10  23  42  71  92 142 187 220 278 362 406
#     4  11  20  42  69  97 132 187 228 277 340 413
#     4  10  22  44  68  95 139 181 222 282 347 410
#     4  12  25  41  71 103 140 177 235 286 342 410
#     4  10  22  38  66  95 135 178 226 279 343 409
#     4  10  23  42  60 102 142 173 222 293 346 397
#     4  11  21  39  70 100 126 181 241 278 325 421
#
# _framework density 21.081249
#
# number of rings (size 3 to 8) (size 9 to 14) (size 15 to 20)
#    0.000    1.429    4.286    1.714    4.000    2.286 
#    0.000    5.714    0.000    0.000    0.000    0.000 
#    0.000    0.000    0.000    0.000    0.000    0.000 
#
# Total GULP energy -77978.257363 kJ/mol
# GULP energy per Si atom -5569.875526 kJ/mol
# Density = 2.103327 g / cm^3
# Si number density = 21.081249 Si / 1000 Ang^3
#
#
#
# Elastic Constant Matrix: (Units=GPa)
#
#
# Indices 1 2 3 4 5 6 
#
# 1 76.1125 39.7359 54.2123 -1.7264 -20.6769 0.0716
# 2 39.7359 86.2448 19.4979 6.6952 -2.6001 -10.2548
# 3 54.2123 19.4979 133.8120 14.1043 3.1204 -1.9375
# 4 -1.7264 6.6952 14.1043 27.4005 -5.4307 6.9361
# 5 -20.6769 -2.6001 3.1204 -5.4307 41.4865 2.7677
# 6 0.0716 -10.2548 -1.9375 6.9361 2.7677 27.6676
#
#
#
# Elastic Compliance Matrix: (Units=1/GPa)
#
#
# Indices 1 2 3 4 5 6 
#
# 1 0.046050 -0.020394 -0.019604 0.028352 0.028125 -0.018972
# 2 -0.020394 0.021911 0.007292 -0.016409 -0.012424 0.014041
# 3 -0.019604 0.007292 0.016546 -0.016560 -0.013353 0.009399
# 4 0.028352 -0.016409 -0.016560 0.062000 0.024150 -0.025274
# 5 0.028125 -0.012424 -0.013353 0.024150 0.042571 -0.015926
# 6 -0.018972 0.014041 0.009399 -0.025274 -0.015926 0.049984
#
#
# Mechanical properties :
#
#
# Convention : Reuss Voigt Hill
#
# Bulk Modulus (GPa) = 52.36692 58.11795 55.24244
# Shear Modulus (GPa) = 16.08554 31.49247 23.78901
#
# Velocity S-wave (km/s) = 2.76529 3.86924 3.36288
# Velocity P-wave (km/s) = 5.92370 6.89854 6.42962
#
# Compressibility (1/GPa) = 0.01909602
#
# Stress axis : x y z
#
# Youngs Moduli (GPa) = 21.71554 45.63877 60.43804
#
# Poissons Ratio (x) = 0.93074 1.18483
# Poissons Ratio (y) = 0.44286 -0.44072
# Poissons Ratio (z) = 0.42571 -0.33281
#
# Static dielectric constant tensor:
#      x y z
#    x 1.779420 -0.015780 0.013700 
#    y -0.015780 1.782410 0.014240 
#    z 0.013700 0.014240 1.781960 
# 
# From -- ./inp_files/297565.got.cif
#   From: 2010.05.17/outbox.cif.g08.bks.cpg/sg2_149_cif.got.tgz:297565.got - 2010.06.03 11:33:40.
