data_PCOD9021580
_publ_section_title
;
Structure prediction by ZEFSAII (Michael W. Deem and Ramdas Pophale) SiO2 
 PCOD9021580
Probable space group: P -1
;
_chemical_formula_sum "Si O2"
_cell_formula_units_Z 16
_cell_length_a 12.340072
_cell_length_b 11.291363
_cell_length_c 15.008084
_cell_angle_alpha 117.684237
_cell_angle_beta 151.797577
_cell_angle_gamma 78.491717
_cell_volume 757.047526
_symmetry_space_group_name_H-M "P -1"
_symmetry_group_IT_number 2
_symmetry_cell_setting 'triclinic'
loop_
_space_group_symop_operation_xyz
x,y,z
-x,-y,-z
loop_
_atom_site_type_symbol
_atom_site_label
_atom_site_fract_x
_atom_site_fract_y
_atom_site_fract_z
Si Si1 0.568341 0.473832 0.142688
Si Si2 0.987105 0.568464 0.265795
Si Si3 0.836453 0.320287 0.834306
Si Si4 0.086915 0.647631 0.697138
Si Si5 0.800911 0.631168 0.748833
Si Si6 0.613888 0.920525 0.485493
Si Si7 0.060251 0.892950 0.884549
Si Si8 0.382402 0.866987 0.570516
O O1 0.651015 0.340532 0.154288
O O2 0.832903 0.603172 0.432961
O O3 0.500000 0.500000 0.000000
O O4 0.290167 0.444514 0.971474
O O5 0.065660 0.465153 0.225965
O O6 0.207963 0.749793 0.480351
O O7 0.985096 0.495129 0.335779
O O8 0.601861 0.257115 0.714882
O O9 0.715432 0.241278 0.625409
O O10 0.000000 0.500000 0.000000
O O11 0.055083 0.288633 0.026754
O O12 0.149272 0.796912 0.851772
O O13 0.500000 0.500000 0.500000
O O14 0.872952 0.767254 0.778528
O O15 0.888236 0.945164 0.723613
O O16 0.500000 0.000000 0.500000
O O17 0.642834 0.987455 0.431422
O O18 0.306849 0.044341 0.156178
#
# Coordination Sequence:
#
# PCOD9021580 Si02
#       8
#     2   2   2   2   2   2   2   2
#     4   9  19  40  70  98 123 149 199 267 322 377
#     4  10  22  38  63  91 127 164 206 260 313 370
#     4  11  21  39  58  85 122 170 222 260 298 359
#     4   9  21  40  69  99 118 154 209 261 321 377
#     4  11  23  38  60  91 124 167 221 263 304 358
#     4  10  24  39  57  81 121 171 212 254 307 362
#     4  11  24  40  62  87 128 166 208 263 313 369
#     4  11  24  40  58  89 131 170 214 253 314 367
#
# _framework density 21.134737000000001
#
# number of rings (size 3 to 8) (size 9 to 14) (size 15 to 20)
#    0.000    1.750    2.500    0.750    3.500    8.000 
#    0.000    0.625    0.000    7.500    0.000    0.000 
#    0.000    0.000    0.000    0.000    0.000    0.000 
#
# Total GULP energy -89069.858930 kJ/mol
# GULP energy per Si atom -5566.866183 kJ/mol
# Density = 2.108663 g / cm^3
# Si number density = 21.134737 Si / 1000 Ang^3
#
#
#
# Elastic Constant Matrix: (Units=GPa)
#
#
# Indices 1 2 3 4 5 6 
#
# 1 44.4684 24.5700 28.1630 -0.6283 4.5093 -13.6380
# 2 24.5700 62.1657 31.8440 -13.1852 12.9231 1.9588
# 3 28.1630 31.8440 171.8419 -13.4341 5.4725 -5.9810
# 4 -0.6283 -13.1852 -13.4341 42.9818 -1.1722 0.1410
# 5 4.5093 12.9231 5.4725 -1.1722 32.7899 -3.0441
# 6 -13.6380 1.9588 -5.9810 0.1410 -3.0441 37.0206
#
#
#
# Elastic Compliance Matrix: (Units=1/GPa)
#
#
# Indices 1 2 3 4 5 6 
#
# 1 0.036745 -0.014881 -0.003248 -0.005021 0.002476 0.014022
# 2 -0.014881 0.026483 -0.001917 0.007100 -0.008553 -0.007923
# 3 -0.003248 -0.001917 0.006821 0.001499 0.000118 0.000011
# 4 -0.005021 0.007100 0.001499 0.025801 -0.001641 -0.002216
# 5 0.002476 -0.008553 0.000118 -0.001641 0.033836 0.004172
# 6 0.014022 -0.007923 0.000011 -0.002216 0.004172 0.032950
#
#
# Mechanical properties :
#
#
# Convention : Reuss Voigt Hill
#
# Bulk Modulus (GPa) = 33.38084 49.73666 41.55875
# Shear Modulus (GPa) = 23.50572 35.48506 29.49539
#
# Velocity S-wave (km/s) = 3.33856 4.10200 3.73981
# Velocity P-wave (km/s) = 5.53985 6.78376 6.19311
#
# Compressibility (1/GPa) = 0.02995730
#
# Stress axis : x y z
#
# Youngs Moduli (GPa) = 27.21441 37.76010 146.61268
#
# Poissons Ratio (x) = 0.56190 0.47619
# Poissons Ratio (y) = 0.40497 0.28107
# Poissons Ratio (z) = 0.08839 0.07239
#
# Static dielectric constant tensor:
#      x y z
#    x 1.910910 0.008110 -0.003120 
#    y 0.008110 2.053080 -0.061890 
#    z -0.003120 -0.061890 1.856530 
# 
# From -- ./inp_files/573441.got.cif
#   From: 2010.05.17/outbox.cif.g08.bks.cpg/sg2_287_cif.got.tgz:573441.got - 2010.06.03 11:33:40.
