data_PCOD9021212
_publ_section_title
;
Structure prediction by ZEFSAII (Michael W. Deem and Ramdas Pophale) SiO2 
 PCOD9021212
Probable space group: P -1
;
_chemical_formula_sum "Si O2"
_cell_formula_units_Z 16
_cell_length_a 23.628814
_cell_length_b 7.998054
_cell_length_c 13.910261
_cell_angle_alpha 123.930228
_cell_angle_beta 159.046928
_cell_angle_gamma 55.728045
_cell_volume 772.200351
_symmetry_space_group_name_H-M "P -1"
_symmetry_group_IT_number 2
_symmetry_cell_setting 'triclinic'
loop_
_space_group_symop_operation_xyz
x,y,z
-x,-y,-z
loop_
_atom_site_type_symbol
_atom_site_label
_atom_site_fract_x
_atom_site_fract_y
_atom_site_fract_z
Si Si1 0.906917 0.388736 0.919415
Si Si2 0.167820 0.503342 0.710106
Si Si3 0.406596 0.428565 0.225020
Si Si4 0.678079 0.679990 0.756011
Si Si5 0.122966 0.973648 0.777408
Si Si6 0.163517 0.250698 0.432569
Si Si7 0.043538 0.065377 0.897178
Si Si8 0.305806 0.924915 0.419857
O O1 0.790868 0.596741 0.819917
O O2 0.805918 0.221819 0.752802
O O3 0.963480 0.290387 0.876096
O O4 0.059094 0.378407 0.226342
O O5 0.188605 0.737518 0.808624
O O6 0.188253 0.399052 0.605881
O O7 0.000000 0.500000 0.500000
O O8 0.306582 0.396903 0.963919
O O9 0.504683 0.620458 0.433943
O O10 0.289565 0.460391 0.141507
O O11 0.527907 0.222882 0.373735
O O12 0.732749 0.889448 0.945133
O O13 0.039140 0.029276 0.765282
O O14 0.000000 0.000000 0.500000
O O15 0.303920 0.113295 0.551658
O O16 0.060066 0.092111 0.267487
O O17 0.216702 0.008675 0.206911
#
# Coordination Sequence:
#
# PCOD9021212 Si02
#       8
#     2   2   2   2   2   2   2   2
#     4   8  15  33  59  86 114 148 195 243 290 340
#     4  12  23  37  61  85 117 159 196 240 302 348
#     4  10  22  39  62  85 116 159 199 243 295 353
#     4  10  22  38  58  86 122 153 197 249 285 346
#     4  12  25  37  56  91 124 154 197 243 297 345
#     4   9  16  32  59  88 118 146 197 243 285 346
#     4   9  18  33  59  89 118 152 190 245 291 345
#     4   8  17  34  59  90 113 150 197 242 289 345
#
# _framework density 20.720012000000001
#
# number of rings (size 3 to 8) (size 9 to 14) (size 15 to 20)
#    0.000    2.250    1.250    3.750    5.250    1.500 
#    0.000    0.000    0.000    0.750    0.000    0.000 
#    0.000    0.000    0.000    0.000    0.000    0.000 
#
# Total GULP energy -89139.422414 kJ/mol
# GULP energy per Si atom -5571.213901 kJ/mol
# Density = 2.067285 g / cm^3
# Si number density = 20.720012 Si / 1000 Ang^3
#
#
#
# Elastic Constant Matrix: (Units=GPa)
#
#
# Indices 1 2 3 4 5 6 
#
# 1 116.5428 32.0770 41.7967 4.6223 -23.9193 -26.0296
# 2 32.0770 109.5339 46.5682 17.0530 -4.9276 -27.0784
# 3 41.7967 46.5682 72.1443 10.6532 -16.3047 -15.4902
# 4 4.6223 17.0530 10.6532 35.0237 0.0718 -5.0322
# 5 -23.9193 -4.9276 -16.3047 0.0718 38.8599 15.7883
# 6 -26.0296 -27.0784 -15.4902 -5.0322 15.7883 38.1464
#
#
#
# Elastic Compliance Matrix: (Units=1/GPa)
#
#
# Indices 1 2 3 4 5 6 
#
# 1 0.012264 -0.000069 -0.005379 0.000743 0.003305 0.004865
# 2 -0.000069 0.015387 -0.008632 -0.003532 -0.005424 0.009149
# 3 -0.005379 -0.008632 0.023815 -0.002832 0.006967 -0.003384
# 4 0.000743 -0.003532 -0.002832 0.031296 -0.001964 0.001792
# 5 0.003305 -0.005424 0.006967 -0.001964 0.035597 -0.013758
# 6 0.004865 0.009149 -0.003384 0.001792 -0.013758 0.040586
#
#
# Mechanical properties :
#
#
# Convention : Reuss Voigt Hill
#
# Bulk Modulus (GPa) = 42.90570 59.90053 51.40311
# Shear Modulus (GPa) = 25.65750 34.25796 29.95773
#
# Velocity S-wave (km/s) = 3.52276 4.07058 3.80654
# Velocity P-wave (km/s) = 6.10727 7.14599 6.64695
#
# Compressibility (1/GPa) = 0.02330693
#
# Stress axis : x y z
#
# Youngs Moduli (GPa) = 81.53862 64.98789 41.98968
#
# Poissons Ratio (x) = 0.00448 0.22585
# Poissons Ratio (y) = 0.00563 0.36247
# Poissons Ratio (z) = 0.43858 0.56099
#
# Static dielectric constant tensor:
#      x y z
#    x 1.808060 -0.013200 0.026200 
#    y -0.013200 1.830290 0.007260 
#    z 0.026200 0.007260 1.751680 
# 
# From -- ./inp_files/396431.got.cif
#   From: 2010.05.17/outbox.cif.g08.bks.cpg/sg2_199_cif.got.tgz:396431.got - 2010.06.03 11:33:40.
