data_PCOD9021120
_publ_section_title
;
Structure prediction by ZEFSAII (Michael W. Deem and Ramdas Pophale) SiO2 
 PCOD9021120
Probable space group: P -1
;
_chemical_formula_sum "Si O2"
_cell_formula_units_Z 16
_cell_length_a 9.905602
_cell_length_b 14.833170
_cell_length_c 5.201619
_cell_angle_alpha 102.034367
_cell_angle_beta 106.816892
_cell_angle_gamma 61.696534
_cell_volume 641.822505
_symmetry_space_group_name_H-M "P -1"
_symmetry_group_IT_number 2
_symmetry_cell_setting 'triclinic'
loop_
_space_group_symop_operation_xyz
x,y,z
-x,-y,-z
loop_
_atom_site_type_symbol
_atom_site_label
_atom_site_fract_x
_atom_site_fract_y
_atom_site_fract_z
Si Si1 0.681186 0.723308 0.398531
Si Si2 0.987092 0.819246 0.021568
Si Si3 0.694695 0.546981 0.000423
Si Si4 0.312783 0.102692 0.783948
Si Si5 0.179740 0.801831 0.620275
Si Si6 0.277857 0.567850 0.557068
Si Si7 0.002943 0.391746 0.255508
Si Si8 0.425870 0.882259 0.714153
O O1 0.640718 0.664831 0.111957
O O2 0.752795 0.798814 0.379033
O O3 0.531592 0.793017 0.524844
O O4 0.816923 0.639020 0.602107
O O5 0.094336 0.826799 0.313773
O O6 0.808763 0.886298 0.049890
O O7 0.051329 0.837237 0.797689
O O8 0.005891 0.703100 0.950808
O O9 0.647616 0.495230 0.181973
O O10 0.885225 0.493309 0.104077
O O11 0.657783 0.506096 0.693813
O O12 0.356576 0.994394 0.610163
O O13 0.462935 0.108356 0.997617
O O14 0.280077 0.677540 0.612753
O O15 0.291302 0.856921 0.735974
O O16 0.092287 0.598123 0.523815
#
# Coordination Sequence:
#
# PCOD9021120 Si02
#       8
#     2   2   2   2   2   2   2   2
#     4  12  24  42  69 103 146 191 232 290 363 428
#     4  11  22  44  77 103 137 189 238 294 351 411
#     4  10  22  37  68 107 139 180 234 289 347 419
#     4  11  26  48  73 100 146 185 247 297 354 418
#     4  11  23  46  75 104 145 184 237 294 353 424
#     4   9  19  38  62  98 141 179 222 291 339 409
#     4   9  20  37  67 102 141 174 233 287 345 412
#     4  11  28  47  69 105 143 195 232 300 363 423
#
# _framework density 24.929009000000001
#
# number of rings (size 3 to 8) (size 9 to 14) (size 15 to 20)
#    0.750    0.750    2.500    2.250    3.500    1.500 
#    0.000    1.250    0.000    0.000    0.000    0.000 
#    0.000    0.000    0.000    0.000    0.000    0.000 
#
# Total GULP energy -89576.075355 kJ/mol
# GULP energy per Si atom -5598.504710 kJ/mol
# Density = 2.487227 g / cm^3
# Si number density = 24.929009 Si / 1000 Ang^3
#
#
#
# Elastic Constant Matrix: (Units=GPa)
#
#
# Indices 1 2 3 4 5 6 
#
# 1 207.7844 133.6389 69.9022 72.3797 -42.5091 1.2872
# 2 133.6389 211.3725 49.7649 84.0510 -52.7852 4.7907
# 3 69.9022 49.7649 117.2426 21.5352 -21.9141 -2.9209
# 4 72.3797 84.0510 21.5352 65.0311 -30.6660 -4.5563
# 5 -42.5091 -52.7852 -21.9141 -30.6660 68.9480 4.9487
# 6 1.2872 4.7907 -2.9209 -4.5563 4.9487 27.5940
#
#
#
# Elastic Compliance Matrix: (Units=1/GPa)
#
#
# Indices 1 2 3 4 5 6 
#
# 1 0.010219 -0.003046 -0.003662 -0.006266 0.000117 -0.001391
# 2 -0.003046 0.011861 -0.000887 -0.010800 0.002420 -0.004228
# 3 -0.003662 -0.000887 0.010968 0.002414 0.001507 0.001614
# 4 -0.006266 -0.010800 0.002414 0.038514 0.005202 0.007850
# 5 0.000117 0.002420 0.001507 0.005202 0.019429 -0.002892
# 6 -0.001391 -0.004228 0.001614 0.007850 -0.002892 0.039024
#
#
# Mechanical properties :
#
#
# Convention : Reuss Voigt Hill
#
# Bulk Modulus (GPa) = 56.00047 115.89017 85.94532
# Shear Modulus (GPa) = 33.07796 51.18755 42.13275
#
# Velocity S-wave (km/s) = 3.64660 4.53629 4.11555
# Velocity P-wave (km/s) = 6.34373 8.60385 7.55874
#
# Compressibility (1/GPa) = 0.01785699
#
# Stress axis : x y z
#
# Youngs Moduli (GPa) = 97.85490 84.31080 91.17840
#
# Poissons Ratio (x) = 0.25685 0.33385
# Poissons Ratio (y) = 0.29811 0.08091
# Poissons Ratio (z) = 0.35830 0.07481
#
# Static dielectric constant tensor:
#      x y z
#    x 1.960500 -0.002460 -0.013350 
#    y -0.002460 2.049840 -0.042630 
#    z -0.013350 -0.042630 1.953740 
# 
# From -- ./inp_files/49079.got.cif
#   From: 2010.05.17/outbox.cif.g08.bks.cpg/sg2_25_cif.got.tgz:49079.got - 2010.06.03 11:33:40.
