data_PCOD9021339
_publ_section_title
;
Structure prediction by ZEFSAII (Michael W. Deem and Ramdas Pophale) SiO2 
 PCOD9021339
Probable space group: P -1
;
_chemical_formula_sum "Si O2"
_cell_formula_units_Z 12
_cell_length_a 16.294875
_cell_length_b 5.028982
_cell_length_c 7.014652
_cell_angle_alpha 105.123535
_cell_angle_beta 79.000785
_cell_angle_gamma 70.498542
_cell_volume 498.096662
_symmetry_space_group_name_H-M "P -1"
_symmetry_group_IT_number 2
_symmetry_cell_setting 'triclinic'
loop_
_space_group_symop_operation_xyz
x,y,z
-x,-y,-z
loop_
_atom_site_type_symbol
_atom_site_label
_atom_site_fract_x
_atom_site_fract_y
_atom_site_fract_z
Si Si1 0.690163 0.644195 0.315382
Si Si2 0.505310 0.674986 0.340140
Si Si3 0.415543 0.907799 0.063166
Si Si4 0.065699 0.159269 0.945272
Si Si5 0.773805 0.119363 0.458301
Si Si6 0.768501 0.063239 0.900291
O O1 0.581277 0.813686 0.354491
O O2 0.737297 0.874984 0.349840
O O3 0.734831 0.380491 0.089373
O O4 0.689930 0.929260 0.922008
O O5 0.500000 0.500000 0.500000
O O6 0.418856 0.859561 0.280452
O O7 0.556474 0.401370 0.119699
O O8 0.500000 0.000000 0.000000
O O9 0.137411 0.137880 0.076993
O O10 0.127593 0.986202 0.705201
O O11 0.000000 0.500000 0.000000
O O12 0.000000 0.000000 0.000000
O O13 0.778842 0.112007 0.681611
O O14 0.708519 0.446140 0.464394
#
# Coordination Sequence:
#
# PCOD9021339 Si02
#       6
#     2   2   2   2   2   2
#     4  10  24  41  66 100 140 179 227 275 327 402
#     4  10  22  38  60  91 136 182 229 275 326 394
#     4  10  23  40  62  99 132 178 229 275 332 400
#     4  11  25  46  70 101 132 170 227 285 344 412
#     4  11  24  44  71 102 133 181 226 272 352 407
#     4  10  24  45  69  98 140 178 221 287 335 404
#
# _framework density 24.091708000000001
#
# number of rings (size 3 to 8) (size 9 to 14) (size 15 to 20)
#    0.000    1.667    0.000    3.000    9.333    6.000 
#    3.000    0.000    0.000    0.000    0.000    0.000 
#    0.000    0.000    0.000    0.000    0.000    0.000 
#
# Total GULP energy -67166.861650 kJ/mol
# GULP energy per Si atom -5597.238471 kJ/mol
# Density = 2.403687 g / cm^3
# Si number density = 24.091708 Si / 1000 Ang^3
#
#
#
# Elastic Constant Matrix: (Units=GPa)
#
#
# Indices 1 2 3 4 5 6 
#
# 1 205.2251 65.2902 47.3889 -22.2793 -0.0928 -14.3290
# 2 65.2902 110.0631 1.7366 -29.4474 7.9823 -11.6754
# 3 47.3889 1.7366 147.2833 -27.2961 19.2856 -9.3461
# 4 -22.2793 -29.4474 -27.2961 36.4515 -0.9156 5.7279
# 5 -0.0928 7.9823 19.2856 -0.9156 43.4900 -4.2476
# 6 -14.3290 -11.6754 -9.3461 5.7279 -4.2476 58.3851
#
#
#
# Elastic Compliance Matrix: (Units=1/GPa)
#
#
# Indices 1 2 3 4 5 6 
#
# 1 0.006783 -0.004454 -0.002627 -0.001470 0.002029 0.000645
# 2 -0.004454 0.015489 0.004243 0.012682 -0.004357 0.001122
# 3 -0.002627 0.004243 0.009947 0.009060 -0.004951 0.000547
# 4 -0.001470 0.012682 0.009060 0.043591 -0.005534 -0.001054
# 5 0.002029 -0.004357 -0.004951 -0.005534 0.026001 0.001269
# 6 0.000645 0.001122 0.000547 -0.001054 0.001269 0.017794
#
#
# Mechanical properties :
#
#
# Convention : Reuss Voigt Hill
#
# Bulk Modulus (GPa) = 37.67722 76.82255 57.24988
# Shear Modulus (GPa) = 37.27761 50.87570 44.07666
#
# Velocity S-wave (km/s) = 3.93787 4.60037 4.28195
# Velocity P-wave (km/s) = 6.02899 7.75723 6.94706
#
# Compressibility (1/GPa) = 0.02654123
#
# Stress axis : x y z
#
# Youngs Moduli (GPa) = 147.43320 64.56181 100.53279
#
# Poissons Ratio (x) = 0.28757 0.26411
# Poissons Ratio (y) = 0.65670 -0.42652
# Poissons Ratio (z) = 0.38732 -0.27391
#
# Static dielectric constant tensor:
#      x y z
#    x 1.984320 0.028290 -0.038900 
#    y 0.028290 2.039550 -0.002430 
#    z -0.038900 -0.002430 1.968810 
# 
# From -- ./inp_files/102545.got.cif
#   From: 2010.05.17/outbox.cif.g08.bks.cpg/sg2_52_cif.got.tgz:102545.got - 2010.06.03 11:33:40.
