data_PCOD9021112
_publ_section_title
;
Structure prediction by ZEFSAII (Michael W. Deem and Ramdas Pophale) SiO2 
 PCOD9021112
Probable space group: P -1
;
_chemical_formula_sum "Si O2"
_cell_formula_units_Z 16
_cell_length_a 14.906850
_cell_length_b 10.594693
_cell_length_c 9.553456
_cell_angle_alpha 111.410158
_cell_angle_beta 46.591429
_cell_angle_gamma 76.837538
_cell_volume 721.089374
_symmetry_space_group_name_H-M "P -1"
_symmetry_group_IT_number 2
_symmetry_cell_setting 'triclinic'
loop_
_space_group_symop_operation_xyz
x,y,z
-x,-y,-z
loop_
_atom_site_type_symbol
_atom_site_label
_atom_site_fract_x
_atom_site_fract_y
_atom_site_fract_z
Si Si1 0.739896 0.155520 0.291858
Si Si2 0.525701 0.825733 0.077553
Si Si3 0.857793 0.952858 0.387133
Si Si4 0.878392 0.697806 0.617463
Si Si5 0.937088 0.451261 0.928262
Si Si6 0.439881 0.202094 0.648136
Si Si7 0.626041 0.472405 0.735800
Si Si8 0.017292 0.870914 0.647865
O O1 0.589051 0.174675 0.407328
O O2 0.649731 0.363252 0.527878
O O3 0.818783 0.028796 0.299569
O O4 0.886157 0.038317 0.969661
O O5 0.567382 0.745856 0.160521
O O6 0.315514 0.000636 0.369804
O O7 0.671008 0.828726 0.904422
O O8 0.563740 0.673805 0.869078
O O9 0.888718 0.066672 0.489662
O O10 0.025956 0.729458 0.133807
O O11 0.000000 0.500000 0.500000
O O12 0.923280 0.821112 0.648861
O O13 0.942489 0.617420 0.361908
O O14 0.742001 0.633966 0.164674
O O15 0.000000 0.500000 0.000000
O O16 0.500000 0.000000 0.500000
O O17 0.820840 0.327674 0.530183
O O18 0.500000 0.500000 0.000000
#
# Coordination Sequence:
#
# PCOD9021112 Si02
#       8
#     2   2   2   2   2   2   2   2
#     4  10  22  37  68 100 131 179 237 278 328 407
#     4  11  21  39  67  97 130 180 233 278 330 411
#     4  10  23  41  66  98 141 179 220 282 357 399
#     4  12  25  40  69 101 135 177 237 285 329 407
#     4  12  27  43  65 101 141 178 223 289 353 404
#     4  11  21  39  66  93 133 182 229 270 337 418
#     4  11  17  33  61  99 131 166 230 282 322 391
#     4  11  22  40  67 101 136 181 235 279 331 414
#
# _framework density 22.188649999999999
#
# number of rings (size 3 to 8) (size 9 to 14) (size 15 to 20)
#    0.000    1.000    6.250    3.750    1.750    2.000 
#    0.000    0.625    0.000    0.000    0.000    0.000 
#    0.000    0.000    0.000    0.000    0.000    0.000 
#
# Total GULP energy -89308.170943 kJ/mol
# GULP energy per Si atom -5581.760684 kJ/mol
# Density = 2.213815 g / cm^3
# Si number density = 22.188650 Si / 1000 Ang^3
#
#
#
# Elastic Constant Matrix: (Units=GPa)
#
#
# Indices 1 2 3 4 5 6 
#
# 1 138.9482 43.1369 68.7526 1.4258 -19.7505 19.3563
# 2 43.1369 65.3892 10.7845 24.2877 -2.3441 2.8454
# 3 68.7526 10.7845 109.5791 4.2473 -16.1454 1.0590
# 4 1.4258 24.2877 4.2473 40.8855 4.1779 -2.8562
# 5 -19.7505 -2.3441 -16.1454 4.1779 55.5422 -2.8896
# 6 19.3563 2.8454 1.0590 -2.8562 -2.8896 29.0485
#
#
#
# Elastic Compliance Matrix: (Units=1/GPa)
#
#
# Indices 1 2 3 4 5 6 
#
# 1 0.016795 -0.011460 -0.009299 0.006377 0.001842 -0.008920
# 2 -0.011460 0.028040 0.005040 -0.016564 -0.000021 0.003076
# 3 -0.009299 0.005040 0.014836 -0.004048 0.001780 0.004941
# 4 0.006377 -0.016564 -0.004048 0.034770 -0.002186 0.000722
# 5 0.001842 -0.000021 0.001780 -0.002186 0.019362 0.000421
# 6 -0.008920 0.003076 0.004941 0.000722 0.000421 0.040000
#
#
# Mechanical properties :
#
#
# Convention : Reuss Voigt Hill
#
# Bulk Modulus (GPa) = 35.42130 62.14049 48.78090
# Shear Modulus (GPa) = 25.68672 37.84474 31.76573
#
# Velocity S-wave (km/s) = 3.40612 4.13436 3.78778
# Velocity P-wave (km/s) = 5.60956 7.13140 6.41577
#
# Compressibility (1/GPa) = 0.02823160
#
# Stress axis : x y z
#
# Youngs Moduli (GPa) = 59.54101 35.66345 67.40422
#
# Poissons Ratio (x) = 0.40872 0.62682
# Poissons Ratio (y) = 0.68236 -0.33973
# Poissons Ratio (z) = 0.55370 -0.17975
#
# Static dielectric constant tensor:
#      x y z
#    x 1.855970 0.043310 -0.042730 
#    y 0.043310 1.892210 -0.040650 
#    z -0.042730 -0.040650 1.936700 
# 
# From -- ./inp_files/307899.got.cif
#   From: 2010.05.17/outbox.cif.g08.bks.cpg/sg2_154_cif.got.tgz:307899.got - 2010.06.03 11:33:40.
