data_PCOD9021323
_publ_section_title
;
Structure prediction by ZEFSAII (Michael W. Deem and Ramdas Pophale) SiO2 
 PCOD9021323
Probable space group: P -1
;
_chemical_formula_sum "Si O2"
_cell_formula_units_Z 14
_cell_length_a 8.158099
_cell_length_b 16.526603
_cell_length_c 5.053959
_cell_angle_alpha 63.681190
_cell_angle_beta 118.766622
_cell_angle_gamma 116.698925
_cell_volume 510.685257
_symmetry_space_group_name_H-M "P -1"
_symmetry_group_IT_number 2
_symmetry_cell_setting 'triclinic'
loop_
_space_group_symop_operation_xyz
x,y,z
-x,-y,-z
loop_
_atom_site_type_symbol
_atom_site_label
_atom_site_fract_x
_atom_site_fract_y
_atom_site_fract_z
Si Si1 0.264165 0.008203 0.538728
Si Si2 0.780121 0.801036 0.644465
Si Si3 0.712809 0.102799 0.762883
Si Si4 0.992136 0.565170 0.144650
Si Si5 0.423561 0.640507 0.341790
Si Si6 0.040918 0.255960 0.618961
Si Si7 0.328290 0.427006 0.769809
O O1 0.180268 0.086475 0.487983
O O2 0.485978 0.075247 0.555072
O O3 0.193712 0.957186 0.280555
O O4 0.275314 0.932814 0.880220
O O5 0.574947 0.732049 0.465619
O O6 0.936270 0.781284 0.595793
O O7 0.824986 0.777954 0.012225
O O8 0.825435 0.210841 0.628408
O O9 0.201956 0.646062 0.163304
O O10 0.000000 0.500000 0.500000
O O11 0.792086 0.590376 0.020914
O O12 0.000000 0.500000 0.000000
O O13 0.404046 0.539791 0.621288
O O14 0.504662 0.617083 0.151474
O O15 0.143073 0.367264 0.534198
#
# Coordination Sequence:
#
# PCOD9021323 Si02
#       7
#     2   2   2   2   2   2   2
#     4  10  22  41  64  89 124 163 203 255 318 377
#     4  11  24  39  62  94 124 162 211 253 318 369
#     4  10  22  41  64  90 122 164 204 253 320 374
#     4  10  22  38  60  90 116 164 218 254 311 370
#     4   9  21  41  64  91 131 171 212 263 316 375
#     4  11  24  39  62  95 122 163 211 254 315 373
#     4   9  21  40  64  89 131 168 210 263 310 375
#
# _framework density 27.414145999999999
#
# number of rings (size 3 to 8) (size 9 to 14) (size 15 to 20)
#    0.000    2.000    0.000    1.714    2.000   14.857 
#    0.000    0.000    0.000    0.000    0.000    0.000 
#    0.000    0.000    0.000    0.000    0.000    0.000 
#
# Total GULP energy -78262.983177 kJ/mol
# GULP energy per Si atom -5590.213084 kJ/mol
# Density = 2.735175 g / cm^3
# Si number density = 27.414146 Si / 1000 Ang^3
#
#
#
# Elastic Constant Matrix: (Units=GPa)
#
#
# Indices 1 2 3 4 5 6 
#
# 1 152.3106 41.5214 24.8416 9.2558 -28.3150 15.4779
# 2 41.5214 131.1204 12.8704 21.0885 -10.8380 22.9942
# 3 24.8416 12.8704 82.4459 6.8247 -36.9340 0.7986
# 4 9.2558 21.0885 6.8247 44.6961 0.5739 -8.9898
# 5 -28.3150 -10.8380 -36.9340 0.5739 48.7320 5.7329
# 6 15.4779 22.9942 0.7986 -8.9898 5.7329 66.1977
#
#
#
# Elastic Compliance Matrix: (Units=1/GPa)
#
#
# Indices 1 2 3 4 5 6 
#
# 1 0.008148 -0.001645 -0.000004 -0.001355 0.004607 -0.001917
# 2 -0.001645 0.009787 0.000317 -0.005133 0.001979 -0.003887
# 3 -0.000004 0.000317 0.019027 -0.003669 0.014781 -0.002117
# 4 -0.001355 -0.005133 -0.003669 0.026979 -0.005770 0.006308
# 5 0.004607 0.001979 0.014781 -0.005770 0.035591 -0.005809
# 6 -0.001917 -0.003887 -0.002117 0.006308 -0.005809 0.018290
#
#
# Mechanical properties :
#
#
# Convention : Reuss Voigt Hill
#
# Bulk Modulus (GPa) = 29.15597 58.26041 43.70819
# Shear Modulus (GPa) = 37.90229 51.03472 44.46850
#
# Velocity S-wave (km/s) = 3.72234 4.31933 4.03190
# Velocity P-wave (km/s) = 5.39749 6.79511 6.13622
#
# Compressibility (1/GPa) = 0.03429829
#
# Stress axis : x y z
#
# Youngs Moduli (GPa) = 122.72629 102.17473 52.55804
#
# Poissons Ratio (x) = 0.16807 0.00019
# Poissons Ratio (y) = 0.20188 -0.01665
# Poissons Ratio (z) = 0.00044 -0.03236
#
# Static dielectric constant tensor:
#      x y z
#    x 2.242620 -0.005040 0.075970 
#    y -0.005040 2.216880 0.022520 
#    z 0.075970 0.022520 2.209300 
# 
# From -- ./inp_files/44288.got.cif
#   From: 2010.05.17/outbox.cif.g08.bks.cpg/sg2_23_cif.got.tgz:44288.got - 2010.06.03 11:33:40.
