data_PCOD9021825
_publ_section_title
;
Structure prediction by ZEFSAII (Michael W. Deem and Ramdas Pophale) SiO2 
 PCOD9021825
Probable space group: P -1
;
_chemical_formula_sum "Si O2"
_cell_formula_units_Z 15
_cell_length_a 17.051001
_cell_length_b 10.278112
_cell_length_c 11.367706
_cell_angle_alpha 82.545901
_cell_angle_beta 123.988285
_cell_angle_gamma 145.850746
_cell_volume 648.049183
_symmetry_space_group_name_H-M "P -1"
_symmetry_group_IT_number 2
_symmetry_cell_setting 'triclinic'
loop_
_space_group_symop_operation_xyz
x,y,z
-x,-y,-z
loop_
_atom_site_type_symbol
_atom_site_label
_atom_site_fract_x
_atom_site_fract_y
_atom_site_fract_z
Si Si1 0.441678 0.784838 0.232609
Si Si2 0.751466 0.714446 0.764528
Si Si3 0.224582 0.728244 0.229069
Si Si4 0.264067 0.611276 0.854934
Si Si5 0.000000 0.500000 0.500000
Si Si6 0.234742 0.384854 0.648096
Si Si7 0.896635 0.512805 0.585838
Si Si8 0.493694 0.647631 0.622313
O O1 0.430105 0.624486 0.292489
O O2 0.349481 0.772857 0.253134
O O3 0.719143 0.186904 0.395318
O O4 0.268053 0.577199 0.999556
O O5 0.674211 0.763116 0.723288
O O6 0.735323 0.670505 0.615972
O O7 0.000000 0.000000 0.000000
O O8 0.134462 0.561525 0.297953
O O9 0.400688 0.075273 0.350844
O O10 0.000000 0.500000 0.000000
O O11 0.055175 0.433887 0.645407
O O12 0.291667 0.519607 0.805435
O O13 0.500000 0.000000 0.000000
O O14 0.874699 0.241705 0.321431
O O15 0.180105 0.440314 0.512341
O O16 0.439372 0.572373 0.724126
O O17 0.000000 0.000000 0.500000
#
# Coordination Sequence:
#
# PCOD9021825 Si02
#       8
#     2   2   2   2   1   2   2   2
#     4  12  22  43  71  97 138 179 237 300 346 414
#     4  11  26  43  70 105 141 187 231 300 373 433
#     4  12  23  42  75 104 136 181 242 304 359 424
#     4  11  22  44  68  97 134 181 237 292 344 425
#     4  10  22  38  66 100 136 174 238 282 344 418
#     4  11  25  44  69 101 146 193 234 298 364 432
#     4  11  22  42  69 100 137 185 239 293 350 419
#     4  11  24  48  69 102 148 183 239 303 364 426
#
# _framework density 23.14639
#
# number of rings (size 3 to 8) (size 9 to 14) (size 15 to 20)
#    0.000    0.800    5.333    2.800    1.867    2.133 
#    0.000    2.000    0.000    0.000    0.000    0.000 
#    0.000    0.000    0.000    0.000    0.000    0.000 
#
# Total GULP energy -83701.378586 kJ/mol
# GULP energy per Si atom -5580.091906 kJ/mol
# Density = 2.309371 g / cm^3
# Si number density = 23.146390 Si / 1000 Ang^3
#
#
#
# Elastic Constant Matrix: (Units=GPa)
#
#
# Indices 1 2 3 4 5 6 
#
# 1 143.1763 25.6653 54.0471 -11.3850 -35.9994 -8.2417
# 2 25.6653 87.2218 19.9373 -7.3051 -18.5908 -3.6739
# 3 54.0471 19.9373 132.9731 -12.7896 -19.7282 3.2314
# 4 -11.3850 -7.3051 -12.7896 43.9186 2.8244 -8.6719
# 5 -35.9994 -18.5908 -19.7282 2.8244 42.8498 -0.5397
# 6 -8.2417 -3.6739 3.2314 -8.6719 -0.5397 24.3470
#
#
#
# Elastic Compliance Matrix: (Units=1/GPa)
#
#
# Indices 1 2 3 4 5 6 
#
# 1 0.010452 -0.000481 -0.003025 0.002245 0.007092 0.004824
# 2 -0.000481 0.013121 -0.000938 0.002025 0.004758 0.002768
# 3 -0.003025 -0.000938 0.009239 0.001298 0.001196 -0.001903
# 4 0.002245 0.002025 0.001298 0.025962 0.001779 0.010180
# 5 0.007092 0.004758 0.001196 0.001779 0.031847 0.004300
# 6 0.004824 0.002768 -0.001903 0.010180 0.004300 0.047097
#
#
# Mechanical properties :
#
#
# Convention : Reuss Voigt Hill
#
# Bulk Modulus (GPa) = 41.80064 62.51896 52.15980
# Shear Modulus (GPa) = 32.34513 39.80450 36.07482
#
# Velocity S-wave (km/s) = 3.74226 4.15141 3.95213
# Velocity P-wave (km/s) = 6.06392 7.07445 6.58859
#
# Compressibility (1/GPa) = 0.02392308
#
# Stress axis : x y z
#
# Youngs Moduli (GPa) = 95.67509 76.21102 108.23656
#
# Poissons Ratio (x) = 0.03667 0.32744
# Poissons Ratio (y) = 0.04604 0.10157
# Poissons Ratio (z) = 0.28943 0.07151
#
# Static dielectric constant tensor:
#      x y z
#    x 2.123140 0.105030 0.066430 
#    y 0.105030 1.859010 0.050060 
#    z 0.066430 0.050060 1.914840 
# 
# From -- ./inp_files/333341.got.cif
#   From: 2010.05.17/outbox.cif.g08.bks.cpg/sg2_167_cif.got.tgz:333341.got - 2010.06.03 11:33:40.
