data_PCOD9021493
_publ_section_title
;
Structure prediction by ZEFSAII (Michael W. Deem and Ramdas Pophale) SiO2 
 PCOD9021493
Probable space group: P -1
;
_chemical_formula_sum "Si O2"
_cell_formula_units_Z 14
_cell_length_a 13.195549
_cell_length_b 9.420202
_cell_length_c 9.187150
_cell_angle_alpha 113.069241
_cell_angle_beta 95.227689
_cell_angle_gamma 128.857201
_cell_volume 722.043823
_symmetry_space_group_name_H-M "P -1"
_symmetry_group_IT_number 2
_symmetry_cell_setting 'triclinic'
loop_
_space_group_symop_operation_xyz
x,y,z
-x,-y,-z
loop_
_atom_site_type_symbol
_atom_site_label
_atom_site_fract_x
_atom_site_fract_y
_atom_site_fract_z
Si Si1 0.110112 0.061488 0.415457
Si Si2 0.011659 0.903982 0.822417
Si Si3 0.891363 0.262122 0.809964
Si Si4 0.294485 0.225000 0.771728
Si Si5 0.680519 0.123660 0.963364
Si Si6 0.512044 0.253068 0.977060
Si Si7 0.978107 0.443627 0.305281
O O1 0.245146 0.155554 0.569564
O O2 0.120778 0.202651 0.350642
O O3 0.050242 0.847128 0.236034
O O4 0.000000 0.000000 0.500000
O O5 0.009196 0.723410 0.792647
O O6 0.159557 0.087102 0.815869
O O7 0.000000 0.000000 0.000000
O O8 0.745596 0.110738 0.825459
O O9 0.895226 0.326994 0.672486
O O10 0.000000 0.500000 0.000000
O O11 0.380299 0.482129 0.888763
O O12 0.392322 0.187440 0.820991
O O13 0.574627 0.893269 0.946742
O O14 0.601460 0.194678 0.932056
O O15 0.817847 0.315512 0.167514
O O16 0.000000 0.500000 0.500000
#
# Coordination Sequence:
#
# PCOD9021493 Si02
#       7
#     2   2   2   2   2   2   2
#     4  10  22  38  62  92 122 154 198 255 308 356
#     4  11  22  36  63  94 121 149 194 258 311 356
#     4  10  22  38  62  92 122 154 198 255 308 356
#     4  10  22  40  63  84 121 158 213 237 303 363
#     4  10  22  40  63  84 121 158 213 237 303 363
#     4  10  22  40  64  82 118 174 202 242 298 362
#     4  11  22  36  63  94 121 149 194 258 311 356
#
# _framework density 19.389405
#
# number of rings (size 3 to 8) (size 9 to 14) (size 15 to 20)
#    0.000    1.714    1.429    3.429   12.000    0.000 
#    0.000    1.429    0.000    0.000    0.000    0.000 
#    0.000    0.000    0.000    0.000    0.000    0.000 
#
# Total GULP energy -78007.059569 kJ/mol
# GULP energy per Si atom -5571.932826 kJ/mol
# Density = 1.934527 g / cm^3
# Si number density = 19.389405 Si / 1000 Ang^3
#
#
#
# Elastic Constant Matrix: (Units=GPa)
#
#
# Indices 1 2 3 4 5 6 
#
# 1 112.9447 32.5862 33.0141 -10.3742 -0.6590 -26.3794
# 2 32.5862 77.6883 -3.3590 -9.3612 8.5429 -7.4427
# 3 33.0141 -3.3590 62.2174 -21.2473 7.0686 -2.0867
# 4 -10.3742 -9.3612 -21.2473 31.2232 -4.4727 -0.0890
# 5 -0.6590 8.5429 7.0686 -4.4727 31.5217 -14.1059
# 6 -26.3794 -7.4427 -2.0867 -0.0890 -14.1059 32.4671
#
#
#
# Elastic Compliance Matrix: (Units=1/GPa)
#
#
# Indices 1 2 3 4 5 6 
#
# 1 0.019166 -0.008601 -0.012466 -0.002708 0.013490 0.018653
# 2 -0.008601 0.018125 0.008831 0.007317 -0.008738 -0.006042
# 3 -0.012466 0.008831 0.030016 0.017176 -0.012029 -0.011354
# 4 -0.002708 0.007317 0.017176 0.045161 0.001033 0.001154
# 5 0.013490 -0.008738 -0.012029 0.001033 0.050748 0.030236
# 6 0.018653 -0.006042 -0.011354 0.001154 0.030236 0.056980
#
#
# Mechanical properties :
#
#
# Convention : Reuss Voigt Hill
#
# Bulk Modulus (GPa) = 23.34524 41.92591 32.63557
# Shear Modulus (GPa) = 19.30910 31.74968 25.52939
#
# Velocity S-wave (km/s) = 3.15915 4.05096 3.63253
# Velocity P-wave (km/s) = 5.03719 6.59928 5.87042
#
# Compressibility (1/GPa) = 0.04283529
#
# Stress axis : x y z
#
# Youngs Moduli (GPa) = 52.17672 55.17230 33.31605
#
# Poissons Ratio (x) = 0.47452 0.41532
# Poissons Ratio (y) = 0.44876 -0.29422
# Poissons Ratio (z) = 0.65043 -0.48724
#
# Static dielectric constant tensor:
#      x y z
#    x 1.728620 -0.018790 0.003110 
#    y -0.018790 1.801680 0.163140 
#    z 0.003110 0.163140 1.966700 
# 
# From -- ./inp_files/195610.got.cif
#   From: 2010.05.17/outbox.cif.g08.bks.cpg/sg2_98_cif.got.tgz:195610.got - 2010.06.03 11:33:40.
