data_PCOD9021512
_publ_section_title
;
Structure prediction by ZEFSAII (Michael W. Deem and Ramdas Pophale) SiO2 
 PCOD9021512
Probable space group: P -1
;
_chemical_formula_sum "Si O2"
_cell_formula_units_Z 14
_cell_length_a 12.911510
_cell_length_b 12.350849
_cell_length_c 9.148948
_cell_angle_alpha 52.312827
_cell_angle_beta 88.894008
_cell_angle_gamma 131.938029
_cell_volume 589.836564
_symmetry_space_group_name_H-M "P -1"
_symmetry_group_IT_number 2
_symmetry_cell_setting 'triclinic'
loop_
_space_group_symop_operation_xyz
x,y,z
-x,-y,-z
loop_
_atom_site_type_symbol
_atom_site_label
_atom_site_fract_x
_atom_site_fract_y
_atom_site_fract_z
Si Si1 0.514425 0.656666 0.039469
Si Si2 0.565117 0.401309 0.233339
Si Si3 0.643070 0.051770 0.877123
Si Si4 0.995285 0.503574 0.289312
Si Si5 0.992351 0.041679 0.131202
Si Si6 0.020019 0.818597 0.509646
Si Si7 0.848287 0.113889 0.236333
O O1 0.404099 0.577490 0.959253
O O2 0.513782 0.770549 0.069900
O O3 0.751107 0.921412 0.771251
O O4 0.474636 0.450981 0.228631
O O5 0.378993 0.096984 0.542067
O O6 0.782312 0.644515 0.100495
O O7 0.767030 0.248292 0.569513
O O8 0.837283 0.241160 0.818207
O O9 0.500000 0.000000 0.000000
O O10 0.062514 0.422050 0.337571
O O11 0.016948 0.608241 0.052100
O O12 0.846232 0.001909 0.197972
O O13 0.932725 0.852540 0.403191
O O14 0.000000 0.000000 0.000000
O O15 0.050129 0.845534 0.660428
#
# Coordination Sequence:
#
# PCOD9021512 Si02
#       7
#     2   2   2   2   2   2   2
#     4   8  17  38  65  88 120 169 214 259 312 376
#     4   9  20  40  62  89 126 162 211 266 314 374
#     4  10  22  38  62  93 129 172 210 259 327 375
#     4  10  23  40  63  93 132 165 215 264 311 389
#     4  11  25  39  65  98 128 165 218 269 315 378
#     4   9  20  43  66  89 130 173 215 258 317 381
#     4  11  23  40  66  96 126 172 211 262 327 378
#
# _framework density 23.735389999999999
#
# number of rings (size 3 to 8) (size 9 to 14) (size 15 to 20)
#    0.000    2.286    0.000    1.714    8.000    4.000 
#    0.000    0.000    0.000    6.857    0.000    0.000 
#    0.000    0.000    0.000    0.000    0.000    0.000 
#
# Total GULP energy -78177.550804 kJ/mol
# GULP energy per Si atom -5584.110772 kJ/mol
# Density = 2.368137 g / cm^3
# Si number density = 23.735390 Si / 1000 Ang^3
#
#
#
# Elastic Constant Matrix: (Units=GPa)
#
#
# Indices 1 2 3 4 5 6 
#
# 1 46.2466 -0.4778 23.5469 -2.2922 6.7789 -15.5491
# 2 -0.4778 107.6073 3.4032 -7.9274 3.1766 -17.8668
# 3 23.5469 3.4032 105.4979 -2.3734 17.6162 -1.1713
# 4 -2.2922 -7.9274 -2.3734 24.9243 5.7288 -7.6425
# 5 6.7789 3.1766 17.6162 5.7288 39.0192 -2.1104
# 6 -15.5491 -17.8668 -1.1713 -7.6425 -2.1104 32.2201
#
#
#
# Elastic Compliance Matrix: (Units=1/GPa)
#
#
# Indices 1 2 3 4 5 6 
#
# 1 0.032997 0.004717 -0.006413 0.011131 -0.003736 0.020702
# 2 0.004717 0.011701 -0.000810 0.007734 -0.001977 0.010441
# 3 -0.006413 -0.000810 0.011618 0.000215 -0.004278 -0.003351
# 4 0.011131 0.007734 0.000215 0.052321 -0.009181 0.021477
# 5 -0.003736 -0.001977 -0.004278 -0.009181 0.029539 -0.003298
# 6 0.020702 0.010441 -0.003351 0.021477 -0.003298 0.051573
#
#
# Mechanical properties :
#
#
# Convention : Reuss Voigt Hill
#
# Bulk Modulus (GPa) = 19.49164 34.69961 27.09562
# Shear Modulus (GPa) = 23.60004 34.75802 29.17903
#
# Velocity S-wave (km/s) = 3.15667 3.83089 3.51001
# Velocity P-wave (km/s) = 4.63853 5.84968 5.27895
#
# Compressibility (1/GPa) = 0.05130404
#
# Stress axis : x y z
#
# Youngs Moduli (GPa) = 30.30591 85.46080 86.07090
#
# Poissons Ratio (x) = -0.40311 0.55197
# Poissons Ratio (y) = -0.14295 0.06973
# Poissons Ratio (z) = 0.19435 0.06924
#
# Static dielectric constant tensor:
#      x y z
#    x 1.914030 -0.012930 0.032090 
#    y -0.012930 1.938520 0.005040 
#    z 0.032090 0.005040 1.975300 
# 
# From -- ./inp_files/304782.got.cif
#   From: 2010.05.17/outbox.cif.g08.bks.cpg/sg2_153_cif.got.tgz:304782.got - 2010.06.03 11:33:40.
