data_PCOD9021325
_publ_section_title
;
Structure prediction by ZEFSAII (Michael W. Deem and Ramdas Pophale) SiO2 
 PCOD9021325
Probable space group: P -1
;
_chemical_formula_sum "Si O2"
_cell_formula_units_Z 13
_cell_length_a 11.492554
_cell_length_b 8.324626
_cell_length_c 7.763639
_cell_angle_alpha 49.717217
_cell_angle_beta 107.299691
_cell_angle_gamma 91.928985
_cell_volume 528.006228
_symmetry_space_group_name_H-M "P -1"
_symmetry_group_IT_number 2
_symmetry_cell_setting 'triclinic'
loop_
_space_group_symop_operation_xyz
x,y,z
-x,-y,-z
loop_
_atom_site_type_symbol
_atom_site_label
_atom_site_fract_x
_atom_site_fract_y
_atom_site_fract_z
Si Si1 0.117429 0.353055 0.558478
Si Si2 0.000000 0.000000 0.500000
Si Si3 0.706681 0.386768 0.489147
Si Si4 0.896077 0.714367 0.784218
Si Si5 0.526435 0.277136 0.945852
Si Si6 0.238029 0.592364 0.890296
Si Si7 0.327553 0.028229 0.073292
O O1 0.204635 0.511308 0.415643
O O2 0.087312 0.230673 0.455230
O O3 0.000000 0.500000 0.500000
O O4 0.202395 0.181345 0.838855
O O5 0.130641 0.801335 0.742076
O O6 0.932050 0.933094 0.702602
O O7 0.568646 0.536198 0.327279
O O8 0.764271 0.422741 0.305594
O O9 0.700558 0.144877 0.687600
O O10 0.782400 0.630278 0.874878
O O11 0.000000 0.500000 0.000000
O O12 0.607825 0.109793 0.966001
O O13 0.625767 0.369665 0.032717
O O14 0.432256 0.156730 0.088447
#
# Coordination Sequence:
#
# PCOD9021325 Si02
#       7
#     2   1   2   2   2   2   2
#     4  11  23  41  64  92 124 161 205 258 314 371
#     4  10  22  38  60  90 120 156 202 248 306 370
#     4  11  24  40  62  92 126 164 210 258 308 369
#     4  10  22  40  62  89 123 159 200 251 308 371
#     4  10  22  41  62  90 125 166 212 257 308 363
#     4  11  23  39  63  92 125 165 205 256 313 365
#     4  10  23  41  63  92 124 164 211 256 311 372
#
# _framework density 24.620922
#
# number of rings (size 3 to 8) (size 9 to 14) (size 15 to 20)
#    0.000    1.538    0.000    4.615    0.000   11.077 
#    0.000    0.000    0.000    0.000    0.000    0.000 
#    0.000    0.000    0.000    0.000    0.000    0.000 
#
# Total GULP energy -72426.708531 kJ/mol
# GULP energy per Si atom -5571.285272 kJ/mol
# Density = 2.456488 g / cm^3
# Si number density = 24.620922 Si / 1000 Ang^3
#
#
#
# Elastic Constant Matrix: (Units=GPa)
#
#
# Indices 1 2 3 4 5 6 
#
# 1 138.7936 48.6579 83.6219 -22.6930 17.7938 18.1465
# 2 48.6579 55.2661 32.7212 -9.8860 -5.9392 5.6293
# 3 83.6219 32.7212 147.7650 -49.9682 -16.6642 19.8708
# 4 -22.6930 -9.8860 -49.9682 33.2846 9.5489 2.1150
# 5 17.7938 -5.9392 -16.6642 9.5489 56.9014 -13.7102
# 6 18.1465 5.6293 19.8708 2.1150 -13.7102 53.8575
#
#
#
# Elastic Compliance Matrix: (Units=1/GPa)
#
#
# Indices 1 2 3 4 5 6 
#
# 1 0.018309 -0.011854 -0.008487 -0.000504 -0.010432 -0.004434
# 2 -0.011854 0.028589 0.000380 -0.001424 0.007738 0.002892
# 3 -0.008487 0.000380 0.021165 0.025456 0.003385 -0.005127
# 4 -0.000504 -0.001424 0.025456 0.070581 -0.007707 -0.013807
# 5 -0.010432 0.007738 0.003385 -0.007707 0.025944 0.008364
# 6 -0.004434 0.002892 -0.005127 -0.013807 0.008364 0.024323
#
#
# Mechanical properties :
#
#
# Convention : Reuss Voigt Hill
#
# Bulk Modulus (GPa) = 35.53574 74.64741 55.09157
# Shear Modulus (GPa) = 20.98965 40.59696 30.79330
#
# Velocity S-wave (km/s) = 2.92295 4.06505 3.54036
# Velocity P-wave (km/s) = 5.08488 7.23998 6.25593
#
# Compressibility (1/GPa) = 0.02814068
#
# Stress axis : x y z
#
# Youngs Moduli (GPa) = 54.61860 34.97903 47.24675
#
# Poissons Ratio (x) = 0.41466 0.40097
# Poissons Ratio (y) = 0.64747 -0.01796
# Poissons Ratio (z) = 0.46354 -0.01330
#
# Static dielectric constant tensor:
#      x y z
#    x 1.136720 -2.476000 0.362690 
#    y -2.476000 -4.937490 1.183560 
#    z 0.362690 1.183560 1.771690 
# 
# From -- ./inp_files/35178.got.cif
#   From: 2010.05.17/outbox.cif.g08.bks.cpg/sg2_18_cif.got.tgz:35178.got - 2010.06.03 11:33:40.
