data_PCOD9021789
_publ_section_title
;
Structure prediction by ZEFSAII (Michael W. Deem and Ramdas Pophale) SiO2 
 PCOD9021789
Probable space group: P -1
;
_chemical_formula_sum "Si O2"
_cell_formula_units_Z 15
_cell_length_a 8.260401
_cell_length_b 17.874750
_cell_length_c 11.374690
_cell_angle_alpha 46.304182
_cell_angle_beta 60.616683
_cell_angle_gamma 34.956438
_cell_volume 684.076117
_symmetry_space_group_name_H-M "P -1"
_symmetry_group_IT_number 2
_symmetry_cell_setting 'triclinic'
loop_
_space_group_symop_operation_xyz
x,y,z
-x,-y,-z
loop_
_atom_site_type_symbol
_atom_site_label
_atom_site_fract_x
_atom_site_fract_y
_atom_site_fract_z
Si Si1 0.763932 0.637378 0.344539
Si Si2 0.747506 0.329360 0.250784
Si Si3 0.898167 0.344529 0.922385
Si Si4 0.000000 0.000000 0.500000
Si Si5 0.853881 0.918203 0.062924
Si Si6 0.543807 0.888248 0.340815
Si Si7 0.177200 0.159619 0.486575
Si Si8 0.786622 0.187255 0.740405
O O1 0.602621 0.790276 0.316336
O O2 0.528796 0.655441 0.366060
O O3 0.000000 0.500000 0.500000
O O4 0.916983 0.630455 0.190031
O O5 0.413924 0.503716 0.190515
O O6 0.765297 0.196204 0.388217
O O7 0.958043 0.283520 0.327513
O O8 0.847516 0.332858 0.086276
O O9 0.064692 0.183795 0.967391
O O10 0.759015 0.014847 0.603692
O O11 0.125854 0.798495 0.184125
O O12 0.595656 0.979489 0.165922
O O13 0.799993 0.059013 0.896467
O O14 0.773055 0.786730 0.477239
O O15 0.028534 0.118750 0.635464
O O16 0.500000 0.000000 0.500000
#
# Coordination Sequence:
#
# PCOD9021789 Si02
#       8
#     2   2   2   1   2   2   2   2
#     4  11  23  40  64  92 127 166 215 262 318 376
#     4  11  25  41  63  96 128 174 213 259 322 378
#     4  10  24  43  63  91 135 169 210 265 320 380
#     4  12  22  38  66  90 128 160 220 256 306 384
#     4   9  22  41  63  93 126 165 213 263 325 368
#     4  10  23  37  62  96 119 167 207 263 316 375
#     4  11  22  39  61  93 129 163 211 263 312 382
#     4  10  22  38  65  95 123 165 217 264 314 378
#
# _framework density 21.927384
#
# number of rings (size 3 to 8) (size 9 to 14) (size 15 to 20)
#    0.000    1.600    1.333    2.400    5.600    3.200 
#    0.000    4.000    0.000    4.800    0.000    0.000 
#    0.000    0.000    0.000    0.000    0.000    0.000 
#
# Total GULP energy -83535.024652 kJ/mol
# GULP energy per Si atom -5569.001643 kJ/mol
# Density = 2.187748 g / cm^3
# Si number density = 21.927384 Si / 1000 Ang^3
#
#
#
# Elastic Constant Matrix: (Units=GPa)
#
#
# Indices 1 2 3 4 5 6 
#
# 1 98.6831 34.9155 43.4639 13.1487 21.1844 -35.7948
# 2 34.9155 66.1357 30.1181 17.4271 0.4277 -33.8646
# 3 43.4639 30.1181 86.7531 18.9636 8.0826 -20.8404
# 4 13.1487 17.4271 18.9636 35.5534 -12.0347 -5.1636
# 5 21.1844 0.4277 8.0826 -12.0347 45.8629 1.9302
# 6 -35.7948 -33.8646 -20.8404 -5.1636 1.9302 39.5135
#
#
#
# Elastic Compliance Matrix: (Units=1/GPa)
#
#
# Indices 1 2 3 4 5 6 
#
# 1 0.021880 0.002570 -0.004195 -0.008521 -0.012440 0.019305
# 2 0.002570 0.032543 -0.002507 -0.013531 -0.005753 0.027409
# 3 -0.004195 -0.002507 0.016776 -0.006830 -0.002878 0.002147
# 4 -0.008521 -0.013531 -0.006830 0.044986 0.017824 -0.017910
# 5 -0.012440 -0.005753 -0.002878 0.017824 0.033504 -0.017025
# 6 0.019305 0.027409 0.002147 -0.017910 -0.017025 0.065910
#
#
# Mechanical properties :
#
#
# Convention : Reuss Voigt Hill
#
# Bulk Modulus (GPa) = 15.88966 52.06299 33.97632
# Shear Modulus (GPa) = 20.42132 33.72425 27.07279
#
# Velocity S-wave (km/s) = 3.05506 3.92599 3.51758
# Velocity P-wave (km/s) = 4.43923 6.65928 5.65919
#
# Compressibility (1/GPa) = 0.06293401
#
# Stress axis : x y z
#
# Youngs Moduli (GPa) = 45.70400 30.72864 59.60861
#
# Poissons Ratio (x) = -0.07897 0.25006
# Poissons Ratio (y) = -0.11746 0.14946
# Poissons Ratio (z) = 0.19173 0.07705
#
# Static dielectric constant tensor:
#      x y z
#    x 1.831870 -0.019450 0.037360 
#    y -0.019450 1.837820 -0.030270 
#    z 0.037360 -0.030270 1.846960 
# 
# From -- ./inp_files/274791.got.cif
#   From: 2010.05.17/outbox.cif.g08.bks.cpg/sg2_138_cif.got.tgz:274791.got - 2010.06.03 11:33:40.
