data_PCOD9021161
_publ_section_title
;
Structure prediction by ZEFSAII (Michael W. Deem and Ramdas Pophale) SiO2 
 PCOD9021161
Probable space group: P -1
;
_chemical_formula_sum "Si O2"
_cell_formula_units_Z 14
_cell_length_a 10.598854
_cell_length_b 8.424807
_cell_length_c 11.824220
_cell_angle_alpha 142.470928
_cell_angle_beta 81.274177
_cell_angle_gamma 110.371883
_cell_volume 588.470337
_symmetry_space_group_name_H-M "P -1"
_symmetry_group_IT_number 2
_symmetry_cell_setting 'triclinic'
loop_
_space_group_symop_operation_xyz
x,y,z
-x,-y,-z
loop_
_atom_site_type_symbol
_atom_site_label
_atom_site_fract_x
_atom_site_fract_y
_atom_site_fract_z
Si Si1 0.691730 0.702821 0.108557
Si Si2 0.660161 0.864736 0.861326
Si Si3 0.710519 0.815621 0.409439
Si Si4 0.699170 0.386005 0.708871
Si Si5 0.085923 0.774181 0.519166
Si Si6 0.588353 0.072307 0.205487
Si Si7 0.221781 0.346940 0.453215
O O1 0.668817 0.610355 0.190755
O O2 0.823877 0.002919 0.272207
O O3 0.573706 0.805732 0.134663
O O4 0.722228 0.509112 0.902405
O O5 0.619358 0.557904 0.753886
O O6 0.545234 0.906294 0.821378
O O7 0.781340 0.881497 0.768934
O O8 0.682453 0.063249 0.079071
O O9 0.707823 0.703808 0.470133
O O10 0.642203 0.047949 0.535210
O O11 0.870807 0.013359 0.473815
O O12 0.842306 0.440952 0.650865
O O13 0.927557 0.651285 0.501097
O O14 0.668498 0.347552 0.421950
#
# Coordination Sequence:
#
# PCOD9021161 Si02
#       7
#     2   2   2   2   2   2   2
#     4   8  17  36  55  72 107 142 167 210 260 304
#     4  10  22  38  55  76 103 139 179 216 257 303
#     4   8  20  34  52  80 108 135 173 204 260 317
#     4   8  17  36  55  72 107 142 167 210 260 304
#     4   8  20  33  52  82 106 137 170 204 262 317
#     4  10  22  38  55  76 103 139 179 216 257 303
#     4  12  20  35  55  80 108 135 172 217 258 307
#
# _framework density 23.790495
#
# number of rings (size 3 to 8) (size 9 to 14) (size 15 to 20)
#    1.714    0.857    0.000    2.571    0.000    4.571 
#    0.000    7.143    0.000    5.143    0.000    0.000 
#    0.000    0.000    0.000    0.000    0.000    0.000 
#
# Total GULP energy -77975.654051 kJ/mol
# GULP energy per Si atom -5569.689575 kJ/mol
# Density = 2.373635 g / cm^3
# Si number density = 23.790495 Si / 1000 Ang^3
#
#
#
# Elastic Constant Matrix: (Units=GPa)
#
#
# Indices 1 2 3 4 5 6 
#
# 1 86.8496 10.7222 29.6660 -3.5405 -18.1653 -10.8111
# 2 10.7222 62.2862 13.9561 -10.5841 -7.3790 -15.3099
# 3 29.6660 13.9561 149.4385 -33.3091 -18.9077 1.4356
# 4 -3.5405 -10.5841 -33.3091 36.4565 3.6670 0.5637
# 5 -18.1653 -7.3790 -18.9077 3.6670 29.3711 -2.3360
# 6 -10.8111 -15.3099 1.4356 0.5637 -2.3360 28.1096
#
#
#
# Elastic Compliance Matrix: (Units=1/GPa)
#
#
# Indices 1 2 3 4 5 6 
#
# 1 0.014811 0.000376 -0.002303 -0.001516 0.008499 0.006756
# 2 0.000376 0.020406 -0.000293 0.004962 0.005476 0.011630
# 3 -0.002303 -0.000293 0.009399 0.007953 0.003448 -0.001398
# 4 -0.001516 0.004962 0.007953 0.035869 0.001037 0.001080
# 5 0.008499 0.005476 0.003448 0.001037 0.043539 0.009673
# 6 0.006756 0.011630 -0.001398 0.001080 0.009673 0.045361
#
#
# Mechanical properties :
#
#
# Convention : Reuss Voigt Hill
#
# Bulk Modulus (GPa) = 24.89014 45.25141 35.07078
# Shear Modulus (GPa) = 26.70697 35.06943 30.88820
#
# Velocity S-wave (km/s) = 3.35414 3.84356 3.60716
# Velocity P-wave (km/s) = 5.04830 6.22570 5.66766
#
# Compressibility (1/GPa) = 0.04017654
#
# Stress axis : x y z
#
# Youngs Moduli (GPa) = 67.51709 49.00424 106.39723
#
# Poissons Ratio (x) = -0.01843 0.24501
# Poissons Ratio (y) = -0.02540 0.03120
# Poissons Ratio (z) = 0.15548 0.01437
#
# Static dielectric constant tensor:
#      x y z
#    x 1.904750 0.005260 -0.025070 
#    y 0.005260 2.000280 0.014830 
#    z -0.025070 0.014830 1.866550 
# 
# From -- ./inp_files/418587.got.cif
#   From: 2010.05.17/outbox.cif.g08.bks.cpg/sg2_210_cif.got.tgz:418587.got - 2010.06.03 11:33:40.
