data_PCOD9021819
_publ_section_title
;
Structure prediction by ZEFSAII (Michael W. Deem and Ramdas Pophale) SiO2 
 PCOD9021819
Probable space group: P -1
;
_chemical_formula_sum "Si O2"
_cell_formula_units_Z 16
_cell_length_a 28.099962
_cell_length_b 12.069654
_cell_length_c 9.850544
_cell_angle_alpha 140.936725
_cell_angle_beta 151.432761
_cell_angle_gamma 27.669100
_cell_volume 741.842548
_symmetry_space_group_name_H-M "P -1"
_symmetry_group_IT_number 2
_symmetry_cell_setting 'triclinic'
loop_
_space_group_symop_operation_xyz
x,y,z
-x,-y,-z
loop_
_atom_site_type_symbol
_atom_site_label
_atom_site_fract_x
_atom_site_fract_y
_atom_site_fract_z
Si Si1 0.801245 0.596190 0.335557
Si Si2 0.891728 0.828476 0.387815
Si Si3 0.654454 0.645559 0.263477
Si Si4 0.435508 0.188086 0.250841
Si Si5 0.491744 0.506354 0.648318
Si Si6 0.794707 0.983058 0.595689
Si Si7 0.735185 0.680791 0.794239
Si Si8 0.046001 0.872099 0.140044
O O1 0.775702 0.541109 0.364808
O O2 0.765362 0.845794 0.478969
O O3 0.953695 0.397718 0.477003
O O4 0.695510 0.633794 0.003275
O O5 0.861231 0.841614 0.484835
O O6 0.879250 0.050521 0.533325
O O7 0.793281 0.808154 0.049920
O O8 0.691655 0.655256 0.517482
O O9 0.532466 0.923365 0.181769
O O10 0.597959 0.517262 0.984607
O O11 0.507340 0.290172 0.534497
O O12 0.381828 0.189950 0.264066
O O13 0.500000 0.500000 0.500000
O O14 0.340127 0.754893 0.534883
O O15 0.903230 0.974808 0.937720
O O16 0.855513 0.410451 0.890806
O O17 0.000000 0.000000 0.000000
#
# Coordination Sequence:
#
# PCOD9021819 Si02
#       8
#     2   2   2   2   2   2   2   2
#     4  12  21  41  70  93 131 173 223 267 320 387
#     4  11  22  40  68  96 131 169 216 276 326 377
#     4  12  28  43  62 100 138 173 217 268 332 394
#     4  12  23  43  72  94 126 179 224 266 323 390
#     4  12  24  42  70  97 132 172 220 277 322 381
#     4  11  20  39  69 101 124 165 232 277 308 381
#     4  12  25  44  66  99 136 171 215 274 333 385
#     4  10  22  38  66 100 125 164 221 268 314 384
#
# _framework density 21.567920000000001
#
# number of rings (size 3 to 8) (size 9 to 14) (size 15 to 20)
#    0.000    0.500    5.000    5.625    0.000    2.000 
#    0.000    0.625    0.000    0.000    0.000    0.000 
#    0.000    0.000    0.000    0.000    0.000    0.000 
#
# Total GULP energy -89488.274333 kJ/mol
# GULP energy per Si atom -5593.017146 kJ/mol
# Density = 2.151883 g / cm^3
# Si number density = 21.567920 Si / 1000 Ang^3
#
#
#
# Elastic Constant Matrix: (Units=GPa)
#
#
# Indices 1 2 3 4 5 6 
#
# 1 78.7687 1.1740 45.2781 0.5582 10.3657 -19.5401
# 2 1.1740 28.4434 -0.5191 4.5182 10.3890 -5.1559
# 3 45.2781 -0.5191 144.0182 33.8899 23.1385 6.3952
# 4 0.5582 4.5182 33.8899 32.8050 12.6277 12.1647
# 5 10.3657 10.3890 23.1385 12.6277 39.8966 13.9217
# 6 -19.5401 -5.1559 6.3952 12.1647 13.9217 25.6696
#
#
#
# Elastic Compliance Matrix: (Units=1/GPa)
#
#
# Indices 1 2 3 4 5 6 
#
# 1 0.028062 0.012242 -0.007150 -0.001025 -0.018638 0.036195
# 2 0.012242 0.055736 0.002803 -0.015418 -0.029484 0.043113
# 3 -0.007150 0.002803 0.012328 -0.011792 -0.001807 -0.001383
# 4 -0.001025 -0.015418 -0.011792 0.053871 0.004076 -0.028679
# 5 -0.018638 -0.029484 -0.001807 0.004076 0.055351 -0.051610
# 6 0.036195 0.043113 -0.001383 -0.028679 -0.051610 0.117094
#
#
# Mechanical properties :
#
#
# Convention : Reuss Voigt Hill
#
# Bulk Modulus (GPa) = 8.93525 38.12181 23.52853
# Shear Modulus (GPa) = 14.53664 33.36073 23.94869
#
# Velocity S-wave (km/s) = 2.59896 3.93717 3.33586
# Velocity P-wave (km/s) = 3.62739 6.19533 5.07642
#
# Compressibility (1/GPa) = 0.11191627
#
# Stress axis : x y z
#
# Youngs Moduli (GPa) = 35.63588 17.94159 81.11557
#
# Poissons Ratio (x) = -0.21965 0.57997
# Poissons Ratio (y) = -0.43627 -0.22733
# Poissons Ratio (z) = 0.25479 -0.05028
#
# Static dielectric constant tensor:
#      x y z
#    x 1.775080 -0.010870 0.027070 
#    y -0.010870 1.809300 0.016810 
#    z 0.027070 0.016810 1.831330 
# 
# From -- ./inp_files/357102.got.cif
#   From: 2010.05.17/outbox.cif.g08.bks.cpg/sg2_179_cif.got.tgz:357102.got - 2010.06.03 11:33:40.
