data_PCOD9021670
_publ_section_title
;
Structure prediction by ZEFSAII (Michael W. Deem and Ramdas Pophale) SiO2 
 PCOD9021670
Probable space group: P -1
;
_chemical_formula_sum "Si O2"
_cell_formula_units_Z 16
_cell_length_a 15.793551
_cell_length_b 9.407618
_cell_length_c 11.853761
_cell_angle_alpha 83.994409
_cell_angle_beta 93.887965
_cell_angle_gamma 28.276240
_cell_volume 780.472607
_symmetry_space_group_name_H-M "P -1"
_symmetry_group_IT_number 2
_symmetry_cell_setting 'triclinic'
loop_
_space_group_symop_operation_xyz
x,y,z
-x,-y,-z
loop_
_atom_site_type_symbol
_atom_site_label
_atom_site_fract_x
_atom_site_fract_y
_atom_site_fract_z
Si Si1 0.683886 0.631738 0.565045
Si Si2 0.144957 0.692809 0.157708
Si Si3 0.300424 0.261085 0.014168
Si Si4 0.629318 0.166287 0.896566
Si Si5 0.846933 0.123807 0.533603
Si Si6 0.233060 0.909978 0.847590
Si Si7 0.922428 0.898847 0.809876
Si Si8 0.054495 0.267810 0.580315
O O1 0.716621 0.540229 0.704752
O O2 0.678055 0.490446 0.509076
O O3 0.863088 0.462054 0.562951
O O4 0.500000 0.000000 0.500000
O O5 0.108572 0.915641 0.128685
O O6 0.240423 0.471802 0.080209
O O7 0.944688 0.922606 0.152412
O O8 0.123884 0.524125 0.889287
O O9 0.500000 0.000000 0.000000
O O10 0.333691 0.057460 0.090144
O O11 0.411152 0.547653 0.849625
O O12 0.749535 0.058165 0.816901
O O13 0.709749 0.094669 0.032560
O O14 0.916203 0.964055 0.675667
O O15 0.818733 0.027227 0.462850
O O16 0.000000 0.000000 0.500000
O O17 0.159947 0.121342 0.722147
O O18 0.000000 0.500000 0.500000
#
# Coordination Sequence:
#
# PCOD9021670 Si02
#       8
#     2   2   2   2   2   2   2   2
#     4   9  20  39  62  87 120 164 205 258 311 370
#     4  10  22  41  62  89 127 165 210 260 318 385
#     4  12  26  38  61  97 126 165 213 264 323 380
#     4  11  25  41  65  94 126 169 215 269 321 377
#     4   9  21  41  63  91 125 168 207 257 320 379
#     4  10  23  43  64  87 134 169 212 262 328 376
#     4  11  23  41  67  92 128 167 213 264 320 381
#     4  10  22  38  64  91 122 167 212 261 310 375
#
# _framework density 20.500399999999999
#
# number of rings (size 3 to 8) (size 9 to 14) (size 15 to 20)
#    0.000    1.750    1.250    2.250    5.250    6.000 
#    0.000    1.250    0.000    0.000    0.000    0.000 
#    0.000    0.000    0.000    0.000    0.000    0.000 
#
# Total GULP energy -89356.760872 kJ/mol
# GULP energy per Si atom -5584.797554 kJ/mol
# Density = 2.045374 g / cm^3
# Si number density = 20.500400 Si / 1000 Ang^3
#
#
#
# Elastic Constant Matrix: (Units=GPa)
#
#
# Indices 1 2 3 4 5 6 
#
# 1 68.7991 32.2312 22.8043 4.3588 -25.2748 9.9661
# 2 32.2312 117.4346 41.9644 -14.9732 -11.6576 -8.8514
# 3 22.8043 41.9644 84.7825 -1.5875 -23.4923 1.8661
# 4 4.3588 -14.9732 -1.5875 34.1254 1.1298 -4.1191
# 5 -25.2748 -11.6576 -23.4923 1.1298 32.1947 -2.3407
# 6 9.9661 -8.8514 1.8661 -4.1191 -2.3407 32.6758
#
#
#
# Elastic Compliance Matrix: (Units=1/GPa)
#
#
# Indices 1 2 3 4 5 6 
#
# 1 0.026659 -0.008077 0.002202 -0.008709 0.019177 -0.010169
# 2 -0.008077 0.013986 -0.006325 0.007931 -0.005646 0.007209
# 3 0.002202 -0.006325 0.017744 -0.002987 0.012280 -0.002895
# 4 -0.008709 0.007931 -0.002987 0.035056 -0.006727 0.008912
# 5 0.019177 -0.005646 0.012280 -0.006727 0.052895 -0.005139
# 6 -0.010169 0.007209 -0.002895 0.008912 -0.005139 0.036579
#
#
# Mechanical properties :
#
#
# Convention : Reuss Voigt Hill
#
# Bulk Modulus (GPa) = 29.42095 51.66844 40.54470
# Shear Modulus (GPa) = 22.86773 31.40027 27.13400
#
# Velocity S-wave (km/s) = 3.34350 3.91793 3.64206
# Velocity P-wave (km/s) = 5.41183 6.76204 6.12426
#
# Compressibility (1/GPa) = 0.03398939
#
# Stress axis : x y z
#
# Youngs Moduli (GPa) = 37.51057 71.49773 56.35779
#
# Poissons Ratio (x) = 0.57747 -0.12408
# Poissons Ratio (y) = 0.30297 0.35646
# Poissons Ratio (z) = -0.08259 0.45222
#
# Static dielectric constant tensor:
#      x y z
#    x 1.763570 -0.004550 -0.012180 
#    y -0.004550 1.719030 0.028580 
#    z -0.012180 0.028580 1.790150 
# 
# From -- ./inp_files/217484.got.cif
#   From: 2010.05.17/outbox.cif.g08.bks.cpg/sg2_109_cif.got.tgz:217484.got - 2010.06.03 11:33:40.
