data_PCOD9021734
_publ_section_title
;
Structure prediction by ZEFSAII (Michael W. Deem and Ramdas Pophale) SiO2 
 PCOD9021734
Probable space group: P -1
;
_chemical_formula_sum "Si O2"
_cell_formula_units_Z 13
_cell_length_a 9.661828
_cell_length_b 11.928017
_cell_length_c 12.523831
_cell_angle_alpha 144.826949
_cell_angle_beta 141.431139
_cell_angle_gamma 47.539416
_cell_volume 515.748547
_symmetry_space_group_name_H-M "P -1"
_symmetry_group_IT_number 2
_symmetry_cell_setting 'triclinic'
loop_
_space_group_symop_operation_xyz
x,y,z
-x,-y,-z
loop_
_atom_site_type_symbol
_atom_site_label
_atom_site_fract_x
_atom_site_fract_y
_atom_site_fract_z
Si Si1 0.277896 0.470698 0.714918
Si Si2 0.806461 0.362776 0.981804
Si Si3 0.666002 0.341748 0.328533
Si Si4 0.740072 0.052725 0.409275
Si Si5 0.219192 0.510757 0.258467
Si Si6 0.252235 0.053877 0.434782
Si Si7 0.500000 0.000000 0.000000
O O1 0.170435 0.596263 0.846332
O O2 0.265988 0.564319 0.664737
O O3 0.178541 0.263094 0.503603
O O4 0.546193 0.429667 0.858801
O O5 0.961919 0.474557 0.082280
O O6 0.864716 0.135817 0.814750
O O7 0.392421 0.335295 0.179879
O O8 0.729929 0.460046 0.562355
O O9 0.726961 0.112816 0.198422
O O10 0.720217 0.288116 0.601396
O O11 0.566877 0.014382 0.182423
O O12 0.713499 0.932080 0.406695
O O13 0.000000 0.000000 0.500000
O O14 0.500000 0.000000 0.500000
#
# Coordination Sequence:
#
# PCOD9021734 Si02
#       7
#     2   2   2   2   2   2   1
#     4  10  22  40  64  95 131 176 216 272 337 404
#     4  10  22  38  64  98 128 168 224 264 337 400
#     4  10  23  43  65  90 138 172 220 285 335 397
#     4  11  24  42  70 100 135 173 228 280 330 413
#     4  10  22  42  63  99 128 176 224 274 339 395
#     4  10  22  39  63  99 132 170 220 272 330 404
#     4  10  26  42  66 100 132 178 218 282 344 384
#
# _framework density 25.206081999999999
#
# number of rings (size 3 to 8) (size 9 to 14) (size 15 to 20)
#    0.000    1.846    0.000    2.769   10.769    1.846 
#    0.000    0.769    0.000    0.000    0.000    0.000 
#    0.000    0.000    0.000    0.000    0.000    0.000 
#
# Total GULP energy -72504.572268 kJ/mol
# GULP energy per Si atom -5577.274790 kJ/mol
# Density = 2.514871 g / cm^3
# Si number density = 25.206082 Si / 1000 Ang^3
#
#
#
# Elastic Constant Matrix: (Units=GPa)
#
#
# Indices 1 2 3 4 5 6 
#
# 1 127.2053 56.2818 28.6304 -5.4269 1.2266 16.8919
# 2 56.2818 69.7592 20.1750 0.3390 -1.4398 22.9396
# 3 28.6304 20.1750 90.9043 15.1409 -10.1718 -4.7547
# 4 -5.4269 0.3390 15.1409 29.4940 0.0419 15.5861
# 5 1.2266 -1.4398 -10.1718 0.0419 37.5765 0.7962
# 6 16.8919 22.9396 -4.7547 15.5861 0.7962 61.9775
#
#
#
# Elastic Compliance Matrix: (Units=1/GPa)
#
#
# Indices 1 2 3 4 5 6 
#
# 1 0.013074 -0.009129 -0.003199 0.005041 -0.001613 -0.001677
# 2 -0.009129 0.025603 -0.003957 0.004512 0.000382 -0.008432
# 3 -0.003199 -0.003957 0.015690 -0.012048 0.004075 0.006518
# 4 0.005041 0.004512 -0.012048 0.049645 -0.002960 -0.016415
# 5 -0.001613 0.000382 0.004075 -0.002960 0.027765 0.000999
# 6 -0.001677 -0.008432 0.006518 -0.016415 0.000999 0.024328
#
#
# Mechanical properties :
#
#
# Convention : Reuss Voigt Hill
#
# Bulk Modulus (GPa) = 45.87940 55.33814 50.60877
# Shear Modulus (GPa) = 25.51784 37.99503 31.75644
#
# Velocity S-wave (km/s) = 3.18523 3.88671 3.55332
# Velocity P-wave (km/s) = 5.63638 6.49183 6.07917
#
# Compressibility (1/GPa) = 0.02179627
#
# Stress axis : x y z
#
# Youngs Moduli (GPa) = 76.48841 39.05724 63.73465
#
# Poissons Ratio (x) = 0.35656 0.20391
# Poissons Ratio (y) = 0.69827 0.25220
# Poissons Ratio (z) = 0.24472 0.15455
#
# Static dielectric constant tensor:
#      x y z
#    x 1.959280 0.031220 0.066370 
#    y 0.031220 1.813550 -0.115000 
#    z 0.066370 -0.115000 2.055810 
# 
# From -- ./inp_files/237607.got.cif
#   From: 2010.05.17/outbox.cif.g08.bks.cpg/sg2_119_cif.got.tgz:237607.got - 2010.06.03 11:33:40.
