data_PCOD9021717
_publ_section_title
;
Structure prediction by ZEFSAII (Michael W. Deem and Ramdas Pophale) SiO2 
 PCOD9021717
Probable space group: P -1
;
_chemical_formula_sum "Si O2"
_cell_formula_units_Z 16
_cell_length_a 7.862956
_cell_length_b 5.046147
_cell_length_c 28.447907
_cell_angle_alpha 119.499626
_cell_angle_beta 41.469522
_cell_angle_gamma 124.694516
_cell_volume 610.057037
_symmetry_space_group_name_H-M "P -1"
_symmetry_group_IT_number 2
_symmetry_cell_setting 'triclinic'
loop_
_space_group_symop_operation_xyz
x,y,z
-x,-y,-z
loop_
_atom_site_type_symbol
_atom_site_label
_atom_site_fract_x
_atom_site_fract_y
_atom_site_fract_z
Si Si1 0.227255 0.733127 0.575054
Si Si2 0.031347 0.658009 0.956617
Si Si3 0.399642 0.599100 0.797428
Si Si4 0.906404 0.585682 0.836362
Si Si5 0.664734 0.159944 0.671345
Si Si6 0.657846 0.145823 0.930507
Si Si7 0.919274 0.133106 0.713477
Si Si8 0.295794 0.280831 0.454103
O O1 0.276029 0.633166 0.502713
O O2 0.473496 0.735215 0.558240
O O3 0.941797 0.438279 0.619479
O O4 0.163338 0.052736 0.630459
O O5 0.797455 0.498162 0.954205
O O6 0.281477 0.584033 0.873217
O O7 0.000000 0.500000 0.000000
O O8 0.000000 0.000000 0.000000
O O9 0.414808 0.293668 0.737003
O O10 0.179673 0.705200 0.822527
O O11 0.715195 0.824768 0.756306
O O12 0.666285 0.286777 0.887073
O O13 0.982701 0.437520 0.760254
O O14 0.813147 0.888480 0.870879
O O15 0.725454 0.134685 0.710639
O O16 0.624889 0.829695 0.622324
O O17 0.500000 0.000000 0.000000
O O18 0.000000 0.000000 0.500000
#
# Coordination Sequence:
#
# PCOD9021717 Si02
#       8
#     2   2   2   2   2   2   2   2
#     4   9  20  40  61  98 134 180 229 281 353 417
#     4  11  25  42  70  99 135 180 232 299 360 425
#     4  10  25  43  63  97 136 176 237 286 360 426
#     4  11  26  44  68  98 140 184 234 300 353 431
#     4  10  22  38  64  96 131 182 231 287 347 421
#     4  11  26  45  69 101 136 182 236 294 370 430
#     4  11  25  39  67  97 136 186 234 291 357 423
#     4   9  18  39  68  92 138 178 224 289 342 420
#
# _framework density 26.227053999999999
#
# number of rings (size 3 to 8) (size 9 to 14) (size 15 to 20)
#    0.000    1.750    0.000    2.625   12.250    1.500 
#    0.000    5.625    0.000    0.000    0.000    0.000 
#    0.000    0.000    0.000    0.000    0.000    0.000 
#
# Total GULP energy -89145.027524 kJ/mol
# GULP energy per Si atom -5571.564220 kJ/mol
# Density = 2.616736 g / cm^3
# Si number density = 26.227054 Si / 1000 Ang^3
#
#
#
# Elastic Constant Matrix: (Units=GPa)
#
#
# Indices 1 2 3 4 5 6 
#
# 1 59.3419 13.3034 24.4489 15.3865 12.4961 -1.2531
# 2 13.3034 76.2969 81.5051 32.5742 11.9104 0.5564
# 3 24.4489 81.5051 201.9429 29.0494 14.3431 6.2468
# 4 15.3865 32.5742 29.0494 66.6297 10.1811 4.0958
# 5 12.4961 11.9104 14.3431 10.1811 41.8180 4.3817
# 6 -1.2531 0.5564 6.2468 4.0958 4.3817 35.9023
#
#
#
# Elastic Compliance Matrix: (Units=1/GPa)
#
#
# Indices 1 2 3 4 5 6 
#
# 1 0.019388 0.000889 -0.001931 -0.003466 -0.004747 0.001974
# 2 0.000889 0.027949 -0.009937 -0.009270 -0.002847 0.002732
# 3 -0.001931 -0.009937 0.009030 0.001449 0.000132 -0.001666
# 4 -0.003466 -0.009270 0.001449 0.020076 -0.001464 -0.002341
# 5 -0.004747 -0.002847 0.000132 -0.001464 0.026794 -0.003248
# 6 0.001974 0.002732 -0.001666 -0.002341 -0.003248 0.028833
#
#
# Mechanical properties :
#
#
# Convention : Reuss Voigt Hill
#
# Bulk Modulus (GPa) = 29.06265 64.01072 46.53669
# Shear Modulus (GPa) = 30.21181 43.42494 36.81837
#
# Velocity S-wave (km/s) = 3.39770 4.07348 3.75084
# Velocity P-wave (km/s) = 5.14759 6.82522 6.04489
#
# Compressibility (1/GPa) = 0.03440842
#
# Stress axis : x y z
#
# Youngs Moduli (GPa) = 51.57861 35.77949 110.74237
#
# Poissons Ratio (x) = -0.03181 0.21389
# Poissons Ratio (y) = -0.04586 1.10043
# Poissons Ratio (z) = 0.09962 0.35553
#
# Static dielectric constant tensor:
#      x y z
#    x 2.121410 -0.025010 -0.020360 
#    y -0.025010 2.250600 -0.136830 
#    z -0.020360 -0.136830 2.227580 
# 
# From -- ./inp_files/622257.got.cif
#   From: 2010.05.17/outbox.cif.g08.bks.cpg/sg2_312_cif.got.tgz:622257.got - 2010.06.03 11:33:40.
