data_PCOD9021442
_publ_section_title
;
Structure prediction by ZEFSAII (Michael W. Deem and Ramdas Pophale) SiO2 
 PCOD9021442
Probable space group: P -1
;
_chemical_formula_sum "Si O2"
_cell_formula_units_Z 15
_cell_length_a 6.535446
_cell_length_b 15.159322
_cell_length_c 23.298565
_cell_angle_alpha 162.094328
_cell_angle_beta 76.528395
_cell_angle_gamma 94.613754
_cell_volume 608.289282
_symmetry_space_group_name_H-M "P -1"
_symmetry_group_IT_number 2
_symmetry_cell_setting 'triclinic'
loop_
_space_group_symop_operation_xyz
x,y,z
-x,-y,-z
loop_
_atom_site_type_symbol
_atom_site_label
_atom_site_fract_x
_atom_site_fract_y
_atom_site_fract_z
Si Si1 0.802328 0.714452 0.535725
Si Si2 0.802374 0.544591 0.235129
Si Si3 0.609319 0.315289 0.001659
Si Si4 0.500000 0.500000 0.500000
Si Si5 0.701315 0.513135 0.605559
Si Si6 0.191033 0.960097 0.381864
Si Si7 0.713327 0.811857 0.963799
Si Si8 0.714827 0.215665 0.529951
O O1 0.617660 0.600818 0.500311
O O2 0.072563 0.443168 0.362185
O O3 0.773655 0.839640 0.549459
O O4 0.762586 0.022848 0.768395
O O5 0.759296 0.422456 0.101204
O O6 0.536515 0.711233 0.382818
O O7 0.030149 0.246807 0.066533
O O8 0.863055 0.833810 0.427714
O O9 0.425504 0.625738 0.169915
O O10 0.440960 0.209247 0.984977
O O11 0.715894 0.457107 0.502227
O O12 0.715652 0.229234 0.470168
O O13 0.454970 0.840000 0.836362
O O14 0.959839 0.922192 0.355043
O O15 0.738703 0.527695 0.744505
#
# Coordination Sequence:
#
# PCOD9021442 Si02
#       8
#     2   2   2   1   2   2   2   2
#     4  11  25  43  65  93 126 169 207 259 317 369
#     4  10  22  39  64  96 126 164 210 256 318 367
#     4  11  23  40  64  96 129 162 211 258 311 372
#     4  12  24  38  64  88 126 162 210 250 310 374
#     4  11  23  40  63  90 126 166 210 258 311 372
#     4  10  22  43  66  92 127 166 209 256 313 377
#     4  10  22  38  61  94 126 164 209 254 312 372
#     4   9  21  40  63  92 125 164 207 259 313 369
#
# _framework density 24.659319
#
# number of rings (size 3 to 8) (size 9 to 14) (size 15 to 20)
#    0.000    1.600    1.333    2.400    1.867    7.467 
#    0.000    0.000    0.000    6.400    0.000    0.000 
#    0.000    0.000    0.000    0.000    0.000    0.000 
#
# Total GULP energy -83553.300346 kJ/mol
# GULP energy per Si atom -5570.220023 kJ/mol
# Density = 2.460319 g / cm^3
# Si number density = 24.659319 Si / 1000 Ang^3
#
#
#
# Elastic Constant Matrix: (Units=GPa)
#
#
# Indices 1 2 3 4 5 6 
#
# 1 141.8514 38.4230 36.5621 20.7465 -27.1853 -21.9095
# 2 38.4230 113.8782 -3.4056 -0.9911 -7.1459 -7.8723
# 3 36.5621 -3.4056 70.3853 -2.2938 -21.8876 -10.4624
# 4 20.7465 -0.9911 -2.2938 34.4556 -13.7409 -3.0459
# 5 -27.1853 -7.1459 -21.8876 -13.7409 31.5128 6.4165
# 6 -21.9095 -7.8723 -10.4624 -3.0459 6.4165 47.8605
#
#
#
# Elastic Compliance Matrix: (Units=1/GPa)
#
#
# Indices 1 2 3 4 5 6 
#
# 1 0.011016 -0.003612 -0.005083 -0.006053 0.001966 0.002689
# 2 -0.003612 0.010413 0.003705 0.004178 0.003505 0.000665
# 3 -0.005083 0.003705 0.023015 0.011709 0.017189 0.001754
# 4 -0.006053 0.004178 0.011709 0.042497 0.022351 0.000184
# 5 0.001966 0.003505 0.017189 0.022351 0.056085 -0.000862
# 6 0.002689 0.000665 0.001754 0.000184 -0.000862 0.022745
#
#
# Mechanical properties :
#
#
# Convention : Reuss Voigt Hill
#
# Bulk Modulus (GPa) = 29.01628 52.14153 40.57891
# Shear Modulus (GPa) = 26.70387 39.73480 33.21934
#
# Velocity S-wave (km/s) = 3.29433 4.01852 3.67431
# Velocity P-wave (km/s) = 5.12470 6.53620 5.87301
#
# Compressibility (1/GPa) = 0.03446341
#
# Stress axis : x y z
#
# Youngs Moduli (GPa) = 90.78019 96.03246 43.45030
#
# Poissons Ratio (x) = 0.34688 0.22086
# Poissons Ratio (y) = 0.32791 -0.16099
# Poissons Ratio (z) = 0.46144 -0.35581
#
# Static dielectric constant tensor:
#      x y z
#    x 1.787760 0.086090 0.049970 
#    y 0.086090 1.933570 -0.002610 
#    z 0.049970 -0.002610 2.006160 
# 
# From -- ./inp_files/123392.got.cif
#   From: 2010.05.17/outbox.cif.g08.bks.cpg/sg2_62_cif.got.tgz:123392.got - 2010.06.03 11:33:40.
