data_PCOD9021400
_publ_section_title
;
Structure prediction by ZEFSAII (Michael W. Deem and Ramdas Pophale) SiO2 
 PCOD9021400
Probable space group: P -1
;
_chemical_formula_sum "Si O2"
_cell_formula_units_Z 14
_cell_length_a 8.177010
_cell_length_b 5.468802
_cell_length_c 17.299225
_cell_angle_alpha 87.294387
_cell_angle_beta 51.900436
_cell_angle_gamma 105.923356
_cell_volume 560.946975
_symmetry_space_group_name_H-M "P -1"
_symmetry_group_IT_number 2
_symmetry_cell_setting 'triclinic'
loop_
_space_group_symop_operation_xyz
x,y,z
-x,-y,-z
loop_
_atom_site_type_symbol
_atom_site_label
_atom_site_fract_x
_atom_site_fract_y
_atom_site_fract_z
Si Si1 0.237432 0.147899 0.384179
Si Si2 0.074938 0.696617 0.348289
Si Si3 0.841821 0.925274 0.296275
Si Si4 0.387185 0.589000 0.459475
Si Si5 0.007722 0.751327 0.100694
Si Si6 0.251534 0.408285 0.206430
Si Si7 0.750953 0.630161 0.015280
O O1 0.372540 0.377983 0.399991
O O2 0.257003 0.299228 0.294020
O O3 0.257645 0.876426 0.352815
O O4 0.000000 0.000000 0.500000
O O5 0.213331 0.671162 0.234745
O O6 0.923414 0.842262 0.354069
O O7 0.869235 0.440735 0.446565
O O8 0.580488 0.876019 0.379813
O O9 0.877030 0.753012 0.217991
O O10 0.026991 0.219604 0.231812
O O11 0.500000 0.500000 0.500000
O O12 0.836129 0.665162 0.079394
O O13 0.138321 0.553270 0.057209
O O14 0.171454 0.063321 0.038573
O O15 0.483265 0.470455 0.095746
#
# Coordination Sequence:
#
# PCOD9021400 Si02
#       7
#     2   2   2   2   2   2   2
#     4   9  19  37  59  84 120 160 205 257 308 380
#     4   9  21  38  59  90 125 163 208 257 317 383
#     4  10  22  38  61  89 126 164 211 262 318 378
#     4   9  18  38  60  86 123 164 205 258 313 379
#     4  10  23  45  66  95 126 168 220 268 321 382
#     4  11  23  38  61  92 124 163 209 259 324 382
#     4  10  24  43  68  93 129 169 216 268 323 384
#
# _framework density 24.957798
#
# number of rings (size 3 to 8) (size 9 to 14) (size 15 to 20)
#    0.000    2.286    0.000    1.714    6.000    4.000 
#    2.571    2.857    0.000    0.000    0.000    0.000 
#    0.000    0.000    0.000    0.000    0.000    0.000 
#
# Total GULP energy -78026.920126 kJ/mol
# GULP energy per Si atom -5573.351438 kJ/mol
# Density = 2.490099 g / cm^3
# Si number density = 24.957798 Si / 1000 Ang^3
#
#
#
# Elastic Constant Matrix: (Units=GPa)
#
#
# Indices 1 2 3 4 5 6 
#
# 1 61.4222 17.5622 28.1795 -15.0423 8.3141 7.2356
# 2 17.5622 99.8476 25.8855 6.8586 -6.6374 17.1875
# 3 28.1795 25.8855 90.7058 -1.1782 1.2624 11.6767
# 4 -15.0423 6.8586 -1.1782 46.7479 9.4461 3.2026
# 5 8.3141 -6.6374 1.2624 9.4461 39.1737 2.5821
# 6 7.2356 17.1875 11.6767 3.2026 2.5821 33.8074
#
#
#
# Elastic Compliance Matrix: (Units=1/GPa)
#
#
# Indices 1 2 3 4 5 6 
#
# 1 0.023545 -0.003515 -0.005882 0.009588 -0.007613 -0.001548
# 2 -0.003515 0.012496 -0.001945 -0.003504 0.004094 -0.004910
# 3 -0.005882 -0.001945 0.013690 -0.001287 0.000948 -0.002431
# 4 0.009588 -0.003504 -0.001287 0.026884 -0.008959 -0.001688
# 5 -0.007613 0.004094 0.000948 -0.008959 0.030114 -0.002231
# 6 -0.001548 -0.004910 -0.002431 -0.001688 -0.002231 0.033577
#
#
# Mechanical properties :
#
#
# Convention : Reuss Voigt Hill
#
# Bulk Modulus (GPa) = 36.97099 43.91445 40.44272
# Shear Modulus (GPa) = 29.06912 35.96904 32.51908
#
# Velocity S-wave (km/s) = 3.41652 3.80043 3.61357
# Velocity P-wave (km/s) = 5.51444 6.07382 5.80088
#
# Compressibility (1/GPa) = 0.02704823
#
# Stress axis : x y z
#
# Youngs Moduli (GPa) = 42.47143 80.02811 73.04588
#
# Poissons Ratio (x) = 0.28128 0.42966
# Poissons Ratio (y) = 0.14928 0.14204
# Poissons Ratio (z) = 0.24982 0.15562
#
# Static dielectric constant tensor:
#      x y z
#    x 2.089270 -0.104470 0.081000 
#    y -0.104470 2.208830 -0.051840 
#    z 0.081000 -0.051840 2.034010 
# 
# From -- ./inp_files/37147.got.cif
#   From: 2010.05.17/outbox.cif.g08.bks.cpg/sg2_19_cif.got.tgz:37147.got - 2010.06.03 11:33:40.
