data_PCOD9021205
_publ_section_title
;
Structure prediction by ZEFSAII (Michael W. Deem and Ramdas Pophale) SiO2 
 PCOD9021205
Probable space group: P -1
;
_chemical_formula_sum "Si O2"
_cell_formula_units_Z 16
_cell_length_a 5.688953
_cell_length_b 9.323120
_cell_length_c 20.241384
_cell_angle_alpha 50.549938
_cell_angle_beta 84.853821
_cell_angle_gamma 65.757581
_cell_volume 733.205209
_symmetry_space_group_name_H-M "P -1"
_symmetry_group_IT_number 2
_symmetry_cell_setting 'triclinic'
loop_
_space_group_symop_operation_xyz
x,y,z
-x,-y,-z
loop_
_atom_site_type_symbol
_atom_site_label
_atom_site_fract_x
_atom_site_fract_y
_atom_site_fract_z
Si Si1 0.778210 0.427883 0.051267
Si Si2 0.584448 0.672066 0.470638
Si Si3 0.152120 0.701843 0.206847
Si Si4 0.333260 0.095421 0.909843
Si Si5 0.009687 0.664289 0.359015
Si Si6 0.325744 0.531393 0.803635
Si Si7 0.724788 0.976563 0.826002
Si Si8 0.856915 0.981000 0.682796
O O1 0.692059 0.483764 0.112706
O O2 0.500000 0.500000 0.000000
O O3 0.970386 0.179694 0.118748
O O4 0.000000 0.500000 0.000000
O O5 0.500000 0.500000 0.500000
O O6 0.750437 0.566134 0.562767
O O7 0.331344 0.897681 0.408832
O O8 0.771309 0.676288 0.405880
O O9 0.976936 0.675085 0.277710
O O10 0.385188 0.511976 0.217987
O O11 0.304363 0.798620 0.219576
O O12 0.964163 0.866908 0.108454
O O13 0.278966 0.337149 0.838355
O O14 0.519509 0.954411 0.887008
O O15 0.500000 0.000000 0.000000
O O16 0.056267 0.854592 0.332982
O O17 0.100511 0.760854 0.723178
O O18 0.696143 0.944034 0.758959
#
# Coordination Sequence:
#
# PCOD9021205 Si02
#       8
#     2   2   2   2   2   2   2   2
#     4  11  25  41  64  87 122 157 213 267 314 367
#     4   9  17  32  62  89 116 141 192 243 293 368
#     4  10  22  38  58  82 121 155 199 253 302 373
#     4  11  23  36  58  80 116 160 209 245 308 360
#     4   9  18  35  61  90 110 152 192 241 304 362
#     4  10  24  39  56  88 119 160 202 252 311 364
#     4   9  21  37  56  84 112 155 202 248 303 362
#     4   9  18  37  56  84 116 150 195 244 301 359
#
# _framework density 21.821992999999999
#
# number of rings (size 3 to 8) (size 9 to 14) (size 15 to 20)
#    0.000    2.250    0.000    1.500    7.000    3.000 
#    4.500    0.625    0.000    7.500    0.000    0.000 
#    0.000    0.000    0.000    0.000    0.000    0.000 
#
# Total GULP energy -89072.182074 kJ/mol
# GULP energy per Si atom -5567.011380 kJ/mol
# Density = 2.177232 g / cm^3
# Si number density = 21.821993 Si / 1000 Ang^3
#
#
#
# Elastic Constant Matrix: (Units=GPa)
#
#
# Indices 1 2 3 4 5 6 
#
# 1 39.9778 14.4833 23.1860 -0.5896 12.0154 -3.3632
# 2 14.4833 92.7016 26.9855 -8.6000 7.3439 -18.0249
# 3 23.1860 26.9855 96.9106 -10.0292 23.5744 -3.5635
# 4 -0.5896 -8.6000 -10.0292 27.4528 -12.1146 2.7803
# 5 12.0154 7.3439 23.5744 -12.1146 43.9665 -2.7509
# 6 -3.3632 -18.0249 -3.5635 2.7803 -2.7509 19.5904
#
#
#
# Elastic Compliance Matrix: (Units=1/GPa)
#
#
# Indices 1 2 3 4 5 6 
#
# 1 0.031308 -0.002954 -0.005597 -0.005283 -0.006424 0.001486
# 2 -0.002954 0.014643 -0.002995 0.002863 0.001521 0.012229
# 3 -0.005597 -0.002995 0.013829 0.002024 -0.004964 -0.002185
# 4 -0.005283 0.002863 0.002024 0.043345 0.011672 -0.002418
# 5 -0.006424 0.001521 -0.004964 0.011672 0.030248 0.001985
# 6 0.001486 0.012229 -0.002185 -0.002418 0.001985 0.062776
#
#
# Mechanical properties :
#
#
# Convention : Reuss Voigt Hill
#
# Bulk Modulus (GPa) = 27.25735 39.87774 33.56754
# Shear Modulus (GPa) = 21.60094 29.19763 25.39928
#
# Velocity S-wave (km/s) = 3.14963 3.66182 3.41534
# Velocity P-wave (km/s) = 5.07393 6.01601 5.56494
#
# Compressibility (1/GPa) = 0.03668735
#
# Stress axis : x y z
#
# Youngs Moduli (GPa) = 31.94036 68.28983 72.31437
#
# Poissons Ratio (x) = 0.20175 0.40476
# Poissons Ratio (y) = 0.09436 0.21657
# Poissons Ratio (z) = 0.17878 0.20452
#
# Static dielectric constant tensor:
#      x y z
#    x 2.025090 0.005830 -0.057870 
#    y 0.005830 1.780340 -0.019940 
#    z -0.057870 -0.019940 1.921750 
# 
# From -- ./inp_files/43314.got.cif
#   From: 2010.05.17/outbox.cif.g08.bks.cpg/sg2_22_cif.got.tgz:43314.got - 2010.06.03 11:33:40.
