data_PCOD9021704
_publ_section_title
;
Structure prediction by ZEFSAII (Michael W. Deem and Ramdas Pophale) SiO2 
 PCOD9021704
Probable space group: P -1
;
_chemical_formula_sum "Si O2"
_cell_formula_units_Z 13
_cell_length_a 9.903081
_cell_length_b 9.546327
_cell_length_c 9.126744
_cell_angle_alpha 94.896339
_cell_angle_beta 42.275622
_cell_angle_gamma 82.489941
_cell_volume 553.585153
_symmetry_space_group_name_H-M "P -1"
_symmetry_group_IT_number 2
_symmetry_cell_setting 'triclinic'
loop_
_space_group_symop_operation_xyz
x,y,z
-x,-y,-z
loop_
_atom_site_type_symbol
_atom_site_label
_atom_site_fract_x
_atom_site_fract_y
_atom_site_fract_z
Si Si1 0.466078 0.934423 0.178686
Si Si2 0.365024 0.340921 0.459863
Si Si3 0.000000 0.000000 0.500000
Si Si4 0.893996 0.938355 0.894260
Si Si5 0.561290 0.331747 0.981749
Si Si6 0.037853 0.758825 0.170259
Si Si7 0.230052 0.660349 0.723977
O O1 0.221525 0.992191 0.415240
O O2 0.650481 0.959241 0.132585
O O3 0.503802 0.761767 0.100853
O O4 0.500000 0.000000 0.000000
O O5 0.452335 0.314383 0.221788
O O6 0.182811 0.266681 0.625612
O O7 0.275306 0.515352 0.577377
O O8 0.557428 0.294595 0.415549
O O9 0.915253 0.927880 0.700814
O O10 0.045843 0.789334 0.817919
O O11 0.954498 0.087452 0.892511
O O12 0.500000 0.500000 0.000000
O O13 0.812872 0.257542 0.805476
O O14 0.159311 0.635443 0.944702
#
# Coordination Sequence:
#
# PCOD9021704 Si02
#       7
#     2   2   1   2   2   2   2
#     4  10  22  42  62  95 134 163 207 270 320 389
#     4  10  25  44  67  91 136 170 218 269 322 384
#     4  10  22  38  64  94 130 164 206 256 334 372
#     4  11  24  39  69  97 132 165 217 268 324 383
#     4  11  25  42  64 100 132 166 217 265 330 389
#     4  11  23  43  66  94 128 174 218 272 317 380
#     4  10  24  45  64  95 128 175 222 266 318 381
#
# _framework density 23.483288999999999
#
# number of rings (size 3 to 8) (size 9 to 14) (size 15 to 20)
#    0.000    1.538    3.077    0.923    8.615    2.462 
#    0.000    0.000    0.000    0.000    0.000    0.000 
#    0.000    0.000    0.000    0.000    0.000    0.000 
#
# Total GULP energy -72427.866453 kJ/mol
# GULP energy per Si atom -5571.374343 kJ/mol
# Density = 2.342984 g / cm^3
# Si number density = 23.483289 Si / 1000 Ang^3
#
#
#
# Elastic Constant Matrix: (Units=GPa)
#
#
# Indices 1 2 3 4 5 6 
#
# 1 79.0797 36.0010 48.3641 -3.9393 -34.5045 9.7249
# 2 36.0010 106.6024 20.0220 -2.3620 -35.3997 17.2434
# 3 48.3641 20.0220 139.1353 -19.4845 -64.3669 20.7675
# 4 -3.9393 -2.3620 -19.4845 26.8065 13.0260 -5.1499
# 5 -34.5045 -35.3997 -64.3669 13.0260 60.9679 7.2794
# 6 9.7249 17.2434 20.7675 -5.1499 7.2794 43.7901
#
#
#
# Elastic Compliance Matrix: (Units=1/GPa)
#
#
# Indices 1 2 3 4 5 6 
#
# 1 0.019193 -0.003146 -0.003001 -0.003671 0.007033 -0.003201
# 2 -0.003146 0.019171 0.011598 -0.005722 0.024867 -0.017157
# 3 -0.003001 0.011598 0.026222 -0.002119 0.035864 -0.022547
# 4 -0.003671 -0.005722 -0.002119 0.046430 -0.019074 0.012704
# 5 0.007033 0.024867 0.035864 -0.019074 0.082042 -0.044243
# 6 -0.003201 -0.017157 -0.022547 0.012704 -0.044243 0.049845
#
#
# Mechanical properties :
#
#
# Convention : Reuss Voigt Hill
#
# Bulk Modulus (GPa) = 13.24734 59.28795 36.26764
# Shear Modulus (GPa) = 19.44298 41.00826 30.22562
#
# Velocity S-wave (km/s) = 2.88053 4.18338 3.59153
# Velocity P-wave (km/s) = 4.08861 6.97394 5.71632
#
# Compressibility (1/GPa) = 0.07548687
#
# Stress axis : x y z
#
# Youngs Moduli (GPa) = 52.10277 52.16297 38.13649
#
# Poissons Ratio (x) = 0.16410 0.11446
# Poissons Ratio (y) = 0.16391 -0.44231
# Poissons Ratio (z) = 0.15638 -0.60500
#
# Static dielectric constant tensor:
#      x y z
#    x 2.259550 0.414350 0.128040 
#    y 0.414350 2.177470 0.091560 
#    z 0.128040 0.091560 1.864030 
# 
# From -- ./inp_files/414833.got.cif
#   From: 2010.05.17/outbox.cif.g08.bks.cpg/sg2_208_cif.got.tgz:414833.got - 2010.06.03 11:33:40.
