data_PCOD9021605
_publ_section_title
;
Structure prediction by ZEFSAII (Michael W. Deem and Ramdas Pophale) SiO2 
 PCOD9021605
Probable space group: P -1
;
_chemical_formula_sum "Si O2"
_cell_formula_units_Z 14
_cell_length_a 14.121928
_cell_length_b 14.222429
_cell_length_c 9.021523
_cell_angle_alpha 89.811027
_cell_angle_beta 111.089471
_cell_angle_gamma 151.123459
_cell_volume 589.397677
_symmetry_space_group_name_H-M "P -1"
_symmetry_group_IT_number 2
_symmetry_cell_setting 'triclinic'
loop_
_space_group_symop_operation_xyz
x,y,z
-x,-y,-z
loop_
_atom_site_type_symbol
_atom_site_label
_atom_site_fract_x
_atom_site_fract_y
_atom_site_fract_z
Si Si1 0.352915 0.404875 0.264877
Si Si2 0.146914 0.032772 0.528523
Si Si3 0.862376 0.237782 0.978504
Si Si4 0.417335 0.829059 0.261856
Si Si5 0.641874 0.915966 0.115465
Si Si6 0.350951 0.208757 0.127767
Si Si7 0.196859 0.953160 0.300038
O O1 0.500000 0.500000 0.500000
O O2 0.517207 0.642902 0.310753
O O3 0.417959 0.375888 0.188004
O O4 0.003934 0.106378 0.087047
O O5 0.137849 0.948226 0.653232
O O6 0.042170 0.897311 0.315160
O O7 0.000000 0.000000 0.500000
O O8 0.598801 0.073169 0.767908
O O9 0.956370 0.247855 0.902224
O O10 0.781364 0.107789 0.075914
O O11 0.114389 0.529060 0.158317
O O12 0.450318 0.811335 0.118539
O O13 0.655582 0.988814 0.499958
O O14 0.507738 0.718946 0.934400
O O15 0.408707 0.198479 0.309842
#
# Coordination Sequence:
#
# PCOD9021605 Si02
#       7
#     2   2   2   2   2   2   2
#     4  11  22  40  63  85 130 171 218 256 306 371
#     4  11  24  39  60  94 134 171 208 261 317 370
#     4  10  22  43  68  88 128 162 215 259 325 380
#     4  10  22  42  67  93 121 171 201 270 325 368
#     4  10  23  38  62  97 125 159 212 260 310 378
#     4  10  23  39  63  92 120 176 213 260 312 370
#     4  10  22  38  63  94 123 165 213 254 313 381
#
# _framework density 23.753063000000001
#
# number of rings (size 3 to 8) (size 9 to 14) (size 15 to 20)
#    0.000    1.714    1.429    1.714   10.000    2.857 
#    0.000    4.286    0.000   15.429    0.000    0.000 
#    0.000    0.000    0.000    0.000    0.000    0.000 
#
# Total GULP energy -78228.375006 kJ/mol
# GULP energy per Si atom -5587.741072 kJ/mol
# Density = 2.369900 g / cm^3
# Si number density = 23.753063 Si / 1000 Ang^3
#
#
#
# Elastic Constant Matrix: (Units=GPa)
#
#
# Indices 1 2 3 4 5 6 
#
# 1 137.5254 18.3076 31.8684 -17.2998 -6.6513 1.7063
# 2 18.3076 87.5639 43.1225 -15.0943 -3.6504 -15.7581
# 3 31.8684 43.1225 64.1201 -24.8263 4.7612 -0.5020
# 4 -17.2998 -15.0943 -24.8263 39.6866 0.8288 -2.8374
# 5 -6.6513 -3.6504 4.7612 0.8288 39.3435 -10.6270
# 6 1.7063 -15.7581 -0.5020 -2.8374 -10.6270 35.8262
#
#
#
# Elastic Compliance Matrix: (Units=1/GPa)
#
#
# Indices 1 2 3 4 5 6 
#
# 1 0.008441 0.000847 -0.004451 0.001218 0.002196 0.000656
# 2 0.000847 0.020802 -0.015019 -0.000479 0.006843 0.010891
# 3 -0.004451 -0.015019 0.033492 0.012946 -0.008474 -0.007413
# 4 0.001218 -0.000479 0.012946 0.033830 -0.001541 0.002135
# 5 0.002196 0.006843 -0.008474 -0.001541 0.030657 0.011758
# 6 0.000656 0.010891 -0.007413 0.002135 0.011758 0.036225
#
#
# Mechanical properties :
#
#
# Convention : Reuss Voigt Hill
#
# Bulk Modulus (GPa) = 39.23241 52.86737 46.04989
# Shear Modulus (GPa) = 23.90160 36.03199 29.96679
#
# Velocity S-wave (km/s) = 3.17559 3.89902 3.55575
# Velocity P-wave (km/s) = 5.47709 6.52497 6.02385
#
# Compressibility (1/GPa) = 0.02548913
#
# Stress axis : x y z
#
# Youngs Moduli (GPa) = 118.46336 48.07152 29.85755
#
# Poissons Ratio (x) = -0.04070 0.13290
# Poissons Ratio (y) = -0.10030 0.44843
# Poissons Ratio (z) = 0.52729 0.72199
#
# Static dielectric constant tensor:
#      x y z
#    x 1.943400 0.009520 0.022220 
#    y 0.009520 1.906780 0.021360 
#    z 0.022220 0.021360 1.934410 
# 
# From -- ./inp_files/116798.got.cif
#   From: 2010.05.17/outbox.cif.g08.bks.cpg/sg2_59_cif.got.tgz:116798.got - 2010.06.03 11:33:40.
