data_PCOD9021652
_publ_section_title
;
Structure prediction by ZEFSAII (Michael W. Deem and Ramdas Pophale) SiO2 
 PCOD9021652
Probable space group: P -1
;
_chemical_formula_sum "Si O2"
_cell_formula_units_Z 13
_cell_length_a 14.488463
_cell_length_b 8.075215
_cell_length_c 8.322478
_cell_angle_alpha 125.632907
_cell_angle_beta 134.289547
_cell_angle_gamma 77.491354
_cell_volume 535.361531
_symmetry_space_group_name_H-M "P -1"
_symmetry_group_IT_number 2
_symmetry_cell_setting 'triclinic'
loop_
_space_group_symop_operation_xyz
x,y,z
-x,-y,-z
loop_
_atom_site_type_symbol
_atom_site_label
_atom_site_fract_x
_atom_site_fract_y
_atom_site_fract_z
Si Si1 0.609639 0.746228 0.919354
Si Si2 0.375282 0.693101 0.348574
Si Si3 0.157995 0.600678 0.277006
Si Si4 0.875278 0.072675 0.330084
Si Si5 0.000000 0.500000 0.500000
Si Si6 0.272404 0.471256 0.650833
Si Si7 0.448829 0.165074 0.754966
O O1 0.476904 0.705816 0.627732
O O2 0.615620 0.512831 0.853134
O O3 0.590691 0.870101 0.125030
O O4 0.739644 0.864192 0.031585
O O5 0.224528 0.627914 0.199556
O O6 0.411973 0.941511 0.488577
O O7 0.170093 0.813858 0.510188
O O8 0.221542 0.474022 0.407139
O O9 0.000000 0.500000 0.000000
O O10 0.926888 0.256541 0.360175
O O11 0.000000 0.000000 0.500000
O O12 0.863319 0.565460 0.427538
O O13 0.353281 0.300193 0.657258
O O14 0.390236 0.698023 0.966865
#
# Coordination Sequence:
#
# PCOD9021652 Si02
#       7
#     2   2   2   2   1   2   2
#     4  11  22  39  73 101 134 178 232 286 340 421
#     4  11  22  39  69 104 129 176 235 280 346 417
#     4  11  22  40  66  94 136 177 228 279 338 422
#     4  11  22  40  68  98 135 182 228 283 347 408
#     4  10  22  38  64 104 134 180 234 266 350 424
#     4  10  23  41  69 100 141 183 223 295 352 405
#     4  11  21  44  74 101 137 177 233 290 352 411
#
# _framework density 24.282655999999999
#
# number of rings (size 3 to 8) (size 9 to 14) (size 15 to 20)
#    0.000    1.231    3.077    4.154    0.000    1.231 
#    0.000    3.846   23.692    0.000    0.000    0.000 
#    0.000    0.000    0.000    0.000    0.000    0.000 
#
# Total GULP energy -72386.415882 kJ/mol
# GULP energy per Si atom -5568.185837 kJ/mol
# Density = 2.422739 g / cm^3
# Si number density = 24.282656 Si / 1000 Ang^3
#
#
#
# Elastic Constant Matrix: (Units=GPa)
#
#
# Indices 1 2 3 4 5 6 
#
# 1 162.7048 31.2601 36.1053 21.2339 35.9003 8.2349
# 2 31.2601 113.0431 32.0646 16.1382 5.4750 -19.2143
# 3 36.1053 32.0646 67.4283 18.0169 28.4114 5.4554
# 4 21.2339 16.1382 18.0169 40.3039 -5.9786 3.1355
# 5 35.9003 5.4750 28.4114 -5.9786 49.0911 9.8177
# 6 8.2349 -19.2143 5.4554 3.1355 9.8177 40.3914
#
#
#
# Elastic Compliance Matrix: (Units=1/GPa)
#
#
# Indices 1 2 3 4 5 6 
#
# 1 0.008535 -0.001502 0.000414 -0.005060 -0.006839 -0.000455
# 2 -0.001502 0.012191 -0.005639 -0.001874 0.001441 0.006662
# 3 0.000414 -0.005639 0.028157 -0.013005 -0.017282 -0.001360
# 4 -0.005060 -0.001874 -0.013005 0.036953 0.016955 -0.005093
# 5 -0.006839 0.001441 -0.017282 0.016955 0.038531 -0.006268
# 6 -0.000455 0.006662 -0.001360 -0.005093 -0.006268 0.030122
#
#
# Mechanical properties :
#
#
# Convention : Reuss Voigt Hill
#
# Bulk Modulus (GPa) = 28.22370 60.22625 44.22497
# Shear Modulus (GPa) = 27.81621 42.20702 35.01162
#
# Velocity S-wave (km/s) = 3.38822 4.17364 3.80127
# Velocity P-wave (km/s) = 5.19182 6.93410 6.12522
#
# Compressibility (1/GPa) = 0.03543121
#
# Stress axis : x y z
#
# Youngs Moduli (GPa) = 117.16383 82.02781 35.51517
#
# Poissons Ratio (x) = 0.12317 -0.01472
# Poissons Ratio (y) = 0.17593 0.20026
# Poissons Ratio (z) = -0.04855 0.46253
#
# Static dielectric constant tensor:
#      x y z
#    x 1.888240 0.034060 -0.044920 
#    y 0.034060 2.003070 0.035180 
#    z -0.044920 0.035180 1.919730 
# 
# From -- ./inp_files/293612.got.cif
#   From: 2010.05.17/outbox.cif.g08.bks.cpg/sg2_147_cif.got.tgz:293612.got - 2010.06.03 11:33:40.
