data_PCOD9021102
_publ_section_title
;
Structure prediction by ZEFSAII (Michael W. Deem and Ramdas Pophale) SiO2 
 PCOD9021102
Probable space group: P -1
;
_chemical_formula_sum "Si O2"
_cell_formula_units_Z 14
_cell_length_a 14.911237
_cell_length_b 5.599549
_cell_length_c 7.858083
_cell_angle_alpha 69.993805
_cell_angle_beta 62.326545
_cell_angle_gamma 66.423040
_cell_volume 522.585951
_symmetry_space_group_name_H-M "P -1"
_symmetry_group_IT_number 2
_symmetry_cell_setting 'triclinic'
loop_
_space_group_symop_operation_xyz
x,y,z
-x,-y,-z
loop_
_atom_site_type_symbol
_atom_site_label
_atom_site_fract_x
_atom_site_fract_y
_atom_site_fract_z
Si Si1 0.252747 0.875808 0.791628
Si Si2 0.306506 0.080289 0.261132
Si Si3 0.093860 0.317696 0.254598
Si Si4 0.377152 0.613949 0.036665
Si Si5 0.049562 0.906946 0.163783
Si Si6 0.746695 0.626610 0.204488
Si Si7 0.504481 0.797186 0.392408
O O1 0.172134 0.857011 0.018236
O O2 0.237711 0.683965 0.702771
O O3 0.238137 0.184568 0.702549
O O4 0.359399 0.734557 0.833342
O O5 0.178134 0.164856 0.358567
O O6 0.328791 0.366917 0.151900
O O7 0.330381 0.856115 0.147181
O O8 0.399050 0.936362 0.345860
O O9 0.034587 0.620522 0.286363
O O10 0.169445 0.357402 0.018564
O O11 0.027632 0.135093 0.271642
O O12 0.500000 0.500000 0.000000
O O13 0.000000 0.000000 0.000000
O O14 0.624237 0.749271 0.227005
O O15 0.500000 0.500000 0.500000
O O16 0.500000 0.000000 0.500000
#
# Coordination Sequence:
#
# PCOD9021102 Si02
#       7
#     2   2   2   2   2   2   2
#     4  10  17  31  48  80 103 128 175 199 254 313
#     4  12  21  35  52  71 107 133 177 224 244 309
#     4  10  19  33  52  82  98 135 176 206 269 310
#     4  12  19  29  50  78 101 131 172 212 254 290
#     4  10  18  30  48  76 120 138 150 202 266 344
#     4  10  18  34  52  69 105 131 173 220 239 308
#     4  12  26  39  48  71 104 146 186 215 261 298
#
# _framework density 26.789850000000001
#
# number of rings (size 3 to 8) (size 9 to 14) (size 15 to 20)
#    0.000    1.143    5.714    4.286    0.000    0.000 
#    0.000    0.000    0.000    0.000    0.000    0.000 
#    0.000   91.429    0.000    0.000    0.000    0.000 
#
# Total GULP energy -78169.662700 kJ/mol
# GULP energy per Si atom -5583.547336 kJ/mol
# Density = 2.672888 g / cm^3
# Si number density = 26.789850 Si / 1000 Ang^3
#
#
#
# Elastic Constant Matrix: (Units=GPa)
#
#
# Indices 1 2 3 4 5 6 
#
# 1 116.7641 75.8241 37.0925 -8.3076 33.7220 29.0760
# 2 75.8241 269.4441 33.3391 -28.0592 20.4136 87.9024
# 3 37.0925 33.3391 54.9240 -15.5762 5.5050 17.2731
# 4 -8.3076 -28.0592 -15.5762 38.3627 -7.7440 4.7506
# 5 33.7220 20.4136 5.5050 -7.7440 49.5012 9.3731
# 6 29.0760 87.9024 17.2731 4.7506 9.3731 55.2951
#
#
#
# Elastic Compliance Matrix: (Units=1/GPa)
#
#
# Indices 1 2 3 4 5 6 
#
# 1 0.016120 -0.004599 -0.010324 -0.006568 -0.009775 0.004280
# 2 -0.004599 0.011988 0.005548 0.013207 0.003442 -0.020090
# 3 -0.010324 0.005548 0.031156 0.017864 0.007078 -0.015857
# 4 -0.006568 0.013207 0.017864 0.047123 0.009875 -0.028845
# 5 -0.009775 0.003442 0.007078 0.009875 0.027731 -0.008093
# 6 0.004280 -0.020090 -0.015857 -0.028845 -0.008093 0.056574
#
#
# Mechanical properties :
#
#
# Convention : Reuss Voigt Hill
#
# Bulk Modulus (GPa) = 24.68348 81.51595 53.09972
# Shear Modulus (GPa) = 22.42691 48.29023 35.35857
#
# Velocity S-wave (km/s) = 2.89648 4.25026 3.63691
# Velocity P-wave (km/s) = 4.51884 7.38784 6.12373
#
# Compressibility (1/GPa) = 0.04051293
#
# Stress axis : x y z
#
# Youngs Moduli (GPa) = 62.03407 83.41992 32.09690
#
# Poissons Ratio (x) = 0.38362 0.33137
# Poissons Ratio (y) = 0.28528 -0.17806
# Poissons Ratio (z) = 0.64045 -0.46279
#
# Static dielectric constant tensor:
#      x y z
#    x 2.288470 -0.053180 -0.061720 
#    y -0.053180 2.126900 0.020740 
#    z -0.061720 0.020740 2.174960 
# 
# From -- ./inp_files/44987.got.cif
#   From: 2010.05.17/outbox.cif.g08.bks.cpg/sg2_23_cif.got.tgz:44987.got - 2010.06.03 11:33:40.
