data_PCOD9021336
_publ_section_title
;
Structure prediction by ZEFSAII (Michael W. Deem and Ramdas Pophale) SiO2 
 PCOD9021336
Probable space group: P -1
;
_chemical_formula_sum "Si O2"
_cell_formula_units_Z 16
_cell_length_a 14.380306
_cell_length_b 19.298667
_cell_length_c 8.907076
_cell_angle_alpha 62.023068
_cell_angle_beta 109.627255
_cell_angle_gamma 159.742240
_cell_volume 710.620231
_symmetry_space_group_name_H-M "P -1"
_symmetry_group_IT_number 2
_symmetry_cell_setting 'triclinic'
loop_
_space_group_symop_operation_xyz
x,y,z
-x,-y,-z
loop_
_atom_site_type_symbol
_atom_site_label
_atom_site_fract_x
_atom_site_fract_y
_atom_site_fract_z
Si Si1 0.567386 0.570414 0.637172
Si Si2 0.836436 0.050321 0.378380
Si Si3 0.333495 0.239162 0.957741
Si Si4 0.880821 0.253460 0.077593
Si Si5 0.123866 0.380239 0.626136
Si Si6 0.596824 0.323495 0.248911
Si Si7 0.553701 0.947781 0.912328
Si Si8 0.432938 0.698651 0.239251
O O1 0.500000 0.500000 0.500000
O O2 0.464816 0.423299 0.836644
O O3 0.368920 0.496645 0.637808
O O4 0.909259 0.821894 0.583595
O O5 0.951524 0.223448 0.226238
O O6 0.628729 0.900926 0.562556
O O7 0.656853 0.884683 0.306435
O O8 0.441473 0.269024 0.844046
O O9 0.413950 0.254233 0.137588
O O10 0.000000 0.000000 0.000000
O O11 0.665042 0.148008 0.158000
O O12 0.713560 0.100119 0.992937
O O13 0.156378 0.508006 0.911782
O O14 0.220267 0.507596 0.684767
O O15 0.159341 0.456393 0.416532
O O16 0.805434 0.114424 0.762668
O O17 0.391158 0.749522 0.081700
#
# Coordination Sequence:
#
# PCOD9021336 Si02
#       8
#     2   2   2   2   2   2   2   2
#     4  12  23  39  62  88 127 163 196 253 302 362
#     4  10  22  39  64  89 122 164 204 246 303 365
#     4  12  24  38  59  87 127 163 202 248 304 355
#     4   9  18  39  62  92 121 156 203 259 301 357
#     4  10  22  38  61  92 122 162 208 244 302 365
#     4  10  22  38  60  91 121 159 207 250 298 364
#     4   9  19  37  64  90 122 156 205 255 305 353
#     4  10  22  40  59  90 124 159 204 252 299 361
#
# _framework density 22.515543999999998
#
# number of rings (size 3 to 8) (size 9 to 14) (size 15 to 20)
#    0.000    1.750    2.500    1.500    1.750    2.500 
#    0.000    5.625    0.000    3.750    0.000    0.000 
#    0.000    0.000    0.000    0.000    0.000    0.000 
#
# Total GULP energy -89338.021718 kJ/mol
# GULP energy per Si atom -5583.626357 kJ/mol
# Density = 2.246430 g / cm^3
# Si number density = 22.515544 Si / 1000 Ang^3
#
#
#
# Elastic Constant Matrix: (Units=GPa)
#
#
# Indices 1 2 3 4 5 6 
#
# 1 74.4971 13.1067 39.0407 -17.7416 2.9402 20.6266
# 2 13.1067 36.0239 18.7183 -14.9954 -6.2518 5.0528
# 3 39.0407 18.7183 131.8503 -24.8577 2.7947 8.6989
# 4 -17.7416 -14.9954 -24.8577 11.9468 -1.4533 -20.0583
# 5 2.9402 -6.2518 2.7947 -1.4533 25.9707 4.1777
# 6 20.6266 5.0528 8.6989 -20.0583 4.1777 29.6386
#
#
#
# Elastic Compliance Matrix: (Units=1/GPa)
#
#
# Indices 1 2 3 4 5 6 
#
# 1 0.019310 -0.001240 -0.003730 0.006986 -0.000513 -0.007332
# 2 -0.001240 0.021266 -0.008607 -0.040792 0.008577 -0.029052
# 3 -0.003730 -0.008607 0.007335 -0.017185 -0.001880 -0.009455
# 4 0.006986 -0.040792 -0.017185 -0.142240 -0.002439 -0.088783
# 5 -0.000513 0.008577 -0.001880 -0.002439 0.042000 -0.008124
# 6 -0.007332 -0.029052 -0.009455 -0.088783 -0.008124 -0.012370
#
#
# Mechanical properties :
#
#
# Convention : Reuss Voigt Hill
#
# Bulk Modulus (GPa) = 48.17881 42.67807 45.42844
# Shear Modulus (GPa) = -163.26980 24.94491 -69.16245
#
# Velocity S-wave (km/s) = -8.52477 3.33212 -5.54836
# Velocity P-wave (km/s) = 8.68626 5.81379 4.56350
#
# Compressibility (1/GPa) = 0.02075601
#
# Stress axis : x y z
#
# Youngs Moduli (GPa) = 51.78537 47.02310 136.34117
#
# Poissons Ratio (x) = 0.05831 0.50855
# Poissons Ratio (y) = 0.06422 1.17355
# Poissons Ratio (z) = 0.19316 0.40475
#
# Static dielectric constant tensor:
#      x y z
#    x 1.818330 -0.009340 -0.007300 
#    y -0.009340 1.855670 -0.028130 
#    z -0.007300 -0.028130 1.845330 
# 
# From -- ./inp_files/206715.got.cif
#   From: 2010.05.17/outbox.cif.g08.bks.cpg/sg2_104_cif.got.tgz:206715.got - 2010.06.03 11:33:40.
