data_PCOD9021719
_publ_section_title
;
Structure prediction by ZEFSAII (Michael W. Deem and Ramdas Pophale) SiO2 
 PCOD9021719
Probable space group: P -1
;
_chemical_formula_sum "Si O2"
_cell_formula_units_Z 14
_cell_length_a 5.973792
_cell_length_b 16.467313
_cell_length_c 5.968650
_cell_angle_alpha 98.432097
_cell_angle_beta 75.396120
_cell_angle_gamma 94.719564
_cell_volume 561.408539
_symmetry_space_group_name_H-M "P -1"
_symmetry_group_IT_number 2
_symmetry_cell_setting 'triclinic'
loop_
_space_group_symop_operation_xyz
x,y,z
-x,-y,-z
loop_
_atom_site_type_symbol
_atom_site_label
_atom_site_fract_x
_atom_site_fract_y
_atom_site_fract_z
Si Si1 0.081851 0.125120 0.549192
Si Si2 0.678611 0.030586 0.778396
Si Si3 0.354884 0.546491 0.239972
Si Si4 0.440003 0.185718 0.786177
Si Si5 0.061789 0.239015 0.233169
Si Si6 0.657231 0.615428 0.574657
Si Si7 0.249319 0.678209 0.024564
O O1 0.912088 0.090031 0.775633
O O2 0.269600 0.192038 0.623066
O O3 0.953218 0.167645 0.391982
O O4 0.216489 0.048143 0.392441
O O5 0.528916 0.094391 0.706922
O O6 0.500000 0.000000 0.000000
O O7 0.539032 0.604289 0.357596
O O8 0.267916 0.474565 0.400658
O O9 0.500000 0.500000 0.000000
O O10 0.176935 0.600370 0.168309
O O11 0.281120 0.196528 0.050051
O O12 0.641249 0.253606 0.806419
O O13 0.142531 0.316999 0.394627
O O14 0.921398 0.277287 0.080244
O O15 0.448880 0.644234 0.800040
#
# Coordination Sequence:
#
# PCOD9021719 Si02
#       7
#     2   2   2   2   2   2   2
#     4  11  25  44  71 101 135 185 232 282 357 411
#     4  11  24  47  70 102 136 181 230 293 345 416
#     4   9  18  39  63  93 131 181 225 277 345 404
#     4  11  23  44  66  97 134 179 227 286 343 412
#     4  11  23  41  65 100 135 178 232 285 342 420
#     4   9  20  38  64  93 135 177 226 283 341 404
#     4  10  22  38  64  96 134 177 225 285 344 403
#
# _framework density 24.937273000000001
#
# number of rings (size 3 to 8) (size 9 to 14) (size 15 to 20)
#    0.000    1.714    1.429    2.143    0.000    5.714 
#    7.714    6.429    0.000    0.000    0.000    0.000 
#    0.000    0.000    0.000    0.000    0.000    0.000 
#
# Total GULP energy -78176.122340 kJ/mol
# GULP energy per Si atom -5584.008739 kJ/mol
# Density = 2.488051 g / cm^3
# Si number density = 24.937273 Si / 1000 Ang^3
#
#
#
# Elastic Constant Matrix: (Units=GPa)
#
#
# Indices 1 2 3 4 5 6 
#
# 1 80.8190 68.1926 38.9884 -5.2496 10.0494 -4.7778
# 2 68.1926 168.3818 54.8833 -17.5430 22.4901 -15.2432
# 3 38.9884 54.8833 88.8064 4.4166 2.2735 -8.3412
# 4 -5.2496 -17.5430 4.4166 36.7666 -1.8928 4.0289
# 5 10.0494 22.4901 2.2735 -1.8928 54.2325 6.7628
# 6 -4.7778 -15.2432 -8.3412 4.0289 6.7628 34.0125
#
#
#
# Elastic Compliance Matrix: (Units=1/GPa)
#
#
# Indices 1 2 3 4 5 6 
#
# 1 0.020398 -0.006610 -0.004993 0.000461 -0.000658 -0.001245
# 2 -0.006610 0.011031 -0.003728 0.004229 -0.003456 0.003287
# 3 -0.004993 -0.003728 0.016120 -0.004558 0.001407 0.001841
# 4 0.000461 0.004229 -0.004558 0.030109 -0.000264 -0.002671
# 5 -0.000658 -0.003456 0.001407 -0.000264 0.020594 -0.005360
# 6 -0.001245 0.003287 0.001841 -0.002671 -0.005360 0.032533
#
#
# Mechanical properties :
#
#
# Convention : Reuss Voigt Hill
#
# Bulk Modulus (GPa) = 59.22157 73.57066 66.39612
# Shear Modulus (GPa) = 29.92646 36.73185 33.32915
#
# Velocity S-wave (km/s) = 3.46796 3.84209 3.65981
# Velocity P-wave (km/s) = 6.31153 7.01773 6.67398
#
# Compressibility (1/GPa) = 0.01688574
#
# Stress axis : x y z
#
# Youngs Moduli (GPa) = 49.02526 90.65429 62.03399
#
# Poissons Ratio (x) = 0.59925 0.30973
# Poissons Ratio (y) = 0.32407 0.23128
# Poissons Ratio (z) = 0.24478 0.33799
#
# Static dielectric constant tensor:
#      x y z
#    x 2.022230 0.003770 -0.015910 
#    y 0.003770 1.968830 -0.021040 
#    z -0.015910 -0.021040 1.945580 
# 
# From -- ./inp_files/8052.got.cif
#   From: 2010.05.17/outbox.cif.g08.bks.cpg/sg2_5_cif.got.tgz:8052.got - 2010.06.03 11:33:40.
