data_PCOD9021479
_publ_section_title
;
Structure prediction by ZEFSAII (Michael W. Deem and Ramdas Pophale) SiO2 
 PCOD9021479
Probable space group: P -1
;
_chemical_formula_sum "Si O2"
_cell_formula_units_Z 14
_cell_length_a 8.217131
_cell_length_b 25.696123
_cell_length_c 14.932251
_cell_angle_alpha 17.608542
_cell_angle_beta 136.500769
_cell_angle_gamma 144.564067
_cell_volume 528.912261
_symmetry_space_group_name_H-M "P -1"
_symmetry_group_IT_number 2
_symmetry_cell_setting 'triclinic'
loop_
_space_group_symop_operation_xyz
x,y,z
-x,-y,-z
loop_
_atom_site_type_symbol
_atom_site_label
_atom_site_fract_x
_atom_site_fract_y
_atom_site_fract_z
Si Si1 0.809821 0.085127 0.310906
Si Si2 0.803572 0.553338 0.998991
Si Si3 0.326019 0.597053 0.504773
Si Si4 0.900557 0.884018 0.351646
Si Si5 0.257013 0.872303 0.348986
Si Si6 0.360175 0.236025 0.086188
Si Si7 0.305965 0.397627 0.504608
O O1 0.985497 0.316387 0.045809
O O2 0.600373 0.052279 0.201074
O O3 0.616031 0.919648 0.586991
O O4 0.000000 0.000000 0.500000
O O5 0.895438 0.711282 0.694081
O O6 0.500000 0.500000 0.000000
O O7 0.753452 0.338936 0.298995
O O8 0.558610 0.785745 0.356218
O O9 0.532440 0.675180 0.371077
O O10 0.000000 0.500000 0.500000
O O11 0.308788 0.389069 0.870256
O O12 0.088593 0.905055 0.305694
O O13 0.087697 0.096408 0.138053
O O14 0.034445 0.793412 0.305542
O O15 0.637700 0.408958 0.852552
O O16 0.500000 0.500000 0.500000
#
# Coordination Sequence:
#
# PCOD9021479 Si02
#       7
#     2   2   2   2   2   2   2
#     4  11  23  39  59  97 126 157 204 246 314 371
#     4  11  23  37  61  91 127 160 196 255 307 370
#     4   9  20  39  63  84 117 161 203 255 298 354
#     4  10  22  38  62  90 120 161 207 242 316 364
#     4  11  23  38  65  89 124 164 201 255 304 363
#     4   9  22  40  62  86 129 152 204 254 300 366
#     4   9  22  43  61  88 121 160 209 249 302 359
#
# _framework density 26.46942
#
# number of rings (size 3 to 8) (size 9 to 14) (size 15 to 20)
#    0.857    1.143    1.429    1.286    4.000    2.857 
#    0.000    2.857    0.000    0.000    0.000    0.000 
#    0.000    0.000    0.000    0.000    0.000    0.000 
#
# Total GULP energy -78192.814526 kJ/mol
# GULP energy per Si atom -5585.201038 kJ/mol
# Density = 2.640917 g / cm^3
# Si number density = 26.469420 Si / 1000 Ang^3
#
#
#
# Elastic Constant Matrix: (Units=GPa)
#
#
# Indices 1 2 3 4 5 6 
#
# 1 60.8411 25.6050 -0.3994 -5.6036 3.9921 10.2517
# 2 25.6050 232.3267 -3.2973 -44.2810 11.6541 13.4015
# 3 -0.3994 -3.2973 81.8140 -11.4913 11.5165 -0.1178
# 4 -5.6036 -44.2810 -11.4913 38.5882 -6.9147 2.0417
# 5 3.9921 11.6541 11.5165 -6.9147 16.8729 -2.0880
# 6 10.2517 13.4015 -0.1178 2.0417 -2.0880 44.9316
#
#
#
# Elastic Compliance Matrix: (Units=1/GPa)
#
#
# Indices 1 2 3 4 5 6 
#
# 1 0.018018 -0.001423 0.000676 0.000685 -0.003944 -0.003899
# 2 -0.001423 0.006007 0.001512 0.006827 -0.002279 -0.001879
# 3 0.000676 0.001512 0.014212 0.004477 -0.009218 -0.001200
# 4 0.000685 0.006827 0.004477 0.036553 0.006609 -0.003535
# 5 -0.003944 -0.002279 -0.009218 0.006609 0.071340 0.004570
# 6 -0.003899 -0.001879 -0.001200 -0.003535 0.004570 0.024076
#
#
# Mechanical properties :
#
#
# Convention : Reuss Voigt Hill
#
# Bulk Modulus (GPa) = 25.14594 46.53316 35.83955
# Shear Modulus (GPa) = 27.48297 43.61676 35.54986
#
# Velocity S-wave (km/s) = 3.22575 4.06373 3.66875
# Velocity P-wave (km/s) = 4.83679 6.29577 5.61388
#
# Compressibility (1/GPa) = 0.03976785
#
# Stress axis : x y z
#
# Youngs Moduli (GPa) = 55.49874 166.48422 70.36383
#
# Poissons Ratio (x) = 0.23690 -0.04759
# Poissons Ratio (y) = 0.07897 -0.10640
# Poissons Ratio (z) = -0.03754 -0.25175
#
# Static dielectric constant tensor:
#      x y z
#    x 2.085860 0.023160 -0.044020 
#    y 0.023160 2.152290 0.023340 
#    z -0.044020 0.023340 2.146230 
# 
# From -- ./inp_files/508905.got.cif
#   From: 2010.05.17/outbox.cif.g08.bks.cpg/sg2_255_cif.got.tgz:508905.got - 2010.06.03 11:33:40.
