data_PCOD9021544
_publ_section_title
;
Structure prediction by ZEFSAII (Michael W. Deem and Ramdas Pophale) SiO2 
 PCOD9021544
Probable space group: P -1
;
_chemical_formula_sum "Si O2"
_cell_formula_units_Z 16
_cell_length_a 11.917275
_cell_length_b 12.334568
_cell_length_c 5.379591
_cell_angle_alpha 93.805692
_cell_angle_beta 109.166030
_cell_angle_gamma 67.622612
_cell_volume 689.134299
_symmetry_space_group_name_H-M "P -1"
_symmetry_group_IT_number 2
_symmetry_cell_setting 'triclinic'
loop_
_space_group_symop_operation_xyz
x,y,z
-x,-y,-z
loop_
_atom_site_type_symbol
_atom_site_label
_atom_site_fract_x
_atom_site_fract_y
_atom_site_fract_z
Si Si1 0.468956 0.240978 0.383542
Si Si2 0.811218 0.621443 0.709184
Si Si3 0.900865 0.993210 0.634414
Si Si4 0.866548 0.197812 0.962835
Si Si5 0.040211 0.636340 0.216683
Si Si6 0.178932 0.191877 0.649342
Si Si7 0.375627 0.807981 0.028630
Si Si8 0.390239 0.050555 0.134746
O O1 0.329826 0.345937 0.276197
O O2 0.538292 0.259974 0.684606
O O3 0.443354 0.118780 0.383680
O O4 0.548279 0.222645 0.181454
O O5 0.872466 0.488906 0.628366
O O6 0.794673 0.719229 0.502875
O O7 0.919588 0.624821 0.981937
O O8 0.803771 0.934401 0.467115
O O9 0.833506 0.122905 0.711084
O O10 0.000000 0.000000 0.500000
O O11 0.991856 0.894527 0.875073
O O12 0.879153 0.315820 0.901136
O O13 0.756035 0.213868 0.083692
O O14 0.970007 0.740925 0.374180
O O15 0.272195 0.158348 0.945906
O O16 0.342458 0.944004 0.107270
O O17 0.500000 0.000000 0.000000
#
# Coordination Sequence:
#
# PCOD9021544 Si02
#       8
#     2   2   2   2   2   2   2   2
#     4  11  24  45  66 101 134 187 231 284 334 409
#     4  11  24  43  70  92 135 172 240 288 339 398
#     4  11  23  37  64  95 135 179 214 276 347 416
#     4  11  25  42  61  99 138 178 227 275 348 416
#     4  11  24  44  65 100 127 182 229 290 344 395
#     4  12  22  40  67 100 136 175 225 283 348 407
#     4  11  26  42  69  99 143 183 227 276 347 417
#     4  10  22  38  62  98 136 176 220 272 342 404
#
# _framework density 23.217535999999999
#
# number of rings (size 3 to 8) (size 9 to 14) (size 15 to 20)
#    0.000    1.000    3.750    3.000    8.750    0.000 
#    0.000    1.250    0.000    0.000    0.000    0.000 
#    0.000    0.000    0.000    0.000    0.000    0.000 
#
# Total GULP energy -89438.035445 kJ/mol
# GULP energy per Si atom -5589.877215 kJ/mol
# Density = 2.316469 g / cm^3
# Si number density = 23.217536 Si / 1000 Ang^3
#
#
#
# Elastic Constant Matrix: (Units=GPa)
#
#
# Indices 1 2 3 4 5 6 
#
# 1 113.3638 19.4580 14.7874 -12.8942 -7.9153 -17.1131
# 2 19.4580 65.9168 6.9611 -11.3111 2.1074 -21.2845
# 3 14.7874 6.9611 69.2258 -4.7730 2.8935 -2.2527
# 4 -12.8942 -11.3111 -4.7730 17.1774 1.4297 -2.0585
# 5 -7.9153 2.1074 2.8935 1.4297 33.2865 0.7703
# 6 -17.1131 -21.2845 -2.2527 -2.0585 0.7703 21.9346
#
#
#
# Elastic Compliance Matrix: (Units=1/GPa)
#
#
# Indices 1 2 3 4 5 6 
#
# 1 0.011986 0.002736 -0.001695 0.011701 0.002024 0.012859
# 2 0.002736 0.029745 -0.000584 0.025743 -0.003062 0.033461
# 3 -0.001695 -0.000584 0.015126 0.002694 -0.001796 -0.000019
# 4 0.011701 0.025743 0.002694 0.090180 -0.003950 0.042987
# 5 0.002024 -0.003062 -0.001796 -0.003950 0.031113 -0.003040
# 6 0.012859 0.033461 -0.000019 0.042987 -0.003040 0.092232
#
#
# Mechanical properties :
#
#
# Convention : Reuss Voigt Hill
#
# Bulk Modulus (GPa) = 17.30934 36.76883 27.03908
# Shear Modulus (GPa) = 17.31759 28.29969 22.80864
#
# Velocity S-wave (km/s) = 2.73405 3.49505 3.13771
# Velocity P-wave (km/s) = 4.17591 5.67082 4.97978
#
# Compressibility (1/GPa) = 0.05777227
#
# Stress axis : x y z
#
# Youngs Moduli (GPa) = 83.43064 33.61960 66.10961
#
# Poissons Ratio (x) = -0.09199 0.11205
# Poissons Ratio (y) = -0.22829 0.03859
# Poissons Ratio (z) = 0.14140 0.01962
#
# Static dielectric constant tensor:
#      x y z
#    x 1.892860 -0.015370 0.002980 
#    y -0.015370 1.880840 0.040930 
#    z 0.002980 0.040930 1.974720 
# 
# From -- ./inp_files/70775.got.cif
#   From: 2010.05.17/outbox.cif.g08.bks.cpg/sg2_36_cif.got.tgz:70775.got - 2010.06.03 11:33:40.
