data_PCOD9021649
_publ_section_title
;
Structure prediction by ZEFSAII (Michael W. Deem and Ramdas Pophale) SiO2 
 PCOD9021649
Probable space group: P -1
;
_chemical_formula_sum "Si O2"
_cell_formula_units_Z 14
_cell_length_a 8.896284
_cell_length_b 8.533943
_cell_length_c 14.395637
_cell_angle_alpha 36.434705
_cell_angle_beta 99.221193
_cell_angle_gamma 114.130586
_cell_volume 562.962591
_symmetry_space_group_name_H-M "P -1"
_symmetry_group_IT_number 2
_symmetry_cell_setting 'triclinic'
loop_
_space_group_symop_operation_xyz
x,y,z
-x,-y,-z
loop_
_atom_site_type_symbol
_atom_site_label
_atom_site_fract_x
_atom_site_fract_y
_atom_site_fract_z
Si Si1 0.994189 0.699289 0.528473
Si Si2 0.476446 0.687027 0.686003
Si Si3 0.863382 0.313410 0.996738
Si Si4 0.627699 0.654653 0.524314
Si Si5 0.995805 0.072888 0.855290
Si Si6 0.166256 0.704381 0.711893
Si Si7 0.250136 0.250987 0.170859
O O1 0.792562 0.596868 0.564523
O O2 0.117800 0.865610 0.548336
O O3 0.084044 0.961859 0.337064
O O4 0.013207 0.395441 0.674103
O O5 0.536338 0.566163 0.659903
O O6 0.276177 0.548572 0.760206
O O7 0.587045 0.746113 0.763145
O O8 0.500000 0.000000 0.500000
O O9 0.977043 0.485314 0.836394
O O10 0.723679 0.421262 0.951471
O O11 0.000000 0.500000 0.000000
O O12 0.853504 0.991330 0.143326
O O13 0.500000 0.500000 0.500000
O O14 0.710935 0.016806 0.344755
O O15 0.811875 0.827509 0.904728
O O16 0.000000 0.000000 0.000000
#
# Coordination Sequence:
#
# PCOD9021649 Si02
#       7
#     2   2   2   2   2   2   2
#     4  12  22  40  76 100 131 178 238 277 341 405
#     4  10  22  38  64 102 143 168 224 292 344 398
#     4  10  22  44  65  94 132 186 227 272 337 416
#     4  11  24  39  66 107 141 167 227 297 342 395
#     4  11  25  39  65 104 139 167 234 293 333 401
#     4  11  21  42  68  94 140 179 224 270 353 399
#     4  11  22  43  72 100 130 188 234 277 345 408
#
# _framework density 24.868438000000001
#
# number of rings (size 3 to 8) (size 9 to 14) (size 15 to 20)
#    0.000    1.143    5.714    1.714    4.000    1.143 
#    0.000    2.857    0.000    1.714    0.000    0.000 
#    0.000    0.000    0.000    0.000    0.000    0.000 
#
# Total GULP energy -77971.914557 kJ/mol
# GULP energy per Si atom -5569.422468 kJ/mol
# Density = 2.481184 g / cm^3
# Si number density = 24.868438 Si / 1000 Ang^3
#
#
#
# Elastic Constant Matrix: (Units=GPa)
#
#
# Indices 1 2 3 4 5 6 
#
# 1 100.8870 42.8958 39.1405 3.3406 38.2714 18.5069
# 2 42.8958 130.9015 31.5423 3.8314 22.8460 5.5426
# 3 39.1405 31.5423 108.2719 0.8042 23.0169 -10.2508
# 4 3.3406 3.8314 0.8042 65.4394 -2.7995 15.0802
# 5 38.2714 22.8460 23.0169 -2.7995 44.9249 -3.8091
# 6 18.5069 5.5426 -10.2508 15.0802 -3.8091 36.1997
#
#
#
# Elastic Compliance Matrix: (Units=1/GPa)
#
#
# Indices 1 2 3 4 5 6 
#
# 1 0.021392 -0.002535 -0.005085 0.001765 -0.015436 -0.014348
# 2 -0.002535 0.009166 -0.001412 -0.000340 -0.001847 -0.000560
# 3 -0.005085 -0.001412 0.012303 -0.001410 -0.000764 0.006807
# 4 0.001765 -0.000340 -0.001410 0.017159 -0.000253 -0.008424
# 5 -0.015436 -0.001847 -0.000764 -0.000253 0.037745 0.012035
# 6 -0.014348 -0.000560 0.006807 -0.008424 0.012035 0.041749
#
#
# Mechanical properties :
#
#
# Convention : Reuss Voigt Hill
#
# Bulk Modulus (GPa) = 40.32599 63.02419 51.67509
# Shear Modulus (GPa) = 30.14918 44.41159 37.28039
#
# Velocity S-wave (km/s) = 3.48566 4.23053 3.87603
# Velocity P-wave (km/s) = 5.69655 7.01864 6.39187
#
# Compressibility (1/GPa) = 0.02479790
#
# Stress axis : x y z
#
# Youngs Moduli (GPa) = 46.74723 109.09581 81.28203
#
# Poissons Ratio (x) = 0.27654 0.41330
# Poissons Ratio (y) = 0.11850 0.11475
# Poissons Ratio (z) = 0.23770 0.15402
#
# Static dielectric constant tensor:
#      x y z
#    x 2.574420 -0.589980 -0.585460 
#    y -0.589980 2.674570 0.535830 
#    z -0.585460 0.535830 2.649580 
# 
# From -- ./inp_files/494330.got.cif
#   From: 2010.05.17/outbox.cif.g08.bks.cpg/sg2_248_cif.got.tgz:494330.got - 2010.06.03 11:33:40.
