data_PCOD9021510
_publ_section_title
;
Structure prediction by ZEFSAII (Michael W. Deem and Ramdas Pophale) SiO2 
 PCOD9021510
Probable space group: P -1
;
_chemical_formula_sum "Si O2"
_cell_formula_units_Z 14
_cell_length_a 12.313150
_cell_length_b 18.205019
_cell_length_c 5.373951
_cell_angle_alpha 120.791029
_cell_angle_beta 116.363630
_cell_angle_gamma 38.726770
_cell_volume 645.150786
_symmetry_space_group_name_H-M "P -1"
_symmetry_group_IT_number 2
_symmetry_cell_setting 'triclinic'
loop_
_space_group_symop_operation_xyz
x,y,z
-x,-y,-z
loop_
_atom_site_type_symbol
_atom_site_label
_atom_site_fract_x
_atom_site_fract_y
_atom_site_fract_z
Si Si1 0.795255 0.064760 0.694719
Si Si2 0.211510 0.840964 0.654062
Si Si3 0.316691 0.202556 0.161746
Si Si4 0.628722 0.976501 0.391452
Si Si5 0.897745 0.603903 0.367196
Si Si6 0.475743 0.568447 0.346976
Si Si7 0.737362 0.587392 0.788058
O O1 0.733946 0.125086 0.461753
O O2 0.739636 0.000534 0.629512
O O3 0.727275 0.163108 0.012871
O O4 0.003764 0.953730 0.675017
O O5 0.288460 0.710626 0.424675
O O6 0.507513 0.080291 0.234334
O O7 0.192010 0.268742 0.386970
O O8 0.304508 0.302732 0.207222
O O9 0.260889 0.156962 0.838831
O O10 0.500000 0.000000 0.500000
O O11 0.000000 0.500000 0.500000
O O12 0.059274 0.544717 0.252107
O O13 0.744327 0.620910 0.134091
O O14 0.500000 0.500000 0.500000
O O15 0.614355 0.576033 0.540463
O O16 0.500000 0.500000 0.000000
#
# Coordination Sequence:
#
# PCOD9021510 Si02
#       7
#     2   2   2   2   2   2   2
#     4  10  23  43  73  95 134 176 229 272 333 406
#     4  10  23  47  70  96 128 186 225 272 338 399
#     4  10  22  38  62  93 128 172 209 264 335 398
#     4  11  24  37  58 104 131 164 216 275 337 391
#     4   9  20  39  66  91 120 174 218 261 332 399
#     4  12  28  44  68 103 135 177 230 285 340 394
#     4  10  22  42  65  92 130 175 221 271 330 409
#
# _framework density 21.700354000000001
#
# number of rings (size 3 to 8) (size 9 to 14) (size 15 to 20)
#    0.000    1.714    0.000    2.571   12.000    1.143 
#    7.714    0.000    0.000    0.000    0.000    0.000 
#    0.000    0.000    0.000    0.000    0.000    0.000 
#
# Total GULP energy -77976.814965 kJ/mol
# GULP energy per Si atom -5569.772498 kJ/mol
# Density = 2.165096 g / cm^3
# Si number density = 21.700354 Si / 1000 Ang^3
#
#
#
# Elastic Constant Matrix: (Units=GPa)
#
#
# Indices 1 2 3 4 5 6 
#
# 1 71.6363 24.8491 39.6282 4.6926 -1.5483 26.4721
# 2 24.8491 75.1749 41.4505 14.1601 -3.3982 11.6286
# 3 39.6282 41.4505 155.4328 26.7845 -22.5271 5.4140
# 4 4.6926 14.1601 26.7845 44.8649 0.8973 -2.6809
# 5 -1.5483 -3.3982 -22.5271 0.8973 28.7643 0.6391
# 6 26.4721 11.6286 5.4140 -2.6809 0.6391 27.2174
#
#
#
# Elastic Compliance Matrix: (Units=1/GPa)
#
#
# Indices 1 2 3 4 5 6 
#
# 1 0.026621 -0.002029 -0.005822 -0.000034 -0.002837 -0.023804
# 2 -0.002029 0.017256 -0.003374 -0.003512 -0.000491 -0.005062
# 3 -0.005822 -0.003374 0.010542 -0.004509 0.007587 0.004385
# 4 -0.000034 -0.003512 -0.004509 0.026499 -0.004889 0.005156
# 5 -0.002837 -0.000491 0.007587 -0.004889 0.040649 0.000023
# 6 -0.023804 -0.005062 0.004385 0.005156 0.000023 0.061691
#
#
# Mechanical properties :
#
#
# Convention : Reuss Voigt Hill
#
# Bulk Modulus (GPa) = 31.28089 57.12218 44.20153
# Shear Modulus (GPa) = 23.10911 33.25708 28.18309
#
# Velocity S-wave (km/s) = 3.26685 3.91904 3.60771
# Velocity P-wave (km/s) = 5.35499 6.84535 6.14552
#
# Compressibility (1/GPa) = 0.03196840
#
# Stress axis : x y z
#
# Youngs Moduli (GPa) = 37.56375 57.95125 94.86075
#
# Poissons Ratio (x) = 0.11759 0.55231
# Poissons Ratio (y) = 0.07622 0.32006
# Poissons Ratio (z) = 0.21871 0.19553
#
# Static dielectric constant tensor:
#      x y z
#    x 1.848920 -0.019940 -0.039310 
#    y -0.019940 1.809400 -0.041050 
#    z -0.039310 -0.041050 1.891710 
# 
# From -- ./inp_files/81730.got.cif
#   From: 2010.05.17/outbox.cif.g08.bks.cpg/sg2_41_cif.got.tgz:81730.got - 2010.06.03 11:33:40.
