data_PCOD9021598
_publ_section_title
;
Structure prediction by ZEFSAII (Michael W. Deem and Ramdas Pophale) SiO2 
 PCOD9021598
Probable space group: P -1
;
_chemical_formula_sum "Si O2"
_cell_formula_units_Z 12
_cell_length_a 9.136246
_cell_length_b 8.789882
_cell_length_c 13.138407
_cell_angle_alpha 147.089195
_cell_angle_beta 103.439401
_cell_angle_gamma 68.654809
_cell_volume 528.338047
_symmetry_space_group_name_H-M "P -1"
_symmetry_group_IT_number 2
_symmetry_cell_setting 'triclinic'
loop_
_space_group_symop_operation_xyz
x,y,z
-x,-y,-z
loop_
_atom_site_type_symbol
_atom_site_label
_atom_site_fract_x
_atom_site_fract_y
_atom_site_fract_z
Si Si1 0.544265 0.801747 0.669160
Si Si2 0.849433 0.406118 0.400902
Si Si3 0.914512 0.773854 0.068752
Si Si4 0.283832 0.376863 0.209939
Si Si5 0.073914 0.534878 0.768986
Si Si6 0.368192 0.976416 0.547514
O O1 0.500000 0.500000 0.500000
O O2 0.702419 0.684184 0.561266
O O3 0.600134 0.848979 0.818435
O O4 0.420950 0.022853 0.698123
O O5 0.853421 0.343042 0.245455
O O6 0.000000 0.500000 0.500000
O O7 0.864577 0.101125 0.288627
O O8 0.043637 0.737224 0.978043
O O9 0.000000 0.500000 0.000000
O O10 0.757859 0.742803 0.971112
O O11 0.346843 0.652894 0.358625
O O12 0.104393 0.479886 0.287245
O O13 0.199051 0.216949 0.632810
O O14 0.500000 0.000000 0.500000
#
# Coordination Sequence:
#
# PCOD9021598 Si02
#       6
#     2   2   2   2   2   2
#     4  10  22  38  63  93 129 167 205 259 320 383
#     4  12  22  40  70  94 121 170 220 261 313 382
#     4  10  25  39  66  94 127 164 222 267 314 360
#     4   9  22  41  61  91 128 170 210 257 316 375
#     4  10  22  39  64  92 129 162 218 264 311 374
#     4  11  21  37  66 100 127 166 213 258 318 380
#
# _framework density 22.712729
#
# number of rings (size 3 to 8) (size 9 to 14) (size 15 to 20)
#    1.000    0.667    3.333    1.000    7.000    0.000 
#    0.000    3.333    3.667    3.000    0.000    0.000 
#    0.000    0.000    0.000    0.000    0.000    0.000 
#
# Total GULP energy -66913.969752 kJ/mol
# GULP energy per Si atom -5576.164146 kJ/mol
# Density = 2.266103 g / cm^3
# Si number density = 22.712729 Si / 1000 Ang^3
#
#
#
# Elastic Constant Matrix: (Units=GPa)
#
#
# Indices 1 2 3 4 5 6 
#
# 1 78.9421 9.9461 -10.3877 -0.7677 9.4652 -5.4139
# 2 9.9461 141.8923 22.8467 -1.8343 10.5984 -18.5331
# 3 -10.3877 22.8467 58.3844 -0.0263 11.6418 -9.3897
# 4 -0.7677 -1.8343 -0.0263 31.9938 -2.2294 1.7685
# 5 9.4652 10.5984 11.6418 -2.2294 24.4273 -7.4780
# 6 -5.4139 -18.5331 -9.3897 1.7685 -7.4780 32.2007
#
#
#
# Elastic Compliance Matrix: (Units=1/GPa)
#
#
# Indices 1 2 3 4 5 6 
#
# 1 0.014321 -0.001026 0.004563 -0.000274 -0.006820 0.001579
# 2 -0.001026 0.008060 -0.002620 0.000188 -0.000757 0.003516
# 3 0.004563 -0.002620 0.021473 -0.000896 -0.009949 0.003259
# 4 -0.000274 0.000188 -0.000896 0.031534 0.002948 -0.001246
# 5 -0.006820 -0.000757 -0.009949 0.002948 0.051133 0.007229
# 6 0.001579 0.003516 0.003259 -0.001246 0.007229 0.036042
#
#
# Mechanical properties :
#
#
# Convention : Reuss Voigt Hill
#
# Bulk Modulus (GPa) = 21.88827 36.00324 28.94576
# Shear Modulus (GPa) = 28.41607 34.84527 31.63067
#
# Velocity S-wave (km/s) = 3.54094 3.92110 3.73586
# Velocity P-wave (km/s) = 5.13572 6.03208 5.60186
#
# Compressibility (1/GPa) = 0.04568658
#
# Stress axis : x y z
#
# Youngs Moduli (GPa) = 69.82919 124.07526 46.57081
#
# Poissons Ratio (x) = 0.12736 -0.21252
# Poissons Ratio (y) = 0.07168 0.12202
# Poissons Ratio (z) = -0.31865 0.32508
#
# Static dielectric constant tensor:
#      x y z
#    x 1.843920 0.056840 -0.045670 
#    y 0.056840 1.938040 -0.085110 
#    z -0.045670 -0.085110 1.879430 
# 
# From -- ./inp_files/260513.got.cif
#   From: 2010.05.17/outbox.cif.g08.bks.cpg/sg2_131_cif.got.tgz:260513.got - 2010.06.03 11:33:40.
