data_PCOD9021308
_publ_section_title
;
Structure prediction by ZEFSAII (Michael W. Deem and Ramdas Pophale) SiO2 
 PCOD9021308
Probable space group: P -1
;
_chemical_formula_sum "Si O2"
_cell_formula_units_Z 16
_cell_length_a 17.752546
_cell_length_b 9.897746
_cell_length_c 5.225856
_cell_angle_alpha 92.246784
_cell_angle_beta 58.155360
_cell_angle_gamma 79.368498
_cell_volume 756.312861
_symmetry_space_group_name_H-M "P -1"
_symmetry_group_IT_number 2
_symmetry_cell_setting 'triclinic'
loop_
_space_group_symop_operation_xyz
x,y,z
-x,-y,-z
loop_
_atom_site_type_symbol
_atom_site_label
_atom_site_fract_x
_atom_site_fract_y
_atom_site_fract_z
Si Si1 0.769065 0.053861 0.161025
Si Si2 0.948812 0.122404 0.800965
Si Si3 0.284812 0.362722 0.055880
Si Si4 0.282937 0.788695 0.255155
Si Si5 0.863303 0.361578 0.632553
Si Si6 0.561975 0.470526 0.136832
Si Si7 0.032236 0.333577 0.989518
Si Si8 0.753170 0.763328 0.376146
O O1 0.706187 0.160700 0.475871
O O2 0.746249 0.911439 0.272157
O O3 0.875022 0.047055 0.053121
O O4 0.752131 0.095112 0.895444
O O5 0.875363 0.262573 0.847530
O O6 0.015140 0.204322 0.834308
O O7 0.000000 0.000000 0.500000
O O8 0.187367 0.478490 0.238411
O O9 0.277475 0.250614 0.278675
O O10 0.364938 0.434837 0.991073
O O11 0.298805 0.313155 0.735760
O O12 0.204838 0.702623 0.418928
O O13 0.375095 0.686022 0.986352
O O14 0.966067 0.328462 0.345520
O O15 0.500000 0.500000 0.500000
O O16 0.500000 0.500000 0.000000
O O17 0.139091 0.307310 0.834985
O O18 0.000000 0.500000 0.000000
#
# Coordination Sequence:
#
# PCOD9021308 Si02
#       8
#     2   2   2   2   2   2   2   2
#     4  11  23  41  63  91 133 187 227 263 333 389
#     4  11  25  38  60  89 135 184 247 296 319 385
#     4  11  25  44  65  99 134 167 217 280 341 405
#     4  10  22  41  67  96 131 162 217 280 326 396
#     4  10  22  38  60  87 128 177 223 281 332 377
#     4  11  23  44  79 106 127 160 211 276 349 417
#     4  12  24  38  61  90 136 185 241 283 338 378
#     4  12  26  39  65  92 139 185 224 270 333 396
#
# _framework density 21.155268
#
# number of rings (size 3 to 8) (size 9 to 14) (size 15 to 20)
#    0.000    1.000    2.500    3.750    7.000    4.000 
#    0.000    0.000    0.000   15.000    0.000    0.000 
#    0.000    0.000    0.000    0.000    0.000    0.000 
#
# Total GULP energy -89147.139878 kJ/mol
# GULP energy per Si atom -5571.696242 kJ/mol
# Density = 2.110712 g / cm^3
# Si number density = 21.155268 Si / 1000 Ang^3
#
#
#
# Elastic Constant Matrix: (Units=GPa)
#
#
# Indices 1 2 3 4 5 6 
#
# 1 91.3901 8.7854 6.2487 2.0810 1.4169 7.7052
# 2 8.7854 60.2402 -1.6656 -6.8677 4.2951 2.9308
# 3 6.2487 -1.6656 94.9783 -0.4709 -1.3181 -1.2686
# 4 2.0810 -6.8677 -0.4709 25.0459 -2.0267 5.3822
# 5 1.4169 4.2951 -1.3181 -2.0267 31.7950 1.2499
# 6 7.7052 2.9308 -1.2686 5.3822 1.2499 23.0126
#
#
#
# Elastic Compliance Matrix: (Units=1/GPa)
#
#
# Indices 1 2 3 4 5 6 
#
# 1 0.011467 -0.001584 -0.000836 -0.000666 -0.000236 -0.003515
# 2 -0.001584 0.017738 0.000378 0.005474 -0.001847 -0.002888
# 3 -0.000836 0.000378 0.010607 0.000248 0.000413 0.000736
# 4 -0.000666 0.005474 0.000248 0.044034 0.002536 -0.010897
# 5 -0.000236 -0.001847 0.000413 0.002536 0.031969 -0.001992
# 6 -0.003515 -0.002888 0.000736 -0.010897 -0.001992 0.047696
#
#
# Mechanical properties :
#
#
# Convention : Reuss Voigt Hill
#
# Bulk Modulus (GPa) = 27.98809 30.37175 29.17992
# Shear Modulus (GPa) = 27.85465 31.52004 29.68734
#
# Velocity S-wave (km/s) = 3.63254 3.86416 3.75014
# Velocity P-wave (km/s) = 5.55449 5.85634 5.70741
#
# Compressibility (1/GPa) = 0.03572949
#
# Stress axis : x y z
#
# Youngs Moduli (GPa) = 87.20937 56.37665 94.27633
#
# Poissons Ratio (x) = 0.08927 0.07879
# Poissons Ratio (y) = 0.13810 -0.03565
# Poissons Ratio (z) = 0.07288 -0.02132
#
# Static dielectric constant tensor:
#      x y z
#    x 1.780300 0.027740 0.071990 
#    y 0.027740 1.874120 -0.024960 
#    z 0.071990 -0.024960 1.760480 
# 
# From -- ./inp_files/90757.got.cif
#   From: 2010.05.17/outbox.cif.g08.bks.cpg/sg2_46_cif.got.tgz:90757.got - 2010.06.03 11:33:40.
