data_PCOD9021312
_publ_section_title
;
Structure prediction by ZEFSAII (Michael W. Deem and Ramdas Pophale) SiO2 
 PCOD9021312
Probable space group: P -1
;
_chemical_formula_sum "Si O2"
_cell_formula_units_Z 14
_cell_length_a 14.708397
_cell_length_b 5.346485
_cell_length_c 14.259893
_cell_angle_alpha 103.014069
_cell_angle_beta 141.789002
_cell_angle_gamma 66.040357
_cell_volume 625.060385
_symmetry_space_group_name_H-M "P -1"
_symmetry_group_IT_number 2
_symmetry_cell_setting 'triclinic'
loop_
_space_group_symop_operation_xyz
x,y,z
-x,-y,-z
loop_
_atom_site_type_symbol
_atom_site_label
_atom_site_fract_x
_atom_site_fract_y
_atom_site_fract_z
Si Si1 0.614980 0.041277 0.824944
Si Si2 0.655695 0.877939 0.050221
Si Si3 0.322180 0.586457 0.400384
Si Si4 0.898449 0.807743 0.403085
Si Si5 0.232370 0.551026 0.051322
Si Si6 0.136444 0.198523 0.259766
Si Si7 0.717146 0.969778 0.453615
O O1 0.434521 0.107217 0.658592
O O2 0.631232 0.068955 0.953592
O O3 0.705127 0.713262 0.852739
O O4 0.696291 0.219623 0.854327
O O5 0.809999 0.830742 0.234408
O O6 0.694030 0.587873 0.001698
O O7 0.500000 0.000000 0.000000
O O8 0.500000 0.500000 0.500000
O O9 0.246698 0.355018 0.324640
O O10 0.320206 0.720006 0.513541
O O11 0.210565 0.865933 0.278761
O O12 0.000000 0.500000 0.500000
O O13 0.760607 0.938173 0.378955
O O14 0.000000 0.000000 0.500000
O O15 0.043322 0.670229 0.907367
O O16 0.142738 0.219544 0.380732
#
# Coordination Sequence:
#
# PCOD9021312 Si02
#       7
#     2   2   2   2   2   2   2
#     4  10  23  38  59  85 123 167 205 245 303 369
#     4  10  23  40  56  83 126 169 210 242 303 356
#     4  10  23  41  69  96 120 156 209 262 317 375
#     4  12  27  38  59  91 128 164 212 258 297 359
#     4  10  22  38  60  88 121 164 202 246 305 360
#     4  10  22  38  69  90 122 153 210 255 314 364
#     4  10  25  39  64  91 125 164 210 255 310 364
#
# _framework density 22.397836000000002
#
# number of rings (size 3 to 8) (size 9 to 14) (size 15 to 20)
#    1.714    0.000    1.429    2.143   10.000    1.714 
#    0.000    0.000    0.000    5.143    0.000    0.000 
#    0.000    0.000    0.000    0.000    0.000    0.000 
#
# Total GULP energy -78115.002888 kJ/mol
# GULP energy per Si atom -5579.643063 kJ/mol
# Density = 2.234686 g / cm^3
# Si number density = 22.397836 Si / 1000 Ang^3
#
#
#
# Elastic Constant Matrix: (Units=GPa)
#
#
# Indices 1 2 3 4 5 6 
#
# 1 44.7862 25.2455 5.9184 -5.3946 -1.6871 7.6598
# 2 25.2455 59.2499 14.5828 -29.5456 -1.5830 52.4896
# 3 5.9184 14.5828 83.6965 1.5008 9.1502 5.9701
# 4 -5.3946 -29.5456 1.5008 16.7027 -16.8313 20.9927
# 5 -1.6871 -1.5830 9.1502 -16.8313 42.1029 19.7552
# 6 7.6598 52.4896 5.9701 20.9927 19.7552 33.8822
#
#
#
# Elastic Compliance Matrix: (Units=1/GPa)
#
#
# Indices 1 2 3 4 5 6 
#
# 1 0.027259 -0.006199 -0.001269 0.005618 0.004536 -0.002462
# 2 -0.006199 0.004713 0.000331 -0.014058 -0.009712 0.008415
# 3 -0.001269 0.000331 0.012252 0.001200 -0.001038 -0.002523
# 4 0.005618 -0.014058 0.001200 0.009052 -0.005283 0.017769
# 5 0.004536 -0.009712 -0.001038 -0.005283 0.018559 0.006655
# 6 -0.002462 0.008415 -0.002523 0.017769 0.006655 0.002589
#
#
# Mechanical properties :
#
#
# Convention : Reuss Voigt Hill
#
# Bulk Modulus (GPa) = 33.38856 31.02510 32.20683
# Shear Modulus (GPa) = 50.66920 28.00328 39.33624
#
# Velocity S-wave (km/s) = 4.76146 3.53975 4.19531
# Velocity P-wave (km/s) = 6.72072 5.53067 6.15453
#
# Compressibility (1/GPa) = 0.02995038
#
# Stress axis : x y z
#
# Youngs Moduli (GPa) = 36.68552 212.19663 81.62008
#
# Poissons Ratio (x) = 1.31533 0.10354
# Poissons Ratio (y) = 0.22740 -0.02700
# Poissons Ratio (z) = 0.04654 -0.07019
#
# Static dielectric constant tensor:
#      x y z
#    x 1.851560 -0.031270 -0.022350 
#    y -0.031270 1.838230 -0.003340 
#    z -0.022350 -0.003340 1.807230 
# 
# From -- ./inp_files/525394.got.cif
#   From: 2010.05.17/outbox.cif.g08.bks.cpg/sg2_263_cif.got.tgz:525394.got - 2010.06.03 11:33:40.
