data_PCOD9021254
_publ_section_title
;
Structure prediction by ZEFSAII (Michael W. Deem and Ramdas Pophale) SiO2 
 PCOD9021254
Probable space group: P -1
;
_chemical_formula_sum "Si O2"
_cell_formula_units_Z 16
_cell_length_a 18.764666
_cell_length_b 18.666259
_cell_length_c 9.282137
_cell_angle_alpha 47.849867
_cell_angle_beta 47.802846
_cell_angle_gamma 19.386759
_cell_volume 790.187930
_symmetry_space_group_name_H-M "P -1"
_symmetry_group_IT_number 2
_symmetry_cell_setting 'triclinic'
loop_
_space_group_symop_operation_xyz
x,y,z
-x,-y,-z
loop_
_atom_site_type_symbol
_atom_site_label
_atom_site_fract_x
_atom_site_fract_y
_atom_site_fract_z
Si Si1 0.064821 0.710997 0.504332
Si Si2 0.730372 0.888367 0.892444
Si Si3 0.598812 0.528383 0.167614
Si Si4 0.599677 0.087265 0.107415
Si Si5 0.814686 0.222128 0.548640
Si Si6 0.970928 0.252678 0.832447
Si Si7 0.295766 0.294882 0.749176
Si Si8 0.217301 0.362702 0.431885
O O1 0.116068 0.765940 0.437309
O O2 0.005137 0.787381 0.316325
O O3 0.226852 0.470624 0.613894
O O4 0.879509 0.831466 0.690100
O O5 0.519817 0.082666 0.815563
O O6 0.818688 0.699431 0.039147
O O7 0.689521 0.959270 0.014228
O O8 0.697797 0.395050 0.356981
O O9 0.365531 0.685480 0.258786
O O10 0.538637 0.694257 0.042973
O O11 0.789068 0.349866 0.028353
O O12 0.429743 0.167817 0.305779
O O13 0.797933 0.944881 0.132682
O O14 0.000000 0.000000 0.500000
O O15 0.864602 0.453897 0.711476
O O16 0.293110 0.276215 0.607990
O O17 0.000000 0.500000 0.500000
#
# Coordination Sequence:
#
# PCOD9021254 Si02
#       8
#     2   2   2   2   2   2   2   2
#     4  11  23  40  61  87 122 159 199 250 302 352
#     4  11  22  36  61  88 121 165 202 246 295 350
#     4  10  22  41  63  89 120 154 199 250 299 358
#     4  11  22  40  63  90 123 159 203 246 297 358
#     4  11  23  41  66  92 118 153 201 251 304 364
#     4  10  22  39  61  87 121 162 200 245 299 358
#     4  10  23  39  56  88 125 159 203 247 295 352
#     4  10  22  38  59  87 122 164 205 247 294 351
#
# _framework density 20.248349000000001
#
# number of rings (size 3 to 8) (size 9 to 14) (size 15 to 20)
#    0.000    1.500    0.000    4.875    0.000   10.500 
#    0.000    2.500    0.000    0.000    0.000    0.000 
#    0.000    0.000    0.000    0.000    0.000    0.000 
#
# Total GULP energy -89093.211618 kJ/mol
# GULP energy per Si atom -5568.325726 kJ/mol
# Density = 2.020226 g / cm^3
# Si number density = 20.248349 Si / 1000 Ang^3
#
#
#
# Elastic Constant Matrix: (Units=GPa)
#
#
# Indices 1 2 3 4 5 6 
#
# 1 168.1165 67.1893 60.5461 22.7141 12.6497 -3.8071
# 2 67.1893 95.8353 51.5013 19.4178 13.5004 5.4217
# 3 60.5461 51.5013 117.0967 20.8387 3.8288 -12.0866
# 4 22.7141 19.4178 20.8387 49.4599 -2.8708 -10.1351
# 5 12.6497 13.5004 3.8288 -2.8708 33.0194 1.5606
# 6 -3.8071 5.4217 -12.0866 -10.1351 1.5606 15.7305
#
#
#
# Elastic Compliance Matrix: (Units=1/GPa)
#
#
# Indices 1 2 3 4 5 6 
#
# 1 0.008905 -0.004809 -0.002084 -0.001063 -0.001375 0.001663
# 2 -0.004809 0.020797 -0.007069 -0.006924 -0.005608 -0.017668
# 3 -0.002084 -0.007069 0.013896 0.000597 0.001522 0.012843
# 4 -0.001063 -0.006924 0.000597 0.027510 0.004622 0.019854
# 5 -0.001375 -0.005608 0.001522 0.004622 0.033214 0.002453
# 6 0.001663 -0.017668 0.012843 0.019854 0.002453 0.092479
#
#
# Mechanical properties :
#
#
# Convention : Reuss Voigt Hill
#
# Bulk Modulus (GPa) = 63.79183 82.16910 72.98047
# Shear Modulus (GPa) = 21.74397 33.09608 27.42003
#
# Velocity S-wave (km/s) = 3.28054 4.04729 3.68392
# Velocity P-wave (km/s) = 6.77660 7.90629 7.36315
#
# Compressibility (1/GPa) = 0.01567599
#
# Stress axis : x y z
#
# Youngs Moduli (GPa) = 112.29308 48.08404 71.96385
#
# Poissons Ratio (x) = 0.23122 0.14997
# Poissons Ratio (y) = 0.53997 0.50868
# Poissons Ratio (z) = 0.23401 0.33989
#
# Static dielectric constant tensor:
#      x y z
#    x 1.679150 0.009120 -0.005690 
#    y 0.009120 1.766980 0.028340 
#    z -0.005690 0.028340 1.719390 
# 
# From -- ./inp_files/84944.got.cif
#   From: 2010.05.17/outbox.cif.g08.bks.cpg/sg2_43_cif.got.tgz:84944.got - 2010.06.03 11:33:40.
