data_PCOD9021898
_publ_section_title
;
Structure prediction by ZEFSAII (Michael W. Deem and Ramdas Pophale) SiO2 
 PCOD9021898
Probable space group: P -1
;
_chemical_formula_sum "Si O2"
_cell_formula_units_Z 16
_cell_length_a 5.389042
_cell_length_b 11.822426
_cell_length_c 13.841696
_cell_angle_alpha 78.886433
_cell_angle_beta 98.647869
_cell_angle_gamma 51.637389
_cell_volume 635.362267
_symmetry_space_group_name_H-M "P -1"
_symmetry_group_IT_number 2
_symmetry_cell_setting 'triclinic'
loop_
_space_group_symop_operation_xyz
x,y,z
-x,-y,-z
loop_
_atom_site_type_symbol
_atom_site_label
_atom_site_fract_x
_atom_site_fract_y
_atom_site_fract_z
Si Si1 0.261572 0.131256 0.594643
Si Si2 0.113547 0.418165 0.623162
Si Si3 0.268541 0.679108 0.809538
Si Si4 0.645017 0.672123 0.986038
Si Si5 0.689598 0.405222 0.744077
Si Si6 0.407609 0.124228 0.895341
Si Si7 0.004495 0.888759 0.588956
Si Si8 0.437171 0.096184 0.204997
O O1 0.250133 0.251070 0.632190
O O2 0.999445 0.209860 0.477894
O O3 0.634155 0.006447 0.594020
O O4 0.245909 0.030656 0.686611
O O5 0.403649 0.413146 0.679449
O O6 0.000000 0.500000 0.500000
O O7 0.821564 0.471411 0.673775
O O8 0.361032 0.674591 0.926927
O O9 0.524850 0.507053 0.813794
O O10 0.261777 0.779902 0.708227
O O11 0.879462 0.764685 0.773253
O O12 0.555926 0.809028 0.890670
O O13 0.595225 0.745804 0.077203
O O14 0.000000 0.500000 0.000000
O O15 0.020565 0.231860 0.821072
O O16 0.626803 0.008226 0.836480
O O17 0.500000 0.000000 0.000000
O O18 0.000000 0.000000 0.500000
#
# Coordination Sequence:
#
# PCOD9021898 Si02
#       8
#     2   2   2   2   2   2   2   2
#     4  10  22  41  65 103 138 193 236 302 372 442
#     4  12  28  47  78 110 157 201 256 310 385 455
#     4  11  25  42  69 103 141 198 244 315 373 446
#     4  11  23  43  70 101 144 188 253 308 387 439
#     4  12  27  49  75 113 153 200 255 318 380 459
#     4  10  23  48  70 108 148 201 259 318 385 453
#     4  10  22  38  66  98 141 185 242 296 365 445
#     4  10  23  45  68 102 145 189 251 310 374 453
#
# _framework density 25.182483999999999
#
# number of rings (size 3 to 8) (size 9 to 14) (size 15 to 20)
#    0.000    1.250    2.500    1.875    5.250    5.000 
#    4.500    0.000    0.000    0.000    0.000    0.000 
#    0.000    0.000    0.000    0.000    0.000    0.000 
#
# Total GULP energy -89170.725662 kJ/mol
# GULP energy per Si atom -5573.170354 kJ/mol
# Density = 2.512517 g / cm^3
# Si number density = 25.182484 Si / 1000 Ang^3
#
#
#
# Elastic Constant Matrix: (Units=GPa)
#
#
# Indices 1 2 3 4 5 6 
#
# 1 68.5210 12.8388 28.3982 0.3853 11.9513 4.4146
# 2 12.8388 112.0489 23.8331 6.3712 4.8189 -7.8147
# 3 28.3982 23.8331 101.4615 -3.0492 5.8217 3.8666
# 4 0.3853 6.3712 -3.0492 47.9210 7.5241 -4.0050
# 5 11.9513 4.8189 5.8217 7.5241 39.4328 -3.4120
# 6 4.4146 -7.8147 3.8666 -4.0050 -3.4120 30.5494
#
#
#
# Elastic Compliance Matrix: (Units=1/GPa)
#
#
# Indices 1 2 3 4 5 6 
#
# 1 0.017598 -0.001109 -0.004272 0.000264 -0.004860 -0.002794
# 2 -0.001109 0.009766 -0.002120 -0.001181 -0.000080 0.002763
# 3 -0.004272 -0.002120 0.011658 0.001023 -0.000477 -0.001320
# 4 0.000264 -0.001181 0.001023 0.021893 -0.004096 0.001943
# 5 -0.004860 -0.000080 -0.000477 -0.004096 0.027982 0.003330
# 6 -0.002794 0.002763 -0.001320 0.001943 0.003330 0.034638
#
#
# Mechanical properties :
#
#
# Convention : Reuss Voigt Hill
#
# Bulk Modulus (GPa) = 41.62977 45.79682 43.71330
# Shear Modulus (GPa) = 34.11946 38.04473 36.08210
#
# Velocity S-wave (km/s) = 3.68487 3.89107 3.78937
# Velocity P-wave (km/s) = 5.88825 6.19780 6.04501
#
# Compressibility (1/GPa) = 0.02402127
#
# Stress axis : x y z
#
# Youngs Moduli (GPa) = 56.82319 102.39711 85.77825
#
# Poissons Ratio (x) = 0.11352 0.36644
# Poissons Ratio (y) = 0.06300 0.18184
# Poissons Ratio (z) = 0.24275 0.21707
#
# Static dielectric constant tensor:
#      x y z
#    x 2.119770 0.113560 -0.044540 
#    y 0.113560 1.994230 0.074910 
#    z -0.044540 0.074910 2.126820 
# 
# From -- ./inp_files/482842.got.cif
#   From: 2010.05.17/outbox.cif.g08.bks.cpg/sg2_242_cif.got.tgz:482842.got - 2010.06.03 11:33:40.
