data_PCOD9021693
_publ_section_title
;
Structure prediction by ZEFSAII (Michael W. Deem and Ramdas Pophale) SiO2 
 PCOD9021693
Probable space group: P -1
;
_chemical_formula_sum "Si O2"
_cell_formula_units_Z 16
_cell_length_a 10.823056
_cell_length_b 15.892341
_cell_length_c 9.425931
_cell_angle_alpha 88.093900
_cell_angle_beta 117.474740
_cell_angle_gamma 139.415910
_cell_volume 781.901179
_symmetry_space_group_name_H-M "P -1"
_symmetry_group_IT_number 2
_symmetry_cell_setting 'triclinic'
loop_
_space_group_symop_operation_xyz
x,y,z
-x,-y,-z
loop_
_atom_site_type_symbol
_atom_site_label
_atom_site_fract_x
_atom_site_fract_y
_atom_site_fract_z
Si Si1 0.033788 0.105314 0.090964
Si Si2 0.648893 0.488923 0.051029
Si Si3 0.882452 0.176384 0.798187
Si Si4 0.382550 0.250847 0.689802
Si Si5 0.307889 0.903058 0.602046
Si Si6 0.177389 0.984128 0.709956
Si Si7 0.053469 0.427973 0.528464
Si Si8 0.445706 0.572248 0.498875
O O1 0.315735 0.269272 0.292988
O O2 0.849156 0.015932 0.136141
O O3 0.971602 0.143912 0.940037
O O4 0.000000 0.000000 0.000000
O O5 0.749968 0.497099 0.246323
O O6 0.903866 0.643241 0.090436
O O7 0.500000 0.500000 0.000000
O O8 0.464607 0.336971 0.872447
O O9 0.846923 0.138893 0.613811
O O10 0.604132 0.060440 0.712702
O O11 0.559263 0.376385 0.651286
O O12 0.100864 0.136385 0.496750
O O13 0.369158 0.145315 0.723113
O O14 0.244718 0.924061 0.706099
O O15 0.206251 0.756581 0.572326
O O16 0.190035 0.461034 0.458295
O O17 0.000000 0.500000 0.500000
O O18 0.500000 0.500000 0.500000
#
# Coordination Sequence:
#
# PCOD9021693 Si02
#       8
#     2   2   2   2   2   2   2   2
#     4  11  25  38  65  99 128 161 228 283 324 386
#     4  11  22  41  68  96 129 176 226 274 325 400
#     4  10  23  40  65  92 126 172 217 261 331 395
#     4  10  22  38  64  93 127 165 227 271 323 389
#     4  10  23  43  64  88 137 177 213 258 343 410
#     4  10  23  40  62  96 127 176 212 275 338 390
#     4  11  25  41  68 101 134 174 221 279 338 399
#     4  11  23  43  66  95 132 178 225 277 341 403
#
# _framework density 20.462945000000001
#
# number of rings (size 3 to 8) (size 9 to 14) (size 15 to 20)
#    0.000    1.500    0.000    5.250   10.500    2.500 
#    0.000    3.750    0.000    0.000    0.000    0.000 
#    0.000    0.000    0.000    0.000    0.000    0.000 
#
# Total GULP energy -89392.503369 kJ/mol
# GULP energy per Si atom -5587.031461 kJ/mol
# Density = 2.041637 g / cm^3
# Si number density = 20.462945 Si / 1000 Ang^3
#
#
#
# Elastic Constant Matrix: (Units=GPa)
#
#
# Indices 1 2 3 4 5 6 
#
# 1 90.8431 37.7707 26.9961 -6.0668 -18.7219 -9.1018
# 2 37.7707 114.5841 25.2765 -14.0751 -9.5033 -3.2262
# 3 26.9961 25.2765 50.1484 5.3929 -13.8482 -11.8200
# 4 -6.0668 -14.0751 5.3929 28.7891 -4.2521 -2.2063
# 5 -18.7219 -9.5033 -13.8482 -4.2521 29.4814 1.7351
# 6 -9.1018 -3.2262 -11.8200 -2.2063 1.7351 35.4738
#
#
#
# Elastic Compliance Matrix: (Units=1/GPa)
#
#
# Indices 1 2 3 4 5 6 
#
# 1 0.015623 -0.002926 -0.004926 0.003990 0.007122 0.002001
# 2 -0.002926 0.011531 -0.004998 0.005942 0.000428 -0.001019
# 3 -0.004926 -0.004998 0.029781 -0.007350 0.007756 0.007368
# 4 0.003990 0.005942 -0.007350 0.040969 0.006827 0.001329
# 5 0.007122 0.000428 0.007756 0.006827 0.043045 0.002770
# 6 0.002001 -0.001019 0.007368 0.001329 0.002770 0.031013
#
#
# Mechanical properties :
#
#
# Convention : Reuss Voigt Hill
#
# Bulk Modulus (GPa) = 32.01594 48.40693 40.21144
# Shear Modulus (GPa) = 24.03003 29.78434 26.90719
#
# Velocity S-wave (km/s) = 3.43055 3.81927 3.63012
# Velocity P-wave (km/s) = 5.60101 6.56935 6.10441
#
# Compressibility (1/GPa) = 0.03123444
#
# Stress axis : x y z
#
# Youngs Moduli (GPa) = 64.00714 86.72285 33.57900
#
# Poissons Ratio (x) = 0.25376 0.16542
# Poissons Ratio (y) = 0.18729 0.16782
# Poissons Ratio (z) = 0.31532 0.43341
#
# Static dielectric constant tensor:
#      x y z
#    x 1.673500 0.070940 0.000390 
#    y 0.070940 1.721030 0.003500 
#    z 0.000390 0.003500 1.775450 
# 
# From -- ./inp_files/207935.got.cif
#   From: 2010.05.17/outbox.cif.g08.bks.cpg/sg2_104_cif.got.tgz:207935.got - 2010.06.03 11:33:40.
