data_PCOD9021000
_publ_section_title
;
Structure prediction by ZEFSAII (Michael W. Deem and Ramdas Pophale) SiO2 
 PCOD9021000
Probable space group: P -1
;
_chemical_formula_sum "Si O2"
_cell_formula_units_Z 16
_cell_length_a 18.378817
_cell_length_b 20.881929
_cell_length_c 9.179523
_cell_angle_alpha 146.656141
_cell_angle_beta 145.061510
_cell_angle_gamma 19.211508
_cell_volume 627.828782
_symmetry_space_group_name_H-M "P -1"
_symmetry_group_IT_number 2
_symmetry_cell_setting 'triclinic'
loop_
_space_group_symop_operation_xyz
x,y,z
-x,-y,-z
loop_
_atom_site_type_symbol
_atom_site_label
_atom_site_fract_x
_atom_site_fract_y
_atom_site_fract_z
Si Si1 0.602733 0.467599 0.796040
Si Si2 0.962954 0.357389 0.015971
Si Si3 0.827270 0.182877 0.856936
Si Si4 0.736609 0.881237 0.689774
Si Si5 0.205776 0.420043 0.125285
Si Si6 0.268129 0.840224 0.770547
Si Si7 0.059902 0.200069 0.428872
Si Si8 0.662317 0.052929 0.340069
O O1 0.660555 0.405288 0.939329
O O2 0.379656 0.705384 0.844654
O O3 0.611687 0.332247 0.479522
O O4 0.793038 0.400273 0.901112
O O5 0.826512 0.541540 0.028681
O O6 0.133575 0.153536 0.810659
O O7 0.123277 0.286139 0.269971
O O8 0.699852 0.161003 0.631967
O O9 0.004879 0.022513 0.711900
O O10 0.976565 0.133756 0.128605
O O11 0.885043 0.777917 0.590452
O O12 0.500000 0.000000 0.500000
O O13 0.698276 0.047676 0.983038
O O14 0.435255 0.203853 0.164585
O O15 0.145387 0.590002 0.420023
O O16 0.000000 0.500000 0.000000
O O17 0.287173 0.036765 0.587372
#
# Coordination Sequence:
#
# PCOD9021000 Si02
#       8
#     2   2   2   2   2   2   2   2
#     4  11  21  37  68 106 138 170 222 283 342 396
#     4  11  24  44  70 102 128 176 232 276 334 402
#     4  11  21  41  65 102 139 170 221 284 343 400
#     4  11  25  45  72  99 138 180 224 282 344 397
#     4  11  29  47  67  94 135 184 232 272 328 412
#     4  10  22  37  64 101 142 173 214 282 339 401
#     4  10  25  46  65 100 137 173 226 278 338 402
#     4  11  25  43  73  93 135 186 220 273 342 404
#
# _framework density 25.484653999999999
#
# number of rings (size 3 to 8) (size 9 to 14) (size 15 to 20)
#    0.000    1.250    3.750    1.500    8.750    3.500 
#    0.000    1.250    0.000    0.000    0.000    0.000 
#    0.000    0.000    0.000    0.000    0.000    0.000 
#
# Total GULP energy -89572.913669 kJ/mol
# GULP energy per Si atom -5598.307104 kJ/mol
# Density = 2.542665 g / cm^3
# Si number density = 25.484654 Si / 1000 Ang^3
#
#
#
# Elastic Constant Matrix: (Units=GPa)
#
#
# Indices 1 2 3 4 5 6 
#
# 1 63.5060 4.2224 28.4809 -10.4522 -13.7584 18.0900
# 2 4.2224 121.9762 29.1391 -20.3039 -7.7295 31.9303
# 3 28.4809 29.1391 80.6009 -16.3117 4.9019 12.4728
# 4 -10.4522 -20.3039 -16.3117 42.3089 5.0777 -10.2746
# 5 -13.7584 -7.7295 4.9019 5.0777 41.5485 -13.2245
# 6 18.0900 31.9303 12.4728 -10.2746 -13.2245 39.0912
#
#
#
# Elastic Compliance Matrix: (Units=1/GPa)
#
#
# Indices 1 2 3 4 5 6 
#
# 1 0.023540 0.004267 -0.008538 0.001596 0.006528 -0.009027
# 2 0.004267 0.011994 -0.003815 0.002937 0.000697 -0.009547
# 3 -0.008538 -0.003815 0.017878 0.003750 -0.006003 0.000317
# 4 0.001596 0.002937 0.003750 0.027676 -0.002033 0.002252
# 5 0.006528 0.000697 -0.006003 -0.002033 0.029825 0.007881
# 6 -0.009027 -0.009547 0.000317 0.002252 0.007881 0.040713
#
#
# Mechanical properties :
#
#
# Convention : Reuss Voigt Hill
#
# Bulk Modulus (GPa) = 26.85188 43.30757 35.07973
# Shear Modulus (GPa) = 27.74533 38.20577 32.97555
#
# Velocity S-wave (km/s) = 3.30314 3.87611 3.60104
# Velocity P-wave (km/s) = 5.01069 6.08792 5.57538
#
# Compressibility (1/GPa) = 0.03724133
#
# Stress axis : x y z
#
# Youngs Moduli (GPa) = 42.48063 83.37458 55.93550
#
# Poissons Ratio (x) = -0.35577 0.47757
# Poissons Ratio (y) = -0.18127 0.21337
# Poissons Ratio (z) = 0.36269 0.31803
#
# Static dielectric constant tensor:
#      x y z
#    x 2.025810 0.054320 -0.028410 
#    y 0.054320 2.021190 -0.003680 
#    z -0.028410 -0.003680 2.077410 
# 
# From -- ./inp_files/338206.got.cif
#   From: 2010.05.17/outbox.cif.g08.bks.cpg/sg2_170_cif.got.tgz:338206.got - 2010.06.03 11:33:40.
