data_PCOD9021979
_publ_section_title
;
Structure prediction by ZEFSAII (Michael W. Deem and Ramdas Pophale) SiO2 
 PCOD9021979
Probable space group: P -1
;
_chemical_formula_sum "Si O2"
_cell_formula_units_Z 16
_cell_length_a 7.947058
_cell_length_b 14.633084
_cell_length_c 20.373918
_cell_angle_alpha 159.152264
_cell_angle_beta 49.668773
_cell_angle_gamma 130.162153
_cell_volume 635.712212
_symmetry_space_group_name_H-M "P -1"
_symmetry_group_IT_number 2
_symmetry_cell_setting 'triclinic'
loop_
_space_group_symop_operation_xyz
x,y,z
-x,-y,-z
loop_
_atom_site_type_symbol
_atom_site_label
_atom_site_fract_x
_atom_site_fract_y
_atom_site_fract_z
Si Si1 0.750714 0.325014 0.706945
Si Si2 0.713367 0.528143 0.104105
Si Si3 0.319556 0.990641 0.980929
Si Si4 0.261283 0.309650 0.935038
Si Si5 0.994611 0.808912 0.707730
Si Si6 0.777271 0.608989 0.409260
Si Si7 0.681193 0.985042 0.787935
Si Si8 0.771147 0.822052 0.417163
O O1 0.550287 0.449470 0.811176
O O2 0.957700 0.278818 0.578378
O O3 0.636187 0.047583 0.578163
O O4 0.859313 0.521899 0.869068
O O5 0.802936 0.681014 0.118512
O O6 0.803156 0.643942 0.228197
O O7 0.756633 0.233238 0.889427
O O8 0.233082 0.694770 0.786608
O O9 0.469372 0.078713 0.939695
O O10 0.500000 0.000000 0.000000
O O11 0.121542 0.127708 0.151791
O O12 0.500000 0.500000 0.000000
O O13 0.219845 0.017404 0.778116
O O14 0.000000 0.500000 0.500000
O O15 0.839436 0.899920 0.748890
O O16 0.685244 0.670630 0.402112
O O17 0.643404 0.739988 0.585320
O O18 0.000000 0.000000 0.500000
#
# Coordination Sequence:
#
# PCOD9021979 Si02
#       8
#     2   2   2   2   2   2   2   2
#     4  10  22  43  67 104 146 196 242 311 379 450
#     4  11  24  45  71 107 154 195 254 313 390 452
#     4  10  22  47  70 101 144 196 248 306 380 450
#     4  10  23  46  74 111 154 193 250 314 386 455
#     4  11  25  49  79 111 150 199 253 314 386 462
#     4  11  22  45  71 103 148 192 262 307 379 453
#     4  11  26  45  73 107 146 202 252 316 381 455
#     4  10  22  38  68 106 144 194 246 314 376 455
#
# _framework density 25.168621999999999
#
# number of rings (size 3 to 8) (size 9 to 14) (size 15 to 20)
#    0.000    1.500    1.250    3.000    5.250    1.500 
#   27.000    1.250    0.000    0.000    0.000    0.000 
#    0.000    0.000    0.000    0.000    0.000    0.000 
#
# Total GULP energy -89384.354904 kJ/mol
# GULP energy per Si atom -5586.522181 kJ/mol
# Density = 2.511134 g / cm^3
# Si number density = 25.168622 Si / 1000 Ang^3
#
#
#
# Elastic Constant Matrix: (Units=GPa)
#
#
# Indices 1 2 3 4 5 6 
#
# 1 71.7651 30.6624 23.8092 -1.2704 -5.6900 -1.3904
# 2 30.6624 111.0642 46.0468 -5.6644 -11.3597 -0.2112
# 3 23.8092 46.0468 175.6729 5.0172 -7.0909 -8.4231
# 4 -1.2704 -5.6644 5.0172 47.7067 -16.8036 5.6552
# 5 -5.6900 -11.3597 -7.0909 -16.8036 43.6729 -2.8902
# 6 -1.3904 -0.2112 -8.4231 5.6552 -2.8902 25.6566
#
#
#
# Elastic Compliance Matrix: (Units=1/GPa)
#
#
# Indices 1 2 3 4 5 6 
#
# 1 0.016046 -0.003833 -0.001113 0.000420 0.001108 0.000505
# 2 -0.003833 0.011562 -0.002523 0.002764 0.003082 -0.001203
# 3 -0.001113 -0.002523 0.006654 -0.001340 -0.000078 0.002390
# 4 0.000420 0.002764 -0.001340 0.025569 0.010070 -0.004896
# 5 0.001108 0.003082 -0.000078 0.010070 0.027770 0.000968
# 6 0.000505 -0.001203 0.002390 -0.004896 0.000968 0.040967
#
#
# Mechanical properties :
#
#
# Convention : Reuss Voigt Hill
#
# Bulk Modulus (GPa) = 51.74908 62.17101 56.96005
# Shear Modulus (GPa) = 33.34484 40.60617 36.97550
#
# Velocity S-wave (km/s) = 3.64381 4.02103 3.83706
# Velocity P-wave (km/s) = 6.18940 6.80541 6.50470
#
# Compressibility (1/GPa) = 0.01932401
#
# Stress axis : x y z
#
# Youngs Moduli (GPa) = 62.31956 86.48927 150.27659
#
# Poissons Ratio (x) = 0.33150 0.16729
# Poissons Ratio (y) = 0.23886 0.37920
# Poissons Ratio (z) = 0.06937 0.21824
#
# Static dielectric constant tensor:
#      x y z
#    x 2.129310 0.049630 -0.009390 
#    y 0.049630 2.130690 0.001120 
#    z -0.009390 0.001120 1.972110 
# 
# From -- ./inp_files/590511.got.cif
#   From: 2010.05.17/outbox.cif.g08.bks.cpg/sg2_296_cif.got.tgz:590511.got - 2010.06.03 11:33:40.
