data_PCOD9021870
_publ_section_title
;
Structure prediction by ZEFSAII (Michael W. Deem and Ramdas Pophale) SiO2 
 PCOD9021870
Probable space group: P -1
;
_chemical_formula_sum "Si O2"
_cell_formula_units_Z 10
_cell_length_a 10.006670
_cell_length_b 8.821345
_cell_length_c 8.482097
_cell_angle_alpha 146.170039
_cell_angle_beta 75.027178
_cell_angle_gamma 98.524199
_cell_volume 399.610407
_symmetry_space_group_name_H-M "P -1"
_symmetry_group_IT_number 2
_symmetry_cell_setting 'triclinic'
loop_
_space_group_symop_operation_xyz
x,y,z
-x,-y,-z
loop_
_atom_site_type_symbol
_atom_site_label
_atom_site_fract_x
_atom_site_fract_y
_atom_site_fract_z
Si Si1 0.127058 0.420528 0.012951
Si Si2 0.386580 0.393990 0.696472
Si Si3 0.788623 0.595485 0.562146
Si Si4 0.544561 0.896663 0.073027
Si Si5 0.067391 0.853389 0.658247
O O1 0.136946 0.690557 0.345796
O O2 0.271286 0.330655 0.801556
O O3 0.081719 0.169571 0.910340
O O4 0.000000 0.500000 0.000000
O O5 0.306451 0.434663 0.587529
O O6 0.447014 0.672190 0.960901
O O7 0.513559 0.154529 0.420178
O O8 0.695917 0.740008 0.856979
O O9 0.858333 0.301568 0.348530
O O10 0.909410 0.779782 0.642106
O O11 0.500000 0.000000 0.000000
#
# Coordination Sequence:
#
# PCOD9021870 Si02
#       5
#     2   2   2   2   2
#     4  12  25  43  64  93 131 166 212 253 317 381
#     4  11  23  41  67  93 122 170 213 252 308 376
#     4  10  23  43  66  96 129 160 215 261 314 364
#     4  10  22  38  66  94 124 164 211 259 303 371
#     4  11  26  41  66  97 127 166 204 268 317 366
#
# _framework density 25.024370999999999
#
# number of rings (size 3 to 8) (size 9 to 14) (size 15 to 20)
#    0.000    1.200    2.000    4.200    5.600    9.600 
#    0.000    6.000    0.000    0.000    0.000    0.000 
#    0.000    0.000    0.000    0.000    0.000    0.000 
#
# Total GULP energy -56101.066313 kJ/mol
# GULP energy per Si atom -5610.106631 kJ/mol
# Density = 2.496741 g / cm^3
# Si number density = 25.024371 Si / 1000 Ang^3
#
#
#
# Elastic Constant Matrix: (Units=GPa)
#
#
# Indices 1 2 3 4 5 6 
#
# 1 66.1202 30.8508 6.3909 9.4933 -8.6099 8.9778
# 2 30.8508 83.9948 21.0598 12.5830 -5.1335 21.6599
# 3 6.3909 21.0598 92.2673 2.2178 -6.6509 1.7182
# 4 9.4933 12.5830 2.2178 51.7198 12.2101 -1.5598
# 5 -8.6099 -5.1335 -6.6509 12.2101 32.8585 -11.0719
# 6 8.9778 21.6599 1.7182 -1.5598 -11.0719 41.2061
#
#
#
# Elastic Compliance Matrix: (Units=1/GPa)
#
#
# Indices 1 2 3 4 5 6 
#
# 1 0.019227 -0.006546 0.000630 -0.003257 0.005553 0.000594
# 2 -0.006546 0.017627 -0.003446 -0.002868 -0.001345 -0.008165
# 3 0.000630 -0.003446 0.011756 -0.000384 0.002796 0.001921
# 4 -0.003257 -0.002868 -0.000384 0.022963 -0.009749 0.000483
# 5 0.005553 -0.001345 0.002796 -0.009749 0.039072 0.009510
# 6 0.000594 -0.008165 0.001921 0.000483 0.009510 0.030924
#
#
# Mechanical properties :
#
#
# Convention : Reuss Voigt Hill
#
# Bulk Modulus (GPa) = 33.46010 39.88724 36.67367
# Shear Modulus (GPa) = 29.36764 37.42894 33.39829
#
# Velocity S-wave (km/s) = 3.42945 3.87162 3.65722
# Velocity P-wave (km/s) = 5.39273 5.99666 5.70269
#
# Compressibility (1/GPa) = 0.02988634
#
# Stress axis : x y z
#
# Youngs Moduli (GPa) = 52.00907 56.73162 85.06345
#
# Poissons Ratio (x) = 0.37136 -0.05358
# Poissons Ratio (y) = 0.34045 0.29311
# Poissons Ratio (z) = -0.03276 0.19549
#
# Static dielectric constant tensor:
#      x y z
#    x 1.971450 -0.040760 -0.021070 
#    y -0.040760 1.949300 -0.058840 
#    z -0.021070 -0.058840 1.945910 
# 
# From -- ./inp_files/137034.got.cif
#   From: 2010.05.17/outbox.cif.g08.bks.cpg/sg2_69_cif.got.tgz:137034.got - 2010.06.03 11:33:40.
