data_PCOD9021518
_publ_section_title
;
Structure prediction by ZEFSAII (Michael W. Deem and Ramdas Pophale) SiO2 
 PCOD9021518
Probable space group: P -1
;
_chemical_formula_sum "Si O2"
_cell_formula_units_Z 16
_cell_length_a 17.930283
_cell_length_b 8.170673
_cell_length_c 10.373460
_cell_angle_alpha 73.478098
_cell_angle_beta 147.788559
_cell_angle_gamma 106.449137
_cell_volume 773.944161
_symmetry_space_group_name_H-M "P -1"
_symmetry_group_IT_number 2
_symmetry_cell_setting 'triclinic'
loop_
_space_group_symop_operation_xyz
x,y,z
-x,-y,-z
loop_
_atom_site_type_symbol
_atom_site_label
_atom_site_fract_x
_atom_site_fract_y
_atom_site_fract_z
Si Si1 0.706358 0.831480 0.327095
Si Si2 0.803651 0.146640 0.896340
Si Si3 0.083994 0.333911 0.190527
Si Si4 0.413593 0.648599 0.898717
Si Si5 0.299500 0.476355 0.295721
Si Si6 0.397770 0.451107 0.158162
Si Si7 0.345627 0.072182 0.047423
Si Si8 0.340673 0.938146 0.559325
O O1 0.798426 0.671133 0.523779
O O2 0.727860 0.958245 0.450602
O O3 0.539515 0.785135 0.094861
O O4 0.734047 0.907034 0.208844
O O5 0.747524 0.333660 0.793280
O O6 0.735601 0.062741 0.687592
O O7 0.749289 0.036647 0.964619
O O8 0.968230 0.184986 0.097131
O O9 0.182717 0.335034 0.209194
O O10 0.000000 0.500000 0.000000
O O11 0.334252 0.744622 0.651361
O O12 0.500000 0.500000 0.000000
O O13 0.339442 0.571287 0.935363
O O14 0.321883 0.449254 0.184127
O O15 0.443662 0.475828 0.588311
O O16 0.389169 0.260107 0.129864
O O17 0.495857 0.001242 0.247559
#
# Coordination Sequence:
#
# PCOD9021518 Si02
#       8
#     2   2   2   2   2   2   2   2
#     4  11  24  40  64  94 129 164 209 256 315 379
#     4  11  24  41  64  86 131 169 209 254 308 374
#     4  10  24  44  66  86 121 174 217 252 306 372
#     4  11  19  37  64  92 128 161 201 256 320 364
#     4  10  22  38  62  94 122 161 213 261 306 371
#     4  11  21  34  65  95 125 158 203 267 316 359
#     4  11  23  39  62  99 131 157 201 264 323 364
#     4  11  24  38  63  99 128 164 206 258 318 374
#
# _framework density 20.673325999999999
#
# number of rings (size 3 to 8) (size 9 to 14) (size 15 to 20)
#    0.000    1.250    5.000    1.875    7.000    1.000 
#    0.000    0.000    0.000    2.250    0.000    0.000 
#    0.000    0.000    0.000    0.000    0.000    0.000 
#
# Total GULP energy -89233.745911 kJ/mol
# GULP energy per Si atom -5577.109119 kJ/mol
# Density = 2.062627 g / cm^3
# Si number density = 20.673326 Si / 1000 Ang^3
#
#
#
# Elastic Constant Matrix: (Units=GPa)
#
#
# Indices 1 2 3 4 5 6 
#
# 1 166.2851 53.8807 59.6533 3.2905 -30.0021 31.4178
# 2 53.8807 66.6900 14.8455 -5.9324 -13.4972 14.8456
# 3 59.6533 14.8455 61.1173 -5.6205 -15.1820 14.6756
# 4 3.2905 -5.9324 -5.6205 15.4444 7.5253 -5.6120
# 5 -30.0021 -13.4972 -15.1820 7.5253 37.2793 0.9326
# 6 31.4178 14.8456 14.6756 -5.6120 0.9326 54.7401
#
#
#
# Elastic Compliance Matrix: (Units=1/GPa)
#
#
# Indices 1 2 3 4 5 6 
#
# 1 0.015977 -0.008898 -0.011557 -0.017215 0.008545 -0.005569
# 2 -0.008898 0.022532 0.004684 0.011572 0.000596 -0.001083
# 3 -0.011557 0.004684 0.028249 0.013675 0.001160 -0.000829
# 4 -0.017215 0.011572 0.013675 0.094003 -0.023399 0.013112
# 5 0.008545 0.000596 0.001160 -0.023399 0.039324 -0.008446
# 6 -0.005569 -0.001083 -0.000829 0.013112 -0.008446 0.023469
#
#
# Mechanical properties :
#
#
# Convention : Reuss Voigt Hill
#
# Bulk Modulus (GPa) = 28.39531 61.20569 44.80050
# Shear Modulus (GPa) = 18.73826 32.54027 25.63926
#
# Velocity S-wave (km/s) = 3.01391 3.97170 3.52548
# Velocity P-wave (km/s) = 5.08690 7.12060 6.18787
#
# Compressibility (1/GPa) = 0.03521708
#
# Stress axis : x y z
#
# Youngs Moduli (GPa) = 62.58843 44.38080 35.40004
#
# Poissons Ratio (x) = 0.39491 0.40910
# Poissons Ratio (y) = 0.55693 -0.16582
# Poissons Ratio (z) = 0.72330 -0.20789
#
# Static dielectric constant tensor:
#      x y z
#    x 1.741720 -0.004870 0.010020 
#    y -0.004870 1.806340 -0.020790 
#    z 0.010020 -0.020790 1.768070 
# 
# From -- ./inp_files/298065.got.cif
#   From: 2010.05.17/outbox.cif.g08.bks.cpg/sg2_150_cif.got.tgz:298065.got - 2010.06.03 11:33:40.
