data_PCOD9021732
_publ_section_title
;
Structure prediction by ZEFSAII (Michael W. Deem and Ramdas Pophale) SiO2 
 PCOD9021732
Probable space group: P -1
;
_chemical_formula_sum "Si O2"
_cell_formula_units_Z 14
_cell_length_a 9.551788
_cell_length_b 12.146466
_cell_length_c 18.606698
_cell_angle_alpha 151.822495
_cell_angle_beta 35.819952
_cell_angle_gamma 131.418769
_cell_volume 585.417969
_symmetry_space_group_name_H-M "P -1"
_symmetry_group_IT_number 2
_symmetry_cell_setting 'triclinic'
loop_
_space_group_symop_operation_xyz
x,y,z
-x,-y,-z
loop_
_atom_site_type_symbol
_atom_site_label
_atom_site_fract_x
_atom_site_fract_y
_atom_site_fract_z
Si Si1 0.218921 0.668933 0.274815
Si Si2 0.952656 0.272269 0.344804
Si Si3 0.913319 0.281282 0.202131
Si Si4 0.262256 0.391499 0.906818
Si Si5 0.991505 0.139856 0.678373
Si Si6 0.222282 0.762112 0.918541
Si Si7 0.548668 0.697518 0.377202
O O1 0.127377 0.423929 0.177910
O O2 0.499322 0.639619 0.161075
O O3 0.157425 0.785768 0.289803
O O4 0.046000 0.860556 0.508665
O O5 0.728743 0.188531 0.429799
O O6 0.000000 0.500000 0.500000
O O7 0.853443 0.337605 0.342658
O O8 0.176324 0.046157 0.113111
O O9 0.733590 0.318647 0.229816
O O10 0.000000 0.000000 0.000000
O O11 0.037696 0.304466 0.987944
O O12 0.357182 0.273730 0.725042
O O13 0.155054 0.672020 0.096978
O O14 0.262174 0.199147 0.591919
O O15 0.417231 0.583431 0.780966
#
# Coordination Sequence:
#
# PCOD9021732 Si02
#       7
#     2   2   2   2   2   2   2
#     4  11  21  40  64  95 128 159 213 266 313 376
#     4  11  25  42  62  91 128 173 218 257 310 381
#     4  10  22  42  64  89 127 176 213 253 310 381
#     4  11  22  38  68  96 128 164 201 273 335 370
#     4  10  22  38  64  98 125 158 209 268 324 372
#     4  10  22  43  64  92 129 162 216 266 319 384
#     4  11  23  41  64  93 127 169 207 259 333 375
#
# _framework density 23.914539000000001
#
# number of rings (size 3 to 8) (size 9 to 14) (size 15 to 20)
#    0.000    1.429    2.857    3.857    0.000    6.857 
#    2.571    1.429    0.000    0.000    0.000    0.000 
#    0.000    0.000    0.000    0.000    0.000    0.000 
#
# Total GULP energy -78191.761484 kJ/mol
# GULP energy per Si atom -5585.125820 kJ/mol
# Density = 2.386011 g / cm^3
# Si number density = 23.914539 Si / 1000 Ang^3
#
#
#
# Elastic Constant Matrix: (Units=GPa)
#
#
# Indices 1 2 3 4 5 6 
#
# 1 80.7516 21.7998 29.6251 1.2895 16.0993 9.6729
# 2 21.7998 52.6092 29.3201 15.7032 3.3915 -9.2793
# 3 29.6251 29.3201 122.5527 17.1995 12.6675 2.9726
# 4 1.2895 15.7032 17.1995 38.0981 -5.1774 6.7535
# 5 16.0993 3.3915 12.6675 -5.1774 39.3210 -12.2451
# 6 9.6729 -9.2793 2.9726 6.7535 -12.2451 27.5129
#
#
#
# Elastic Compliance Matrix: (Units=1/GPa)
#
#
# Indices 1 2 3 4 5 6 
#
# 1 0.020506 -0.012102 -0.001334 0.006491 -0.011650 -0.017925
# 2 -0.012102 0.034836 -0.004859 -0.014811 0.009107 0.024218
# 3 -0.001334 -0.004859 0.010485 -0.002607 -0.003800 -0.003354
# 4 0.006491 -0.014811 -0.002607 0.036072 -0.000843 -0.016225
# 5 -0.011650 0.009107 -0.003800 -0.000843 0.038256 0.024812
# 6 -0.017925 0.024218 -0.003354 -0.016225 0.024812 0.066205
#
#
# Mechanical properties :
#
#
# Convention : Reuss Voigt Hill
#
# Bulk Modulus (GPa) = 34.20234 46.37818 40.29026
# Shear Modulus (GPa) = 19.78672 32.66430 26.22551
#
# Velocity S-wave (km/s) = 2.87956 3.69979 3.31514
# Velocity P-wave (km/s) = 5.03873 6.13894 5.61584
#
# Compressibility (1/GPa) = 0.02923776
#
# Stress axis : x y z
#
# Youngs Moduli (GPa) = 48.76583 28.70580 95.37651
#
# Poissons Ratio (x) = 0.34740 0.12720
# Poissons Ratio (y) = 0.59016 0.46344
# Poissons Ratio (z) = 0.06504 0.13948
#
# Static dielectric constant tensor:
#      x y z
#    x 1.968810 -0.039230 0.122770 
#    y -0.039230 1.898530 0.027410 
#    z 0.122770 0.027410 2.141650 
# 
# From -- ./inp_files/560094.got.cif
#   From: 2010.05.17/outbox.cif.g08.bks.cpg/sg2_281_cif.got.tgz:560094.got - 2010.06.03 11:33:40.
