data_PCOD9021733
_publ_section_title
;
Structure prediction by ZEFSAII (Michael W. Deem and Ramdas Pophale) SiO2 
 PCOD9021733
Probable space group: P -1
;
_chemical_formula_sum "Si O2"
_cell_formula_units_Z 11
_cell_length_a 6.803525
_cell_length_b 9.375179
_cell_length_c 11.132184
_cell_angle_alpha 138.357802
_cell_angle_beta 108.973566
_cell_angle_gamma 90.032816
_cell_volume 411.306974
_symmetry_space_group_name_H-M "P -1"
_symmetry_group_IT_number 2
_symmetry_cell_setting 'triclinic'
loop_
_space_group_symop_operation_xyz
x,y,z
-x,-y,-z
loop_
_atom_site_type_symbol
_atom_site_label
_atom_site_fract_x
_atom_site_fract_y
_atom_site_fract_z
Si Si1 0.272299 0.013722 0.332265
Si Si2 0.723216 0.726358 0.712812
Si Si3 0.045188 0.426633 0.137210
Si Si4 0.775573 0.071294 0.459943
Si Si5 0.500000 0.000000 0.000000
Si Si6 0.601463 0.664088 0.005778
O O1 0.177816 0.164542 0.326289
O O2 0.537029 0.095377 0.406822
O O3 0.251868 0.043272 0.487074
O O4 0.150980 0.749927 0.094287
O O5 0.500000 0.500000 0.500000
O O6 0.908945 0.679015 0.796828
O O7 0.641580 0.901349 0.879492
O O8 0.729285 0.538604 0.872442
O O9 0.037846 0.671723 0.324671
O O10 0.783879 0.900705 0.250325
O O11 0.475609 0.775408 0.956730
O O12 0.500000 0.500000 0.000000
#
# Coordination Sequence:
#
# PCOD9021733 Si02
#       6
#     2   2   2   2   1   2
#     4  11  22  40  67  95 129 168 216 270 323 387
#     4  11  21  41  66  91 129 171 213 267 327 385
#     4  11  24  41  66  97 127 169 220 268 322 390
#     4  11  23  43  64  93 131 171 211 266 331 384
#     4  10  22  38  64  98 126 168 226 260 322 402
#     4  11  23  41  68  96 131 176 218 268 329 389
#
# _framework density 26.744016999999999
#
# number of rings (size 3 to 8) (size 9 to 14) (size 15 to 20)
#    0.000    1.091    3.636    3.273    2.545    0.727 
#    0.000    3.636    0.000    6.545    0.000    0.000 
#    0.000    0.000    0.000    0.000    0.000    0.000 
#
# Total GULP energy -61354.350946 kJ/mol
# GULP energy per Si atom -5577.668268 kJ/mol
# Density = 2.668315 g / cm^3
# Si number density = 26.744017 Si / 1000 Ang^3
#
#
#
# Elastic Constant Matrix: (Units=GPa)
#
#
# Indices 1 2 3 4 5 6 
#
# 1 45.6662 36.3811 26.3777 6.8190 0.1217 -1.5080
# 2 36.3811 212.5965 20.2671 -20.5749 -12.2133 19.9178
# 3 26.3777 20.2671 154.2213 12.1799 0.6384 1.0818
# 4 6.8190 -20.5749 12.1799 50.8320 2.9263 -6.4209
# 5 0.1217 -12.2133 0.6384 2.9263 36.9415 -2.2782
# 6 -1.5080 19.9178 1.0818 -6.4209 -2.2782 47.2289
#
#
#
# Elastic Compliance Matrix: (Units=1/GPa)
#
#
# Indices 1 2 3 4 5 6 
#
# 1 0.029287 -0.005416 -0.003933 -0.004777 -0.001281 0.002598
# 2 -0.005416 0.006237 -0.000112 0.002886 0.001710 -0.002326
# 3 -0.003933 -0.000112 0.007278 -0.001311 -0.000072 -0.000427
# 4 -0.004777 0.002886 -0.001311 0.022039 -0.000653 0.001625
# 5 -0.001281 0.001710 -0.000072 -0.000653 0.027722 0.000488
# 6 0.002598 -0.002326 -0.000427 0.001625 0.000488 0.022492
#
#
# Mechanical properties :
#
#
# Convention : Reuss Voigt Hill
#
# Bulk Modulus (GPa) = 41.87597 64.28176 53.07886
# Shear Modulus (GPa) = 35.22680 48.96436 42.09558
#
# Velocity S-wave (km/s) = 3.63324 4.28349 3.97169
# Velocity P-wave (km/s) = 5.76998 6.96796 6.39707
#
# Compressibility (1/GPa) = 0.02388004
#
# Stress axis : x y z
#
# Youngs Moduli (GPa) = 34.14443 160.34245 137.39153
#
# Poissons Ratio (x) = 0.86845 0.54038
# Poissons Ratio (y) = 0.18493 0.01537
# Poissons Ratio (z) = 0.13429 0.01794
#
# Static dielectric constant tensor:
#      x y z
#    x 2.150070 0.049150 0.106480 
#    y 0.049150 2.209140 0.020940 
#    z 0.106480 0.020940 2.007330 
# 
# From -- ./inp_files/148731.got.cif
#   From: 2010.05.17/outbox.cif.g08.bks.cpg/sg2_75_cif.got.tgz:148731.got - 2010.06.03 11:33:40.
