data_PCOD9021989
_publ_section_title
;
Structure prediction by ZEFSAII (Michael W. Deem and Ramdas Pophale) SiO2 
 PCOD9021989
Probable space group: P -1
;
_chemical_formula_sum "Si O2"
_cell_formula_units_Z 14
_cell_length_a 22.153180
_cell_length_b 11.564444
_cell_length_c 11.574125
_cell_angle_alpha 122.999405
_cell_angle_beta 142.285690
_cell_angle_gamma 28.852811
_cell_volume 756.931506
_symmetry_space_group_name_H-M "P -1"
_symmetry_group_IT_number 2
_symmetry_cell_setting 'triclinic'
loop_
_space_group_symop_operation_xyz
x,y,z
-x,-y,-z
loop_
_atom_site_type_symbol
_atom_site_label
_atom_site_fract_x
_atom_site_fract_y
_atom_site_fract_z
Si Si1 0.594585 0.688296 0.901133
Si Si2 0.392417 0.845228 0.993432
Si Si3 0.316385 0.726396 0.005167
Si Si4 0.025083 0.357192 0.563147
Si Si5 0.604823 0.827404 0.245242
Si Si6 0.579589 0.387671 0.431068
Si Si7 0.986986 0.105331 0.251218
O O1 0.433117 0.762245 0.694394
O O2 0.540010 0.868568 0.823845
O O3 0.599941 0.755442 0.072010
O O4 0.809728 0.358620 0.032245
O O5 0.530820 0.567574 0.983571
O O6 0.295721 0.877481 0.968510
O O7 0.537422 0.795443 0.216874
O O8 0.224310 0.120812 0.810274
O O9 0.428374 0.633210 0.241566
O O10 0.115131 0.888863 0.821609
O O11 0.827407 0.610403 0.478094
O O12 0.000000 0.500000 0.500000
O O13 0.020677 0.205561 0.427685
O O14 0.500000 0.500000 0.500000
O O15 0.799007 0.182131 0.634734
#
# Coordination Sequence:
#
# PCOD9021989 Si02
#       7
#     2   2   2   2   2   2   2
#     4   9  18  31  50  79 105 132 169 211 263 298
#     4  11  19  33  49  76 113 138 163 208 256 317
#     4  10  22  33  49  75 108 140 171 203 260 312
#     4  11  19  27  51  78 106 138 168 204 260 312
#     4  10  17  31  50  76 110 134 161 212 256 311
#     4  11  21  36  54  74 102 136 181 220 249 299
#     4  10  18  33  49  75 104 135 171 211 256 306
#
# _framework density 18.495728
#
# number of rings (size 3 to 8) (size 9 to 14) (size 15 to 20)
#    0.000    1.714    5.714    3.429    0.000    4.000 
#    0.000    0.000    0.000    0.857    0.000    8.000 
#    0.000    0.000    0.000    0.000    0.000    0.000 
#
# Total GULP energy -77984.492787 kJ/mol
# GULP energy per Si atom -5570.320913 kJ/mol
# Density = 1.845363 g / cm^3
# Si number density = 18.495728 Si / 1000 Ang^3
#
#
#
# Elastic Constant Matrix: (Units=GPa)
#
#
# Indices 1 2 3 4 5 6 
#
# 1 121.3287 28.5078 43.0600 -14.9005 23.8276 3.6884
# 2 28.5078 16.3982 16.4971 -9.7346 5.6499 -1.4031
# 3 43.0600 16.4971 74.9071 -24.5853 26.5372 -9.5714
# 4 -14.9005 -9.7346 -24.5853 18.8849 -6.9847 2.3465
# 5 23.8276 5.6499 26.5372 -6.9847 31.2386 -5.1115
# 6 3.6884 -1.4031 -9.5714 2.3465 -5.1115 26.6457
#
#
#
# Elastic Compliance Matrix: (Units=1/GPa)
#
#
# Indices 1 2 3 4 5 6 
#
# 1 0.017047 -0.028390 -0.005087 -0.009515 -0.006676 -0.006125
# 2 -0.028390 0.138017 0.001045 0.052326 0.008924 0.008677
# 3 -0.005087 0.001045 0.033692 0.033505 -0.016329 0.006779
# 4 -0.009515 0.052326 0.033505 0.113766 -0.004372 0.005250
# 5 -0.006676 0.008924 -0.016329 -0.004372 0.049261 0.005363
# 6 -0.006125 0.008677 0.006779 0.005250 0.005363 0.041836
#
#
# Mechanical properties :
#
#
# Convention : Reuss Voigt Hill
#
# Bulk Modulus (GPa) = 8.07160 43.19597 25.63378
# Shear Modulus (GPa) = 10.00439 23.65845 16.83142
#
# Velocity S-wave (km/s) = 2.32826 3.58037 3.01992
# Velocity P-wave (km/s) = 3.40605 6.36375 5.10385
#
# Compressibility (1/GPa) = 0.12389123
#
# Stress axis : x y z
#
# Youngs Moduli (GPa) = 58.66165 7.24550 29.68077
#
# Poissons Ratio (x) = 0.20570 0.15100
# Poissons Ratio (y) = 1.66540 -0.03102
# Poissons Ratio (z) = 0.29843 -0.00757
#
# Static dielectric constant tensor:
#      x y z
#    x 1.666250 -0.004060 0.029930 
#    y -0.004060 1.669680 -0.023170 
#    z 0.029930 -0.023170 1.708980 
# 
# From -- ./inp_files/431403.got.cif
#   From: 2010.05.17/outbox.cif.g08.bks.cpg/sg2_216_cif.got.tgz:431403.got - 2010.06.03 11:33:40.
