data_PCOD9021663
_publ_section_title
;
Structure prediction by ZEFSAII (Michael W. Deem and Ramdas Pophale) SiO2 
 PCOD9021663
Probable space group: P -1
;
_chemical_formula_sum "Si O2"
_cell_formula_units_Z 14
_cell_length_a 16.819040
_cell_length_b 9.791710
_cell_length_c 8.428478
_cell_angle_alpha 98.515878
_cell_angle_beta 71.909875
_cell_angle_gamma 149.162036
_cell_volume 656.049861
_symmetry_space_group_name_H-M "P -1"
_symmetry_group_IT_number 2
_symmetry_cell_setting 'triclinic'
loop_
_space_group_symop_operation_xyz
x,y,z
-x,-y,-z
loop_
_atom_site_type_symbol
_atom_site_label
_atom_site_fract_x
_atom_site_fract_y
_atom_site_fract_z
Si Si1 0.950029 0.541154 0.667722
Si Si2 0.113120 0.043506 0.514017
Si Si3 0.184749 0.886317 0.885982
Si Si4 0.627589 0.606997 0.327529
Si Si5 0.312858 0.825851 0.990192
Si Si6 0.368405 0.604795 0.959691
Si Si7 0.300042 0.246085 0.118684
O O1 0.765280 0.261313 0.801313
O O2 0.000000 0.500000 0.500000
O O3 0.047069 0.673046 0.799581
O O4 0.995612 0.751304 0.595285
O O5 0.220567 0.236621 0.635573
O O6 0.248599 0.187383 0.323236
O O7 0.000000 0.000000 0.500000
O O8 0.307671 0.172304 0.778751
O O9 0.242855 0.818423 0.890545
O O10 0.176805 0.953927 0.072071
O O11 0.500000 0.500000 0.500000
O O12 0.557873 0.384550 0.224533
O O13 0.500464 0.146242 0.953844
O O14 0.287668 0.627271 0.942909
O O15 0.261797 0.338899 0.074525
O O16 0.500000 0.500000 0.000000
#
# Coordination Sequence:
#
# PCOD9021663 Si02
#       7
#     2   2   2   2   2   2   2
#     4  11  25  40  60  90 129 164 202 256 315 384
#     4  11  24  41  64  95 127 162 209 271 322 358
#     4  10  22  38  64  88 115 171 211 251 306 382
#     4  10  23  40  65  94 124 165 222 261 309 371
#     4  11  22  41  59  92 128 161 206 248 327 373
#     4  10  23  38  64  91 123 163 204 268 303 373
#     4  11  20  40  69  89 119 166 220 259 303 380
#
# _framework density 21.339841
#
# number of rings (size 3 to 8) (size 9 to 14) (size 15 to 20)
#    0.000    1.429    1.429    3.857    4.000    2.286 
#    0.000    5.000    0.000    0.000    0.000    0.000 
#    0.000    0.000    0.000    0.000    0.000    0.000 
#
# Total GULP energy -78008.700473 kJ/mol
# GULP energy per Si atom -5572.050034 kJ/mol
# Density = 2.129127 g / cm^3
# Si number density = 21.339841 Si / 1000 Ang^3
#
#
#
# Elastic Constant Matrix: (Units=GPa)
#
#
# Indices 1 2 3 4 5 6 
#
# 1 164.1705 39.5869 28.9628 2.1807 25.6096 -27.7248
# 2 39.5869 63.9392 5.2075 14.4595 7.6727 -11.1405
# 3 28.9628 5.2075 76.3002 7.2878 1.5941 -0.9985
# 4 2.1807 14.4595 7.2878 27.3568 -0.0482 -2.7954
# 5 25.6096 7.6727 1.5941 -0.0482 32.1960 1.5859
# 6 -27.7248 -11.1405 -0.9985 -2.7954 1.5859 28.1895
#
#
#
# Elastic Compliance Matrix: (Units=1/GPa)
#
#
# Indices 1 2 3 4 5 6 
#
# 1 0.010520 -0.004477 -0.003739 0.003452 -0.007565 0.009213
# 2 -0.004477 0.021581 0.001365 -0.011092 -0.001823 0.003177
# 3 -0.003739 0.001365 0.014795 -0.004688 0.002067 -0.003195
# 4 0.003452 -0.011092 -0.004688 0.043715 0.000039 0.003178
# 5 -0.007565 -0.001823 0.002067 0.000039 0.037913 -0.010217
# 6 0.009213 0.003177 -0.003195 0.003178 -0.010217 0.046568
#
#
# Mechanical properties :
#
#
# Convention : Reuss Voigt Hill
#
# Bulk Modulus (GPa) = 30.12388 50.21382 40.16885
# Shear Modulus (GPa) = 25.01779 32.92531 28.97155
#
# Velocity S-wave (km/s) = 3.42768 3.93224 3.68860
# Velocity P-wave (km/s) = 5.46005 6.64818 6.08320
#
# Compressibility (1/GPa) = 0.03319626
#
# Stress axis : x y z
#
# Youngs Moduli (GPa) = 95.05274 46.33715 67.59039
#
# Poissons Ratio (x) = 0.20743 0.25272
# Poissons Ratio (y) = 0.42551 -0.09229
# Poissons Ratio (z) = 0.35540 -0.06327
#
# Static dielectric constant tensor:
#      x y z
#    x 1.880560 0.099120 0.016420 
#    y 0.099120 1.838190 0.026680 
#    z 0.016420 0.026680 1.909190 
# 
# From -- ./inp_files/242356.got.cif
#   From: 2010.05.17/outbox.cif.g08.bks.cpg/sg2_122_cif.got.tgz:242356.got - 2010.06.03 11:33:40.
