data_PCOD9021247
_publ_section_title
;
Structure prediction by ZEFSAII (Michael W. Deem and Ramdas Pophale) SiO2 
 PCOD9021247
Probable space group: P -1
;
_chemical_formula_sum "Si O2"
_cell_formula_units_Z 16
_cell_length_a 20.291633
_cell_length_b 11.187342
_cell_length_c 19.656993
_cell_angle_alpha 32.219543
_cell_angle_beta 160.365497
_cell_angle_gamma 146.892794
_cell_volume 778.402064
_symmetry_space_group_name_H-M "P -1"
_symmetry_group_IT_number 2
_symmetry_cell_setting 'triclinic'
loop_
_space_group_symop_operation_xyz
x,y,z
-x,-y,-z
loop_
_atom_site_type_symbol
_atom_site_label
_atom_site_fract_x
_atom_site_fract_y
_atom_site_fract_z
Si Si1 0.590478 0.774554 0.953942
Si Si2 0.868370 0.662564 0.065751
Si Si3 0.778092 0.273978 0.720855
Si Si4 0.568226 0.934586 0.007066
Si Si5 0.405893 0.520212 0.664732
Si Si6 0.833762 0.146100 0.270048
Si Si7 0.947176 0.991540 0.112018
Si Si8 0.382088 0.923851 0.546495
O O1 0.472775 0.862157 0.735564
O O2 0.500000 0.500000 0.000000
O O3 0.563003 0.882688 0.947962
O O4 0.826789 0.864859 0.120751
O O5 0.900493 0.406995 0.234738
O O6 0.865566 0.808120 0.060620
O O7 0.049373 0.776165 0.137402
O O8 0.645074 0.619801 0.837625
O O9 0.716970 0.491301 0.519979
O O10 0.560853 0.099830 0.597085
O O11 0.876386 0.227065 0.911208
O O12 0.607763 0.711014 0.193882
O O13 0.739215 0.140934 0.104550
O O14 0.353413 0.964371 0.810237
O O15 0.333194 0.700871 0.557380
O O16 0.000000 0.000000 0.500000
O O17 0.185280 0.017609 0.327117
#
# Coordination Sequence:
#
# PCOD9021247 Si02
#       8
#     2   2   2   2   2   2   2   2
#     4  11  21  39  56  81 120 155 187 226 282 349
#     4  11  20  33  55  85 116 147 189 234 283 336
#     4  11  21  33  55  84 124 150 183 235 287 341
#     4  10  22  40  58  84 118 148 190 237 278 338
#     4  11  19  33  55  82 119 152 180 231 283 339
#     4  10  22  38  59  84 109 149 196 239 283 324
#     4  11  23  34  55  90 120 152 184 227 289 351
#     4  11  22  33  52  84 119 156 184 219 286 340
#
# _framework density 20.554929999999999
#
# number of rings (size 3 to 8) (size 9 to 14) (size 15 to 20)
#    0.000    1.250    5.000    3.000    0.000    1.500 
#    0.000    0.000    0.000    3.000    0.000   50.750 
#    0.000    0.000    0.000    0.000    0.000    0.000 
#
# Total GULP energy -89195.025044 kJ/mol
# GULP energy per Si atom -5574.689065 kJ/mol
# Density = 2.050815 g / cm^3
# Si number density = 20.554930 Si / 1000 Ang^3
#
#
#
# Elastic Constant Matrix: (Units=GPa)
#
#
# Indices 1 2 3 4 5 6 
#
# 1 102.8422 22.3538 21.3929 2.8198 4.6647 4.8264
# 2 22.3538 32.0490 19.4408 1.4887 -6.4005 4.4396
# 3 21.3929 19.4408 115.5752 0.1054 14.1122 17.0468
# 4 2.8198 1.4887 0.1054 33.6455 8.9094 1.6269
# 5 4.6647 -6.4005 14.1122 8.9094 28.9206 3.4261
# 6 4.8264 4.4396 17.0468 1.6269 3.4261 27.6384
#
#
#
# Elastic Compliance Matrix: (Units=1/GPa)
#
#
# Indices 1 2 3 4 5 6 
#
# 1 0.011883 -0.008963 -0.000205 0.000445 -0.003931 -0.000048
# 2 -0.008963 0.046444 -0.007885 -0.005829 0.017709 -0.002884
# 3 -0.000205 -0.007885 0.011699 0.002593 -0.007613 -0.005123
# 4 0.000445 -0.005829 0.002593 0.033371 -0.012775 -0.001121
# 5 -0.003931 0.017709 -0.007613 -0.012775 0.047083 -0.002547
# 6 -0.000048 -0.002884 -0.005123 -0.001121 -0.002547 0.040194
#
#
# Mechanical properties :
#
#
# Convention : Reuss Voigt Hill
#
# Bulk Modulus (GPa) = 27.83967 41.87127 34.85547
# Shear Modulus (GPa) = 21.11903 30.52616 25.82259
#
# Velocity S-wave (km/s) = 3.20885 3.85788 3.54824
# Velocity P-wave (km/s) = 5.22517 6.34500 5.81212
#
# Compressibility (1/GPa) = 0.03591996
#
# Stress axis : x y z
#
# Youngs Moduli (GPa) = 84.15474 21.53146 85.47452
#
# Poissons Ratio (x) = 0.19298 0.01754
# Poissons Ratio (y) = 0.75427 0.67395
# Poissons Ratio (z) = 0.01727 0.16977
#
# Static dielectric constant tensor:
#      x y z
#    x 1.705010 0.031540 -0.011930 
#    y 0.031540 1.812100 0.005590 
#    z -0.011930 0.005590 1.799490 
# 
# From -- ./inp_files/458160.got.cif
#   From: 2010.05.17/outbox.cif.g08.bks.cpg/sg2_230_cif.got.tgz:458160.got - 2010.06.03 11:33:40.
