data_PCOD9021495
_publ_section_title
;
Structure prediction by ZEFSAII (Michael W. Deem and Ramdas Pophale) SiO2 
 PCOD9021495
Probable space group: P -1
;
_chemical_formula_sum "Si O2"
_cell_formula_units_Z 14
_cell_length_a 9.483812
_cell_length_b 9.072095
_cell_length_c 11.033482
_cell_angle_alpha 84.879001
_cell_angle_beta 99.265509
_cell_angle_gamma 137.183967
_cell_volume 636.180952
_symmetry_space_group_name_H-M "P -1"
_symmetry_group_IT_number 2
_symmetry_cell_setting 'triclinic'
loop_
_space_group_symop_operation_xyz
x,y,z
-x,-y,-z
loop_
_atom_site_type_symbol
_atom_site_label
_atom_site_fract_x
_atom_site_fract_y
_atom_site_fract_z
Si Si1 0.915454 0.188620 0.974335
Si Si2 0.588010 0.200229 0.616878
Si Si3 0.246967 0.173718 0.536502
Si Si4 0.322641 0.735790 0.647679
Si Si5 0.955538 0.518904 0.801215
Si Si6 0.525861 0.573742 0.694283
Si Si7 0.294593 0.267444 0.039628
O O1 0.962636 0.302891 0.101269
O O2 0.102912 0.217725 0.964469
O O3 0.914674 0.327844 0.873188
O O4 0.726433 0.925190 0.972458
O O5 0.364619 0.105554 0.561220
O O6 0.711387 0.280319 0.501224
O O7 0.736467 0.397460 0.716451
O O8 0.520504 0.993078 0.677314
O O9 0.340166 0.317275 0.660790
O O10 0.342139 0.321775 0.419019
O O11 0.000000 0.000000 0.500000
O O12 0.400121 0.630341 0.691682
O O13 0.129348 0.631598 0.712703
O O14 0.685444 0.686329 0.818146
O O15 0.500000 0.500000 0.000000
#
# Coordination Sequence:
#
# PCOD9021495 Si02
#       7
#     2   2   2   2   2   2   2
#     4  10  25  40  63  95 121 164 216 254 302 371
#     4  10  22  39  62  94 125 163 208 248 308 382
#     4  10  23  40  62  91 123 157 199 255 311 363
#     4  10  22  38  62  92 123 165 204 251 311 367
#     4  11  22  42  63  91 132 164 204 260 309 363
#     4  10  22  40  62  91 122 159 206 249 303 375
#     4  11  23  43  64  89 125 165 210 259 308 359
#
# _framework density 22.006315000000001
#
# number of rings (size 3 to 8) (size 9 to 14) (size 15 to 20)
#    0.000    1.714    0.000    3.000    0.000   13.714 
#    0.000    3.571    0.000    0.000    0.000    0.000 
#    0.000    0.000    0.000    0.000    0.000    0.000 
#
# Total GULP energy -78119.604447 kJ/mol
# GULP energy per Si atom -5579.971746 kJ/mol
# Density = 2.195623 g / cm^3
# Si number density = 22.006315 Si / 1000 Ang^3
#
#
#
# Elastic Constant Matrix: (Units=GPa)
#
#
# Indices 1 2 3 4 5 6 
#
# 1 79.8633 44.2584 26.0555 -3.7933 -2.8559 0.5210
# 2 44.2584 116.3225 46.4120 15.1288 -11.1466 -12.4259
# 3 26.0555 46.4120 76.6062 17.2705 -4.4061 -2.6986
# 4 -3.7933 15.1288 17.2705 33.3782 0.7409 -0.2072
# 5 -2.8559 -11.1466 -4.4061 0.7409 20.1105 0.9016
# 6 0.5210 -12.4259 -2.6986 -0.2072 0.9016 43.2567
#
#
#
# Elastic Compliance Matrix: (Units=1/GPa)
#
#
# Indices 1 2 3 4 5 6 
#
# 1 0.017668 -0.006552 -0.003816 0.006985 -0.002115 -0.002255
# 2 -0.006552 0.014773 -0.005128 -0.004899 0.006142 0.003851
# 3 -0.003816 -0.005128 0.019353 -0.008151 0.001169 -0.000283
# 4 0.006985 -0.004899 -0.008151 0.037287 -0.004806 -0.001721
# 5 -0.002115 0.006142 0.001169 -0.004806 0.053230 0.000730
# 6 -0.002255 0.003851 -0.000283 -0.001721 0.000730 0.024210
#
#
# Mechanical properties :
#
#
# Convention : Reuss Voigt Hill
#
# Bulk Modulus (GPa) = 48.07061 56.24932 52.15996
# Shear Modulus (GPa) = 24.45617 29.75348 27.10483
#
# Velocity S-wave (km/s) = 3.33727 3.68100 3.51334
# Velocity P-wave (km/s) = 6.06146 6.60927 6.34128
#
# Compressibility (1/GPa) = 0.02080273
#
# Stress axis : x y z
#
# Youngs Moduli (GPa) = 56.59950 67.69107 51.67080
#
# Poissons Ratio (x) = 0.44351 0.19715
# Poissons Ratio (y) = 0.37084 0.26498
# Poissons Ratio (z) = 0.21596 0.34714
#
# Static dielectric constant tensor:
#      x y z
#    x 1.765630 -0.035170 0.044610 
#    y -0.035170 1.878030 0.043230 
#    z 0.044610 0.043230 1.829450 
# 
# From -- ./inp_files/382048.got.cif
#   From: 2010.05.17/outbox.cif.g08.bks.cpg/sg2_192_cif.got.tgz:382048.got - 2010.06.03 11:33:40.
