data_PCOD9021448
_publ_section_title
;
Structure prediction by ZEFSAII (Michael W. Deem and Ramdas Pophale) SiO2 
 PCOD9021448
Probable space group: P -1
;
_chemical_formula_sum "Si O2"
_cell_formula_units_Z 12
_cell_length_a 8.362444
_cell_length_b 9.591972
_cell_length_c 14.160173
_cell_angle_alpha 68.675562
_cell_angle_beta 46.505547
_cell_angle_gamma 45.873507
_cell_volume 576.700281
_symmetry_space_group_name_H-M "P -1"
_symmetry_group_IT_number 2
_symmetry_cell_setting 'triclinic'
loop_
_space_group_symop_operation_xyz
x,y,z
-x,-y,-z
loop_
_atom_site_type_symbol
_atom_site_label
_atom_site_fract_x
_atom_site_fract_y
_atom_site_fract_z
Si Si1 0.244263 0.512658 0.643853
Si Si2 0.470218 0.862305 0.483994
Si Si3 0.678932 0.907313 0.688048
Si Si4 0.330514 0.163849 0.946792
Si Si5 0.657823 0.633821 0.638796
Si Si6 0.326943 0.500483 0.834588
O O1 0.500000 0.500000 0.500000
O O2 0.263384 0.339336 0.630669
O O3 0.284143 0.481795 0.746195
O O4 0.960232 0.730709 0.675374
O O5 0.500000 0.000000 0.500000
O O6 0.266096 0.001350 0.444198
O O7 0.562196 0.241806 0.391867
O O8 0.582927 0.797341 0.702519
O O9 0.456732 0.068126 0.816207
O O10 0.374896 0.320824 0.909164
O O11 0.982012 0.291994 0.058438
O O12 0.500000 0.000000 0.000000
O O13 0.590461 0.499650 0.736965
O O14 0.000000 0.500000 0.500000
#
# Coordination Sequence:
#
# PCOD9021448 Si02
#       6
#     2   2   2   2   2   2
#     4  12  21  40  64  97 128 165 215 270 327 380
#     4  10  22  38  61  97 130 166 203 263 328 390
#     4  11  23  41  66  91 134 173 212 265 325 386
#     4  11  24  45  66  93 128 176 226 263 308 380
#     4  11  22  45  65  98 136 165 205 274 336 383
#     4  11  24  43  68  94 132 168 220 272 312 383
#
# _framework density 20.808036000000001
#
# number of rings (size 3 to 8) (size 9 to 14) (size 15 to 20)
#    0.000    1.000    6.667    0.000    0.000    1.333 
#   18.000    0.833    0.000    0.000    0.000    0.000 
#    0.000    0.000    0.000    0.000    0.000    0.000 
#
# Total GULP energy -66874.375330 kJ/mol
# GULP energy per Si atom -5572.864611 kJ/mol
# Density = 2.076068 g / cm^3
# Si number density = 20.808036 Si / 1000 Ang^3
#
#
#
# Elastic Constant Matrix: (Units=GPa)
#
#
# Indices 1 2 3 4 5 6 
#
# 1 63.4139 31.5862 33.3275 0.9378 1.0974 3.4615
# 2 31.5862 114.5582 40.7423 2.9017 -6.7550 -9.4034
# 3 33.3275 40.7423 69.3579 6.2425 -6.9160 0.7883
# 4 0.9378 2.9017 6.2425 48.9593 3.7663 19.3633
# 5 1.0974 -6.7550 -6.9160 3.7663 36.1865 -6.1176
# 6 3.4615 -9.4034 0.7883 19.3633 -6.1176 27.4538
#
#
#
# Elastic Compliance Matrix: (Units=1/GPa)
#
#
# Indices 1 2 3 4 5 6 
#
# 1 0.023435 -0.004176 -0.009682 0.004906 -0.005331 -0.008755
# 2 -0.004176 0.012549 -0.004809 -0.003549 0.003306 0.008203
# 3 -0.009682 -0.004809 0.022664 -0.003810 0.004568 0.002628
# 4 0.004906 -0.003549 -0.003810 0.032257 -0.009388 -0.026568
# 5 -0.005331 0.003306 0.004568 -0.009388 0.032906 0.015627
# 6 -0.008755 0.008203 0.002628 -0.026568 0.015627 0.062483
#
#
# Mechanical properties :
#
#
# Convention : Reuss Voigt Hill
#
# Bulk Modulus (GPa) = 46.91572 50.96021 48.93796
# Shear Modulus (GPa) = 21.67016 31.96485 26.81750
#
# Velocity S-wave (km/s) = 3.23062 3.92366 3.59389
# Velocity P-wave (km/s) = 6.04250 6.71347 6.38680
#
# Compressibility (1/GPa) = 0.02131482
#
# Stress axis : x y z
#
# Youngs Moduli (GPa) = 42.67101 79.68735 44.12318
#
# Poissons Ratio (x) = 0.33274 0.42719
# Poissons Ratio (y) = 0.17818 0.21220
# Poissons Ratio (z) = 0.41313 0.38324
#
# Static dielectric constant tensor:
#      x y z
#    x 2.021890 -0.036160 -0.144070 
#    y -0.036160 1.823910 -0.023350 
#    z -0.144070 -0.023350 1.865790 
# 
# From -- ./inp_files/232630.got.cif
#   From: 2010.05.17/outbox.cif.g08.bks.cpg/sg2_117_cif.got.tgz:232630.got - 2010.06.03 11:33:40.
