data_PCOD9021020
_publ_section_title
;
Structure prediction by ZEFSAII (Michael W. Deem and Ramdas Pophale) SiO2 
 PCOD9021020
Probable space group: P -1
;
_chemical_formula_sum "Si O2"
_cell_formula_units_Z 16
_cell_length_a 14.217621
_cell_length_b 8.828257
_cell_length_c 9.743679
_cell_angle_alpha 129.483333
_cell_angle_beta 47.404919
_cell_angle_gamma 118.081681
_cell_volume 693.114621
_symmetry_space_group_name_H-M "P -1"
_symmetry_group_IT_number 2
_symmetry_cell_setting 'triclinic'
loop_
_space_group_symop_operation_xyz
x,y,z
-x,-y,-z
loop_
_atom_site_type_symbol
_atom_site_label
_atom_site_fract_x
_atom_site_fract_y
_atom_site_fract_z
Si Si1 0.229731 0.625068 0.402947
Si Si2 0.105326 0.576453 0.796393
Si Si3 0.253170 0.190224 0.057465
Si Si4 0.034921 0.855394 0.572681
Si Si5 0.644605 0.026451 0.919003
Si Si6 0.364143 0.033241 0.583677
Si Si7 0.870142 0.303653 0.876939
Si Si8 0.233109 0.203177 0.575950
O O1 0.170026 0.607844 0.604738
O O2 0.287413 0.425047 0.180006
O O3 0.114871 0.677711 0.447616
O O4 0.323627 0.821683 0.432935
O O5 0.182150 0.407472 0.697969
O O6 0.954949 0.508556 0.888929
O O7 0.118131 0.738452 0.996422
O O8 0.107302 0.168017 0.243615
O O9 0.337905 0.063636 0.000518
O O10 0.273482 0.106279 0.837357
O O11 0.049746 0.827983 0.378769
O O12 0.116346 0.052033 0.653502
O O13 0.721647 0.242241 0.956255
O O14 0.718073 0.891964 0.665392
O O15 0.500000 0.000000 0.000000
O O16 0.344631 0.191922 0.573119
O O17 0.500000 0.000000 0.500000
#
# Coordination Sequence:
#
# PCOD9021020 Si02
#       8
#     2   2   2   2   2   2   2   2
#     4  11  24  42  67 101 131 166 222 272 327 398
#     4  11  21  38  64 100 127 160 213 274 337 377
#     4  12  23  41  72  93 129 175 217 272 332 379
#     4  10  22  41  65  98 132 165 214 270 337 390
#     4  11  22  42  64  92 131 179 220 262 320 390
#     4  11  27  47  63  92 135 177 220 266 320 396
#     4  10  22  37  64  93 137 161 207 275 326 384
#     4  10  22  41  63  92 129 165 216 265 326 388
#
# _framework density 23.084204
#
# number of rings (size 3 to 8) (size 9 to 14) (size 15 to 20)
#    0.000    1.250    2.500    2.625    1.750    6.500 
#    2.250    1.250    0.000    0.000    0.000    0.000 
#    0.000    0.000    0.000    0.000    0.000    0.000 
#
# Total GULP energy -89326.398632 kJ/mol
# GULP energy per Si atom -5582.899915 kJ/mol
# Density = 2.303166 g / cm^3
# Si number density = 23.084204 Si / 1000 Ang^3
#
#
#
# Elastic Constant Matrix: (Units=GPa)
#
#
# Indices 1 2 3 4 5 6 
#
# 1 98.6209 27.3056 1.2946 12.0995 2.7502 6.4843
# 2 27.3056 65.4351 1.5402 15.0202 -6.6788 -6.1514
# 3 1.2946 1.5402 76.2813 5.8038 18.5350 0.2095
# 4 12.0995 15.0202 5.8038 20.2594 -2.2035 4.9725
# 5 2.7502 -6.6788 18.5350 -2.2035 37.3740 -11.3263
# 6 6.4843 -6.1514 0.2095 4.9725 -11.3263 42.7772
#
#
#
# Elastic Compliance Matrix: (Units=1/GPa)
#
#
# Indices 1 2 3 4 5 6 
#
# 1 0.012228 -0.004951 0.001001 -0.003539 -0.003418 -0.003064
# 2 -0.004951 0.021897 -0.000752 -0.014163 0.005977 0.007132
# 3 0.001001 -0.000752 0.015656 -0.004974 -0.008907 -0.002117
# 4 -0.003539 -0.014163 -0.004974 0.065697 0.001422 -0.008736
# 5 -0.003418 0.005977 -0.008907 0.001422 0.035833 0.010744
# 6 -0.003064 0.007132 -0.002117 -0.008736 0.010744 0.028737
#
#
# Mechanical properties :
#
#
# Convention : Reuss Voigt Hill
#
# Bulk Modulus (GPa) = 24.76687 33.40200 29.08443
# Shear Modulus (GPa) = 24.64093 34.09524 29.36809
#
# Velocity S-wave (km/s) = 3.27071 3.84734 3.57068
# Velocity P-wave (km/s) = 5.00156 5.85124 5.44301
#
# Compressibility (1/GPa) = 0.04037653
#
# Stress axis : x y z
#
# Youngs Moduli (GPa) = 81.77630 45.66739 63.87262
#
# Poissons Ratio (x) = 0.22610 -0.06391
# Poissons Ratio (y) = 0.40487 0.04806
# Poissons Ratio (z) = -0.08183 0.03436
#
# Static dielectric constant tensor:
#      x y z
#    x 1.908450 0.005460 0.018470 
#    y 0.005460 1.945130 0.026930 
#    z 0.018470 0.026930 1.868900 
# 
# From -- ./inp_files/245372.got.cif
#   From: 2010.05.17/outbox.cif.g08.bks.cpg/sg2_123_cif.got.tgz:245372.got - 2010.06.03 11:33:40.
