data_PCOD9021389
_publ_section_title
;
Structure prediction by ZEFSAII (Michael W. Deem and Ramdas Pophale) SiO2 
 PCOD9021389
Probable space group: P -1
;
_chemical_formula_sum "Si O2"
_cell_formula_units_Z 16
_cell_length_a 5.890471
_cell_length_b 9.100028
_cell_length_c 20.271972
_cell_angle_alpha 113.792933
_cell_angle_beta 73.706567
_cell_angle_gamma 136.999590
_cell_volume 677.928397
_symmetry_space_group_name_H-M "P -1"
_symmetry_group_IT_number 2
_symmetry_cell_setting 'triclinic'
loop_
_space_group_symop_operation_xyz
x,y,z
-x,-y,-z
loop_
_atom_site_type_symbol
_atom_site_label
_atom_site_fract_x
_atom_site_fract_y
_atom_site_fract_z
Si Si1 0.604072 0.203389 0.678095
Si Si2 0.599763 0.383661 0.934516
Si Si3 0.936762 0.009891 0.837176
Si Si4 0.357577 0.109600 0.023930
Si Si5 0.065676 0.671436 0.193338
Si Si6 0.778592 0.670962 0.421823
Si Si7 0.810538 0.061191 0.450586
Si Si8 0.600231 0.578037 0.714040
O O1 0.651716 0.187879 0.747761
O O2 0.647702 0.415452 0.701948
O O3 0.905727 0.262800 0.625858
O O4 0.275510 0.981542 0.627450
O O5 0.901153 0.477673 0.878850
O O6 0.500000 0.500000 0.000000
O O7 0.621662 0.292151 0.981885
O O8 0.288946 0.192900 0.878312
O O9 0.688889 0.858393 0.891471
O O10 0.879708 0.835106 0.761142
O O11 0.891774 0.155779 0.827629
O O12 0.500000 0.000000 0.000000
O O13 0.000000 0.000000 0.000000
O O14 0.730007 0.526805 0.237003
O O15 0.477173 0.455220 0.364129
O O16 0.861709 0.706174 0.499710
O O17 0.790918 0.864810 0.436851
O O18 0.500000 0.000000 0.500000
#
# Coordination Sequence:
#
# PCOD9021389 Si02
#       8
#     2   2   2   2   2   2   2   2
#     4   9  18  33  56  89 120 159 203 251 302 367
#     4  11  26  44  64  89 119 162 211 267 325 390
#     4  11  25  42  61  87 122 162 203 265 320 384
#     4  10  22  44  64  91 122 161 213 265 331 392
#     4  11  23  41  62  88 122 159 208 257 323 375
#     4   8  15  29  52  88 121 160 199 247 295 364
#     4   8  13  26  52  86 125 156 200 244 294 354
#     4  10  22  38  61  88 123 161 208 252 313 376
#
# _framework density 23.601313000000001
#
# number of rings (size 3 to 8) (size 9 to 14) (size 15 to 20)
#    0.000    2.250    1.250    0.750    3.500    4.500 
#    0.000    0.000    0.000    0.750    0.000   86.625 
#    0.000    0.000    0.000    0.000    0.000    0.000 
#
# Total GULP energy -89105.967181 kJ/mol
# GULP energy per Si atom -5569.122949 kJ/mol
# Density = 2.354760 g / cm^3
# Si number density = 23.601313 Si / 1000 Ang^3
#
#
#
# Elastic Constant Matrix: (Units=GPa)
#
#
# Indices 1 2 3 4 5 6 
#
# 1 120.6869 44.2981 62.5107 9.1877 -10.0049 -0.7698
# 2 44.2981 32.9972 55.6713 7.4572 12.5871 5.5428
# 3 62.5107 55.6713 189.0200 6.6168 5.3192 -0.8089
# 4 9.1877 7.4572 6.6168 45.4839 -2.6954 8.2355
# 5 -10.0049 12.5871 5.3192 -2.6954 64.5791 1.1897
# 6 -0.7698 5.5428 -0.8089 8.2355 1.1897 33.7530
#
#
#
# Elastic Compliance Matrix: (Units=1/GPa)
#
#
# Indices 1 2 3 4 5 6 
#
# 1 0.024357 -0.049900 0.006255 0.001660 0.012905 0.008040
# 2 -0.049900 0.177433 -0.034359 -0.011480 -0.039468 -0.026907
# 3 0.006255 -0.034359 0.013114 0.001871 0.006564 0.005411
# 4 0.001660 -0.011480 0.001871 0.024198 0.003425 -0.004057
# 5 0.012905 -0.039468 0.006564 0.003425 0.024683 0.005227
# 6 0.008040 -0.026907 0.005411 -0.004057 0.005227 0.035164
#
#
# Mechanical properties :
#
#
# Convention : Reuss Voigt Hill
#
# Bulk Modulus (GPa) = 16.97894 74.18493 45.58194
# Shear Modulus (GPa) = 10.53543 40.77814 25.65679
#
# Velocity S-wave (km/s) = 2.11509 4.16118 3.30068
# Velocity P-wave (km/s) = 3.62967 7.38837 5.82076
#
# Compressibility (1/GPa) = 0.05889648
#
# Stress axis : x y z
#
# Youngs Moduli (GPa) = 41.05677 5.63592 76.25181
#
# Poissons Ratio (x) = 0.28123 -0.47695
# Poissons Ratio (y) = 2.04873 2.61994
# Poissons Ratio (z) = -0.25681 0.19364
#
# Static dielectric constant tensor:
#      x y z
#    x 1.934830 0.050060 0.020460 
#    y 0.050060 1.902720 0.049170 
#    z 0.020460 0.049170 1.914910 
# 
# From -- ./inp_files/122992.got.cif
#   From: 2010.05.17/outbox.cif.g08.bks.cpg/sg2_62_cif.got.tgz:122992.got - 2010.06.03 11:33:40.
