data_PCOD9021691
_publ_section_title
;
Structure prediction by ZEFSAII (Michael W. Deem and Ramdas Pophale) SiO2 
 PCOD9021691
Probable space group: P -1
;
_chemical_formula_sum "Si O2"
_cell_formula_units_Z 16
_cell_length_a 14.669643
_cell_length_b 5.002426
_cell_length_c 11.988654
_cell_angle_alpha 102.691965
_cell_angle_beta 69.301902
_cell_angle_gamma 70.495061
_cell_volume 716.606259
_symmetry_space_group_name_H-M "P -1"
_symmetry_group_IT_number 2
_symmetry_cell_setting 'triclinic'
loop_
_space_group_symop_operation_xyz
x,y,z
-x,-y,-z
loop_
_atom_site_type_symbol
_atom_site_label
_atom_site_fract_x
_atom_site_fract_y
_atom_site_fract_z
Si Si1 0.990159 0.920480 0.868253
Si Si2 0.217237 0.509811 0.343622
Si Si3 0.158143 0.433252 0.116316
Si Si4 0.720687 0.888216 0.175452
Si Si5 0.357631 0.683421 0.463630
Si Si6 0.905242 0.793873 0.512410
Si Si7 0.401439 0.416943 0.664811
Si Si8 0.845346 0.706452 0.308797
O O1 0.910278 0.760571 0.877732
O O2 0.108071 0.664615 0.746166
O O3 0.927058 0.227632 0.853946
O O4 0.000000 0.000000 0.000000
O O5 0.216525 0.413783 0.207387
O O6 0.313305 0.554504 0.369194
O O7 0.194275 0.272541 0.407238
O O8 0.120590 0.861424 0.417594
O O9 0.249357 0.293529 0.968231
O O10 0.641062 0.800844 0.276976
O O11 0.831942 0.781635 0.190632
O O12 0.665224 0.250623 0.219487
O O13 0.375753 0.477699 0.549054
O O14 0.470717 0.688159 0.387756
O O15 0.267413 0.022983 0.569583
O O16 0.922624 0.751404 0.369178
O O17 0.000000 0.500000 0.500000
#
# Coordination Sequence:
#
# PCOD9021691 Si02
#       8
#     2   2   2   2   2   2   2   2
#     4  12  25  42  64  94 130 169 213 253 310 370
#     4  11  23  40  61  88 126 168 205 251 320 370
#     4  12  25  43  62  93 132 170 210 259 303 380
#     4  11  23  39  63  91 125 164 210 263 315 366
#     4   9  22  42  67  95 128 162 208 269 321 374
#     4  11  22  38  58  89 123 165 207 257 303 373
#     4  10  22  41  66  95 124 158 212 271 320 366
#     4  10  22  38  64  93 124 160 210 255 317 371
#
# _framework density 22.327465
#
# number of rings (size 3 to 8) (size 9 to 14) (size 15 to 20)
#    0.000    1.250    1.250    4.500    0.000   10.500 
#    0.000    1.250    0.000    0.000    0.000    0.000 
#    0.000    0.000    0.000    0.000    0.000    0.000 
#
# Total GULP energy -89378.333674 kJ/mol
# GULP energy per Si atom -5586.145855 kJ/mol
# Density = 2.227665 g / cm^3
# Si number density = 22.327465 Si / 1000 Ang^3
#
#
#
# Elastic Constant Matrix: (Units=GPa)
#
#
# Indices 1 2 3 4 5 6 
#
# 1 117.4258 19.8622 57.0539 -14.5768 24.4938 -4.7805
# 2 19.8622 70.9446 8.0620 -1.2482 5.7987 14.4497
# 3 57.0539 8.0620 118.8756 -9.7771 41.3333 -1.1893
# 4 -14.5768 -1.2482 -9.7771 34.5140 0.5147 -1.6671
# 5 24.4938 5.7987 41.3333 0.5147 38.8935 -2.6294
# 6 -4.7805 14.4497 -1.1893 -1.6671 -2.6294 39.8437
#
#
#
# Elastic Compliance Matrix: (Units=1/GPa)
#
#
# Indices 1 2 3 4 5 6 
#
# 1 0.012348 -0.003190 -0.004537 0.003971 -0.002362 0.002513
# 2 -0.003190 0.016329 0.000938 -0.000774 -0.001846 -0.006431
# 3 -0.004537 0.000938 0.015593 0.002684 -0.013972 -0.001229
# 4 0.003971 -0.000774 0.002684 0.031552 -0.005534 0.001792
# 5 -0.002362 -0.001846 -0.013972 -0.005534 0.042568 0.002547
# 6 0.002513 -0.006431 -0.001229 0.001792 0.002547 0.027938
#
#
# Mechanical properties :
#
#
# Convention : Reuss Voigt Hill
#
# Bulk Modulus (GPa) = 32.58352 53.02247 42.80300
# Shear Modulus (GPa) = 29.38794 37.46809 33.42802
#
# Velocity S-wave (km/s) = 3.63192 4.10093 3.87353
# Velocity P-wave (km/s) = 5.67564 6.79872 6.26241
#
# Compressibility (1/GPa) = 0.03069036
#
# Stress axis : x y z
#
# Youngs Moduli (GPa) = 80.98463 61.23955 64.13290
#
# Poissons Ratio (x) = 0.19538 0.29098
# Poissons Ratio (y) = 0.25838 -0.06015
# Poissons Ratio (z) = 0.36744 -0.05743
#
# Static dielectric constant tensor:
#      x y z
#    x 1.894610 -0.207380 0.035020 
#    y -0.207380 1.008230 0.298560 
#    z 0.035020 0.298560 1.720200 
# 
# From -- ./inp_files/76189.got.cif
#   From: 2010.05.17/outbox.cif.g08.bks.cpg/sg2_39_cif.got.tgz:76189.got - 2010.06.03 11:33:40.
