data_PCOD9021407
_publ_section_title
;
Structure prediction by ZEFSAII (Michael W. Deem and Ramdas Pophale) SiO2 
 PCOD9021407
Probable space group: P -1
;
_chemical_formula_sum "Si O2"
_cell_formula_units_Z 16
_cell_length_a 8.188984
_cell_length_b 10.928144
_cell_length_c 20.918466
_cell_angle_alpha 147.673010
_cell_angle_beta 54.234756
_cell_angle_gamma 126.674926
_cell_volume 788.875578
_symmetry_space_group_name_H-M "P -1"
_symmetry_group_IT_number 2
_symmetry_cell_setting 'triclinic'
loop_
_space_group_symop_operation_xyz
x,y,z
-x,-y,-z
loop_
_atom_site_type_symbol
_atom_site_label
_atom_site_fract_x
_atom_site_fract_y
_atom_site_fract_z
Si Si1 0.023837 0.043570 0.089373
Si Si2 0.286020 0.246829 0.470502
Si Si3 0.138115 0.759631 0.571500
Si Si4 0.467000 0.358397 0.618539
Si Si5 0.968723 0.864584 0.320469
Si Si6 0.921580 0.427020 0.057161
Si Si7 0.468136 0.263269 0.125904
Si Si8 0.281490 0.748197 0.670804
O O1 0.239011 0.237892 0.139269
O O2 0.829252 0.137640 0.199411
O O3 0.038149 0.813604 0.027329
O O4 0.000000 0.000000 0.000000
O O5 0.392010 0.339673 0.554330
O O6 0.194596 0.464878 0.565596
O O7 0.471373 0.216901 0.368244
O O8 0.119722 0.999587 0.400389
O O9 0.326229 0.736749 0.471975
O O10 0.229934 0.847681 0.658529
O O11 0.000000 0.500000 0.500000
O O12 0.015151 0.938949 0.650984
O O13 0.268237 0.207990 0.634478
O O14 0.517988 0.614426 0.753553
O O15 0.018365 0.634393 0.176668
O O16 0.672592 0.406272 0.105467
O O17 0.000000 0.500000 0.000000
O O18 0.500000 0.000000 0.000000
#
# Coordination Sequence:
#
# PCOD9021407 Si02
#       8
#     2   2   2   2   2   2   2   2
#     4  11  24  43  68  97 126 169 221 271 306 381
#     4  10  22  39  62  94 126 165 204 271 317 374
#     4  11  20  37  60  90 120 165 207 259 311 379
#     4  10  22  38  61  90 128 160 212 257 324 379
#     4  11  22  39  62  92 127 163 210 260 326 375
#     4  10  23  44  65  92 131 175 211 258 328 387
#     4   9  21  40  62  93 123 172 212 257 319 387
#     4  10  22  39  60  92 126 158 215 260 317 368
#
# _framework density 20.282032999999998
#
# number of rings (size 3 to 8) (size 9 to 14) (size 15 to 20)
#    0.000    1.750    1.250    2.250    5.250    2.000 
#    0.000    5.000    0.000    0.000    0.000    0.000 
#    0.000    0.000    0.000    0.000    0.000    0.000 
#
# Total GULP energy -89213.190208 kJ/mol
# GULP energy per Si atom -5575.824388 kJ/mol
# Density = 2.023587 g / cm^3
# Si number density = 20.282033 Si / 1000 Ang^3
#
#
#
# Elastic Constant Matrix: (Units=GPa)
#
#
# Indices 1 2 3 4 5 6 
#
# 1 71.3757 27.3264 49.8386 -0.1867 12.4928 2.6410
# 2 27.3264 80.1788 51.3400 -8.4464 5.5620 10.8498
# 3 49.8386 51.3400 148.1822 -17.4803 6.0138 15.3001
# 4 -0.1867 -8.4464 -17.4803 36.3226 4.5641 4.6065
# 5 12.4928 5.5620 6.0138 4.5641 31.4338 6.3165
# 6 2.6410 10.8498 15.3001 4.6065 6.3165 28.8117
#
#
#
# Elastic Compliance Matrix: (Units=1/GPa)
#
#
# Indices 1 2 3 4 5 6 
#
# 1 0.020891 -0.003559 -0.006444 -0.003579 -0.006912 0.004935
# 2 -0.003559 0.017112 -0.003953 0.002658 -0.000366 -0.004363
# 3 -0.006444 -0.003953 0.011336 0.004968 0.001383 -0.005038
# 4 -0.003579 0.002658 0.004968 0.031889 -0.003074 -0.007736
# 5 -0.006912 -0.000366 0.001383 -0.003074 0.036299 -0.007430
# 6 0.004935 -0.004363 -0.005038 -0.007736 -0.007430 0.041440
#
#
# Mechanical properties :
#
#
# Convention : Reuss Voigt Hill
#
# Bulk Modulus (GPa) = 46.67218 61.86075 54.26647
# Shear Modulus (GPa) = 25.77051 30.72908 28.24979
#
# Velocity S-wave (km/s) = 3.56843 3.89664 3.73614
# Velocity P-wave (km/s) = 6.32770 7.12822 6.73985
#
# Compressibility (1/GPa) = 0.02142604
#
# Stress axis : x y z
#
# Youngs Moduli (GPa) = 47.86853 58.43874 88.21810
#
# Poissons Ratio (x) = 0.20797 0.56852
# Poissons Ratio (y) = 0.17035 0.34871
# Poissons Ratio (z) = 0.30849 0.23100
#
# Static dielectric constant tensor:
#      x y z
#    x 1.778710 0.011300 0.015490 
#    y 0.011300 1.742650 0.003390 
#    z 0.015490 0.003390 1.717810 
# 
# From -- ./inp_files/262754.got.cif
#   From: 2010.05.17/outbox.cif.g08.bks.cpg/sg2_132_cif.got.tgz:262754.got - 2010.06.03 11:33:40.
