data_PCOD9021964
_publ_section_title
;
Structure prediction by ZEFSAII (Michael W. Deem and Ramdas Pophale) SiO2 
 PCOD9021964
Probable space group: P -1
;
_chemical_formula_sum "Si O2"
_cell_formula_units_Z 16
_cell_length_a 5.278915
_cell_length_b 11.610457
_cell_length_c 11.500535
_cell_angle_alpha 97.389527
_cell_angle_beta 124.295244
_cell_angle_gamma 84.567441
_cell_volume 577.280325
_symmetry_space_group_name_H-M "P -1"
_symmetry_group_IT_number 2
_symmetry_cell_setting 'triclinic'
loop_
_space_group_symop_operation_xyz
x,y,z
-x,-y,-z
loop_
_atom_site_type_symbol
_atom_site_label
_atom_site_fract_x
_atom_site_fract_y
_atom_site_fract_z
Si Si1 0.419507 0.637421 0.214383
Si Si2 0.000163 0.972370 0.130661
Si Si3 0.148370 0.608361 0.393770
Si Si4 0.806961 0.188832 0.259005
Si Si5 0.694655 0.627536 0.907201
Si Si6 0.268841 0.342430 0.340892
Si Si7 0.693643 0.977899 0.343967
Si Si8 0.316086 0.221888 0.867359
O O1 0.303088 0.650174 0.318060
O O2 0.338548 0.510825 0.127690
O O3 0.379744 0.731961 0.112236
O O4 0.793144 0.641254 0.314131
O O5 0.338191 0.944671 0.271890
O O6 0.749442 0.873160 0.063366
O O7 0.884253 0.090135 0.173637
O O8 0.000000 0.000000 0.000000
O O9 0.172876 0.468995 0.381895
O O10 0.361143 0.656142 0.556341
O O11 0.622771 0.298794 0.174535
O O12 0.136338 0.243557 0.375234
O O13 0.638914 0.109347 0.297560
O O14 0.830478 0.660453 0.820084
O O15 0.804800 0.666405 0.069098
O O16 0.800227 0.869709 0.274457
O O17 0.000000 0.000000 0.500000
#
# Coordination Sequence:
#
# PCOD9021964 Si02
#       8
#     2   2   2   2   2   2   2   2
#     4  11  25  45  70 107 151 194 241 306 376 460
#     4  11  24  46  72 104 140 189 252 312 371 441
#     4  10  24  42  68 103 146 188 244 294 375 442
#     4  11  22  40  70  99 136 185 240 306 366 442
#     4  11  23  44  68 106 143 187 248 302 378 447
#     4  10  22  38  68 100 137 187 236 306 357 447
#     4  11  27  45  69 103 144 192 247 313 381 444
#     4  11  26  43  71 101 144 196 242 307 378 455
#
# _framework density 27.716168
#
# number of rings (size 3 to 8) (size 9 to 14) (size 15 to 20)
#    0.000    1.250    1.250    3.375    5.250    6.500 
#    0.000    1.875    0.000    0.000    0.000    0.000 
#    0.000    0.000    0.000    0.000    0.000    0.000 
#
# Total GULP energy -89231.118823 kJ/mol
# GULP energy per Si atom -5576.944926 kJ/mol
# Density = 2.765308 g / cm^3
# Si number density = 27.716168 Si / 1000 Ang^3
#
#
#
# Elastic Constant Matrix: (Units=GPa)
#
#
# Indices 1 2 3 4 5 6 
#
# 1 113.8457 40.2068 46.5524 8.5428 3.6393 20.7649
# 2 40.2068 144.7022 28.4219 22.9074 -8.5039 29.5038
# 3 46.5524 28.4219 139.7716 19.2450 18.8437 -3.7060
# 4 8.5428 22.9074 19.2450 36.2039 -5.5409 -2.5122
# 5 3.6393 -8.5039 18.8437 -5.5409 50.0120 -7.4678
# 6 20.7649 29.5038 -3.7060 -2.5122 -7.4678 55.9688
#
#
#
# Elastic Compliance Matrix: (Units=1/GPa)
#
#
# Indices 1 2 3 4 5 6 
#
# 1 0.011528 -0.001793 -0.003520 -0.000021 -0.000360 -0.003614
# 2 -0.001793 0.009352 -0.000803 -0.005257 0.000776 -0.004450
# 3 -0.003520 -0.000803 0.009618 -0.004227 -0.003722 0.001680
# 4 -0.000021 -0.005257 -0.004227 0.034326 0.005210 0.004735
# 5 -0.000360 0.000776 -0.003722 0.005210 0.022539 0.002719
# 6 -0.003614 -0.004450 0.001680 0.004735 0.002719 0.022240
#
#
# Mechanical properties :
#
#
# Convention : Reuss Voigt Hill
#
# Bulk Modulus (GPa) = 54.74293 69.85352 62.29822
# Shear Modulus (GPa) = 39.08545 47.31283 43.19914
#
# Velocity S-wave (km/s) = 3.75934 4.13613 3.95223
# Velocity P-wave (km/s) = 6.21592 6.93310 6.58428
#
# Compressibility (1/GPa) = 0.01826720
#
# Stress axis : x y z
#
# Youngs Moduli (GPa) = 86.74210 106.92929 103.96647
#
# Poissons Ratio (x) = 0.19172 0.36592
# Poissons Ratio (y) = 0.15553 0.08352
# Poissons Ratio (z) = 0.30529 0.08590
#
# Static dielectric constant tensor:
#      x y z
#    x 2.344100 -0.020870 0.072120 
#    y -0.020870 2.304260 -0.339990 
#    z 0.072120 -0.339990 2.483120 
# 
# From -- ./inp_files/364881.got.cif
#   From: 2010.05.17/outbox.cif.g08.bks.cpg/sg2_183_cif.got.tgz:364881.got - 2010.06.03 11:33:40.
