data_PCOD9021252
_publ_section_title
;
Structure prediction by ZEFSAII (Michael W. Deem and Ramdas Pophale) SiO2 
 PCOD9021252
Probable space group: P -1
;
_chemical_formula_sum "Si O2"
_cell_formula_units_Z 16
_cell_length_a 9.785712
_cell_length_b 14.940785
_cell_length_c 9.788780
_cell_angle_alpha 108.620513
_cell_angle_beta 78.285476
_cell_angle_gamma 151.934949
_cell_volume 628.062374
_symmetry_space_group_name_H-M "P -1"
_symmetry_group_IT_number 2
_symmetry_cell_setting 'triclinic'
loop_
_space_group_symop_operation_xyz
x,y,z
-x,-y,-z
loop_
_atom_site_type_symbol
_atom_site_label
_atom_site_fract_x
_atom_site_fract_y
_atom_site_fract_z
Si Si1 0.581733 0.146791 0.701327
Si Si2 0.839099 0.839649 0.066378
Si Si3 0.140304 0.180311 0.652295
Si Si4 0.334959 0.630165 0.415463
Si Si5 0.347316 0.677553 0.004121
Si Si6 0.246822 0.377117 0.206812
Si Si7 0.021798 0.230366 0.456412
Si Si8 0.223148 0.523680 0.675313
O O1 0.631160 0.265781 0.647997
O O2 0.912717 0.305738 0.703975
O O3 0.298948 0.920994 0.597921
O O4 0.510703 0.146772 0.865316
O O5 0.502237 0.681716 0.054683
O O6 0.852086 0.740401 0.960586
O O7 0.973603 0.925651 0.232277
O O8 0.000000 0.000000 0.000000
O O9 0.335442 0.216084 0.558119
O O10 0.398808 0.406984 0.760899
O O11 0.969572 0.133066 0.547774
O O12 0.165661 0.439156 0.285448
O O13 0.221720 0.586933 0.569724
O O14 0.389827 0.675096 0.836352
O O15 0.000000 0.500000 0.000000
O O16 0.135738 0.254589 0.303585
O O17 0.276862 0.456375 0.556029
#
# Coordination Sequence:
#
# PCOD9021252 Si02
#       8
#     2   2   2   2   2   2   2   2
#     4  11  21  40  60  91 126 164 207 263 306 363
#     4  12  23  39  63  96 127 161 211 268 320 364
#     4  10  22  38  59  86 128 160 200 251 320 370
#     4   9  21  37  59  88 121 159 210 249 309 367
#     4  10  22  40  61  85 122 167 207 244 305 381
#     4   9  21  36  60  88 124 165 206 250 309 380
#     4  11  22  38  62  96 126 158 204 265 320 357
#     4  10  22  39  65  87 121 171 215 245 304 389
#
# _framework density 25.475179000000001
#
# number of rings (size 3 to 8) (size 9 to 14) (size 15 to 20)
#    0.750    1.000    1.250    3.000    1.750    2.500 
#    0.000    0.000    0.000    0.000    0.000   24.500 
#    0.000    0.000    0.000    0.000    0.000    0.000 
#
# Total GULP energy -89107.874002 kJ/mol
# GULP energy per Si atom -5569.242125 kJ/mol
# Density = 2.541720 g / cm^3
# Si number density = 25.475179 Si / 1000 Ang^3
#
#
#
# Elastic Constant Matrix: (Units=GPa)
#
#
# Indices 1 2 3 4 5 6 
#
# 1 45.5708 4.0846 10.2949 -4.4548 3.8717 2.2380
# 2 4.0846 85.2269 28.3735 -18.5231 1.3796 -2.4228
# 3 10.2949 28.3735 172.3251 -25.5540 -8.0323 -12.3673
# 4 -4.4548 -18.5231 -25.5540 36.5494 -3.9996 -1.5957
# 5 3.8717 1.3796 -8.0323 -3.9996 33.4572 0.0036
# 6 2.2380 -2.4228 -12.3673 -1.5957 0.0036 38.4590
#
#
#
# Elastic Compliance Matrix: (Units=1/GPa)
#
#
# Indices 1 2 3 4 5 6 
#
# 1 0.022730 -0.000367 -0.001367 0.001247 -0.002794 -0.001733
# 2 -0.000367 0.013483 -0.001276 0.005915 -0.000113 0.000706
# 3 -0.001367 -0.001276 0.007050 0.004490 0.002440 0.002452
# 4 0.001247 0.005915 0.004490 0.034312 0.004791 0.003167
# 5 -0.002794 -0.000113 0.002440 0.004791 0.031375 0.001136
# 6 -0.001733 0.000706 0.002452 0.003167 0.001136 0.027067
#
#
# Mechanical properties :
#
#
# Convention : Reuss Voigt Hill
#
# Bulk Modulus (GPa) = 26.85022 43.18098 35.01560
# Shear Modulus (GPa) = 32.37248 39.05110 35.71179
#
# Velocity S-wave (km/s) = 3.56862 3.91948 3.74816
# Velocity P-wave (km/s) = 5.24811 6.12129 5.70144
#
# Compressibility (1/GPa) = 0.03724364
#
# Stress axis : x y z
#
# Youngs Moduli (GPa) = 43.99455 74.16696 141.83839
#
# Poissons Ratio (x) = 0.02724 0.19392
# Poissons Ratio (y) = 0.01616 0.18091
# Poissons Ratio (z) = 0.06015 0.09460
#
# Static dielectric constant tensor:
#      x y z
#    x 2.134050 0.055940 -0.025180 
#    y 0.055940 2.099170 -0.010870 
#    z -0.025180 -0.010870 2.017090 
# 
# From -- ./inp_files/279617.got.cif
#   From: 2010.05.17/outbox.cif.g08.bks.cpg/sg2_140_cif.got.tgz:279617.got - 2010.06.03 11:33:40.
