data_PCOD9021447
_publ_section_title
;
Structure prediction by ZEFSAII (Michael W. Deem and Ramdas Pophale) SiO2 
 PCOD9021447
Probable space group: P -1
;
_chemical_formula_sum "Si O2"
_cell_formula_units_Z 15
_cell_length_a 17.004051
_cell_length_b 21.532180
_cell_length_c 12.364696
_cell_angle_alpha 154.057767
_cell_angle_beta 28.762147
_cell_angle_gamma 160.096691
_cell_volume 659.350463
_symmetry_space_group_name_H-M "P -1"
_symmetry_group_IT_number 2
_symmetry_cell_setting 'triclinic'
loop_
_space_group_symop_operation_xyz
x,y,z
-x,-y,-z
loop_
_atom_site_type_symbol
_atom_site_label
_atom_site_fract_x
_atom_site_fract_y
_atom_site_fract_z
Si Si1 0.000000 0.500000 0.500000
Si Si2 0.764324 0.974060 0.531102
Si Si3 0.290157 0.784837 0.780184
Si Si4 0.875169 0.835765 0.987521
Si Si5 0.946204 0.801724 0.274655
Si Si6 0.225931 0.797630 0.502165
Si Si7 0.480472 0.546878 0.327501
Si Si8 0.932677 0.523906 0.232930
O O1 0.232953 0.653968 0.540313
O O2 0.159307 0.631042 0.404238
O O3 0.570944 0.974523 0.744623
O O4 0.616625 0.766353 0.454869
O O5 0.984918 0.171628 0.641409
O O6 0.836394 0.925361 0.267354
O O7 0.189946 0.654143 0.807233
O O8 0.137375 0.831317 0.022895
O O9 0.634798 0.617960 0.887457
O O10 0.051484 0.817931 0.780038
O O11 0.000000 0.000000 0.000000
O O12 0.682195 0.600169 0.240058
O O13 0.000000 0.000000 0.500000
O O14 0.154049 0.719741 0.343059
O O15 0.500000 0.000000 0.500000
O O16 0.258095 0.469180 0.539567
O O17 0.000000 0.500000 0.000000
#
# Coordination Sequence:
#
# PCOD9021447 Si02
#       8
#     1   2   2   2   2   2   2   2
#     4  10  24  42  72  98 134 184 232 282 340 402
#     4  10  22  41  63  92 130 174 221 275 334 401
#     4  10  22  39  67  96 127 177 231 267 346 403
#     4  11  25  41  63  99 135 173 227 279 350 404
#     4  10  22  38  61  97 128 161 219 274 333 401
#     4  10  24  44  65 104 135 178 235 283 343 410
#     4   9  21  41  63  91 129 172 221 274 334 404
#     4   9  20  42  65  90 130 174 216 276 343 401
#
# _framework density 22.749663000000002
#
# number of rings (size 3 to 8) (size 9 to 14) (size 15 to 20)
#    0.000    2.133    0.000    1.600    7.467    4.267 
#    4.800    1.333    0.000    0.000    0.000    0.000 
#    0.000    0.000    0.000    0.000    0.000    0.000 
#
# Total GULP energy -83511.290777 kJ/mol
# GULP energy per Si atom -5567.419385 kJ/mol
# Density = 2.269788 g / cm^3
# Si number density = 22.749663 Si / 1000 Ang^3
#
#
#
# Elastic Constant Matrix: (Units=GPa)
#
#
# Indices 1 2 3 4 5 6 
#
# 1 99.1253 60.8003 59.8808 -17.5304 20.8178 40.7692
# 2 60.8003 99.4982 35.1000 -5.5381 12.6854 50.9792
# 3 59.8808 35.1000 121.3317 -26.6952 14.7550 33.1918
# 4 -17.5304 -5.5381 -26.6952 20.6990 -6.2198 -5.0085
# 5 20.8178 12.6854 14.7550 -6.2198 39.9670 3.2817
# 6 40.7692 50.9792 33.1918 -5.0085 3.2817 55.4561
#
#
#
# Elastic Compliance Matrix: (Units=1/GPa)
#
#
# Indices 1 2 3 4 5 6 
#
# 1 0.023076 -0.008575 -0.005165 0.007648 -0.005794 -0.004957
# 2 -0.008575 0.023101 0.001359 -0.003992 -0.002680 -0.015948
# 3 -0.005165 0.001359 0.014903 0.013774 -0.000682 -0.005088
# 4 0.007648 -0.003992 0.013774 0.071633 0.003670 -0.003944
# 5 -0.005794 -0.002680 -0.000682 0.003670 0.029241 0.005732
# 6 -0.004957 -0.015948 -0.005088 -0.003944 0.005732 0.038687
#
#
# Mechanical properties :
#
#
# Convention : Reuss Voigt Hill
#
# Bulk Modulus (GPa) = 27.53339 70.16861 48.85100
# Shear Modulus (GPa) = 21.05191 34.16935 27.61063
#
# Velocity S-wave (km/s) = 3.04529 3.87973 3.48756
# Velocity P-wave (km/s) = 4.94915 7.14006 6.14307
#
# Compressibility (1/GPa) = 0.03631954
#
# Stress axis : x y z
#
# Youngs Moduli (GPa) = 43.33519 43.28763 67.10144
#
# Poissons Ratio (x) = 0.37118 0.34656
# Poissons Ratio (y) = 0.37159 -0.09120
# Poissons Ratio (z) = 0.22381 -0.05883
#
# Static dielectric constant tensor:
#      x y z
#    x 1.946500 0.047910 -0.061980 
#    y 0.047910 1.903880 0.023280 
#    z -0.061980 0.023280 1.856650 
# 
# From -- ./inp_files/467299.got.cif
#   From: 2010.05.17/outbox.cif.g08.bks.cpg/sg2_234_cif.got.tgz:467299.got - 2010.06.03 11:33:40.
