data_PCOD9021238
_publ_section_title
;
Structure prediction by ZEFSAII (Michael W. Deem and Ramdas Pophale) SiO2 
 PCOD9021238
Probable space group: P -1
;
_chemical_formula_sum "Si O2"
_cell_formula_units_Z 13
_cell_length_a 9.357251
_cell_length_b 6.142320
_cell_length_c 15.814725
_cell_angle_alpha 101.916256
_cell_angle_beta 141.713999
_cell_angle_gamma 77.252164
_cell_volume 548.461443
_symmetry_space_group_name_H-M "P -1"
_symmetry_group_IT_number 2
_symmetry_cell_setting 'triclinic'
loop_
_space_group_symop_operation_xyz
x,y,z
-x,-y,-z
loop_
_atom_site_type_symbol
_atom_site_label
_atom_site_fract_x
_atom_site_fract_y
_atom_site_fract_z
Si Si1 0.706318 0.792777 0.907411
Si Si2 0.169378 0.650786 0.165441
Si Si3 0.245405 0.805213 0.779229
Si Si4 0.930803 0.202070 0.595057
Si Si5 0.916335 0.618434 0.734046
Si Si6 0.000000 0.500000 0.500000
Si Si7 0.450634 0.020186 0.332974
O O1 0.745020 0.530683 0.878922
O O2 0.517350 0.818322 0.894783
O O3 0.612132 0.921877 0.789715
O O4 0.966708 0.836831 0.056814
O O5 0.062160 0.513922 0.178999
O O6 0.391317 0.771422 0.305295
O O7 0.158481 0.640352 0.652748
O O8 0.146055 0.713390 0.812457
O O9 0.120185 0.051722 0.723703
O O10 0.845906 0.435105 0.620158
O O11 0.711782 0.062650 0.473145
O O12 0.022566 0.281942 0.555244
O O13 0.715442 0.815748 0.672207
#
# Coordination Sequence:
#
# PCOD9021238 Si02
#       7
#     2   2   2   2   2   1   2
#     4  10  23  42  64  94 122 168 214 258 308 365
#     4  10  23  43  65  89 127 169 213 257 303 371
#     4  11  23  39  63  95 127 162 206 259 317 369
#     4  11  23  39  65  95 129 162 203 260 320 371
#     4  10  24  41  59  94 129 165 211 254 310 376
#     4  10  22  38  58  94 128 156 204 246 316 376
#     4  11  22  40  66  91 125 166 211 257 312 371
#
# _framework density 23.702667000000002
#
# number of rings (size 3 to 8) (size 9 to 14) (size 15 to 20)
#    0.000    1.538    1.538    2.308    2.154    5.538 
#    0.000    3.077    0.000    0.000    0.000    0.000 
#    0.000    0.000    0.000    0.000    0.000    0.000 
#
# Total GULP energy -72486.294204 kJ/mol
# GULP energy per Si atom -5575.868785 kJ/mol
# Density = 2.364872 g / cm^3
# Si number density = 23.702667 Si / 1000 Ang^3
#
#
#
# Elastic Constant Matrix: (Units=GPa)
#
#
# Indices 1 2 3 4 5 6 
#
# 1 96.9381 44.8299 4.8171 -3.1194 23.0775 20.3257
# 2 44.8299 72.6777 17.2288 7.0307 14.8752 16.3932
# 3 4.8171 17.2288 26.2485 1.8938 13.7099 6.5428
# 4 -3.1194 7.0307 1.8938 28.0730 3.4623 -3.2948
# 5 23.0775 14.8752 13.7099 3.4623 27.8235 2.7579
# 6 20.3257 16.3932 6.5428 -3.2948 2.7579 36.7440
#
#
#
# Elastic Compliance Matrix: (Units=1/GPa)
#
#
# Indices 1 2 3 4 5 6 
#
# 1 0.021084 -0.011654 0.014868 0.005704 -0.018579 -0.007205
# 2 -0.011654 0.024993 -0.015749 -0.007493 0.005291 -0.002969
# 3 0.014868 -0.015749 0.066910 0.004405 -0.036441 -0.009982
# 4 0.005704 -0.007493 0.004405 0.039252 -0.008131 0.003533
# 5 -0.018579 0.005291 -0.036441 -0.008131 0.066630 0.008675
# 6 -0.007205 -0.002969 -0.009982 0.003533 0.008675 0.033969
#
#
# Mechanical properties :
#
#
# Convention : Reuss Voigt Hill
#
# Bulk Modulus (GPa) = 11.37429 36.62399 23.99914
# Shear Modulus (GPa) = 16.27550 27.12733 21.70142
#
# Velocity S-wave (km/s) = 2.62325 3.38669 3.02912
# Velocity P-wave (km/s) = 3.73957 5.54778 4.73087
#
# Compressibility (1/GPa) = 0.08791761
#
# Stress axis : x y z
#
# Youngs Moduli (GPa) = 47.43015 40.01186 14.94555
#
# Poissons Ratio (x) = 0.46629 -0.22221
# Poissons Ratio (y) = 0.55274 0.23537
# Poissons Ratio (z) = -0.70520 0.63013
#
# Static dielectric constant tensor:
#      x y z
#    x 1.925710 -0.027640 -0.040580 
#    y -0.027640 1.879460 0.020440 
#    z -0.040580 0.020440 1.847850 
# 
# From -- ./inp_files/23337.got.cif
#   From: 2010.05.17/outbox.cif.g08.bks.cpg/sg2_12_cif.got.tgz:23337.got - 2010.06.03 11:33:40.
