data_PCOD9021154
_publ_section_title
;
Structure prediction by ZEFSAII (Michael W. Deem and Ramdas Pophale) SiO2 
 PCOD9021154
Probable space group: P -1
;
_chemical_formula_sum "Si O2"
_cell_formula_units_Z 16
_cell_length_a 12.998557
_cell_length_b 11.922737
_cell_length_c 15.898662
_cell_angle_alpha 38.387610
_cell_angle_beta 148.216020
_cell_angle_gamma 122.209384
_cell_volume 735.977678
_symmetry_space_group_name_H-M "P -1"
_symmetry_group_IT_number 2
_symmetry_cell_setting 'triclinic'
loop_
_space_group_symop_operation_xyz
x,y,z
-x,-y,-z
loop_
_atom_site_type_symbol
_atom_site_label
_atom_site_fract_x
_atom_site_fract_y
_atom_site_fract_z
Si Si1 0.270138 0.277661 0.474128
Si Si2 0.020166 0.874061 0.406206
Si Si3 0.319772 0.495267 0.228623
Si Si4 0.856069 0.229001 0.204008
Si Si5 0.763549 0.122717 0.935911
Si Si6 0.191328 0.656957 0.314278
Si Si7 0.083974 0.436963 0.689594
Si Si8 0.565694 0.284980 0.132026
O O1 0.251450 0.348806 0.321945
O O2 0.096151 0.190062 0.421279
O O3 0.520510 0.142136 0.743960
O O4 0.214218 0.469758 0.381313
O O5 0.038988 0.654957 0.568718
O O6 0.260535 0.860941 0.596074
O O7 0.870898 0.046474 0.263101
O O8 0.922294 0.938722 0.207794
O O9 0.266946 0.685890 0.140124
O O10 0.574240 0.393676 0.456381
O O11 0.218954 0.576711 0.021147
O O12 0.305175 0.735770 0.852342
O O13 0.855584 0.161026 0.889076
O O14 0.036343 0.662446 0.278401
O O15 0.000000 0.500000 0.500000
O O16 0.333605 0.290231 0.950759
O O17 0.500000 0.500000 0.000000
#
# Coordination Sequence:
#
# PCOD9021154 Si02
#       8
#     2   2   2   2   2   2   2   2
#     4   9  16  29  55  87 115 145 183 230 287 340
#     4  10  22  39  57  84 116 143 187 247 285 323
#     4   8  16  30  52  85 117 143 184 236 283 333
#     4  11  19  33  57  86 115 148 186 238 286 324
#     4   8  17  34  56  83 115 141 184 244 283 321
#     4   9  17  35  57  80 112 154 188 224 279 341
#     4  11  23  40  60  81 111 156 194 224 279 351
#     4  10  22  38  53  78 118 154 184 223 275 341
#
# _framework density 21.739788999999998
#
# number of rings (size 3 to 8) (size 9 to 14) (size 15 to 20)
#    0.000    2.500    0.000    4.500    0.000    1.000 
#    0.000   14.375    0.000    3.000    0.000    0.000 
#    0.000    0.000    0.000    0.000    0.000    0.000 
#
# Total GULP energy -89302.402485 kJ/mol
# GULP energy per Si atom -5581.400155 kJ/mol
# Density = 2.169031 g / cm^3
# Si number density = 21.739789 Si / 1000 Ang^3
#
#
#
# Elastic Constant Matrix: (Units=GPa)
#
#
# Indices 1 2 3 4 5 6 
#
# 1 183.9326 36.6325 91.3598 17.2226 6.9760 21.9279
# 2 36.6325 47.4345 10.7851 -10.6479 10.1449 -6.8592
# 3 91.3598 10.7851 142.7920 6.2708 -21.6008 13.2231
# 4 17.2226 -10.6479 6.2708 30.3671 -2.0222 6.3705
# 5 6.9760 10.1449 -21.6008 -2.0222 32.8425 4.2284
# 6 21.9279 -6.8592 13.2231 6.3705 4.2284 28.3651
#
#
#
# Elastic Compliance Matrix: (Units=1/GPa)
#
#
# Indices 1 2 3 4 5 6 
#
# 1 0.012533 -0.010097 -0.006853 -0.008103 -0.003704 -0.006564
# 2 -0.010097 0.036386 0.000201 0.014698 -0.009949 0.014693
# 3 -0.006853 0.000201 0.013129 0.002563 0.010563 -0.002924
# 4 -0.008103 0.014698 0.002563 0.042504 0.001634 -0.001166
# 5 -0.003704 -0.009949 0.010563 0.001634 0.042800 -0.011213
# 6 -0.006564 0.014693 -0.002924 -0.001166 -0.011213 0.047178
#
#
# Mechanical properties :
#
#
# Convention : Reuss Voigt Hill
#
# Bulk Modulus (GPa) = 35.02710 72.41268 53.71989
# Shear Modulus (GPa) = 21.04862 34.00707 27.52784
#
# Velocity S-wave (km/s) = 3.11498 3.95939 3.56229
# Velocity P-wave (km/s) = 5.39300 7.36773 6.45631
#
# Compressibility (1/GPa) = 0.02854933
#
# Stress axis : x y z
#
# Youngs Moduli (GPa) = 79.78665 27.48337 76.16812
#
# Poissons Ratio (x) = 0.27750 0.52199
# Poissons Ratio (y) = 0.80560 -0.01529
# Poissons Ratio (z) = 0.54679 -0.00552
#
# Static dielectric constant tensor:
#      x y z
#    x 1.772270 -0.009270 -0.013170 
#    y -0.009270 1.849160 -0.000280 
#    z -0.013170 -0.000280 1.823270 
# 
# From -- ./inp_files/330036.got.cif
#   From: 2010.05.17/outbox.cif.g08.bks.cpg/sg2_166_cif.got.tgz:330036.got - 2010.06.03 11:33:40.
