data_PCOD9021997
_publ_section_title
;
Structure prediction by ZEFSAII (Michael W. Deem and Ramdas Pophale) SiO2 
 PCOD9021997
Probable space group: P -1
;
_chemical_formula_sum "Si O2"
_cell_formula_units_Z 16
_cell_length_a 5.388523
_cell_length_b 17.212655
_cell_length_c 7.658832
_cell_angle_alpha 94.868836
_cell_angle_beta 113.760514
_cell_angle_gamma 102.979831
_cell_volume 621.169528
_symmetry_space_group_name_H-M "P -1"
_symmetry_group_IT_number 2
_symmetry_cell_setting 'triclinic'
loop_
_space_group_symop_operation_xyz
x,y,z
-x,-y,-z
loop_
_atom_site_type_symbol
_atom_site_label
_atom_site_fract_x
_atom_site_fract_y
_atom_site_fract_z
Si Si1 0.773392 0.097869 0.516321
Si Si2 0.198654 0.388666 0.765842
Si Si3 0.337927 0.529748 0.615043
Si Si4 0.873520 0.823479 0.903005
Si Si5 0.180108 0.248438 0.515158
Si Si6 0.900728 0.963965 0.711129
Si Si7 0.436670 0.683352 0.877297
Si Si8 0.783567 0.282747 0.852217
O O1 0.435857 0.077244 0.435607
O O2 0.919655 0.192109 0.541284
O O3 0.876133 0.056087 0.366235
O O4 0.912628 0.057659 0.702026
O O5 0.368231 0.479639 0.788201
O O6 0.178885 0.339988 0.568940
O O7 0.892707 0.358555 0.762751
O O8 0.349012 0.345064 0.939971
O O9 0.500000 0.500000 0.500000
O O10 0.411848 0.624963 0.695152
O O11 0.000000 0.500000 0.500000
O O12 0.856859 0.782134 0.697622
O O13 0.937412 0.917728 0.889689
O O14 0.564652 0.778000 0.885312
O O15 0.082058 0.790499 0.077657
O O16 0.466592 0.241361 0.686142
O O17 0.183924 0.674031 0.938823
#
# Coordination Sequence:
#
# PCOD9021997 Si02
#       8
#     2   2   2   2   2   2   2   2
#     4   9  19  35  60  96 130 169 217 269 329 388
#     4  10  24  43  64  91 133 169 217 267 333 384
#     4  12  29  43  70 100 128 165 222 268 324 397
#     4  10  22  38  68  92 130 172 223 272 330 389
#     4  10  22  38  68  92 130 172 223 272 330 389
#     4   9  19  35  60  96 130 169 217 269 329 388
#     4  10  24  43  64  91 133 169 217 267 333 384
#     4  10  24  41  63  98 128 176 224 268 323 403
#
# _framework density 25.757864000000001
#
# number of rings (size 3 to 8) (size 9 to 14) (size 15 to 20)
#    0.000    2.000    0.000    1.125   17.500    0.500 
#    0.000    0.625    0.000    6.750    0.000    0.000 
#    0.000    0.000    0.000    0.000    0.000    0.000 
#
# Total GULP energy -89274.818423 kJ/mol
# GULP energy per Si atom -5579.676151 kJ/mol
# Density = 2.569924 g / cm^3
# Si number density = 25.757864 Si / 1000 Ang^3
#
#
#
# Elastic Constant Matrix: (Units=GPa)
#
#
# Indices 1 2 3 4 5 6 
#
# 1 101.5805 12.4304 31.3318 -0.2327 -14.8398 2.9901
# 2 12.4304 106.3045 -4.0070 -22.2544 -8.8418 8.1496
# 3 31.3318 -4.0070 100.5106 -23.2684 -14.5696 -4.7297
# 4 -0.2327 -22.2544 -23.2684 42.7932 -2.7331 -8.6616
# 5 -14.8398 -8.8418 -14.5696 -2.7331 33.4315 -7.5812
# 6 2.9901 8.1496 -4.7297 -8.6616 -7.5812 33.8338
#
#
#
# Elastic Compliance Matrix: (Units=1/GPa)
#
#
# Indices 1 2 3 4 5 6 
#
# 1 0.011772 -0.001965 -0.004311 -0.003480 0.002186 -0.001571
# 2 -0.001965 0.011980 0.003949 0.008943 0.005033 0.001257
# 3 -0.004311 0.003949 0.015956 0.012645 0.008670 0.006840
# 4 -0.003480 0.008943 0.012645 0.038178 0.012274 0.012445
# 5 0.002186 0.005033 0.008670 0.012274 0.039680 0.011840
# 6 -0.001571 0.001257 0.006840 0.012445 0.011840 0.036187
#
#
# Mechanical properties :
#
#
# Convention : Reuss Voigt Hill
#
# Bulk Modulus (GPa) = 28.52661 43.10065 35.81363
# Shear Modulus (GPa) = 29.39573 39.92105 34.65839
#
# Velocity S-wave (km/s) = 3.38188 3.94110 3.67215
# Velocity P-wave (km/s) = 5.13307 6.12201 5.64922
#
# Compressibility (1/GPa) = 0.03505499
#
# Stress axis : x y z
#
# Youngs Moduli (GPa) = 84.94595 83.47235 62.67147
#
# Poissons Ratio (x) = 0.16405 0.27016
# Poissons Ratio (y) = 0.16695 -0.24751
# Poissons Ratio (z) = 0.36618 -0.32966
#
# Static dielectric constant tensor:
#      x y z
#    x 2.323950 -0.078370 0.017180 
#    y -0.078370 2.358990 -0.285800 
#    z 0.017180 -0.285800 2.285820 
# 
# From -- ./inp_files/124987.got.cif
#   From: 2010.05.17/outbox.cif.g08.bks.cpg/sg2_63_cif.got.tgz:124987.got - 2010.06.03 11:33:40.
