data_PCOD9021841
_publ_section_title
;
Structure prediction by ZEFSAII (Michael W. Deem and Ramdas Pophale) SiO2 
 PCOD9021841
Probable space group: P -1
;
_chemical_formula_sum "Si O2"
_cell_formula_units_Z 16
_cell_length_a 11.835651
_cell_length_b 12.338003
_cell_length_c 15.398101
_cell_angle_alpha 69.856269
_cell_angle_beta 147.482927
_cell_angle_gamma 131.494915
_cell_volume 766.442170
_symmetry_space_group_name_H-M "P -1"
_symmetry_group_IT_number 2
_symmetry_cell_setting 'triclinic'
loop_
_space_group_symop_operation_xyz
x,y,z
-x,-y,-z
loop_
_atom_site_type_symbol
_atom_site_label
_atom_site_fract_x
_atom_site_fract_y
_atom_site_fract_z
Si Si1 0.474765 0.041319 0.730688
Si Si2 0.772180 0.265699 0.449432
Si Si3 0.063641 0.332748 0.936534
Si Si4 0.914063 0.940165 0.620014
Si Si5 0.224097 0.845345 0.802834
Si Si6 0.417015 0.604059 0.829634
Si Si7 0.424685 0.680855 0.012011
Si Si8 0.469139 0.851926 0.497576
O O1 0.362156 0.911058 0.616896
O O2 0.290125 0.084158 0.581243
O O3 0.352522 0.930613 0.767823
O O4 0.842963 0.210236 0.908221
O O5 0.702191 0.324574 0.309518
O O6 0.597733 0.237481 0.430376
O O7 0.132266 0.404602 0.672843
O O8 0.286192 0.533727 0.031043
O O9 0.823623 0.272594 0.721943
O O10 0.272496 0.313412 0.039726
O O11 0.749709 0.906831 0.613162
O O12 0.944021 0.816610 0.654490
O O13 0.253527 0.136503 0.793809
O O14 0.198132 0.698475 0.841678
O O15 0.500000 0.000000 0.000000
O O16 0.463804 0.636246 0.954482
O O17 0.500000 0.000000 0.500000
#
# Coordination Sequence:
#
# PCOD9021841 Si02
#       8
#     2   2   2   2   2   2   2   2
#     4  11  22  41  62  92 121 155 204 248 295 359
#     4  11  22  37  58  91 131 154 196 244 304 360
#     4  11  23  35  61  91 124 157 195 247 303 357
#     4  10  22  38  66  86 117 165 203 242 296 359
#     4  10  23  43  63  85 116 164 210 246 291 355
#     4  11  23  35  58  92 125 164 194 243 305 361
#     4  11  21  39  60  89 122 161 203 246 297 353
#     4  11  20  37  58  93 123 153 194 246 301 357
#
# _framework density 20.875678000000001
#
# number of rings (size 3 to 8) (size 9 to 14) (size 15 to 20)
#    0.000    1.250    5.000    2.250    0.000    2.500 
#    0.000    5.000    0.000    3.000    0.000    0.000 
#    0.000    0.000    0.000    0.000    0.000    0.000 
#
# Total GULP energy -89296.364114 kJ/mol
# GULP energy per Si atom -5581.022757 kJ/mol
# Density = 2.082816 g / cm^3
# Si number density = 20.875678 Si / 1000 Ang^3
#
#
#
# Elastic Constant Matrix: (Units=GPa)
#
#
# Indices 1 2 3 4 5 6 
#
# 1 74.3491 14.4299 9.4007 -1.0370 17.5480 -0.5441
# 2 14.4299 40.5694 15.1930 -4.9377 20.8637 -10.7902
# 3 9.4007 15.1930 58.1320 5.8981 20.6171 -13.6521
# 4 -1.0370 -4.9377 5.8981 24.2293 2.1077 4.1661
# 5 17.5480 20.8637 20.6171 2.1077 33.6768 -10.1432
# 6 -0.5441 -10.7902 -13.6521 4.1661 -10.1432 24.6786
#
#
#
# Elastic Compliance Matrix: (Units=1/GPa)
#
#
# Indices 1 2 3 4 5 6 
#
# 1 0.015839 -0.002344 -0.000314 0.001744 -0.008060 -0.004456
# 2 -0.002344 0.039743 -0.002145 0.009306 -0.020865 0.005992
# 3 -0.000314 -0.002145 0.024372 -0.007156 -0.010090 0.009599
# 4 0.001744 0.009306 -0.007156 0.047724 -0.008744 -0.011502
# 5 -0.008060 -0.020865 -0.010090 -0.008744 0.056501 0.009817
# 6 -0.004456 0.005992 0.009599 -0.011502 0.009817 0.054329
#
#
# Mechanical properties :
#
#
# Convention : Reuss Voigt Hill
#
# Bulk Modulus (GPa) = 14.21488 27.89973 21.05731
# Shear Modulus (GPa) = 18.41195 25.45205 21.93200
#
# Velocity S-wave (km/s) = 2.97304 3.49552 3.24481
# Velocity P-wave (km/s) = 4.31386 5.44842 4.91399
#
# Compressibility (1/GPa) = 0.07034880
#
# Stress axis : x y z
#
# Youngs Moduli (GPa) = 63.13622 25.16196 41.03015
#
# Poissons Ratio (x) = 0.05898 0.01287
# Poissons Ratio (y) = 0.14799 0.08801
# Poissons Ratio (z) = 0.01980 0.05397
#
# Static dielectric constant tensor:
#      x y z
#    x 1.837850 0.033960 0.028010 
#    y 0.033960 1.822480 -0.004770 
#    z 0.028010 -0.004770 1.758890 
# 
# From -- ./inp_files/189411.got.cif
#   From: 2010.05.17/outbox.cif.g08.bks.cpg/sg2_95_cif.got.tgz:189411.got - 2010.06.03 11:33:40.
