data_PCOD9021845
_publ_section_title
;
Structure prediction by ZEFSAII (Michael W. Deem and Ramdas Pophale) SiO2 
 PCOD9021845
Probable space group: P -1
;
_chemical_formula_sum "Si O2"
_cell_formula_units_Z 16
_cell_length_a 11.645202
_cell_length_b 23.770447
_cell_length_c 9.036213
_cell_angle_alpha 142.320483
_cell_angle_beta 114.573035
_cell_angle_gamma 38.652191
_cell_volume 809.979436
_symmetry_space_group_name_H-M "P -1"
_symmetry_group_IT_number 2
_symmetry_cell_setting 'triclinic'
loop_
_space_group_symop_operation_xyz
x,y,z
-x,-y,-z
loop_
_atom_site_type_symbol
_atom_site_label
_atom_site_fract_x
_atom_site_fract_y
_atom_site_fract_z
Si Si1 0.493237 0.402345 0.724743
Si Si2 0.358895 0.796530 0.328306
Si Si3 0.094685 0.844967 0.769513
Si Si4 0.397904 0.291932 0.004860
Si Si5 0.048985 0.839570 0.079282
Si Si6 0.731486 0.971269 0.652450
Si Si7 0.870011 0.416942 0.320275
Si Si8 0.732755 0.801207 0.096059
O O1 0.558594 0.290464 0.652259
O O2 0.268044 0.510431 0.752945
O O3 0.669601 0.299703 0.475594
O O4 0.500000 0.500000 0.000000
O O5 0.216712 0.799439 0.183503
O O6 0.550307 0.709786 0.137306
O O7 0.191794 0.979858 0.640201
O O8 0.933926 0.868673 0.650926
O O9 0.095309 0.829910 0.912343
O O10 0.000000 0.000000 0.000000
O O11 0.270161 0.443240 0.345621
O O12 0.269458 0.272635 0.926205
O O13 0.633346 0.124955 0.854482
O O14 0.080805 0.714066 0.868333
O O15 0.781835 0.871818 0.338311
O O16 0.518137 0.054297 0.789482
O O17 0.099141 0.324517 0.202019
#
# Coordination Sequence:
#
# PCOD9021845 Si02
#       8
#     2   2   2   2   2   2   2   2
#     4  12  25  38  64  92 135 165 205 260 326 384
#     4  11  23  41  60  95 126 173 213 254 317 382
#     4  12  23  42  63 100 128 167 209 263 321 372
#     4  10  22  38  66  89 125 163 211 264 311 369
#     4  11  25  38  65  91 132 168 211 261 315 384
#     4   9  20  40  69  90 123 171 216 256 303 387
#     4  12  23  41  63  97 128 166 210 266 320 374
#     4   9  21  41  69  89 123 179 214 251 312 382
#
# _framework density 19.753588000000001
#
# number of rings (size 3 to 8) (size 9 to 14) (size 15 to 20)
#    0.750    0.500    2.500    4.125    3.500    1.000 
#    0.000    1.250    2.750    0.000    0.000    0.000 
#    0.000    0.000    0.000    0.000    0.000    0.000 
#
# Total GULP energy -89333.253888 kJ/mol
# GULP energy per Si atom -5583.328368 kJ/mol
# Density = 1.970863 g / cm^3
# Si number density = 19.753588 Si / 1000 Ang^3
#
#
#
# Elastic Constant Matrix: (Units=GPa)
#
#
# Indices 1 2 3 4 5 6 
#
# 1 75.6577 25.0326 44.2870 1.9848 -11.5485 17.0900
# 2 25.0326 72.2338 2.9432 1.5744 -6.5454 18.6527
# 3 44.2870 2.9432 109.7277 9.3158 -8.0427 20.9554
# 4 1.9848 1.5744 9.3158 20.7773 6.7444 -1.5096
# 5 -11.5485 -6.5454 -8.0427 6.7444 40.1290 -2.6124
# 6 17.0900 18.6527 20.9554 -1.5096 -2.6124 25.3027
#
#
#
# Elastic Compliance Matrix: (Units=1/GPa)
#
#
# Indices 1 2 3 4 5 6 
#
# 1 0.020636 -0.005726 -0.007355 0.000472 0.003239 -0.003264
# 2 -0.005726 0.019901 0.005330 -0.005292 0.002562 -0.015269
# 3 -0.007355 0.005330 0.015017 -0.008045 0.002357 -0.011635
# 4 0.000472 -0.005292 -0.008045 0.056582 -0.011037 0.012481
# 5 0.003239 0.002562 0.002357 -0.011037 0.028352 -0.003760
# 6 -0.003264 -0.015269 -0.011635 0.012481 -0.003760 0.062975
#
#
# Mechanical properties :
#
#
# Convention : Reuss Voigt Hill
#
# Bulk Modulus (GPa) = 24.96630 44.68275 34.82453
# Shear Modulus (GPa) = 21.52247 29.59889 25.56068
#
# Velocity S-wave (km/s) = 3.30441 3.87512 3.60109
# Velocity P-wave (km/s) = 5.21777 6.53386 5.91255
#
# Compressibility (1/GPa) = 0.04005400
#
# Stress axis : x y z
#
# Youngs Moduli (GPa) = 48.45817 50.24749 66.59228
#
# Poissons Ratio (x) = 0.28771 0.48977
# Poissons Ratio (y) = 0.27747 -0.35496
# Poissons Ratio (z) = 0.35640 -0.26784
#
# Static dielectric constant tensor:
#      x y z
#    x 1.696350 -0.010470 0.019780 
#    y -0.010470 1.672240 0.007810 
#    z 0.019780 0.007810 1.663190 
# 
# From -- ./inp_files/285053.got.cif
#   From: 2010.05.17/outbox.cif.g08.bks.cpg/sg2_143_cif.got.tgz:285053.got - 2010.06.03 11:33:40.
