data_PCOD9021524
_publ_section_title
;
Structure prediction by ZEFSAII (Michael W. Deem and Ramdas Pophale) SiO2 
 PCOD9021524
Probable space group: P -1
;
_chemical_formula_sum "Si O2"
_cell_formula_units_Z 13
_cell_length_a 10.619035
_cell_length_b 12.851427
_cell_length_c 8.393988
_cell_angle_alpha 102.189799
_cell_angle_beta 112.211486
_cell_angle_gamma 32.446417
_cell_volume 555.402896
_symmetry_space_group_name_H-M "P -1"
_symmetry_group_IT_number 2
_symmetry_cell_setting 'triclinic'
loop_
_space_group_symop_operation_xyz
x,y,z
-x,-y,-z
loop_
_atom_site_type_symbol
_atom_site_label
_atom_site_fract_x
_atom_site_fract_y
_atom_site_fract_z
Si Si1 0.010273 0.874164 0.263788
Si Si2 0.606979 0.282169 0.358030
Si Si3 0.196176 0.426696 0.385135
Si Si4 0.710146 0.855902 0.192236
Si Si5 0.500000 0.000000 0.500000
Si Si6 0.721693 0.394355 0.958939
Si Si7 0.984176 0.679070 0.668638
O O1 0.877158 0.852569 0.249121
O O2 0.245593 0.746578 0.450314
O O3 0.085948 0.816211 0.096170
O O4 0.810517 0.098404 0.276495
O O5 0.439896 0.302396 0.368881
O O6 0.409440 0.475342 0.219337
O O7 0.156875 0.524663 0.556643
O O8 0.932756 0.617622 0.223764
O O9 0.217777 0.287527 0.397418
O O10 0.565692 0.936335 0.315337
O O11 0.500000 0.000000 0.000000
O O12 0.235955 0.092717 0.398878
O O13 0.500000 0.500000 0.000000
O O14 0.866753 0.387975 0.126893
#
# Coordination Sequence:
#
# PCOD9021524 Si02
#       7
#     2   2   2   2   1   2   2
#     4  11  25  45  67  99 133 179 228 280 348 405
#     4  11  25  44  70  96 132 182 223 285 339 414
#     4  10  22  44  69  96 138 175 229 279 350 410
#     4  11  23  40  69 100 138 179 229 284 344 418
#     4  10  22  38  62  94 136 174 218 282 338 400
#     4  12  26  43  70  98 136 177 231 281 341 412
#     4  10  23  42  66 101 131 181 219 289 342 405
#
# _framework density 23.406431999999999
#
# number of rings (size 3 to 8) (size 9 to 14) (size 15 to 20)
#    0.000    1.231    1.538    3.231    6.462    1.231 
#    2.769    0.000    0.000    0.000    0.000    0.000 
#    0.000    0.000    0.000    0.000    0.000    0.000 
#
# Total GULP energy -72485.782526 kJ/mol
# GULP energy per Si atom -5575.829425 kJ/mol
# Density = 2.335316 g / cm^3
# Si number density = 23.406432 Si / 1000 Ang^3
#
#
#
# Elastic Constant Matrix: (Units=GPa)
#
#
# Indices 1 2 3 4 5 6 
#
# 1 87.9716 20.3194 43.4866 9.8207 -8.3105 -22.6233
# 2 20.3194 106.6493 69.0918 8.1354 -6.4599 -22.7830
# 3 43.4866 69.0918 132.9180 2.6689 0.5673 -17.0533
# 4 9.8207 8.1354 2.6689 40.7458 -7.8953 -13.6687
# 5 -8.3105 -6.4599 0.5673 -7.8953 21.8980 1.4420
# 6 -22.6233 -22.7830 -17.0533 -13.6687 1.4420 39.0487
#
#
#
# Elastic Compliance Matrix: (Units=1/GPa)
#
#
# Indices 1 2 3 4 5 6 
#
# 1 0.016338 0.002802 -0.005761 -0.000046 0.006611 0.008324
# 2 0.002802 0.016173 -0.008423 0.000165 0.005636 0.007230
# 3 -0.005761 -0.008423 0.013544 0.000626 -0.004668 -0.001946
# 4 -0.000046 0.000165 0.000626 0.029948 0.010124 0.010452
# 5 0.006611 0.005636 -0.004668 0.010124 0.053171 0.006660
# 6 0.008324 0.007230 -0.001946 0.010452 0.006660 0.037213
#
#
# Mechanical properties :
#
#
# Convention : Reuss Voigt Hill
#
# Bulk Modulus (GPa) = 42.93565 65.92606 54.43086
# Shear Modulus (GPa) = 25.39155 33.31458 29.35307
#
# Velocity S-wave (km/s) = 3.29722 3.77677 3.54511
# Velocity P-wave (km/s) = 5.73401 6.87354 6.32947
#
# Compressibility (1/GPa) = 0.02329067
#
# Stress axis : x y z
#
# Youngs Moduli (GPa) = 61.20528 61.83157 73.83120
#
# Poissons Ratio (x) = -0.17323 0.42534
# Poissons Ratio (y) = -0.17147 0.62189
# Poissons Ratio (z) = 0.35261 0.52082
#
# Static dielectric constant tensor:
#      x y z
#    x 2.043480 0.534720 -0.166040 
#    y 0.534720 3.591010 -0.547430 
#    z -0.166040 -0.547430 2.055330 
# 
# From -- ./inp_files/274143.got.cif
#   From: 2010.05.17/outbox.cif.g08.bks.cpg/sg2_138_cif.got.tgz:274143.got - 2010.06.03 11:33:40.
