data_PCOD9021631
_publ_section_title
;
Structure prediction by ZEFSAII (Michael W. Deem and Ramdas Pophale) SiO2 
 PCOD9021631
Probable space group: P -1
;
_chemical_formula_sum "Si O2"
_cell_formula_units_Z 14
_cell_length_a 10.479974
_cell_length_b 9.189638
_cell_length_c 7.252957
_cell_angle_alpha 94.216848
_cell_angle_beta 83.554896
_cell_angle_gamma 119.845326
_cell_volume 601.913857
_symmetry_space_group_name_H-M "P -1"
_symmetry_group_IT_number 2
_symmetry_cell_setting 'triclinic'
loop_
_space_group_symop_operation_xyz
x,y,z
-x,-y,-z
loop_
_atom_site_type_symbol
_atom_site_label
_atom_site_fract_x
_atom_site_fract_y
_atom_site_fract_z
Si Si1 0.245547 0.706047 0.707518
Si Si2 0.755552 0.778986 0.027039
Si Si3 0.563320 0.846559 0.770974
Si Si4 0.342668 0.781667 0.302012
Si Si5 0.021734 0.605724 0.193424
Si Si6 0.564821 0.671365 0.389561
Si Si7 0.956975 0.163514 0.068535
O O1 0.385136 0.733174 0.807508
O O2 0.321836 0.808369 0.522290
O O3 0.149041 0.781936 0.809917
O O4 0.124331 0.511124 0.677271
O O5 0.677407 0.679532 0.215360
O O6 0.871886 0.966385 0.092905
O O7 0.644793 0.797565 0.908161
O O8 0.869910 0.737517 0.897448
O O9 0.612608 0.808560 0.559728
O O10 0.600187 0.040267 0.791274
O O11 0.178667 0.650944 0.251855
O O12 0.449048 0.701952 0.289813
O O13 0.037321 0.780831 0.140605
O O14 0.000000 0.500000 0.000000
O O15 0.500000 0.500000 0.500000
#
# Coordination Sequence:
#
# PCOD9021631 Si02
#       7
#     2   2   2   2   2   2   2
#     4  10  22  40  67  98 137 170 234 286 333 408
#     4  11  24  43  70  94 145 178 223 283 346 405
#     4  11  24  45  74 103 129 187 236 278 340 412
#     4  11  22  44  70  99 135 182 233 283 336 410
#     4  10  22  38  63  97 133 171 227 277 336 404
#     4  11  27  44  67 106 143 176 229 287 350 407
#     4  10  22  42  62 102 132 180 226 276 340 416
#
# _framework density 23.259141
#
# number of rings (size 3 to 8) (size 9 to 14) (size 15 to 20)
#    0.000    1.429    1.429    3.857    8.000    4.000 
#    2.571    2.143    0.000    0.000    0.000    0.000 
#    0.000    0.000    0.000    0.000    0.000    0.000 
#
# Total GULP energy -78114.007570 kJ/mol
# GULP energy per Si atom -5579.571969 kJ/mol
# Density = 2.320620 g / cm^3
# Si number density = 23.259141 Si / 1000 Ang^3
#
#
#
# Elastic Constant Matrix: (Units=GPa)
#
#
# Indices 1 2 3 4 5 6 
#
# 1 160.9551 17.5404 49.6777 8.6333 2.5094 19.9447
# 2 17.5404 64.1232 11.1073 -9.8542 6.3111 12.0210
# 3 49.6777 11.1073 77.7589 -15.5625 6.9463 13.6410
# 4 8.6333 -9.8542 -15.5625 22.8820 2.8152 -3.5117
# 5 2.5094 6.3111 6.9463 2.8152 33.5109 -6.4416
# 6 19.9447 12.0210 13.6410 -3.5117 -6.4416 30.5663
#
#
#
# Elastic Compliance Matrix: (Units=1/GPa)
#
#
# Indices 1 2 3 4 5 6 
#
# 1 0.009749 -0.002626 -0.007650 -0.010649 0.001711 -0.002777
# 2 -0.002626 0.019518 0.002977 0.011082 -0.006445 -0.007376
# 3 -0.007650 0.002977 0.022970 0.019835 -0.007518 -0.005736
# 4 -0.010649 0.011082 0.019835 0.067225 -0.011222 -0.000904
# 5 0.001711 -0.006445 -0.007518 -0.011222 0.035537 0.010973
# 6 -0.002777 -0.007376 -0.005736 -0.000904 0.010973 0.042197
#
#
# Mechanical properties :
#
#
# Convention : Reuss Voigt Hill
#
# Bulk Modulus (GPa) = 26.56793 51.05422 38.81108
# Shear Modulus (GPa) = 22.28767 32.35929 27.32348
#
# Velocity S-wave (km/s) = 3.09889 3.73399 3.43117
# Velocity P-wave (km/s) = 4.92459 6.37088 5.69384
#
# Compressibility (1/GPa) = 0.03763937
#
# Stress axis : x y z
#
# Youngs Moduli (GPa) = 102.57664 51.23561 43.53523
#
# Poissons Ratio (x) = 0.13453 0.33304
# Poissons Ratio (y) = 0.26934 -0.12961
# Poissons Ratio (z) = 0.78470 -0.15254
#
# Static dielectric constant tensor:
#      x y z
#    x 2.164070 -0.076410 -0.009610 
#    y -0.076410 2.043770 -0.007450 
#    z -0.009610 -0.007450 1.911040 
# 
# From -- ./inp_files/158103.got.cif
#   From: 2010.05.17/outbox.cif.g08.bks.cpg/sg2_80_cif.got.tgz:158103.got - 2010.06.03 11:33:40.
