data_PCOD9021958
_publ_section_title
;
Structure prediction by ZEFSAII (Michael W. Deem and Ramdas Pophale) SiO2 
 PCOD9021958
Probable space group: P -1
;
_chemical_formula_sum "Si O2"
_cell_formula_units_Z 12
_cell_length_a 9.198785
_cell_length_b 15.020505
_cell_length_c 6.079458
_cell_angle_alpha 107.981178
_cell_angle_beta 108.157304
_cell_angle_gamma 37.771128
_cell_volume 486.072188
_symmetry_space_group_name_H-M "P -1"
_symmetry_group_IT_number 2
_symmetry_cell_setting 'triclinic'
loop_
_space_group_symop_operation_xyz
x,y,z
-x,-y,-z
loop_
_atom_site_type_symbol
_atom_site_label
_atom_site_fract_x
_atom_site_fract_y
_atom_site_fract_z
Si Si1 0.335992 0.341623 0.745819
Si Si2 0.868087 0.867407 0.993929
Si Si3 0.487982 0.406675 0.246821
Si Si4 0.408984 0.111034 0.735513
Si Si5 0.829245 0.404443 0.368193
Si Si6 0.203439 0.830392 0.414822
O O1 0.265414 0.269105 0.706487
O O2 0.164830 0.497717 0.671148
O O3 0.563177 0.227101 0.605867
O O4 0.424301 0.354098 0.013115
O O5 0.961040 0.755252 0.759852
O O6 0.653825 0.028711 0.910435
O O7 0.746989 0.869988 0.142897
O O8 0.088616 0.819886 0.163527
O O9 0.593241 0.452630 0.230207
O O10 0.248732 0.541625 0.375624
O O11 0.700177 0.272022 0.407659
O O12 0.500000 0.000000 0.500000
O O13 0.000000 0.000000 0.500000
#
# Coordination Sequence:
#
# PCOD9021958 Si02
#       6
#     2   2   2   2   2   2
#     4  11  23  42  65  98 129 162 216 265 311 384
#     4  11  25  43  65  94 129 169 215 260 318 380
#     4  10  22  38  67  99 134 161 203 268 325 372
#     4  11  27  46  65  89 131 174 215 263 316 374
#     4  10  23  39  66  99 129 165 209 262 323 377
#     4  11  23  37  67 100 125 166 217 260 319 379
#
# _framework density 24.687691999999998
#
# number of rings (size 3 to 8) (size 9 to 14) (size 15 to 20)
#    0.000    1.333    1.667    2.500    9.333    6.000 
#    0.000    1.667    0.000    0.000    0.000    0.000 
#    0.000    0.000    0.000    0.000    0.000    0.000 
#
# Total GULP energy -67132.738635 kJ/mol
# GULP energy per Si atom -5594.394886 kJ/mol
# Density = 2.463150 g / cm^3
# Si number density = 24.687692 Si / 1000 Ang^3
#
#
#
# Elastic Constant Matrix: (Units=GPa)
#
#
# Indices 1 2 3 4 5 6 
#
# 1 70.4198 22.7718 8.5326 -1.6048 -1.5235 15.2889
# 2 22.7718 123.0998 15.2137 11.5789 -8.1535 0.7183
# 3 8.5326 15.2137 69.3627 14.9533 0.9121 6.1844
# 4 -1.6048 11.5789 14.9533 53.0784 -4.8112 2.2043
# 5 -1.5235 -8.1535 0.9121 -4.8112 34.8942 3.7815
# 6 15.2889 0.7183 6.1844 2.2043 3.7815 42.4086
#
#
#
# Elastic Compliance Matrix: (Units=1/GPa)
#
#
# Indices 1 2 3 4 5 6 
#
# 1 0.016684 -0.003005 -0.001274 0.001853 0.000961 -0.005960
# 2 -0.003005 0.009107 -0.001406 -0.001571 0.001702 0.001064
# 3 -0.001274 -0.001406 0.015955 -0.004275 -0.001227 -0.001512
# 4 0.001853 -0.001571 -0.004275 0.020756 0.002834 -0.001350
# 5 0.000961 0.001702 -0.001227 0.002834 0.029846 -0.003005
# 6 -0.005960 0.001064 -0.001512 -0.001350 -0.003005 0.026269
#
#
# Mechanical properties :
#
#
# Convention : Reuss Voigt Hill
#
# Bulk Modulus (GPa) = 32.92152 39.54648 36.23400
# Shear Modulus (GPa) = 35.68555 40.50053 38.09304
#
# Velocity S-wave (km/s) = 3.80607 4.05472 3.93236
# Velocity P-wave (km/s) = 5.71656 6.16235 5.94363
#
# Compressibility (1/GPa) = 0.03037527
#
# Stress axis : x y z
#
# Youngs Moduli (GPa) = 59.93918 109.80030 62.67737
#
# Poissons Ratio (x) = 0.32991 0.07986
# Poissons Ratio (y) = 0.18010 0.08815
# Poissons Ratio (z) = 0.07637 0.15443
#
# Static dielectric constant tensor:
#      x y z
#    x 1.947610 0.012340 0.010290 
#    y 0.012340 1.961670 -0.055880 
#    z 0.010290 -0.055880 1.994840 
# 
# From -- ./inp_files/23773.got.cif
#   From: 2010.05.17/outbox.cif.g08.bks.cpg/sg2_12_cif.got.tgz:23773.got - 2010.06.03 11:33:40.
