data_PCOD9021256
_publ_section_title
;
Structure prediction by ZEFSAII (Michael W. Deem and Ramdas Pophale) SiO2 
 PCOD9021256
Probable space group: P -1
;
_chemical_formula_sum "Si O2"
_cell_formula_units_Z 16
_cell_length_a 11.631283
_cell_length_b 9.437656
_cell_length_c 11.430831
_cell_angle_alpha 131.266743
_cell_angle_beta 119.056170
_cell_angle_gamma 50.206637
_cell_volume 720.283169
_symmetry_space_group_name_H-M "P -1"
_symmetry_group_IT_number 2
_symmetry_cell_setting 'triclinic'
loop_
_space_group_symop_operation_xyz
x,y,z
-x,-y,-z
loop_
_atom_site_type_symbol
_atom_site_label
_atom_site_fract_x
_atom_site_fract_y
_atom_site_fract_z
Si Si1 0.991780 0.288184 0.915840
Si Si2 0.918658 0.391151 0.329402
Si Si3 0.590565 0.653917 0.298816
Si Si4 0.700475 0.293327 0.844041
Si Si5 0.185645 0.087212 0.126017
Si Si6 0.241235 0.913899 0.500180
Si Si7 0.076571 0.863445 0.590581
Si Si8 0.454523 0.116890 0.363446
O O1 0.823593 0.368454 0.926535
O O2 0.024891 0.113004 0.734360
O O3 0.000000 0.500000 0.000000
O O4 0.114981 0.141654 0.993225
O O5 0.759024 0.543912 0.274551
O O6 0.877136 0.263990 0.336264
O O7 0.000000 0.500000 0.500000
O O8 0.044217 0.233851 0.217932
O O9 0.480570 0.554534 0.163284
O O10 0.601935 0.696246 0.464951
O O11 0.500552 0.892083 0.329181
O O12 0.720865 0.164249 0.659174
O O13 0.750102 0.144442 0.903823
O O14 0.316558 0.153362 0.234316
O O15 0.198476 0.785285 0.505412
O O16 0.387348 0.916112 0.623512
O O17 0.079216 0.128053 0.522286
#
# Coordination Sequence:
#
# PCOD9021256 Si02
#       8
#     2   2   2   2   2   2   2   2
#     4  11  24  42  61  84 119 172 207 236 295 366
#     4  12  21  34  60 101 118 149 201 255 298 351
#     4   9  18  32  58  89 125 144 197 248 308 347
#     4   9  19  40  64  85 117 166 194 252 299 352
#     4  11  21  38  65  88 124 155 206 245 293 361
#     4   9  17  36  64  83 122 154 189 246 315 348
#     4  10  22  38  59  88 123 162 195 252 301 352
#     4   9  17  35  57  91 117 159 186 247 303 359
#
# _framework density 22.213484000000001
#
# number of rings (size 3 to 8) (size 9 to 14) (size 15 to 20)
#    0.000    2.000    3.750    1.875    0.000    4.000 
#    2.250    2.500    0.000    0.000    0.000    0.000 
#    0.000    0.000    0.000    0.000    0.000    0.000 
#
# Total GULP energy -89158.885097 kJ/mol
# GULP energy per Si atom -5572.430319 kJ/mol
# Density = 2.216292 g / cm^3
# Si number density = 22.213484 Si / 1000 Ang^3
#
#
#
# Elastic Constant Matrix: (Units=GPa)
#
#
# Indices 1 2 3 4 5 6 
#
# 1 144.9776 37.1822 40.9701 -15.2198 35.2119 -14.6402
# 2 37.1822 58.3751 39.1427 -9.6594 11.5553 -4.6118
# 3 40.9701 39.1427 62.6966 -18.6220 13.7242 1.0645
# 4 -15.2198 -9.6594 -18.6220 30.9325 -2.8970 5.9616
# 5 35.2119 11.5553 13.7242 -2.8970 43.3589 -11.5776
# 6 -14.6402 -4.6118 1.0645 5.9616 -11.5776 41.4560
#
#
#
# Elastic Compliance Matrix: (Units=1/GPa)
#
#
# Indices 1 2 3 4 5 6 
#
# 1 0.010325 -0.002837 -0.003259 0.001369 -0.006101 0.001513
# 2 -0.002837 0.031159 -0.018919 -0.003697 0.000725 0.003684
# 3 -0.003259 -0.018919 0.035427 0.014849 -0.004555 -0.007573
# 4 0.001369 -0.003697 0.014849 0.041846 -0.004020 -0.007450
# 5 -0.006101 0.000725 -0.004555 -0.004020 0.030937 0.007261
# 6 0.001513 0.003684 -0.007573 -0.007450 0.007261 0.028360
#
#
# Mechanical properties :
#
#
# Convention : Reuss Voigt Hill
#
# Bulk Modulus (GPa) = 37.20106 55.62658 46.41382
# Shear Modulus (GPa) = 21.09306 33.06642 27.07974
#
# Velocity S-wave (km/s) = 3.08484 3.86239 3.49530
# Velocity P-wave (km/s) = 5.42879 6.70723 6.10158
#
# Compressibility (1/GPa) = 0.02688095
#
# Stress axis : x y z
#
# Youngs Moduli (GPa) = 96.85502 32.09312 28.22699
#
# Poissons Ratio (x) = 0.09105 0.09199
# Poissons Ratio (y) = 0.27480 0.53402
# Poissons Ratio (z) = 0.31565 0.60717
#
# Static dielectric constant tensor:
#      x y z
#    x 1.859720 -0.002490 0.033120 
#    y -0.002490 1.799800 0.060160 
#    z 0.033120 0.060160 1.835780 
# 
# From -- ./inp_files/403097.got.cif
#   From: 2010.05.17/outbox.cif.g08.bks.cpg/sg2_202_cif.got.tgz:403097.got - 2010.06.03 11:33:40.
