data_PCOD9021068
_publ_section_title
;
Structure prediction by ZEFSAII (Michael W. Deem and Ramdas Pophale) SiO2 
 PCOD9021068
Probable space group: P -1
;
_chemical_formula_sum "Si O2"
_cell_formula_units_Z 16
_cell_length_a 23.202538
_cell_length_b 8.729882
_cell_length_c 8.022136
_cell_angle_alpha 52.282987
_cell_angle_beta 49.154461
_cell_angle_gamma 33.810386
_cell_volume 674.917352
_symmetry_space_group_name_H-M "P -1"
_symmetry_group_IT_number 2
_symmetry_cell_setting 'triclinic'
loop_
_space_group_symop_operation_xyz
x,y,z
-x,-y,-z
loop_
_atom_site_type_symbol
_atom_site_label
_atom_site_fract_x
_atom_site_fract_y
_atom_site_fract_z
Si Si1 0.124104 0.183269 0.655113
Si Si2 0.197391 0.392175 0.899479
Si Si3 0.794084 0.071980 0.811543
Si Si4 0.522064 0.173557 0.561878
Si Si5 0.663869 0.299461 0.246838
Si Si6 0.990177 0.795497 0.829061
Si Si7 0.363068 0.367097 0.453410
Si Si8 0.942114 0.305118 0.716248
O O1 0.119294 0.416152 0.457633
O O2 0.056447 0.189245 0.640324
O O3 0.246134 0.885554 0.654438
O O4 0.059223 0.258394 0.900344
O O5 0.306866 0.309655 0.716214
O O6 0.120511 0.541017 0.779610
O O7 0.127235 0.605028 0.043017
O O8 0.218093 0.130495 0.073884
O O9 0.733334 0.318663 0.633348
O O10 0.922196 0.876754 0.736878
O O11 0.730258 0.225649 0.003868
O O12 0.607383 0.193266 0.400986
O O13 0.430478 0.377572 0.739748
O O14 0.456174 0.304907 0.423665
O O15 0.582405 0.857082 0.649439
O O16 0.957547 0.073277 0.753711
#
# Coordination Sequence:
#
# PCOD9021068 Si02
#       8
#     2   2   2   2   2   2   2   2
#     4   9  20  38  65  94 133 156 214 262 309 378
#     4  11  23  41  62  96 137 167 204 264 319 378
#     4  11  25  41  66  98 129 172 203 259 332 377
#     4  10  24  46  66  92 124 169 217 277 311 366
#     4  10  22  44  70  91 128 166 214 272 316 369
#     4  10  23  39  64  98 132 167 213 254 308 395
#     4  11  26  44  66  93 132 165 217 264 322 376
#     4  10  22  37  66 102 123 175 211 249 318 391
#
# _framework density 23.706607000000002
#
# number of rings (size 3 to 8) (size 9 to 14) (size 15 to 20)
#    0.000    1.750    1.250    1.875    8.750    3.500 
#    0.000    0.000    0.000    0.000    0.000    0.000 
#    0.000    0.000    0.000    0.000    0.000    0.000 
#
# Total GULP energy -89648.482269 kJ/mol
# GULP energy per Si atom -5603.030142 kJ/mol
# Density = 2.365265 g / cm^3
# Si number density = 23.706607 Si / 1000 Ang^3
#
#
#
# Elastic Constant Matrix: (Units=GPa)
#
#
# Indices 1 2 3 4 5 6 
#
# 1 84.7046 18.2136 22.8314 -3.8616 -5.9902 -3.7448
# 2 18.2136 99.6029 24.9817 -3.1792 -9.9299 3.8384
# 3 22.8314 24.9817 58.8637 -6.7147 -1.3383 -1.1219
# 4 -3.8616 -3.1792 -6.7147 42.6877 1.5040 -2.5198
# 5 -5.9902 -9.9299 -1.3383 1.5040 22.3166 0.7883
# 6 -3.7448 3.8384 -1.1219 -2.5198 0.7883 41.8569
#
#
#
# Elastic Compliance Matrix: (Units=1/GPa)
#
#
# Indices 1 2 3 4 5 6 
#
# 1 0.013563 -0.001057 -0.004683 0.000380 0.002823 0.001155
# 2 -0.001057 0.011910 -0.004583 -0.000182 0.004803 -0.001411
# 3 -0.004683 -0.004583 0.021018 0.002665 -0.002243 0.000767
# 4 0.000380 -0.000182 0.002665 0.024013 -0.001494 0.001596
# 5 0.002823 0.004803 -0.002243 -0.001494 0.047714 -0.001236
# 6 0.001155 -0.001411 0.000767 0.001596 -0.001236 0.024264
#
#
# Mechanical properties :
#
#
# Convention : Reuss Voigt Hill
#
# Bulk Modulus (GPa) = 38.69137 41.69163 40.19150
# Shear Modulus (GPa) = 29.11345 33.18187 31.14766
#
# Velocity S-wave (km/s) = 3.50819 3.74530 3.62868
# Velocity P-wave (km/s) = 5.72418 6.02725 5.87767
#
# Compressibility (1/GPa) = 0.02584555
#
# Stress axis : x y z
#
# Youngs Moduli (GPa) = 73.72918 83.96288 47.57939
#
# Poissons Ratio (x) = 0.08871 0.22280
# Poissons Ratio (y) = 0.07790 0.21807
# Poissons Ratio (z) = 0.34525 0.38482
#
# Static dielectric constant tensor:
#      x y z
#    x 1.889340 0.028340 0.035440 
#    y 0.028340 1.889910 0.026120 
#    z 0.035440 0.026120 1.881510 
# 
# From -- ./inp_files/352030.got.cif
#   From: 2010.05.17/outbox.cif.g08.bks.cpg/sg2_177_cif.got.tgz:352030.got - 2010.06.03 11:33:40.
