data_PCOD9021935
_publ_section_title
;
Structure prediction by ZEFSAII (Michael W. Deem and Ramdas Pophale) SiO2 
 PCOD9021935
Probable space group: P -1
;
_chemical_formula_sum "Si O2"
_cell_formula_units_Z 16
_cell_length_a 20.502678
_cell_length_b 11.016377
_cell_length_c 5.414413
_cell_angle_alpha 94.913074
_cell_angle_beta 89.696117
_cell_angle_gamma 32.229809
_cell_volume 642.816737
_symmetry_space_group_name_H-M "P -1"
_symmetry_group_IT_number 2
_symmetry_cell_setting 'triclinic'
loop_
_space_group_symop_operation_xyz
x,y,z
-x,-y,-z
loop_
_atom_site_type_symbol
_atom_site_label
_atom_site_fract_x
_atom_site_fract_y
_atom_site_fract_z
Si Si1 0.760760 0.172698 0.656040
Si Si2 0.716186 0.027231 0.013138
Si Si3 0.510774 0.670303 0.621387
Si Si4 0.935868 0.011159 0.316888
Si Si5 0.083970 0.374281 0.727586
Si Si6 0.609442 0.775490 0.797251
Si Si7 0.178189 0.675024 0.012121
Si Si8 0.298666 0.137091 0.420760
O O1 0.748732 0.083422 0.834614
O O2 0.631412 0.393311 0.547864
O O3 0.881465 0.981591 0.446542
O O4 0.789930 0.251892 0.821078
O O5 0.740149 0.861870 0.839043
O O6 0.574515 0.248386 0.143978
O O7 0.804452 0.891992 0.227187
O O8 0.567267 0.712177 0.690427
O O9 0.409010 0.869258 0.454270
O O10 0.823841 0.267415 0.250555
O O11 0.000000 0.000000 0.500000
O O12 0.043717 0.825219 0.081945
O O13 0.179483 0.330450 0.635243
O O14 0.000000 0.500000 0.500000
O O15 0.000000 0.500000 0.000000
O O16 0.723050 0.576335 0.944836
O O17 0.646826 0.815637 0.602778
O O18 0.500000 0.000000 0.000000
#
# Coordination Sequence:
#
# PCOD9021935 Si02
#       8
#     2   2   2   2   2   2   2   2
#     4  10  22  38  67  94 129 179 221 282 353 413
#     4  11  23  42  65 100 137 176 232 285 348 423
#     4  10  23  41  64  96 139 174 230 285 353 418
#     4   9  19  40  61  92 126 168 225 285 346 407
#     4  11  24  48  71  98 143 188 237 289 349 418
#     4  11  22  41  68  95 136 186 230 289 353 418
#     4   9  21  41  61  90 132 170 226 284 344 413
#     4  11  24  42  67 102 138 181 235 288 348 423
#
# _framework density 24.890453000000001
#
# number of rings (size 3 to 8) (size 9 to 14) (size 15 to 20)
#    0.000    1.750    2.500    0.750    1.750    3.500 
#    9.000    0.000    0.000    0.000    0.000    0.000 
#    0.000    0.000    0.000    0.000    0.000    0.000 
#
# Total GULP energy -89261.034960 kJ/mol
# GULP energy per Si atom -5578.814685 kJ/mol
# Density = 2.483380 g / cm^3
# Si number density = 24.890453 Si / 1000 Ang^3
#
#
#
# Elastic Constant Matrix: (Units=GPa)
#
#
# Indices 1 2 3 4 5 6 
#
# 1 137.4608 34.9697 59.8798 10.5260 -45.8476 -18.7836
# 2 34.9697 102.0809 29.8650 -18.5433 -20.5060 -27.8221
# 3 59.8798 29.8650 110.3560 -16.2900 -27.6153 -25.4283
# 4 10.5260 -18.5433 -16.2900 45.6204 -9.8625 -4.7208
# 5 -45.8476 -20.5060 -27.6153 -9.8625 55.4432 7.8983
# 6 -18.7836 -27.8221 -25.4283 -4.7208 7.8983 35.4730
#
#
#
# Elastic Compliance Matrix: (Units=1/GPa)
#
#
# Indices 1 2 3 4 5 6 
#
# 1 0.012599 -0.002802 -0.005707 -0.004977 0.005880 -0.001589
# 2 -0.002802 0.016913 0.003361 0.011426 0.005583 0.014468
# 3 -0.005707 0.003361 0.016997 0.011140 0.005245 0.012112
# 4 -0.004977 0.011426 0.011140 0.035508 0.009566 0.016906
# 5 0.005880 0.005583 0.005245 0.009566 0.028395 0.006204
# 6 -0.001589 0.014468 0.012112 0.016906 0.006204 0.048247
#
#
# Mechanical properties :
#
#
# Convention : Reuss Voigt Hill
#
# Bulk Modulus (GPa) = 27.61555 66.59186 47.10371
# Shear Modulus (GPa) = 27.62010 42.31954 34.96982
#
# Velocity S-wave (km/s) = 3.33478 4.12786 3.75233
# Velocity P-wave (km/s) = 5.09378 7.03783 6.14319
#
# Compressibility (1/GPa) = 0.03621148
#
# Stress axis : x y z
#
# Youngs Moduli (GPa) = 79.36992 59.12529 58.83464
#
# Poissons Ratio (x) = 0.16569 0.33580
# Poissons Ratio (y) = 0.22243 -0.19774
# Poissons Ratio (z) = 0.45300 -0.19872
#
# Static dielectric constant tensor:
#      x y z
#    x 1.946550 -0.006340 -0.039660 
#    y -0.006340 2.036790 0.028340 
#    z -0.039660 0.028340 2.009140 
# 
# From -- ./inp_files/118649.got.cif
#   From: 2010.05.17/outbox.cif.g08.bks.cpg/sg2_60_cif.got.tgz:118649.got - 2010.06.03 11:33:40.
