data_PCOD9021581
_publ_section_title
;
Structure prediction by ZEFSAII (Michael W. Deem and Ramdas Pophale) SiO2 
 PCOD9021581
Probable space group: P -1
;
_chemical_formula_sum "Si O2"
_cell_formula_units_Z 16
_cell_length_a 17.044870
_cell_length_b 12.800890
_cell_length_c 8.703019
_cell_angle_alpha 93.005078
_cell_angle_beta 94.007357
_cell_angle_gamma 155.318127
_cell_volume 759.759158
_symmetry_space_group_name_H-M "P -1"
_symmetry_group_IT_number 2
_symmetry_cell_setting 'triclinic'
loop_
_space_group_symop_operation_xyz
x,y,z
-x,-y,-z
loop_
_atom_site_type_symbol
_atom_site_label
_atom_site_fract_x
_atom_site_fract_y
_atom_site_fract_z
Si Si1 0.752972 0.093894 0.689416
Si Si2 0.475683 0.349895 0.939993
Si Si3 0.088799 0.496013 0.356156
Si Si4 0.862606 0.717317 0.147867
Si Si5 0.300473 0.581597 0.587192
Si Si6 0.061484 0.781780 0.987210
Si Si7 0.968187 0.889354 0.634065
Si Si8 0.253749 0.043113 0.611400
O O1 0.851470 0.312018 0.635502
O O2 0.882154 0.225918 0.865946
O O3 0.737241 0.971897 0.568364
O O4 0.529428 0.855039 0.674676
O O5 0.653043 0.500597 0.043915
O O6 0.269849 0.063035 0.961778
O O7 0.500000 0.500000 0.000000
O O8 0.452687 0.302928 0.750980
O O9 0.226529 0.599480 0.501758
O O10 0.868333 0.204105 0.359008
O O11 0.083478 0.441225 0.178667
O O12 0.819374 0.598276 0.289895
O O13 0.967948 0.770993 0.046559
O O14 0.987059 0.975127 0.214503
O O15 0.238754 0.419668 0.438520
O O16 0.124211 0.985579 0.640496
O O17 0.000000 0.000000 0.500000
#
# Coordination Sequence:
#
# PCOD9021581 Si02
#       8
#     2   2   2   2   2   2   2   2
#     4  12  22  41  67  93 125 171 216 265 318 368
#     4  11  23  43  63  97 133 164 212 262 309 386
#     4  10  23  43  62  91 129 166 217 268 313 374
#     4  11  22  43  66  91 136 167 204 260 321 381
#     4  10  22  40  63  94 128 163 217 264 306 383
#     4  11  25  42  68  95 127 172 209 259 327 373
#     4   9  18  37  58  86 123 161 198 254 306 375
#     4  10  22  38  63  91 127 167 214 257 317 378
#
# _framework density 21.059304999999998
#
# number of rings (size 3 to 8) (size 9 to 14) (size 15 to 20)
#    0.000    1.500    2.500    3.375    1.750    1.500 
#    0.000    3.125    0.000    0.000    0.000    0.000 
#    0.000    0.000    0.000    0.000    0.000    0.000 
#
# Total GULP energy -89301.527690 kJ/mol
# GULP energy per Si atom -5581.345481 kJ/mol
# Density = 2.101137 g / cm^3
# Si number density = 21.059305 Si / 1000 Ang^3
#
#
#
# Elastic Constant Matrix: (Units=GPa)
#
#
# Indices 1 2 3 4 5 6 
#
# 1 94.2876 12.5119 41.3079 13.4102 11.8088 -6.1698
# 2 12.5119 25.6945 -7.3393 12.5282 2.6689 -3.2672
# 3 41.3079 -7.3393 99.3441 8.7677 -2.4091 8.0648
# 4 13.4102 12.5282 8.7677 19.2479 -1.7927 3.0610
# 5 11.8088 2.6689 -2.4091 -1.7927 44.6508 1.3208
# 6 -6.1698 -3.2672 8.0648 3.0610 1.3208 33.1483
#
#
#
# Elastic Compliance Matrix: (Units=1/GPa)
#
#
# Indices 1 2 3 4 5 6 
#
# 1 0.016277 -0.006487 -0.007311 -0.004987 -0.004654 0.004815
# 2 -0.006487 0.069998 0.011381 -0.047789 -0.003995 0.007495
# 3 -0.007311 0.011381 0.014996 -0.008471 0.001816 -0.003178
# 4 -0.004987 -0.047789 -0.008471 0.093107 0.007826 -0.012487
# 5 -0.004654 -0.003995 0.001816 0.007826 0.024378 -0.003396
# 6 0.004815 0.007495 -0.003178 -0.012487 -0.003396 0.033864
#
#
# Mechanical properties :
#
#
# Convention : Reuss Voigt Hill
#
# Bulk Modulus (GPa) = 10.36947 34.69859 22.53403
# Shear Modulus (GPa) = 17.26521 30.93244 24.09883
#
# Velocity S-wave (km/s) = 2.86639 3.83668 3.38647
# Velocity P-wave (km/s) = 3.98617 6.01159 5.10043
#
# Compressibility (1/GPa) = 0.09643698
#
# Stress axis : x y z
#
# Youngs Moduli (GPa) = 61.43699 14.28616 66.68303
#
# Poissons Ratio (x) = 0.09268 0.48751
# Poissons Ratio (y) = 0.39855 -0.75892
# Poissons Ratio (z) = 0.44916 -0.16259
#
# Static dielectric constant tensor:
#      x y z
#    x 1.758190 0.004320 0.018630 
#    y 0.004320 1.758060 -0.013530 
#    z 0.018630 -0.013530 1.847020 
# 
# From -- ./inp_files/185763.got.cif
#   From: 2010.05.17/outbox.cif.g08.bks.cpg/sg2_93_cif.got.tgz:185763.got - 2010.06.03 11:33:40.
