data_PCOD9021362
_publ_section_title
;
Structure prediction by ZEFSAII (Michael W. Deem and Ramdas Pophale) SiO2 
 PCOD9021362
Probable space group: P -1
;
_chemical_formula_sum "Si O2"
_cell_formula_units_Z 16
_cell_length_a 5.348347
_cell_length_b 9.567372
_cell_length_c 14.428440
_cell_angle_alpha 106.522164
_cell_angle_beta 83.300764
_cell_angle_gamma 99.698501
_cell_volume 695.848520
_symmetry_space_group_name_H-M "P -1"
_symmetry_group_IT_number 2
_symmetry_cell_setting 'triclinic'
loop_
_space_group_symop_operation_xyz
x,y,z
-x,-y,-z
loop_
_atom_site_type_symbol
_atom_site_label
_atom_site_fract_x
_atom_site_fract_y
_atom_site_fract_z
Si Si1 0.275004 0.565671 0.793980
Si Si2 0.240920 0.040395 0.565049
Si Si3 0.844741 0.549652 0.929706
Si Si4 0.803387 0.573759 0.581642
Si Si5 0.747634 0.023179 0.234346
Si Si6 0.278651 0.194329 0.225315
Si Si7 0.641258 0.624366 0.400257
Si Si8 0.409377 0.316335 0.873782
O O1 0.535199 0.678147 0.815205
O O2 0.233587 0.507006 0.679379
O O3 0.285756 0.417517 0.824344
O O4 0.036812 0.628660 0.860387
O O5 0.211393 0.970536 0.655015
O O6 0.268701 0.215946 0.610769
O O7 0.500000 0.000000 0.500000
O O8 0.000000 0.000000 0.500000
O O9 0.697648 0.396665 0.868434
O O10 0.665685 0.649380 0.010255
O O11 0.000000 0.500000 0.000000
O O12 0.841429 0.709371 0.673563
O O13 0.650963 0.633281 0.512655
O O14 0.650540 0.437715 0.619042
O O15 0.000000 0.500000 0.500000
O O16 0.661126 0.853520 0.177322
O O17 0.505146 0.106243 0.236192
O O18 0.022960 0.084936 0.187287
#
# Coordination Sequence:
#
# PCOD9021362 Si02
#       8
#     2   2   2   2   2   2   2   2
#     4  10  22  43  69  98 131 181 237 281 341 417
#     4  12  26  42  64  94 137 184 232 282 340 403
#     4   9  21  41  75 102 136 166 238 287 347 409
#     4  10  23  40  64  88 135 182 232 283 334 392
#     4  12  26  47  67 103 147 182 230 287 360 406
#     4  11  28  44  68 101 144 188 226 293 349 409
#     4  10  22  38  60  96 121 180 234 279 326 408
#     4  10  22  43  74 103 133 183 225 293 345 420
#
# _framework density 22.993510000000001
#
# number of rings (size 3 to 8) (size 9 to 14) (size 15 to 20)
#    0.000    1.500    1.250    2.250   14.000    2.000 
#    0.000    1.250    0.000    0.000    0.000    0.000 
#    0.000    0.000    0.000    0.000    0.000    0.000 
#
# Total GULP energy -89166.912013 kJ/mol
# GULP energy per Si atom -5572.932001 kJ/mol
# Density = 2.294118 g / cm^3
# Si number density = 22.993510 Si / 1000 Ang^3
#
#
#
# Elastic Constant Matrix: (Units=GPa)
#
#
# Indices 1 2 3 4 5 6 
#
# 1 138.7957 56.0467 32.3677 16.7663 -13.7497 22.1154
# 2 56.0467 134.4683 39.9540 17.7546 -9.5870 17.0224
# 3 32.3677 39.9540 98.9113 1.4779 -8.7701 18.9731
# 4 16.7663 17.7546 1.4779 24.7557 8.7000 1.7995
# 5 -13.7497 -9.5870 -8.7701 8.7000 35.8422 -6.4791
# 6 22.1154 17.0224 18.9731 1.7995 -6.4791 38.9848
#
#
#
# Elastic Compliance Matrix: (Units=1/GPa)
#
#
# Indices 1 2 3 4 5 6 
#
# 1 0.010083 -0.002314 -0.001328 -0.006221 0.003868 -0.003133
# 2 -0.002314 0.010467 -0.002932 -0.006598 0.002598 -0.001094
# 3 -0.001328 -0.002932 0.012518 0.002395 0.000448 -0.004095
# 4 -0.006221 -0.006598 0.002395 0.055174 -0.016980 -0.000124
# 5 0.003868 0.002598 0.000448 -0.016980 0.034858 0.003030
# 6 -0.003133 -0.001094 -0.004095 -0.000124 0.003030 0.030409
#
#
# Mechanical properties :
#
#
# Convention : Reuss Voigt Hill
#
# Bulk Modulus (GPa) = 50.19910 69.87911 60.03911
# Shear Modulus (GPa) = 28.85210 36.17034 32.51122
#
# Velocity S-wave (km/s) = 3.54615 3.97049 3.76431
# Velocity P-wave (km/s) = 6.21660 7.17471 6.71277
#
# Compressibility (1/GPa) = 0.01992068
#
# Stress axis : x y z
#
# Youngs Moduli (GPa) = 99.17762 95.53418 79.88263
#
# Poissons Ratio (x) = 0.22109 0.10607
# Poissons Ratio (y) = 0.22952 0.23422
# Poissons Ratio (z) = 0.13169 0.28011
#
# Static dielectric constant tensor:
#      x y z
#    x 2.099070 -0.063180 -0.099830 
#    y -0.063180 1.921790 -0.020120 
#    z -0.099830 -0.020120 2.086880 
# 
# From -- ./inp_files/480741.got.cif
#   From: 2010.05.17/outbox.cif.g08.bks.cpg/sg2_241_cif.got.tgz:480741.got - 2010.06.03 11:33:40.
