data_PCOD9021542
_publ_section_title
;
Structure prediction by ZEFSAII (Michael W. Deem and Ramdas Pophale) SiO2 
 PCOD9021542
Probable space group: P -1
;
_chemical_formula_sum "Si O2"
_cell_formula_units_Z 12
_cell_length_a 4.895606
_cell_length_b 11.420420
_cell_length_c 12.832139
_cell_angle_alpha 50.494409
_cell_angle_beta 63.414850
_cell_angle_gamma 53.685338
_cell_volume 443.139166
_symmetry_space_group_name_H-M "P -1"
_symmetry_group_IT_number 2
_symmetry_cell_setting 'triclinic'
loop_
_space_group_symop_operation_xyz
x,y,z
-x,-y,-z
loop_
_atom_site_type_symbol
_atom_site_label
_atom_site_fract_x
_atom_site_fract_y
_atom_site_fract_z
Si Si1 0.624801 0.648925 0.384029
Si Si2 0.264383 0.851379 0.909990
Si Si3 0.093430 0.586643 0.031014
Si Si4 0.835220 0.711848 0.715284
Si Si5 0.817778 0.242223 0.799458
Si Si6 0.647208 0.172108 0.454160
O O1 0.500000 0.500000 0.500000
O O2 0.010528 0.630691 0.321538
O O3 0.485110 0.765410 0.444054
O O4 0.434859 0.741721 0.259553
O O5 0.556509 0.807097 0.798355
O O6 0.110093 0.048490 0.850460
O O7 0.000505 0.784050 0.944847
O O8 0.352047 0.750135 0.062870
O O9 0.056938 0.487250 0.193521
O O10 0.500000 0.500000 0.000000
O O11 0.000000 0.500000 0.000000
O O12 0.657908 0.803562 0.585726
O O13 0.189957 0.710759 0.684792
O O14 0.000000 0.000000 0.500000
#
# Coordination Sequence:
#
# PCOD9021542 Si02
#       6
#     2   2   2   2   2   2
#     4  12  28  47  71  99 143 192 242 279 344 419
#     4  10  24  44  73 106 142 176 231 292 368 409
#     4  10  22  38  62  98 134 173 213 278 351 407
#     4  11  23  41  69 101 138 171 229 293 347 413
#     4  11  26  46  72 101 141 188 229 291 346 432
#     4  12  25  43  69  98 136 187 235 285 339 410
#
# _framework density 27.079529999999998
#
# number of rings (size 3 to 8) (size 9 to 14) (size 15 to 20)
#    0.000    1.000    0.000    6.000    4.667    9.333 
#    0.000    0.000    0.000    0.000    0.000    0.000 
#    0.000    0.000    0.000    0.000    0.000    0.000 
#
# Total GULP energy -67117.872186 kJ/mol
# GULP energy per Si atom -5593.156015 kJ/mol
# Density = 2.701790 g / cm^3
# Si number density = 27.079530 Si / 1000 Ang^3
#
#
#
# Elastic Constant Matrix: (Units=GPa)
#
#
# Indices 1 2 3 4 5 6 
#
# 1 147.5259 10.3555 31.0393 15.3022 10.4739 27.9207
# 2 10.3555 130.8989 50.0881 36.4941 9.4597 10.4159
# 3 31.0393 50.0881 91.3884 23.8594 14.3535 9.9510
# 4 15.3022 36.4941 23.8594 66.4770 12.6795 -0.6510
# 5 10.4739 9.4597 14.3535 12.6795 65.2465 0.1642
# 6 27.9207 10.4159 9.9510 -0.6510 0.1642 38.2281
#
#
#
# Elastic Compliance Matrix: (Units=1/GPa)
#
#
# Indices 1 2 3 4 5 6 
#
# 1 0.008552 0.001239 -0.002374 -0.001726 -0.000680 -0.005993
# 2 0.001239 0.010904 -0.004948 -0.004560 0.000202 -0.002666
# 3 -0.002374 -0.004948 0.015357 -0.001894 -0.001909 -0.000940
# 4 -0.001726 -0.004560 -0.001894 0.019107 -0.002367 0.003331
# 5 -0.000680 0.000202 -0.001909 -0.002367 0.016284 0.000828
# 6 -0.005993 -0.002666 -0.000940 0.003331 0.000828 0.031560
#
#
# Mechanical properties :
#
#
# Convention : Reuss Voigt Hill
#
# Bulk Modulus (GPa) = 44.15481 61.41988 52.78735
# Shear Modulus (GPa) = 41.15945 52.54566 46.85256
#
# Velocity S-wave (km/s) = 3.90288 4.40980 4.16406
# Velocity P-wave (km/s) = 6.05400 6.97560 6.53108
#
# Compressibility (1/GPa) = 0.02264759
#
# Stress axis : x y z
#
# Youngs Moduli (GPa) = 116.92625 91.71360 65.11660
#
# Poissons Ratio (x) = -0.11362 0.15458
# Poissons Ratio (y) = -0.14486 0.32218
# Poissons Ratio (z) = 0.27757 0.45377
#
# Static dielectric constant tensor:
#      x y z
#    x 2.524930 0.240230 -0.001180 
#    y 0.240230 2.388660 -0.056220 
#    z -0.001180 -0.056220 2.266920 
# 
# From -- ./inp_files/362561.got.cif
#   From: 2010.05.17/outbox.cif.g08.bks.cpg/sg2_182_cif.got.tgz:362561.got - 2010.06.03 11:33:40.
