data_PCOD9021483
_publ_section_title
;
Structure prediction by ZEFSAII (Michael W. Deem and Ramdas Pophale) SiO2 
 PCOD9021483
Probable space group: P -1
;
_chemical_formula_sum "Si O2"
_cell_formula_units_Z 16
_cell_length_a 5.222011
_cell_length_b 25.099799
_cell_length_c 11.060583
_cell_angle_alpha 145.188212
_cell_angle_beta 119.022706
_cell_angle_gamma 65.550672
_cell_volume 723.345056
_symmetry_space_group_name_H-M "P -1"
_symmetry_group_IT_number 2
_symmetry_cell_setting 'triclinic'
loop_
_space_group_symop_operation_xyz
x,y,z
-x,-y,-z
loop_
_atom_site_type_symbol
_atom_site_label
_atom_site_fract_x
_atom_site_fract_y
_atom_site_fract_z
Si Si1 0.802275 0.826030 0.422765
Si Si2 0.749441 0.375612 0.444588
Si Si3 0.315818 0.076195 0.023830
Si Si4 0.305135 0.688811 0.960218
Si Si5 0.785150 0.506147 0.347262
Si Si6 0.384637 0.995791 0.636206
Si Si7 0.143859 0.806936 0.710790
Si Si8 0.939434 0.847756 0.235553
O O1 0.674520 0.932431 0.606739
O O2 0.003049 0.827429 0.352590
O O3 0.960444 0.794678 0.522682
O O4 0.550323 0.756391 0.193077
O O5 0.639903 0.346959 0.230782
O O6 0.501142 0.436178 0.569094
O O7 0.823933 0.284409 0.370021
O O8 0.032424 0.439118 0.608149
O O9 0.540299 0.156719 0.188954
O O10 0.038840 0.116623 0.108861
O O11 0.500000 0.000000 0.000000
O O12 0.250812 0.026156 0.790469
O O13 0.283893 0.602298 0.885899
O O14 0.002302 0.751403 0.002306
O O15 0.000000 0.500000 0.500000
O O16 0.174876 0.922316 0.388446
O O17 0.366777 0.094084 0.742956
#
# Coordination Sequence:
#
# PCOD9021483 Si02
#       8
#     2   2   2   2   2   2   2   2
#     4  11  24  39  62  90 134 172 211 263 328 385
#     4  11  24  44  70 101 129 166 218 273 324 389
#     4  12  24  42  67  90 131 179 227 259 319 379
#     4  10  23  39  67  96 122 169 214 268 334 383
#     4  10  22  43  72 100 130 161 215 276 331 385
#     4  10  22  39  59  93 123 176 221 268 315 374
#     4  12  27  43  66  97 136 173 220 268 323 385
#     4  10  22  38  62  90 133 163 222 267 320 384
#
# _framework density 22.119458999999999
#
# number of rings (size 3 to 8) (size 9 to 14) (size 15 to 20)
#    0.000    1.250    1.250    4.500   10.500    0.000 
#    0.000    1.250    0.000    0.000    0.000    0.000 
#    0.000    0.000    0.000    0.000    0.000    0.000 
#
# Total GULP energy -89411.261095 kJ/mol
# GULP energy per Si atom -5588.203818 kJ/mol
# Density = 2.206911 g / cm^3
# Si number density = 22.119459 Si / 1000 Ang^3
#
#
#
# Elastic Constant Matrix: (Units=GPa)
#
#
# Indices 1 2 3 4 5 6 
#
# 1 97.5289 16.0842 30.5353 12.5614 0.5608 5.5943
# 2 16.0842 108.6502 32.4899 15.3370 8.9494 9.7648
# 3 30.5353 32.4899 87.3863 18.8353 11.5378 -6.2510
# 4 12.5614 15.3370 18.8353 45.6669 0.8081 -4.1652
# 5 0.5608 8.9494 11.5378 0.8081 29.7053 9.1369
# 6 5.5943 9.7648 -6.2510 -4.1652 9.1369 27.7701
#
#
#
# Elastic Compliance Matrix: (Units=1/GPa)
#
#
# Indices 1 2 3 4 5 6 
#
# 1 0.012200 0.000025 -0.004601 -0.001960 0.003082 -0.004810
# 2 0.000025 0.011237 -0.003971 -0.002613 -0.000178 -0.005183
# 3 -0.004601 -0.003971 0.016873 -0.003483 -0.007674 0.008124
# 4 -0.001960 -0.002613 -0.003483 0.025134 0.000190 0.004237
# 5 0.003082 -0.000178 -0.007674 0.000190 0.041533 -0.015922
# 6 -0.004810 -0.005183 0.008124 0.004237 -0.015922 0.046504
#
#
# Mechanical properties :
#
#
# Convention : Reuss Voigt Hill
#
# Bulk Modulus (GPa) = 43.07324 50.19821 46.63573
# Shear Modulus (GPa) = 28.04057 34.92552 31.48304
#
# Velocity S-wave (km/s) = 3.56432 3.97791 3.77678
# Velocity P-wave (km/s) = 6.03775 6.62131 6.33626
#
# Compressibility (1/GPa) = 0.02321627
#
# Stress axis : x y z
#
# Youngs Moduli (GPa) = 81.96436 88.99314 59.26777
#
# Poissons Ratio (x) = -0.00221 0.27269
# Poissons Ratio (y) = -0.00204 0.23533
# Poissons Ratio (z) = 0.37712 0.35336
#
# Static dielectric constant tensor:
#      x y z
#    x 1.904290 -0.001410 0.061920 
#    y -0.001410 1.850910 0.031260 
#    z 0.061920 0.031260 1.875360 
# 
# From -- ./inp_files/371155.got.cif
#   From: 2010.05.17/outbox.cif.g08.bks.cpg/sg2_186_cif.got.tgz:371155.got - 2010.06.03 11:33:40.
