data_PCOD9021744
_publ_section_title
;
Structure prediction by ZEFSAII (Michael W. Deem and Ramdas Pophale) SiO2 
 PCOD9021744
Probable space group: P -1
;
_chemical_formula_sum "Si O2"
_cell_formula_units_Z 14
_cell_length_a 7.120021
_cell_length_b 11.487896
_cell_length_c 14.020997
_cell_angle_alpha 148.639986
_cell_angle_beta 118.170484
_cell_angle_gamma 56.682547
_cell_volume 498.721390
_symmetry_space_group_name_H-M "P -1"
_symmetry_group_IT_number 2
_symmetry_cell_setting 'triclinic'
loop_
_space_group_symop_operation_xyz
x,y,z
-x,-y,-z
loop_
_atom_site_type_symbol
_atom_site_label
_atom_site_fract_x
_atom_site_fract_y
_atom_site_fract_z
Si Si1 0.640464 0.495243 0.625387
Si Si2 0.639251 0.609950 0.017393
Si Si3 0.188919 0.003281 0.649611
Si Si4 0.302492 0.920940 0.350144
Si Si5 0.218874 0.225797 0.005121
Si Si6 0.095228 0.392282 0.547532
Si Si7 0.838621 0.216697 0.051842
O O1 0.500000 0.500000 0.500000
O O2 0.605551 0.730207 0.844862
O O3 0.889612 0.441819 0.605946
O O4 0.658858 0.259417 0.524627
O O5 0.799455 0.569400 0.933308
O O6 0.401422 0.781249 0.041019
O O7 0.626085 0.351735 0.856972
O O8 0.738525 0.779999 0.223521
O O9 0.247840 0.018480 0.789461
O O10 0.922671 0.039428 0.610822
O O11 0.214872 0.115776 0.382684
O O12 0.500000 0.000000 0.500000
O O13 0.994194 0.243732 0.020706
O O14 0.229945 0.552992 0.735963
O O15 0.000000 0.500000 0.500000
O O16 0.000000 0.000000 0.000000
#
# Coordination Sequence:
#
# PCOD9021744 Si02
#       7
#     2   2   2   2   2   2   2
#     4  10  22  38  65 100 141 182 241 287 350 440
#     4  10  23  44  75  96 144 195 231 307 364 411
#     4   9  23  42  69  98 139 188 231 300 366 412
#     4  11  21  44  75 102 139 188 246 294 362 437
#     4   9  24  43  67 102 145 182 245 290 361 422
#     4  10  24  40  66  97 138 182 229 295 359 421
#     4  11  24  40  67 107 143 183 244 291 351 440
#
# _framework density 28.071785999999999
#
# number of rings (size 3 to 8) (size 9 to 14) (size 15 to 20)
#    0.857    1.143    1.429    0.429   10.000    1.143 
#    0.000    8.571    6.286    0.000    0.000    0.000 
#    0.000    0.000    0.000    0.000    0.000    0.000 
#
# Total GULP energy -78289.076035 kJ/mol
# GULP energy per Si atom -5592.076860 kJ/mol
# Density = 2.800789 g / cm^3
# Si number density = 28.071786 Si / 1000 Ang^3
#
#
#
# Elastic Constant Matrix: (Units=GPa)
#
#
# Indices 1 2 3 4 5 6 
#
# 1 119.9252 33.6256 67.7982 10.6832 16.0713 -5.5266
# 2 33.6256 137.4619 62.5132 19.6704 12.6253 -11.1454
# 3 67.7982 62.5132 208.3215 14.9079 12.1952 -16.9222
# 4 10.6832 19.6704 14.9079 60.2303 -6.0179 2.0121
# 5 16.0713 12.6253 12.1952 -6.0179 61.9115 -8.1681
# 6 -5.5266 -11.1454 -16.9222 2.0121 -8.1681 41.5822
#
#
#
# Elastic Compliance Matrix: (Units=1/GPa)
#
#
# Indices 1 2 3 4 5 6 
#
# 1 0.010671 -0.000921 -0.003032 -0.001041 -0.002143 -0.000433
# 2 -0.000921 0.009003 -0.002046 -0.002440 -0.001256 0.001330
# 3 -0.003032 -0.002046 0.006572 -0.000470 0.000097 0.001765
# 4 -0.001041 -0.002440 -0.000470 0.017990 0.002427 -0.001378
# 5 -0.002143 -0.001256 0.000097 0.002427 0.017544 0.002747
# 6 -0.000433 0.001330 0.001765 -0.001378 0.002747 0.025672
#
#
# Mechanical properties :
#
#
# Convention : Reuss Voigt Hill
#
# Bulk Modulus (GPa) = 70.17935 88.17584 79.17759
# Shear Modulus (GPa) = 47.98610 52.86290 50.42450
#
# Velocity S-wave (km/s) = 4.13898 4.34422 4.24284
# Velocity P-wave (km/s) = 6.92068 7.52609 7.22972
#
# Compressibility (1/GPa) = 0.01424921
#
# Stress axis : x y z
#
# Youngs Moduli (GPa) = 93.71509 111.07850 152.15702
#
# Poissons Ratio (x) = 0.10228 0.46128
# Poissons Ratio (y) = 0.08629 0.31127
# Poissons Ratio (z) = 0.28411 0.22723
#
# Static dielectric constant tensor:
#      x y z
#    x 2.268900 -0.007810 0.118630 
#    y -0.007810 2.285410 -0.141160 
#    z 0.118630 -0.141160 2.395630 
# 
# From -- ./inp_files/560190.got.cif
#   From: 2010.05.17/outbox.cif.g08.bks.cpg/sg2_281_cif.got.tgz:560190.got - 2010.06.03 11:33:40.
