data_PCOD9021484
_publ_section_title
;
Structure prediction by ZEFSAII (Michael W. Deem and Ramdas Pophale) SiO2 
 PCOD9021484
Probable space group: P -1
;
_chemical_formula_sum "Si O2"
_cell_formula_units_Z 12
_cell_length_a 17.639263
_cell_length_b 8.993777
_cell_length_c 12.436381
_cell_angle_alpha 144.333226
_cell_angle_beta 32.367637
_cell_angle_gamma 143.815764
_cell_volume 567.758607
_symmetry_space_group_name_H-M "P -1"
_symmetry_group_IT_number 2
_symmetry_cell_setting 'triclinic'
loop_
_space_group_symop_operation_xyz
x,y,z
-x,-y,-z
loop_
_atom_site_type_symbol
_atom_site_label
_atom_site_fract_x
_atom_site_fract_y
_atom_site_fract_z
Si Si1 0.943105 0.685083 0.345972
Si Si2 0.116941 0.089395 0.649007
Si Si3 0.118964 0.150775 0.042906
Si Si4 0.226944 0.720105 0.151658
Si Si5 0.368483 0.619494 0.727737
Si Si6 0.662901 0.172780 0.350654
O O1 0.958664 0.741037 0.233433
O O2 0.767429 0.478337 0.452880
O O3 0.063504 0.596548 0.211338
O O4 0.000000 0.000000 0.500000
O O5 0.224224 0.326919 0.736740
O O6 0.215271 0.962436 0.383076
O O7 0.988865 0.852947 0.729241
O O8 0.228185 0.462950 0.066818
O O9 0.224175 0.986965 0.857060
O O10 0.000000 0.000000 0.000000
O O11 0.356126 0.796847 0.949455
O O12 0.500000 0.500000 0.500000
O O13 0.363120 0.769637 0.709739
O O14 0.500000 0.000000 0.500000
#
# Coordination Sequence:
#
# PCOD9021484 Si02
#       6
#     2   2   2   2   2   2
#     4   9  19  38  63  89 121 163 215 256 310 374
#     4  10  22  38  62  91 121 164 220 261 305 375
#     4  12  21  37  64  93 128 165 211 259 313 375
#     4  11  21  38  64  91 122 163 218 260 309 377
#     4  11  23  40  63  88 125 171 209 260 321 376
#     4  11  23  39  63  96 130 165 209 264 323 376
#
# _framework density 21.135743000000002
#
# number of rings (size 3 to 8) (size 9 to 14) (size 15 to 20)
#    0.000    1.333    3.333    2.500    0.000    3.333 
#    0.000    1.667    0.000   14.000    0.000    0.000 
#    0.000    0.000    0.000    0.000    0.000    0.000 
#
# Total GULP energy -66848.566005 kJ/mol
# GULP energy per Si atom -5570.713834 kJ/mol
# Density = 2.108764 g / cm^3
# Si number density = 21.135743 Si / 1000 Ang^3
#
#
#
# Elastic Constant Matrix: (Units=GPa)
#
#
# Indices 1 2 3 4 5 6 
#
# 1 56.4252 20.1146 40.9568 4.0983 -16.0630 -16.2938
# 2 20.1146 104.0491 42.9138 -0.2794 3.1422 -18.1429
# 3 40.9568 42.9138 140.9580 5.6725 11.1141 -6.6139
# 4 4.0983 -0.2794 5.6725 38.9229 -6.1973 -0.8352
# 5 -16.0630 3.1422 11.1141 -6.1973 26.0523 5.8680
# 6 -16.2938 -18.1429 -6.6139 -0.8352 5.8680 31.7990
#
#
#
# Elastic Compliance Matrix: (Units=1/GPa)
#
#
# Indices 1 2 3 4 5 6 
#
# 1 0.037693 -0.001041 -0.012295 0.002295 0.026609 0.011313
# 2 -0.001041 0.012182 -0.002963 0.000420 -0.002145 0.006208
# 3 -0.012295 -0.002963 0.012508 -0.002602 -0.012468 -0.003156
# 4 0.002295 0.000420 -0.002602 0.027260 0.008974 -0.000065
# 5 0.026609 -0.002145 -0.012468 0.008974 0.062851 -0.001545
# 6 0.011313 0.006208 -0.003156 -0.000065 -0.001545 0.040413
#
#
# Mechanical properties :
#
#
# Convention : Reuss Voigt Hill
#
# Bulk Modulus (GPa) = 33.57178 56.60031 45.08605
# Shear Modulus (GPa) = 21.23741 32.51798 26.87769
#
# Velocity S-wave (km/s) = 3.17331 3.92667 3.56992
# Velocity P-wave (km/s) = 5.41710 6.88446 6.19438
#
# Compressibility (1/GPa) = 0.02978692
#
# Stress axis : x y z
#
# Youngs Moduli (GPa) = 26.53013 82.08500 79.94619
#
# Poissons Ratio (x) = 0.08542 0.98292
# Poissons Ratio (y) = 0.02761 0.23688
# Poissons Ratio (z) = 0.32618 0.24322
#
# Static dielectric constant tensor:
#      x y z
#    x -0.419200 -1.001680 0.231070 
#    y -1.001680 1.312570 0.110630 
#    z 0.231070 0.110630 1.794690 
# 
# From -- ./inp_files/151944.got.cif
#   From: 2010.05.17/outbox.cif.g08.bks.cpg/sg2_76_cif.got.tgz:151944.got - 2010.06.03 11:33:40.
