data_PCOD9021392
_publ_section_title
;
Structure prediction by ZEFSAII (Michael W. Deem and Ramdas Pophale) SiO2 
 PCOD9021392
Probable space group: P -1
;
_chemical_formula_sum "Si O2"
_cell_formula_units_Z 12
_cell_length_a 9.527953
_cell_length_b 16.347301
_cell_length_c 11.280219
_cell_angle_alpha 43.918313
_cell_angle_beta 139.557153
_cell_angle_gamma 142.721943
_cell_volume 660.212480
_symmetry_space_group_name_H-M "P -1"
_symmetry_group_IT_number 2
_symmetry_cell_setting 'triclinic'
loop_
_space_group_symop_operation_xyz
x,y,z
-x,-y,-z
loop_
_atom_site_type_symbol
_atom_site_label
_atom_site_fract_x
_atom_site_fract_y
_atom_site_fract_z
Si Si1 0.914165 0.757134 0.248416
Si Si2 0.611037 0.302925 0.992286
Si Si3 0.645019 0.941042 0.724758
Si Si4 0.978246 0.609269 0.027933
Si Si5 0.706893 0.718715 0.894186
Si Si6 0.096175 0.560485 0.628478
O O1 0.044828 0.684544 0.470126
O O2 0.124672 0.923270 0.201405
O O3 0.666562 0.729012 0.191159
O O4 0.803452 0.698740 0.105435
O O5 0.537717 0.185948 0.168908
O O6 0.771619 0.461722 0.983281
O O7 0.785677 0.301110 0.003325
O O8 0.751729 0.872474 0.775599
O O9 0.500000 0.000000 0.500000
O O10 0.060060 0.556517 0.249746
O O11 0.849732 0.688955 0.914576
O O12 0.397098 0.616532 0.782974
O O13 0.000000 0.500000 0.500000
#
# Coordination Sequence:
#
# PCOD9021392 Si02
#       6
#     2   2   2   2   2   2
#     4  11  21  39  63  87 116 164 205 238 292 356
#     4  10  22  38  61  88 125 156 193 250 305 350
#     4  11  21  40  63  87 116 161 212 240 287 359
#     4  11  21  38  59  92 124 155 190 252 311 340
#     4  11  21  38  61  88 119 158 201 246 291 354
#     4  12  21  35  65  92 116 153 208 244 287 362
#
# _framework density 18.175967
#
# number of rings (size 3 to 8) (size 9 to 14) (size 15 to 20)
#    0.000    1.000    6.667    3.500    0.000    0.667 
#    0.000    5.833    0.000    0.000    0.000    0.000 
#    0.000    0.000    0.000    0.000    0.000    0.000 
#
# Total GULP energy -66915.467070 kJ/mol
# GULP energy per Si atom -5576.288923 kJ/mol
# Density = 1.813460 g / cm^3
# Si number density = 18.175967 Si / 1000 Ang^3
#
#
#
# Elastic Constant Matrix: (Units=GPa)
#
#
# Indices 1 2 3 4 5 6 
#
# 1 160.4928 57.0040 60.5625 -6.6506 20.5345 17.1229
# 2 57.0040 98.0109 38.0764 3.1805 1.2348 5.6148
# 3 60.5625 38.0764 108.4942 -5.2811 21.1199 -0.9237
# 4 -6.6506 3.1805 -5.2811 35.3210 -10.2634 1.2817
# 5 20.5345 1.2348 21.1199 -10.2634 27.1132 1.9961
# 6 17.1229 5.6148 -0.9237 1.2817 1.9961 26.0354
#
#
#
# Elastic Compliance Matrix: (Units=1/GPa)
#
#
# Indices 1 2 3 4 5 6 
#
# 1 0.010189 -0.004260 -0.003390 0.000788 -0.004170 -0.005622
# 2 -0.004260 0.014095 -0.003606 -0.001127 0.005018 -0.000695
# 3 -0.003390 -0.003606 0.014103 -0.000953 -0.008926 0.004239
# 4 0.000788 -0.001127 -0.000953 0.032181 0.012589 -0.002858
# 5 -0.004170 0.005018 -0.008926 0.012589 0.051769 -0.003245
# 6 -0.005622 -0.000695 0.004239 -0.002858 -0.003245 0.042797
#
#
# Mechanical properties :
#
#
# Convention : Reuss Voigt Hill
#
# Bulk Modulus (GPa) = 62.99938 75.36486 69.18212
# Shear Modulus (GPa) = 25.91512 31.78423 28.84968
#
# Velocity S-wave (km/s) = 3.78006 4.18628 3.98834
# Velocity P-wave (km/s) = 7.33402 8.05733 7.70417
#
# Compressibility (1/GPa) = 0.01587317
#
# Stress axis : x y z
#
# Youngs Moduli (GPa) = 98.14290 70.94852 70.90900
#
# Poissons Ratio (x) = 0.30223 0.24042
# Poissons Ratio (y) = 0.41808 0.25572
# Poissons Ratio (z) = 0.33275 0.25586
#
# Static dielectric constant tensor:
#      x y z
#    x 1.640150 -0.035290 0.015950 
#    y -0.035290 1.656340 0.007190 
#    z 0.015950 0.007190 1.640250 
# 
# From -- ./inp_files/249654.got.cif
#   From: 2010.05.17/outbox.cif.g08.bks.cpg/sg2_125_cif.got.tgz:249654.got - 2010.06.03 11:33:40.
