data_PCOD9021309
_publ_section_title
;
Structure prediction by ZEFSAII (Michael W. Deem and Ramdas Pophale) SiO2 
 PCOD9021309
Probable space group: P -1
;
_chemical_formula_sum "Si O2"
_cell_formula_units_Z 16
_cell_length_a 8.861108
_cell_length_b 18.872466
_cell_length_c 11.575458
_cell_angle_alpha 135.555446
_cell_angle_beta 146.280823
_cell_angle_gamma 59.876673
_cell_volume 731.089650
_symmetry_space_group_name_H-M "P -1"
_symmetry_group_IT_number 2
_symmetry_cell_setting 'triclinic'
loop_
_space_group_symop_operation_xyz
x,y,z
-x,-y,-z
loop_
_atom_site_type_symbol
_atom_site_label
_atom_site_fract_x
_atom_site_fract_y
_atom_site_fract_z
Si Si1 0.132377 0.878086 0.176362
Si Si2 0.336840 0.279892 0.940944
Si Si3 0.533610 0.076894 0.785929
Si Si4 0.421864 0.592869 0.370392
Si Si5 0.938353 0.595290 0.226591
Si Si6 0.185867 0.753874 0.280623
Si Si7 0.864865 0.473104 0.506620
Si Si8 0.430667 0.057056 0.135478
O O1 0.242469 0.873843 0.111910
O O2 0.181365 0.786164 0.182741
O O3 0.309414 0.984978 0.471997
O O4 0.812644 0.884767 0.978985
O O5 0.390206 0.165772 0.844329
O O6 0.176847 0.302553 0.748697
O O7 0.124178 0.294425 0.924170
O O8 0.629397 0.364652 0.229217
O O9 0.658369 0.024661 0.911380
O O10 0.255127 0.613595 0.402139
O O11 0.392619 0.681531 0.364004
O O12 0.714856 0.565839 0.551785
O O13 0.245263 0.488443 0.074647
O O14 0.919451 0.545593 0.281804
O O15 0.299466 0.859552 0.549006
O O16 0.000000 0.500000 0.500000
O O17 0.500000 0.000000 0.000000
#
# Coordination Sequence:
#
# PCOD9021309 Si02
#       8
#     2   2   2   2   2   2   2   2
#     4  10  22  39  59  85 120 154 189 238 287 337
#     4  10  22  39  58  85 116 151 194 236 286 345
#     4  10  22  39  58  86 122 155 188 234 290 340
#     4   9  20  38  59  82 112 148 190 238 281 335
#     4   9  20  39  59  81 111 148 190 237 284 336
#     4  10  22  38  60  88 112 151 200 236 283 338
#     4  11  24  38  58  88 118 150 188 237 295 347
#     4  11  22  37  60  88 119 154 195 238 279 336
#
# _framework density 21.88514
#
# number of rings (size 3 to 8) (size 9 to 14) (size 15 to 20)
#    0.000    2.000    0.000    3.000    0.000   13.000 
#    0.000    0.000    0.000    0.000    0.000    0.000 
#    0.000    0.000    0.000    0.000    0.000    0.000 
#
# Total GULP energy -89409.172467 kJ/mol
# GULP energy per Si atom -5588.073279 kJ/mol
# Density = 2.183533 g / cm^3
# Si number density = 21.885140 Si / 1000 Ang^3
#
#
#
# Elastic Constant Matrix: (Units=GPa)
#
#
# Indices 1 2 3 4 5 6 
#
# 1 49.6627 2.7701 10.3861 -1.1457 -5.3540 31.5681
# 2 2.7701 112.3308 -11.2092 -4.2093 -9.3047 21.1142
# 3 10.3861 -11.2092 32.1217 1.1058 5.8403 10.4819
# 4 -1.1457 -4.2093 1.1058 25.1214 7.8304 -1.0742
# 5 -5.3540 -9.3047 5.8403 7.8304 20.5019 -4.3709
# 6 31.5681 21.1142 10.4819 -1.0742 -4.3709 41.6565
#
#
#
# Elastic Compliance Matrix: (Units=1/GPa)
#
#
# Indices 1 2 3 4 5 6 
#
# 1 0.042542 0.005694 -0.002026 -0.000752 0.007338 -0.033865
# 2 0.005694 0.011668 0.005432 0.000694 0.002559 -0.011309
# 3 -0.002026 0.005432 0.040109 0.002621 -0.013183 -0.012626
# 4 -0.000752 0.000694 0.002621 0.045402 -0.018221 -0.001183
# 5 0.007338 0.002559 -0.013183 -0.018221 0.063125 0.002613
# 6 -0.033865 -0.011309 -0.012626 -0.001183 0.002613 0.058822
#
#
# Mechanical properties :
#
#
# Convention : Reuss Voigt Hill
#
# Bulk Modulus (GPa) = 8.88752 22.00099 15.44426
# Shear Modulus (GPa) = 17.79523 30.26718 24.03120
#
# Velocity S-wave (km/s) = 2.85462 3.72291 3.31729
# Velocity P-wave (km/s) = 3.86457 5.34367 4.66314
#
# Compressibility (1/GPa) = 0.11251729
#
# Stress axis : x y z
#
# Youngs Moduli (GPa) = 23.50629 85.70761 24.93207
#
# Poissons Ratio (x) = -0.48800 0.05052
# Poissons Ratio (y) = -0.13384 -0.13543
# Poissons Ratio (z) = 0.04763 -0.46555
#
# Static dielectric constant tensor:
#      x y z
#    x 1.775420 0.015190 0.012630 
#    y 0.015190 1.821620 0.010520 
#    z 0.012630 0.010520 1.827070 
# 
# From -- ./inp_files/46309.got.cif
#   From: 2010.05.17/outbox.cif.g08.bks.cpg/sg2_24_cif.got.tgz:46309.got - 2010.06.03 11:33:40.
