data_PCOD9021634
_publ_section_title
;
Structure prediction by ZEFSAII (Michael W. Deem and Ramdas Pophale) SiO2 
 PCOD9021634
Probable space group: P -1
;
_chemical_formula_sum "Si O2"
_cell_formula_units_Z 16
_cell_length_a 6.745437
_cell_length_b 16.021019
_cell_length_c 13.682592
_cell_angle_alpha 137.878868
_cell_angle_beta 50.994783
_cell_angle_gamma 99.960229
_cell_volume 636.479763
_symmetry_space_group_name_H-M "P -1"
_symmetry_group_IT_number 2
_symmetry_cell_setting 'triclinic'
loop_
_space_group_symop_operation_xyz
x,y,z
-x,-y,-z
loop_
_atom_site_type_symbol
_atom_site_label
_atom_site_fract_x
_atom_site_fract_y
_atom_site_fract_z
Si Si1 0.168739 0.718618 0.970749
Si Si2 0.747470 0.140668 0.762189
Si Si3 0.170586 0.938624 0.030638
Si Si4 0.857933 0.461501 0.596069
Si Si5 0.348864 0.740613 0.495250
Si Si6 0.248108 0.691142 0.268843
Si Si7 0.976950 0.514472 0.217544
Si Si8 0.431618 0.021244 0.202743
O O1 0.496258 0.589789 0.805983
O O2 0.984397 0.642012 0.951623
O O3 0.066563 0.845880 0.194421
O O4 0.202891 0.784583 0.915529
O O5 0.638910 0.271596 0.831227
O O6 0.501518 0.107963 0.851688
O O7 0.000000 0.000000 0.500000
O O8 0.675860 0.052421 0.109028
O O9 0.346436 0.961624 0.083121
O O10 0.820233 0.082757 0.281400
O O11 0.791434 0.444561 0.858700
O O12 0.005408 0.465303 0.654625
O O13 0.000000 0.500000 0.500000
O O14 0.407897 0.693730 0.322036
O O15 0.110200 0.695709 0.560231
O O16 0.649884 0.639750 0.378955
O O17 0.885515 0.829736 0.528578
#
# Coordination Sequence:
#
# PCOD9021634 Si02
#       8
#     2   2   2   2   2   2   2   2
#     4  10  22  38  63  98 130 165 217 260 315 386
#     4   9  18  36  63  94 123 168 215 265 319 370
#     4   9  17  33  61  93 126 159 207 264 318 379
#     4  10  23  40  65  87 130 175 205 254 321 383
#     4   9  20  38  62  93 125 167 212 261 318 382
#     4   9  18  36  61  85 119 171 212 255 317 367
#     4  10  22  42  60  94 130 167 215 256 316 383
#     4   8  16  30  59  87 121 161 207 257 316 374
#
# _framework density 25.138271
#
# number of rings (size 3 to 8) (size 9 to 14) (size 15 to 20)
#    0.000    2.750    0.000    0.750    8.750    2.500 
#    0.000   13.750    0.000   16.500    0.000    0.000 
#    0.000    0.000    0.000    0.000    0.000    0.000 
#
# Total GULP energy -89404.657079 kJ/mol
# GULP energy per Si atom -5587.791067 kJ/mol
# Density = 2.508106 g / cm^3
# Si number density = 25.138271 Si / 1000 Ang^3
#
#
#
# Elastic Constant Matrix: (Units=GPa)
#
#
# Indices 1 2 3 4 5 6 
#
# 1 148.9920 79.2327 35.3575 -7.0436 8.0906 4.9633
# 2 79.2327 230.6560 35.2646 1.0092 0.6300 -13.0268
# 3 35.3575 35.2646 54.9321 3.7856 -4.5270 -2.6313
# 4 -7.0436 1.0092 3.7856 43.6293 1.3996 3.7264
# 5 8.0906 0.6300 -4.5270 1.3996 22.4446 1.5609
# 6 4.9633 -13.0268 -2.6313 3.7264 1.5609 31.5054
#
#
#
# Elastic Compliance Matrix: (Units=1/GPa)
#
#
# Indices 1 2 3 4 5 6 
#
# 1 0.009920 -0.002778 -0.005303 0.002546 -0.004502 -0.003233
# 2 -0.002778 0.005700 -0.001664 -0.000680 0.000359 0.002718
# 3 -0.005303 -0.001664 0.023572 -0.003265 0.006766 0.002167
# 4 0.002546 -0.000680 -0.003265 0.024033 -0.002802 -0.003659
# 5 -0.004502 0.000359 0.006766 -0.002802 0.047749 -0.000611
# 6 -0.003233 0.002718 0.002167 -0.003659 -0.000611 0.034018
#
#
# Mechanical properties :
#
#
# Convention : Reuss Voigt Hill
#
# Bulk Modulus (GPa) = 50.75770 81.58774 66.17272
# Shear Modulus (GPa) = 29.23134 38.49756 33.86445
#
# Velocity S-wave (km/s) = 3.41372 3.91760 3.67431
# Velocity P-wave (km/s) = 5.98107 7.27939 6.66193
#
# Compressibility (1/GPa) = 0.01970144
#
# Stress axis : x y z
#
# Youngs Moduli (GPa) = 100.80404 175.44534 42.42282
#
# Poissons Ratio (x) = 0.48745 0.22496
# Poissons Ratio (y) = 0.28007 0.07060
# Poissons Ratio (z) = 0.53456 0.29196
#
# Static dielectric constant tensor:
#      x y z
#    x 2.020250 -0.020860 -0.080810 
#    y -0.020860 2.041810 0.128030 
#    z -0.080810 0.128030 2.200890 
# 
# From -- ./inp_files/485249.got.cif
#   From: 2010.05.17/outbox.cif.g08.bks.cpg/sg2_243_cif.got.tgz:485249.got - 2010.06.03 11:33:40.
