data_PCOD9021160
_publ_section_title
;
Structure prediction by ZEFSAII (Michael W. Deem and Ramdas Pophale) SiO2 
 PCOD9021160
Probable space group: P -1
;
_chemical_formula_sum "Si O2"
_cell_formula_units_Z 16
_cell_length_a 7.200710
_cell_length_b 5.618768
_cell_length_c 16.619876
_cell_angle_alpha 114.772756
_cell_angle_beta 97.760115
_cell_angle_gamma 93.345097
_cell_volume 599.998996
_symmetry_space_group_name_H-M "P -1"
_symmetry_group_IT_number 2
_symmetry_cell_setting 'triclinic'
loop_
_space_group_symop_operation_xyz
x,y,z
-x,-y,-z
loop_
_atom_site_type_symbol
_atom_site_label
_atom_site_fract_x
_atom_site_fract_y
_atom_site_fract_z
Si Si1 0.217891 0.013613 0.984845
Si Si2 0.128434 0.045027 0.811364
Si Si3 0.672763 0.931015 0.776229
Si Si4 0.564996 0.385638 0.748198
Si Si5 0.274749 0.262643 0.581321
Si Si6 0.314790 0.090980 0.396542
Si Si7 0.217492 0.512764 0.984100
Si Si8 0.887779 0.210196 0.390976
O O1 0.201466 0.912858 0.877212
O O2 0.304004 0.811360 0.018491
O O3 0.304841 0.314869 0.020478
O O4 0.000000 0.000000 0.000000
O O5 0.190955 0.927588 0.716257
O O6 0.899477 0.006370 0.796666
O O7 0.197141 0.353026 0.876085
O O8 0.635622 0.693928 0.802726
O O9 0.598462 0.795982 0.666614
O O10 0.585389 0.205839 0.802578
O O11 0.370751 0.361932 0.684775
O O12 0.684546 0.221468 0.667375
O O13 0.395933 0.214411 0.501689
O O14 0.145653 0.486013 0.578312
O O15 0.192769 0.962322 0.561240
O O16 0.104096 0.160653 0.395308
O O17 0.000000 0.500000 0.000000
#
# Coordination Sequence:
#
# PCOD9021160 Si02
#       8
#     2   2   2   2   2   2   2   2
#     4   8  15  25  45  71 105 134 158 200 256 307
#     4   9  20  31  52  74 115 133 166 210 270 305
#     4   9  21  32  56  75  98 135 178 215 270 295
#     4  10  22  38  55  73 101 137 190 219 262 307
#     4  12  24  38  53  76 107 140 180 221 264 314
#     4   9  23  37  60  73 102 135 185 226 266 304
#     4   8  15  26  45  71 104 134 159 201 254 308
#     4  11  25  34  54  80 109 139 170 214 276 319
#
# _framework density 26.666713999999999
#
# number of rings (size 3 to 8) (size 9 to 14) (size 15 to 20)
#    1.500    1.000    0.000    1.875    8.750    0.500 
#    0.000    0.000    0.000    0.000    0.000    0.000 
#    0.000   20.000    0.000    0.000    0.000    0.000 
#
# Total GULP energy -89172.156478 kJ/mol
# GULP energy per Si atom -5573.259780 kJ/mol
# Density = 2.660602 g / cm^3
# Si number density = 26.666714 Si / 1000 Ang^3
#
#
#
# Elastic Constant Matrix: (Units=GPa)
#
#
# Indices 1 2 3 4 5 6 
#
# 1 61.2932 24.8898 -13.3802 7.3931 -2.0726 -19.9156
# 2 24.8898 277.8521 36.6756 10.3475 13.7008 -2.0927
# 3 -13.3802 36.6756 131.5188 0.8050 -7.4788 6.2945
# 4 7.3931 10.3475 0.8050 46.0737 0.5266 -0.1684
# 5 -2.0726 13.7008 -7.4788 0.5266 24.1742 5.1228
# 6 -19.9156 -2.0927 6.2945 -0.1684 5.1228 24.4536
#
#
#
# Elastic Compliance Matrix: (Units=1/GPa)
#
#
# Indices 1 2 3 4 5 6 
#
# 1 0.024258 -0.002198 0.002197 -0.003369 0.000059 0.018967
# 2 -0.002198 0.004157 -0.001524 -0.000523 -0.002912 -0.000435
# 3 0.002197 -0.001524 0.008546 -0.000210 0.003993 -0.001379
# 4 -0.003369 -0.000523 -0.000210 0.022357 0.000002 -0.002581
# 5 0.000059 -0.002912 0.003993 0.000002 0.046586 -0.010988
# 6 0.018967 -0.000435 -0.001379 -0.002581 -0.010988 0.058943
#
#
# Mechanical properties :
#
#
# Convention : Reuss Voigt Hill
#
# Bulk Modulus (GPa) = 29.48840 63.00382 46.24611
# Shear Modulus (GPa) = 27.90161 47.10558 37.50359
#
# Velocity S-wave (km/s) = 3.23818 4.20748 3.75424
# Velocity P-wave (km/s) = 5.00632 6.87616 6.01435
#
# Compressibility (1/GPa) = 0.03391163
#
# Stress axis : x y z
#
# Youngs Moduli (GPa) = 41.22292 240.56365 117.00794
#
# Poissons Ratio (x) = 0.52867 -0.25706
# Poissons Ratio (y) = 0.09059 0.17836
# Poissons Ratio (z) = -0.09057 0.36671
#
# Static dielectric constant tensor:
#      x y z
#    x 2.095190 0.030440 0.039360 
#    y 0.030440 2.148170 0.017780 
#    z 0.039360 0.017780 1.987360 
# 
# From -- ./inp_files/585025.got.cif
#   From: 2010.05.17/outbox.cif.g08.bks.cpg/sg2_293_cif.got.tgz:585025.got - 2010.06.03 11:33:40.
