data_PCOD9021838
_publ_section_title
;
Structure prediction by ZEFSAII (Michael W. Deem and Ramdas Pophale) SiO2 
 PCOD9021838
Probable space group: P -1
;
_chemical_formula_sum "Si O2"
_cell_formula_units_Z 12
_cell_length_a 10.228589
_cell_length_b 4.950079
_cell_length_c 22.903150
_cell_angle_alpha 101.706325
_cell_angle_beta 154.982298
_cell_angle_gamma 80.561262
_cell_volume 479.656364
_symmetry_space_group_name_H-M "P -1"
_symmetry_group_IT_number 2
_symmetry_cell_setting 'triclinic'
loop_
_space_group_symop_operation_xyz
x,y,z
-x,-y,-z
loop_
_atom_site_type_symbol
_atom_site_label
_atom_site_fract_x
_atom_site_fract_y
_atom_site_fract_z
Si Si1 0.053982 0.530951 0.933428
Si Si2 0.222097 0.277409 0.291916
Si Si3 0.832154 0.345833 0.369818
Si Si4 0.411652 0.166901 0.529890
Si Si5 0.415074 0.710243 0.924612
Si Si6 0.587626 0.190326 0.811671
O O1 0.351328 0.349382 0.034373
O O2 0.194024 0.775243 0.041833
O O3 0.500000 0.500000 0.000000
O O4 0.926475 0.654676 0.827502
O O5 0.479058 0.515684 0.418599
O O6 0.201839 0.666391 0.147427
O O7 0.952071 0.303222 0.232204
O O8 0.369466 0.983338 0.341779
O O9 0.071188 0.178559 0.419918
O O10 0.433720 0.884065 0.728420
O O11 0.000000 0.500000 0.500000
O O12 0.688159 0.595357 0.287159
O O13 0.500000 0.000000 0.500000
O O14 0.500000 0.000000 0.000000
#
# Coordination Sequence:
#
# PCOD9021838 Si02
#       6
#     2   2   2   2   2   2
#     4  10  25  46  75 111 146 191 240 305 380 428
#     4  11  24  46  74 108 148 187 241 303 368 438
#     4  12  28  49  74 106 148 201 249 301 367 438
#     4  12  28  47  76 107 145 196 249 302 358 432
#     4  10  22  38  66 104 139 182 226 287 360 430
#     4  11  27  47  76 108 149 190 248 307 358 447
#
# _framework density 25.017910000000001
#
# number of rings (size 3 to 8) (size 9 to 14) (size 15 to 20)
#    0.000    1.000    0.000    5.000    4.667   14.667 
#    0.000    0.000    0.000    0.000    0.000    0.000 
#    0.000    0.000    0.000    0.000    0.000    0.000 
#
# Total GULP energy -67220.397751 kJ/mol
# GULP energy per Si atom -5601.699813 kJ/mol
# Density = 2.496097 g / cm^3
# Si number density = 25.017910 Si / 1000 Ang^3
#
#
#
# Elastic Constant Matrix: (Units=GPa)
#
#
# Indices 1 2 3 4 5 6 
#
# 1 141.0086 28.3937 39.2260 12.3225 19.4639 -12.9212
# 2 28.3937 140.8280 26.0142 13.4740 4.3281 1.6664
# 3 39.2260 26.0142 98.4035 20.4561 -15.0821 3.0306
# 4 12.3225 13.4740 20.4561 47.7479 -2.7907 5.8536
# 5 19.4639 4.3281 -15.0821 -2.7907 55.1270 6.3790
# 6 -12.9212 1.6664 3.0306 5.8536 6.3790 37.3872
#
#
#
# Elastic Compliance Matrix: (Units=1/GPa)
#
#
# Indices 1 2 3 4 5 6 
#
# 1 0.009753 -0.000944 -0.004311 -0.001301 -0.005176 0.004849
# 2 -0.000944 0.007718 -0.001496 -0.001308 -0.000723 -0.000221
# 3 -0.004311 -0.001496 0.014014 -0.003782 0.005620 -0.002926
# 4 -0.001301 -0.001308 -0.003782 0.023832 0.001199 -0.004021
# 5 -0.005176 -0.000723 0.005620 0.001199 0.022341 -0.006212
# 6 0.004849 -0.000221 -0.002926 -0.004021 -0.006212 0.030359
#
#
# Mechanical properties :
#
#
# Convention : Reuss Voigt Hill
#
# Bulk Modulus (GPa) = 55.60568 63.05642 59.33105
# Shear Modulus (GPa) = 39.21184 47.15950 43.18567
#
# Velocity S-wave (km/s) = 3.96327 4.34640 4.15925
# Velocity P-wave (km/s) = 6.57404 7.10264 6.84345
#
# Compressibility (1/GPa) = 0.01798377
#
# Stress axis : x y z
#
# Youngs Moduli (GPa) = 102.52758 129.57520 71.35857
#
# Poissons Ratio (x) = 0.12233 0.30760
# Poissons Ratio (y) = 0.09679 0.10674
# Poissons Ratio (z) = 0.44195 0.19382
#
# Static dielectric constant tensor:
#      x y z
#    x 2.115470 -0.020290 0.028520 
#    y -0.020290 1.881570 -0.020590 
#    z 0.028520 -0.020590 2.021420 
# 
# From -- ./inp_files/553574.got.cif
#   From: 2010.05.17/outbox.cif.g08.bks.cpg/sg2_277_cif.got.tgz:553574.got - 2010.06.03 11:33:40.
