data_PCOD9021529
_publ_section_title
;
Structure prediction by ZEFSAII (Michael W. Deem and Ramdas Pophale) SiO2 
 PCOD9021529
Probable space group: P -1
;
_chemical_formula_sum "Si O2"
_cell_formula_units_Z 16
_cell_length_a 7.573597
_cell_length_b 11.124098
_cell_length_c 12.903590
_cell_angle_alpha 75.098890
_cell_angle_beta 128.794570
_cell_angle_gamma 126.220122
_cell_volume 672.420015
_symmetry_space_group_name_H-M "P -1"
_symmetry_group_IT_number 2
_symmetry_cell_setting 'triclinic'
loop_
_space_group_symop_operation_xyz
x,y,z
-x,-y,-z
loop_
_atom_site_type_symbol
_atom_site_label
_atom_site_fract_x
_atom_site_fract_y
_atom_site_fract_z
Si Si1 0.195075 0.572938 0.384787
Si Si2 0.703735 0.116751 0.636268
Si Si3 0.638090 0.696108 0.184312
Si Si4 0.102810 0.848025 0.983539
Si Si5 0.148374 0.609057 0.131400
Si Si6 0.430591 0.159151 0.233314
Si Si7 0.619596 0.197822 0.088301
Si Si8 0.658418 0.456275 0.352697
O O1 0.350018 0.755025 0.392220
O O2 0.115678 0.526848 0.245692
O O3 0.330887 0.514608 0.526319
O O4 0.942358 0.530453 0.377191
O O5 0.031459 0.198553 0.714550
O O6 0.500000 0.000000 0.500000
O O7 0.633191 0.001427 0.728113
O O8 0.474991 0.727332 0.201361
O O9 0.530448 0.526554 0.220324
O O10 0.515643 0.719673 0.030074
O O11 0.147451 0.788156 0.903063
O O12 0.849413 0.861071 0.897734
O O13 0.049954 0.720660 0.074235
O O14 0.375367 0.018435 0.046652
O O15 0.000000 0.500000 0.000000
O O16 0.669118 0.239450 0.217496
O O17 0.522230 0.278431 0.332968
#
# Coordination Sequence:
#
# PCOD9021529 Si02
#       8
#     2   2   2   2   2   2   2   2
#     4  10  23  43  64  92 132 169 221 274 320 397
#     4  11  22  43  67  92 129 173 225 270 324 399
#     4  10  23  42  62  97 133 167 222 273 326 395
#     4  10  22  39  59  96 133 163 219 274 330 393
#     4  11  24  42  66  98 135 173 211 276 345 390
#     4  12  22  38  68  95 124 181 221 263 350 390
#     4  10  22  38  62  95 134 167 214 283 323 395
#     4  10  23  40  63  92 127 172 221 268 319 399
#
# _framework density 23.794650000000001
#
# number of rings (size 3 to 8) (size 9 to 14) (size 15 to 20)
#    0.000    1.500    2.500    1.875    7.000    1.000 
#    0.000    1.875    0.000    0.000    0.000    0.000 
#    0.000    0.000    0.000    0.000    0.000    0.000 
#
# Total GULP energy -89112.355533 kJ/mol
# GULP energy per Si atom -5569.522221 kJ/mol
# Density = 2.374049 g / cm^3
# Si number density = 23.794650 Si / 1000 Ang^3
#
#
#
# Elastic Constant Matrix: (Units=GPa)
#
#
# Indices 1 2 3 4 5 6 
#
# 1 58.2945 0.3424 31.5440 -7.3009 -22.4542 17.9922
# 2 0.3424 122.5587 40.5431 -28.4225 -9.6978 3.6446
# 3 31.5440 40.5431 107.6599 -24.5513 -35.9604 0.5691
# 4 -7.3009 -28.4225 -24.5513 42.3789 3.1868 -1.8541
# 5 -22.4542 -9.6978 -35.9604 3.1868 32.2541 -2.6678
# 6 17.9922 3.6446 0.5691 -1.8541 -2.6678 39.1196
#
#
#
# Elastic Compliance Matrix: (Units=1/GPa)
#
#
# Indices 1 2 3 4 5 6 
#
# 1 0.029819 0.003679 -0.003821 0.003617 0.016195 -0.012726
# 2 0.003679 0.010761 -0.003404 0.005684 0.001250 -0.002291
# 3 -0.003821 -0.003404 0.018923 0.006886 0.017005 0.003285
# 4 0.003617 0.005684 0.006886 0.031351 0.008789 -0.000208
# 5 0.016195 0.001250 0.017005 0.008789 0.060475 -0.003272
# 6 -0.012726 -0.002291 0.003285 -0.000208 -0.003272 0.031348
#
#
# Mechanical properties :
#
#
# Convention : Reuss Voigt Hill
#
# Bulk Modulus (GPa) = 19.07998 48.15245 33.61622
# Shear Modulus (GPa) = 24.12669 37.15610 30.64140
#
# Velocity S-wave (km/s) = 3.18772 3.95591 3.59241
# Velocity P-wave (km/s) = 4.64594 6.41453 5.60049
#
# Compressibility (1/GPa) = 0.05241096
#
# Stress axis : x y z
#
# Youngs Moduli (GPa) = 33.53545 92.93234 52.84527
#
# Poissons Ratio (x) = -0.34193 0.20192
# Poissons Ratio (y) = -0.12339 0.17990
# Poissons Ratio (z) = 0.12814 0.31637
#
# Static dielectric constant tensor:
#      x y z
#    x 1.958480 -0.026970 0.074700 
#    y -0.026970 1.991880 0.057460 
#    z 0.074700 0.057460 2.405230 
# 
# From -- ./inp_files/392488.got.cif
#   From: 2010.05.17/outbox.cif.g08.bks.cpg/sg2_197_cif.got.tgz:392488.got - 2010.06.03 11:33:40.
