data_PCOD9021674
_publ_section_title
;
Structure prediction by ZEFSAII (Michael W. Deem and Ramdas Pophale) SiO2 
 PCOD9021674
Probable space group: P -1
;
_chemical_formula_sum "Si O2"
_cell_formula_units_Z 16
_cell_length_a 18.385384
_cell_length_b 6.765538
_cell_length_c 24.286357
_cell_angle_alpha 119.826318
_cell_angle_beta 16.008926
_cell_angle_gamma 112.585487
_cell_volume 664.620361
_symmetry_space_group_name_H-M "P -1"
_symmetry_group_IT_number 2
_symmetry_cell_setting 'triclinic'
loop_
_space_group_symop_operation_xyz
x,y,z
-x,-y,-z
loop_
_atom_site_type_symbol
_atom_site_label
_atom_site_fract_x
_atom_site_fract_y
_atom_site_fract_z
Si Si1 0.209291 0.814257 0.934869
Si Si2 0.171769 0.364607 0.268935
Si Si3 0.510655 0.316175 0.591129
Si Si4 0.214299 0.312235 0.986492
Si Si5 0.755758 0.175907 0.873722
Si Si6 0.942264 0.563529 0.765440
Si Si7 0.538451 0.635808 0.774521
Si Si8 0.283862 0.218426 0.633543
O O1 0.264127 0.570543 0.825881
O O2 0.468877 0.751023 0.780893
O O3 0.940991 0.847182 0.173683
O O4 0.188651 0.059764 0.952448
O O5 0.458600 0.359765 0.087191
O O6 0.175472 0.387597 0.203511
O O7 0.869298 0.563259 0.537508
O O8 0.172089 0.092663 0.240212
O O9 0.467872 0.298488 0.554441
O O10 0.794138 0.355738 0.407766
O O11 0.530940 0.051713 0.564220
O O12 0.261013 0.299445 0.016647
O O13 0.915344 0.548374 0.224805
O O14 0.457768 0.393569 0.795787
O O15 0.672931 0.194966 0.001273
O O16 0.997176 0.278909 0.699559
#
# Coordination Sequence:
#
# PCOD9021674 Si02
#       8
#     2   2   2   2   2   2   2   2
#     4  11  21  41  63  94 125 168 210 262 308 377
#     4  11  22  41  64  91 124 167 206 261 310 378
#     4  11  23  41  67  90 127 169 212 256 320 373
#     4  10  23  40  64  93 131 163 213 263 314 365
#     4  10  24  40  62  93 128 159 210 259 317 366
#     4  11  22  40  63  92 123 167 206 259 311 376
#     4  10  22  38  64  91 126 164 208 253 314 376
#     4  10  24  45  59  94 131 166 206 269 312 369
#
# _framework density 24.073896000000001
#
# number of rings (size 3 to 8) (size 9 to 14) (size 15 to 20)
#    0.000    1.500    2.500    1.875    5.250    1.000 
#    2.250    0.000    0.000    8.250    0.000    0.000 
#    0.000    0.000    0.000    0.000    0.000    0.000 
#
# Total GULP energy -89394.176965 kJ/mol
# GULP energy per Si atom -5587.136060 kJ/mol
# Density = 2.401910 g / cm^3
# Si number density = 24.073896 Si / 1000 Ang^3
#
#
#
# Elastic Constant Matrix: (Units=GPa)
#
#
# Indices 1 2 3 4 5 6 
#
# 1 90.0422 22.9328 9.5968 4.4425 -12.1729 6.4321
# 2 22.9328 101.3828 21.3190 15.3255 7.4732 11.0962
# 3 9.5968 21.3190 45.1841 14.6317 -5.5788 -0.6389
# 4 4.4425 15.3255 14.6317 25.6571 5.5145 2.8577
# 5 -12.1729 7.4732 -5.5788 5.5145 27.8834 3.7530
# 6 6.4321 11.0962 -0.6389 2.8577 3.7530 32.7637
#
#
#
# Elastic Compliance Matrix: (Units=1/GPa)
#
#
# Indices 1 2 3 4 5 6 
#
# 1 0.013078 -0.002986 0.000076 -0.001821 0.007184 -0.002219
# 2 -0.002986 0.012717 -0.005084 -0.002818 -0.004764 -0.003028
# 3 0.000076 -0.005084 0.031596 -0.017618 0.010850 0.002617
# 4 -0.001821 -0.002818 -0.017618 0.054273 -0.014007 -0.002161
# 5 0.007184 -0.004764 0.010850 -0.014007 0.045702 -0.003599
# 6 -0.002219 -0.003028 0.002617 -0.002161 -0.003599 0.032634
#
#
# Mechanical properties :
#
#
# Convention : Reuss Voigt Hill
#
# Bulk Modulus (GPa) = 24.15248 38.25625 31.20437
# Shear Modulus (GPa) = 22.74922 29.44488 26.09705
#
# Velocity S-wave (km/s) = 3.07738 3.50108 3.29605
# Velocity P-wave (km/s) = 4.76250 5.68059 5.24169
#
# Compressibility (1/GPa) = 0.04140361
#
# Stress axis : x y z
#
# Youngs Moduli (GPa) = 76.46619 78.63659 31.64947
#
# Poissons Ratio (x) = 0.23478 -0.00242
# Poissons Ratio (y) = 0.22830 0.16092
# Poissons Ratio (z) = -0.00585 0.39981
#
# Static dielectric constant tensor:
#      x y z
#    x 1.922990 -0.005780 0.001820 
#    y -0.005780 1.945910 0.051980 
#    z 0.001820 0.051980 2.015630 
# 
# From -- ./inp_files/612700.got.cif
#   From: 2010.05.17/outbox.cif.g08.bks.cpg/sg2_307_cif.got.tgz:612700.got - 2010.06.03 11:33:40.
