data_PCOD9021204
_publ_section_title
;
Structure prediction by ZEFSAII (Michael W. Deem and Ramdas Pophale) SiO2 
 PCOD9021204
Probable space group: P -1
;
_chemical_formula_sum "Si O2"
_cell_formula_units_Z 14
_cell_length_a 4.865664
_cell_length_b 21.450843
_cell_length_c 5.735792
_cell_angle_alpha 114.810580
_cell_angle_beta 72.208483
_cell_angle_gamma 102.109023
_cell_volume 515.106050
_symmetry_space_group_name_H-M "P -1"
_symmetry_group_IT_number 2
_symmetry_cell_setting 'triclinic'
loop_
_space_group_symop_operation_xyz
x,y,z
-x,-y,-z
loop_
_atom_site_type_symbol
_atom_site_label
_atom_site_fract_x
_atom_site_fract_y
_atom_site_fract_z
Si Si1 0.117928 0.175802 0.587810
Si Si2 0.735563 0.948639 0.906046
Si Si3 0.259188 0.435443 0.460129
Si Si4 0.263572 0.433658 0.955945
Si Si5 0.371161 0.699923 0.346280
Si Si6 0.141683 0.180879 0.092145
Si Si7 0.362535 0.693785 0.839105
O O1 0.391640 0.233514 0.608631
O O2 0.980288 0.179316 0.884379
O O3 0.213984 0.098865 0.406276
O O4 0.966067 0.184716 0.388149
O O5 0.702725 0.889346 0.019714
O O6 0.500000 0.000000 0.000000
O O7 0.000000 0.000000 0.000000
O O8 0.500000 0.500000 0.500000
O O9 0.100219 0.434800 0.750986
O O10 0.450792 0.371164 0.310214
O O11 0.099374 0.434606 0.249339
O O12 0.439703 0.366087 0.806013
O O13 0.500000 0.500000 0.000000
O O14 0.205962 0.695341 0.631123
O O15 0.205289 0.695984 0.133996
O O16 0.393037 0.242212 0.120941
#
# Coordination Sequence:
#
# PCOD9021204 Si02
#       7
#     2   2   2   2   2   2   2
#     4   8  16  30  48  70  96 130 172 208 263 310
#     4  10  22  38  58  82 110 142 180 226 274 326
#     4   8  12  16  24  42  70 106 148 186 236 280
#     4   8  12  16  24  42  70 106 148 186 236 280
#     4   8  12  20  34  52  78 114 156 194 242 293
#     4   8  16  30  48  70  96 130 172 208 263 310
#     4   8  12  20  34  52  78 114 156 194 242 293
#
# _framework density 27.178868000000001
#
# number of rings (size 3 to 8) (size 9 to 14) (size 15 to 20)
#    0.857    2.857    0.000    0.000    0.000    1.143 
#    0.000    0.000    0.000    0.000    0.000    0.000 
#    0.000    0.000    0.000    2.571    6.857    0.000 
#
# Total GULP energy -78270.798096 kJ/mol
# GULP energy per Si atom -5590.771293 kJ/mol
# Density = 2.711701 g / cm^3
# Si number density = 27.178868 Si / 1000 Ang^3
#
#
#
# Elastic Constant Matrix: (Units=GPa)
#
#
# Indices 1 2 3 4 5 6 
#
# 1 118.1205 51.8803 38.5453 7.9708 5.6426 -6.2055
# 2 51.8803 176.7592 70.4409 28.1197 8.9359 -7.7686
# 3 38.5453 70.4409 295.6955 -63.4502 21.6352 -18.5666
# 4 7.9708 28.1197 -63.4502 95.8790 -14.8223 16.8552
# 5 5.6426 8.9359 21.6352 -14.8223 31.3330 -4.3269
# 6 -6.2055 -7.7686 -18.5666 16.8552 -4.3269 28.0012
#
#
#
# Elastic Compliance Matrix: (Units=1/GPa)
#
#
# Indices 1 2 3 4 5 6 
#
# 1 0.009943 -0.002303 -0.000823 -0.001103 -0.000874 0.001548
# 2 -0.002303 0.008193 -0.002303 -0.004524 -0.002108 0.002633
# 3 -0.000823 -0.002303 0.004927 0.003889 -0.000759 -0.000013
# 4 -0.001103 -0.004524 0.003889 0.016713 0.005589 -0.008118
# 5 -0.000874 -0.002108 -0.000759 0.005589 0.035968 0.000912
# 6 0.001548 0.002633 -0.000013 -0.008118 0.000912 0.041805
#
#
# Mechanical properties :
#
#
# Convention : Reuss Voigt Hill
#
# Bulk Modulus (GPa) = 81.92632 101.36758 91.64695
# Shear Modulus (GPa) = 37.74269 59.68989 48.71629
#
# Velocity S-wave (km/s) = 3.73054 4.69143 4.23831
# Velocity P-wave (km/s) = 6.98317 8.16845 7.59895
#
# Compressibility (1/GPa) = 0.01220609
#
# Stress axis : x y z
#
# Youngs Moduli (GPa) = 100.56853 122.05499 202.96168
#
# Poissons Ratio (x) = 0.28105 0.16709
# Poissons Ratio (y) = 0.23158 0.46738
# Poissons Ratio (z) = 0.08279 0.28107
#
# Static dielectric constant tensor:
#      x y z
#    x 1.946370 -0.061340 0.001580 
#    y -0.061340 2.144640 -0.060400 
#    z 0.001580 -0.060400 2.243470 
# 
# From -- ./inp_files/12579.got.cif
#   From: 2010.05.17/outbox.cif.g08.bks.cpg/sg2_7_cif.got.tgz:12579.got - 2010.06.03 11:33:40.
