data_PCOD9021939
_publ_section_title
;
Structure prediction by ZEFSAII (Michael W. Deem and Ramdas Pophale) SiO2 
 PCOD9021939
Probable space group: P -1
;
_chemical_formula_sum "Si O2"
_cell_formula_units_Z 10
_cell_length_a 9.302716
_cell_length_b 13.752619
_cell_length_c 5.242872
_cell_angle_alpha 45.790606
_cell_angle_beta 105.797353
_cell_angle_gamma 112.803658
_cell_volume 443.213537
_symmetry_space_group_name_H-M "P -1"
_symmetry_group_IT_number 2
_symmetry_cell_setting 'triclinic'
loop_
_space_group_symop_operation_xyz
x,y,z
-x,-y,-z
loop_
_atom_site_type_symbol
_atom_site_label
_atom_site_fract_x
_atom_site_fract_y
_atom_site_fract_z
Si Si1 0.520230 0.912541 0.420216
Si Si2 0.145399 0.059833 0.644413
Si Si3 0.254621 0.620231 0.885215
Si Si4 0.997747 0.222896 0.647587
Si Si5 0.838842 0.541194 0.360763
O O1 0.694484 0.900165 0.501920
O O2 0.397345 0.758347 0.653807
O O3 0.500000 0.000000 0.500000
O O4 0.500000 0.000000 0.000000
O O5 0.110858 0.180829 0.578941
O O6 0.000000 0.000000 0.500000
O O7 0.130275 0.922589 0.069405
O O8 0.901539 0.325557 0.303360
O O9 0.242059 0.506564 0.860736
O O10 0.259924 0.551316 0.288427
O O11 0.101087 0.299411 0.796903
O O12 0.000000 0.500000 0.500000
#
# Coordination Sequence:
#
# PCOD9021939 Si02
#       5
#     2   2   2   2   2
#     4  12  25  44  67  95 136 170 218 270 322 390
#     4  11  25  40  67  96 131 173 215 273 326 386
#     4  11  22  41  67  97 125 171 220 263 322 381
#     4  10  22  40  63  96 128 167 221 266 322 379
#     4  10  22  38  67  95 127 169 218 267 311 388
#
# _framework density 22.562488999999999
#
# number of rings (size 3 to 8) (size 9 to 14) (size 15 to 20)
#    0.000    1.200    2.000    4.800   14.000    0.000 
#    0.000    2.000    0.000    0.000    0.000    0.000 
#    0.000    0.000    0.000    0.000    0.000    0.000 
#
# Total GULP energy -55968.276866 kJ/mol
# GULP energy per Si atom -5596.827687 kJ/mol
# Density = 2.251114 g / cm^3
# Si number density = 22.562489 Si / 1000 Ang^3
#
#
#
# Elastic Constant Matrix: (Units=GPa)
#
#
# Indices 1 2 3 4 5 6 
#
# 1 136.1730 72.9521 24.9963 -3.2168 -31.3748 -8.3006
# 2 72.9521 197.6653 37.8315 -3.5942 -27.8711 -26.7861
# 3 24.9963 37.8315 104.3582 -3.0366 -29.2233 -2.0693
# 4 -3.2168 -3.5942 -3.0366 43.1390 2.6507 -11.2229
# 5 -31.3748 -27.8711 -29.2233 2.6507 39.8624 -2.1121
# 6 -8.3006 -26.7861 -2.0693 -11.2229 -2.1121 37.4050
#
#
#
# Elastic Compliance Matrix: (Units=1/GPa)
#
#
# Indices 1 2 3 4 5 6 
#
# 1 0.010351 -0.002884 0.000392 0.000352 0.006433 0.000722
# 2 -0.002884 0.007393 -0.001236 0.001525 0.002165 0.005166
# 3 0.000392 -0.001236 0.012334 0.000399 0.008485 0.000483
# 4 0.000352 0.001525 0.000399 0.025656 0.000401 0.008913
# 5 0.006433 0.002165 0.008485 0.000401 0.038161 0.005723
# 6 0.000722 0.005166 0.000483 0.008913 0.005723 0.033618
#
#
# Mechanical properties :
#
#
# Convention : Reuss Voigt Hill
#
# Bulk Modulus (GPa) = 44.20441 78.86181 61.53311
# Shear Modulus (GPa) = 35.08525 44.24238 39.66381
#
# Velocity S-wave (km/s) = 3.94766 4.43299 4.19734
# Velocity P-wave (km/s) = 6.35714 7.82498 7.12894
#
# Compressibility (1/GPa) = 0.02262217
#
# Stress axis : x y z
#
# Youngs Moduli (GPa) = 96.60687 135.26158 81.07696
#
# Poissons Ratio (x) = 0.39009 -0.03179
# Poissons Ratio (y) = 0.27861 0.10023
# Poissons Ratio (z) = -0.03788 0.16721
#
# Static dielectric constant tensor:
#      x y z
#    x 1.844940 0.009530 0.105800 
#    y 0.009530 1.830020 0.019390 
#    z 0.105800 0.019390 2.067370 
# 
# From -- ./inp_files/26230.got.cif
#   From: 2010.05.17/outbox.cif.g08.bks.cpg/sg2_14_cif.got.tgz:26230.got - 2010.06.03 11:33:40.
