data_PCOD9021263
_publ_section_title
;
Structure prediction by ZEFSAII (Michael W. Deem and Ramdas Pophale) SiO2 
 PCOD9021263
Probable space group: P -1
;
_chemical_formula_sum "Si O2"
_cell_formula_units_Z 16
_cell_length_a 14.410109
_cell_length_b 11.691288
_cell_length_c 8.077352
_cell_angle_alpha 36.106533
_cell_angle_beta 94.128251
_cell_angle_gamma 108.621287
_cell_volume 716.545698
_symmetry_space_group_name_H-M "P -1"
_symmetry_group_IT_number 2
_symmetry_cell_setting 'triclinic'
loop_
_space_group_symop_operation_xyz
x,y,z
-x,-y,-z
loop_
_atom_site_type_symbol
_atom_site_label
_atom_site_fract_x
_atom_site_fract_y
_atom_site_fract_z
Si Si1 0.118390 0.534370 0.125984
Si Si2 0.654910 0.863344 0.405480
Si Si3 0.682405 0.167634 0.368729
Si Si4 0.586107 0.388874 0.272838
Si Si5 0.059620 0.866259 0.604444
Si Si6 0.732384 0.598815 0.519794
Si Si7 0.382525 0.822753 0.169399
Si Si8 0.728225 0.835962 0.901862
O O1 0.173300 0.462836 0.361746
O O2 0.016983 0.325821 0.299469
O O3 0.206119 0.624715 0.885717
O O4 0.090064 0.736690 0.902462
O O5 0.533149 0.690834 0.601581
O O6 0.717948 0.730120 0.519572
O O7 0.672118 0.019602 0.381062
O O8 0.674684 0.036676 0.058010
O O9 0.598444 0.259960 0.268334
O O10 0.680864 0.007906 0.701811
O O11 0.643708 0.312912 0.508335
O O12 0.651304 0.644328 0.994657
O O13 0.161708 0.030721 0.328844
O O14 0.000000 0.000000 0.500000
O O15 0.635412 0.362867 0.752563
O O16 0.739993 0.736922 0.193732
O O17 0.500000 0.000000 0.000000
#
# Coordination Sequence:
#
# PCOD9021263 Si02
#       8
#     2   2   2   2   2   2   2   2
#     4  10  23  40  67  91 124 163 204 261 315 382
#     4  11  23  36  63  91 127 176 210 259 308 368
#     4  11  22  39  61  90 128 165 216 259 313 367
#     4  10  22  38  59  90 129 168 217 260 306 368
#     4  10  22  43  70  94 121 161 204 262 329 378
#     4  11  23  41  63  94 131 164 216 253 310 382
#     4   9  20  38  58  84 124 171 210 252 308 357
#     4  10  24  41  63  93 125 166 206 265 317 364
#
# _framework density 22.329350999999999
#
# number of rings (size 3 to 8) (size 9 to 14) (size 15 to 20)
#    0.000    1.750    1.250    1.875    5.250    7.500 
#    0.000    0.625    0.000    0.000    0.000    0.000 
#    0.000    0.000    0.000    0.000    0.000    0.000 
#
# Total GULP energy -89233.747769 kJ/mol
# GULP energy per Si atom -5577.109236 kJ/mol
# Density = 2.227853 g / cm^3
# Si number density = 22.329351 Si / 1000 Ang^3
#
#
#
# Elastic Constant Matrix: (Units=GPa)
#
#
# Indices 1 2 3 4 5 6 
#
# 1 68.4443 22.5936 35.0607 -17.5736 13.7882 -5.2349
# 2 22.5936 76.7592 29.5826 -6.6927 1.8697 -3.7156
# 3 35.0607 29.5826 135.4802 -9.2255 8.3777 3.0186
# 4 -17.5736 -6.6927 -9.2255 35.7552 14.9215 8.9228
# 5 13.7882 1.8697 8.3777 14.9215 47.8915 -10.4877
# 6 -5.2349 -3.7156 3.0186 8.9228 -10.4877 34.0871
#
#
#
# Elastic Compliance Matrix: (Units=1/GPa)
#
#
# Indices 1 2 3 4 5 6 
#
# 1 0.024082 -0.004300 -0.003309 0.016460 -0.012317 -0.004575
# 2 -0.004300 0.015187 -0.002455 -0.001239 0.001927 0.002130
# 3 -0.003309 -0.002455 0.009023 0.001486 -0.001526 -0.002433
# 4 0.016460 -0.001239 0.001486 0.051412 -0.025113 -0.018923
# 5 -0.012317 0.001927 -0.001526 -0.025113 0.035967 0.016093
# 6 -0.004575 0.002130 -0.002433 -0.018923 0.016093 0.038987
#
#
# Mechanical properties :
#
#
# Convention : Reuss Voigt Hill
#
# Bulk Modulus (GPa) = 35.50279 50.57304 43.03792
# Shear Modulus (GPa) = 24.48896 36.44321 30.46609
#
# Velocity S-wave (km/s) = 3.31526 4.04428 3.69778
# Velocity P-wave (km/s) = 5.53071 6.67129 6.12760
#
# Compressibility (1/GPa) = 0.02816680
#
# Stress axis : x y z
#
# Youngs Moduli (GPa) = 41.52428 65.84419 110.82511
#
# Poissons Ratio (x) = 0.28310 0.36672
# Poissons Ratio (y) = 0.17854 0.27203
# Poissons Ratio (z) = 0.13740 0.16162
#
# Static dielectric constant tensor:
#      x y z
#    x 1.830860 0.028560 0.055060 
#    y 0.028560 1.922650 0.054350 
#    z 0.055060 0.054350 1.891180 
# 
# From -- ./inp_files/306086.got.cif
#   From: 2010.05.17/outbox.cif.g08.bks.cpg/sg2_154_cif.got.tgz:306086.got - 2010.06.03 11:33:40.
