data_PCOD9021619
_publ_section_title
;
Structure prediction by ZEFSAII (Michael W. Deem and Ramdas Pophale) SiO2 
 PCOD9021619
Probable space group: P -1
;
_chemical_formula_sum "Si O2"
_cell_formula_units_Z 16
_cell_length_a 9.566718
_cell_length_b 13.958109
_cell_length_c 11.936170
_cell_angle_alpha 32.283591
_cell_angle_beta 83.329871
_cell_angle_gamma 97.446142
_cell_volume 763.624651
_symmetry_space_group_name_H-M "P -1"
_symmetry_group_IT_number 2
_symmetry_cell_setting 'triclinic'
loop_
_space_group_symop_operation_xyz
x,y,z
-x,-y,-z
loop_
_atom_site_type_symbol
_atom_site_label
_atom_site_fract_x
_atom_site_fract_y
_atom_site_fract_z
Si Si1 0.895053 0.792386 0.364755
Si Si2 0.541325 0.581653 0.676861
Si Si3 0.342303 0.765950 0.645445
Si Si4 0.437879 0.786890 0.858746
Si Si5 0.970172 0.750923 0.153138
Si Si6 0.311173 0.829425 0.060563
Si Si7 0.555449 0.258328 0.666735
Si Si8 0.142287 0.645046 0.580042
O O1 0.727261 0.703144 0.526860
O O2 0.874998 0.734325 0.291938
O O3 0.007406 0.707513 0.495509
O O4 0.979080 0.032129 0.119526
O O5 0.465123 0.695589 0.646884
O O6 0.467081 0.575614 0.566894
O O7 0.506522 0.374114 0.942499
O O8 0.335532 0.717284 0.824956
O O9 0.185661 0.667922 0.684096
O O10 0.418063 0.004073 0.389024
O O11 0.339596 0.817484 0.939127
O O12 0.895685 0.572642 0.249553
O O13 0.130140 0.744932 0.185109
O O14 0.398405 0.057698 0.865256
O O15 0.391479 0.715147 0.236699
O O16 0.693215 0.220022 0.630211
#
# Coordination Sequence:
#
# PCOD9021619 Si02
#       8
#     2   2   2   2   2   2   2   2
#     4  11  23  39  63  94 130 172 206 247 325 392
#     4  11  22  41  64  96 125 162 214 267 310 376
#     4  10  24  46  62  95 125 163 224 270 301 376
#     4  11  22  40  73  87 122 175 214 260 327 357
#     4  11  23  38  63  90 140 170 198 254 328 379
#     4  11  20  41  63  94 129 171 200 263 318 375
#     4  10  22  38  63  95 134 152 211 271 304 374
#     4  11  22  41  61  92 130 163 210 264 311 374
#
# _framework density 20.952703
#
# number of rings (size 3 to 8) (size 9 to 14) (size 15 to 20)
#    0.000    1.250    5.000    1.500    1.750    2.500 
#    2.250    2.500    0.000    4.500    0.000    0.000 
#    0.000    0.000    0.000    0.000    0.000    0.000 
#
# Total GULP energy -89449.255216 kJ/mol
# GULP energy per Si atom -5590.578451 kJ/mol
# Density = 2.090501 g / cm^3
# Si number density = 20.952703 Si / 1000 Ang^3
#
#
#
# Elastic Constant Matrix: (Units=GPa)
#
#
# Indices 1 2 3 4 5 6 
#
# 1 87.2333 23.7164 30.8233 0.8108 14.1166 3.6612
# 2 23.7164 100.1254 44.0588 6.8937 17.1957 13.6096
# 3 30.8233 44.0588 114.8157 -3.7785 34.8042 5.2860
# 4 0.8108 6.8937 -3.7785 40.0233 0.8546 -2.8598
# 5 14.1166 17.1957 34.8042 0.8546 36.5981 1.5759
# 6 3.6612 13.6096 5.2860 -2.8598 1.5759 20.2062
#
#
#
# Elastic Compliance Matrix: (Units=1/GPa)
#
#
# Indices 1 2 3 4 5 6 
#
# 1 0.013065 -0.001678 -0.002199 -0.000175 -0.002134 -0.000520
# 2 -0.001678 0.013805 -0.004125 -0.003292 -0.001483 -0.008265
# 3 -0.002199 -0.004125 0.014208 0.002373 -0.010808 0.000639
# 4 -0.000175 -0.003292 0.002373 0.026201 -0.001489 0.005453
# 5 -0.002134 -0.001483 -0.010808 -0.001489 0.039116 0.000952
# 6 -0.000520 -0.008265 0.000639 0.005453 0.000952 0.055681
#
#
# Mechanical properties :
#
#
# Convention : Reuss Voigt Hill
#
# Bulk Modulus (GPa) = 39.88107 55.48570 47.68339
# Shear Modulus (GPa) = 26.81850 32.93725 29.87788
#
# Velocity S-wave (km/s) = 3.58153 3.96912 3.78030
# Velocity P-wave (km/s) = 6.01484 6.89523 6.47002
#
# Compressibility (1/GPa) = 0.02507455
#
# Stress axis : x y z
#
# Youngs Moduli (GPa) = 76.53831 72.43717 70.38431
#
# Poissons Ratio (x) = 0.12156 0.15474
# Poissons Ratio (y) = 0.12844 0.29035
# Poissons Ratio (z) = 0.16827 0.29882
#
# Static dielectric constant tensor:
#      x y z
#    x 1.746520 0.001980 0.011190 
#    y 0.001980 1.788900 -0.008180 
#    z 0.011190 -0.008180 1.783310 
# 
# From -- ./inp_files/398184.got.cif
#   From: 2010.05.17/outbox.cif.g08.bks.cpg/sg2_200_cif.got.tgz:398184.got - 2010.06.03 11:33:40.
