data_PCOD9021064
_publ_section_title
;
Structure prediction by ZEFSAII (Michael W. Deem and Ramdas Pophale) SiO2 
 PCOD9021064
Probable space group: P -1
;
_chemical_formula_sum "Si O2"
_cell_formula_units_Z 16
_cell_length_a 11.611363
_cell_length_b 19.896627
_cell_length_c 10.764385
_cell_angle_alpha 150.638956
_cell_angle_beta 143.892763
_cell_angle_gamma 33.126890
_cell_volume 637.483389
_symmetry_space_group_name_H-M "P -1"
_symmetry_group_IT_number 2
_symmetry_cell_setting 'triclinic'
loop_
_space_group_symop_operation_xyz
x,y,z
-x,-y,-z
loop_
_atom_site_type_symbol
_atom_site_label
_atom_site_fract_x
_atom_site_fract_y
_atom_site_fract_z
Si Si1 0.518619 0.132255 0.329929
Si Si2 0.007865 0.336100 0.220402
Si Si3 0.246280 0.689414 0.814688
Si Si4 0.269935 0.549910 0.074540
Si Si5 0.924745 0.487946 0.777842
Si Si6 0.287556 0.940462 0.373327
Si Si7 0.193727 0.844343 0.608041
Si Si8 0.581727 0.840871 0.056596
O O1 0.557606 0.179821 0.580075
O O2 0.682557 0.142597 0.388232
O O3 0.260314 0.225910 0.230276
O O4 0.580686 0.955432 0.131179
O O5 0.938278 0.280269 0.193735
O O6 0.000000 0.500000 0.500000
O O7 0.830149 0.362964 0.001135
O O8 0.471381 0.549653 0.839395
O O9 0.175285 0.626602 0.530348
O O10 0.279066 0.842515 0.091254
O O11 0.192765 0.682361 0.326210
O O12 0.140539 0.450411 0.824330
O O13 0.743645 0.664841 0.881021
O O14 0.000000 0.500000 0.000000
O O15 0.050376 0.025837 0.371477
O O16 0.359123 0.077543 0.645562
O O17 0.343355 0.849778 0.859573
#
# Coordination Sequence:
#
# PCOD9021064 Si02
#       8
#     2   2   2   2   2   2   2   2
#     4  10  22  37  65  98 150 189 226 268 349 420
#     4  12  22  39  67 105 154 186 215 282 360 421
#     4  12  25  45  68 106 143 183 226 291 355 415
#     4  12  24  42  72 103 144 186 236 274 348 430
#     4  12  27  50  75  98 134 186 245 299 341 406
#     4  10  24  37  66  96 139 178 227 280 344 402
#     4  12  20  39  67 100 140 190 229 276 337 432
#     4  10  23  42  62  98 133 177 233 286 335 410
#
# _framework density 25.098692
#
# number of rings (size 3 to 8) (size 9 to 14) (size 15 to 20)
#    0.750    0.000    3.750    4.875    0.000    1.500 
#    0.000    0.625    0.000    5.250    0.000    0.000 
#    0.000    0.000    0.000    0.000    0.000    0.000 
#
# Total GULP energy -89433.882884 kJ/mol
# GULP energy per Si atom -5589.617680 kJ/mol
# Density = 2.504157 g / cm^3
# Si number density = 25.098692 Si / 1000 Ang^3
#
#
#
# Elastic Constant Matrix: (Units=GPa)
#
#
# Indices 1 2 3 4 5 6 
#
# 1 37.5504 24.5869 29.1918 -9.9725 -10.0549 6.6476
# 2 24.5869 68.8526 29.3660 -3.0430 -8.0289 -39.2625
# 3 29.1918 29.3660 230.0932 9.1529 -6.2600 -13.3987
# 4 -9.9725 -3.0430 9.1529 46.0361 -2.7095 5.5230
# 5 -10.0549 -8.0289 -6.2600 -2.7095 35.3398 1.3910
# 6 6.6476 -39.2625 -13.3987 5.5230 1.3910 10.9202
#
#
#
# Elastic Compliance Matrix: (Units=1/GPa)
#
#
# Indices 1 2 3 4 5 6 
#
# 1 0.017157 0.012154 -0.001927 0.001771 0.006288 0.029193
# 2 0.012154 -0.003587 -0.002845 0.006484 0.003720 -0.027540
# 3 -0.001927 -0.002845 0.004857 -0.001304 -0.000340 -0.002392
# 4 0.001771 0.006484 -0.001304 0.021872 0.003061 0.009183
# 5 0.006288 0.003720 -0.000340 0.003061 0.030962 0.003639
# 6 0.029193 -0.027540 -0.002392 0.009183 0.003639 -0.033260
#
#
# Mechanical properties :
#
#
# Convention : Reuss Voigt Hill
#
# Bulk Modulus (GPa) = 30.12864 55.86507 42.99685
# Shear Modulus (GPa) = 145.77097 35.34933 90.56015
#
# Velocity S-wave (km/s) = 7.62923 3.75695 6.01331
# Velocity P-wave (km/s) = 9.46768 6.41296 8.08589
#
# Compressibility (1/GPa) = 0.03319101
#
# Stress axis : x y z
#
# Youngs Moduli (GPa) = 58.28554 -278.75362 205.89005
#
# Poissons Ratio (x) = 3.38800 0.39680
# Poissons Ratio (y) = -0.70841 0.58567
# Poissons Ratio (z) = 0.11233 -0.79294
#
# Static dielectric constant tensor:
#      x y z
#    x 1.946090 0.065580 -0.033440 
#    y 0.065580 1.981530 -0.022680 
#    z -0.033440 -0.022680 2.141740 
# 
# From -- ./inp_files/458159.got.cif
#   From: 2010.05.17/outbox.cif.g08.bks.cpg/sg2_230_cif.got.tgz:458159.got - 2010.06.03 11:33:40.
