data_PCOD9021795
_publ_section_title
;
Structure prediction by ZEFSAII (Michael W. Deem and Ramdas Pophale) SiO2 
 PCOD9021795
Probable space group: P -1
;
_chemical_formula_sum "Si O2"
_cell_formula_units_Z 16
_cell_length_a 14.474767
_cell_length_b 5.027347
_cell_length_c 26.570351
_cell_angle_alpha 106.943455
_cell_angle_beta 158.393634
_cell_angle_gamma 76.750392
_cell_volume 676.267099
_symmetry_space_group_name_H-M "P -1"
_symmetry_group_IT_number 2
_symmetry_cell_setting 'triclinic'
loop_
_space_group_symop_operation_xyz
x,y,z
-x,-y,-z
loop_
_atom_site_type_symbol
_atom_site_label
_atom_site_fract_x
_atom_site_fract_y
_atom_site_fract_z
Si Si1 0.225071 0.840892 0.626256
Si Si2 0.378977 0.229808 0.541171
Si Si3 0.425032 0.219435 0.830736
Si Si4 0.980287 0.112363 0.108193
Si Si5 0.492020 0.361810 0.762061
Si Si6 0.048318 0.657841 0.345124
Si Si7 0.726703 0.431481 0.646503
Si Si8 0.822101 0.466061 0.848002
O O1 0.268586 0.519572 0.632940
O O2 0.266836 0.947581 0.710369
O O3 0.452483 0.023758 0.720543
O O4 0.000000 0.000000 0.500000
O O5 0.591483 0.203471 0.604137
O O6 0.542816 0.395489 0.676549
O O7 0.173500 0.408282 0.421912
O O8 0.232606 0.938114 0.468454
O O9 0.481733 0.408835 0.819480
O O10 0.236546 0.338189 0.780293
O O11 0.693153 0.140346 0.979957
O O12 0.159159 0.305414 0.247765
O O13 0.036757 0.259079 0.090710
O O14 0.042848 0.798898 0.116586
O O15 0.744157 0.476497 0.867364
O O16 0.068720 0.648309 0.294219
O O17 0.500000 0.500000 0.500000
#
# Coordination Sequence:
#
# PCOD9021795 Si02
#       8
#     2   2   2   2   2   2   2   2
#     4  10  23  40  62  88 131 166 210 257 302 368
#     4  10  22  38  65  96 125 155 213 262 316 365
#     4  10  28  40  62  93 135 170 207 249 320 380
#     4  11  25  42  63  92 131 164 212 260 312 383
#     4  10  24  39  63  91 124 163 219 254 307 362
#     4  11  23  37  67  91 128 165 202 260 320 380
#     4   9  20  43  67  95 122 159 211 269 313 363
#     4  11  23  40  66  92 121 171 211 264 314 359
#
# _framework density 23.659291
#
# number of rings (size 3 to 8) (size 9 to 14) (size 15 to 20)
#    0.750    1.000    0.000    3.750    7.000    4.500 
#    0.000    0.000    0.000    7.500    0.000    0.000 
#    0.000    0.000    0.000    0.000    0.000    0.000 
#
# Total GULP energy -89319.686884 kJ/mol
# GULP energy per Si atom -5582.480430 kJ/mol
# Density = 2.360544 g / cm^3
# Si number density = 23.659291 Si / 1000 Ang^3
#
#
#
# Elastic Constant Matrix: (Units=GPa)
#
#
# Indices 1 2 3 4 5 6 
#
# 1 118.4786 8.5171 38.9789 -14.3075 34.9235 -13.3081
# 2 8.5171 75.4972 5.8589 -17.0178 -0.6490 10.8673
# 3 38.9789 5.8589 90.7157 -21.5284 11.4591 -13.6954
# 4 -14.3075 -17.0178 -21.5284 35.0756 -9.8717 -0.3649
# 5 34.9235 -0.6490 11.4591 -9.8717 39.6048 -6.1765
# 6 -13.3081 10.8673 -13.6954 -0.3649 -6.1765 27.5409
#
#
#
# Elastic Compliance Matrix: (Units=1/GPa)
#
#
# Indices 1 2 3 4 5 6 
#
# 1 0.013110 -0.001847 -0.004008 -0.000854 -0.010212 0.002769
# 2 -0.001847 0.016178 0.000337 0.008025 0.002802 -0.006374
# 3 -0.004008 0.000337 0.015448 0.008696 0.002208 0.006223
# 4 -0.000854 0.008025 0.008696 0.039910 0.008823 0.003253
# 5 -0.010212 0.002802 0.002208 0.008823 0.036380 0.003334
# 6 0.002769 -0.006374 0.006223 0.003253 0.003334 0.044048
#
#
# Mechanical properties :
#
#
# Convention : Reuss Voigt Hill
#
# Bulk Modulus (GPa) = 29.67378 43.48904 36.58141
# Shear Modulus (GPa) = 26.68888 35.86670 31.27779
#
# Velocity S-wave (km/s) = 3.36229 3.89777 3.63989
# Velocity P-wave (km/s) = 5.25763 6.21917 5.75850
#
# Compressibility (1/GPa) = 0.03369978
#
# Stress axis : x y z
#
# Youngs Moduli (GPa) = 76.27866 61.81160 64.73178
#
# Poissons Ratio (x) = 0.11415 0.25948
# Poissons Ratio (y) = 0.14086 -0.02181
# Poissons Ratio (z) = 0.30576 -0.02082
#
# Static dielectric constant tensor:
#      x y z
#    x 1.965720 -0.064510 0.006340 
#    y -0.064510 2.047800 -0.019410 
#    z 0.006340 -0.019410 2.006100 
# 
# From -- ./inp_files/623329.got.cif
#   From: 2010.05.17/outbox.cif.g08.bks.cpg/sg2_312_cif.got.tgz:623329.got - 2010.06.03 11:33:40.
