data_PCOD9021125
_publ_section_title
;
Structure prediction by ZEFSAII (Michael W. Deem and Ramdas Pophale) SiO2 
 PCOD9021125
Probable space group: P -1
;
_chemical_formula_sum "Si O2"
_cell_formula_units_Z 16
_cell_length_a 12.285952
_cell_length_b 12.051007
_cell_length_c 15.731770
_cell_angle_alpha 118.046002
_cell_angle_beta 28.441330
_cell_angle_gamma 98.358354
_cell_volume 754.098779
_symmetry_space_group_name_H-M "P -1"
_symmetry_group_IT_number 2
_symmetry_cell_setting 'triclinic'
loop_
_space_group_symop_operation_xyz
x,y,z
-x,-y,-z
loop_
_atom_site_type_symbol
_atom_site_label
_atom_site_fract_x
_atom_site_fract_y
_atom_site_fract_z
Si Si1 0.909166 0.046712 0.737119
Si Si2 0.345411 0.367656 0.505666
Si Si3 0.678470 0.276387 0.762624
Si Si4 0.649271 0.412626 0.654311
Si Si5 0.656546 0.794027 0.917694
Si Si6 0.119068 0.682087 0.191269
Si Si7 0.237529 0.986731 0.995339
Si Si8 0.270075 0.681481 0.616404
O O1 0.053460 0.129636 0.645120
O O2 0.559469 0.154758 0.994366
O O3 0.953219 0.994697 0.785771
O O4 0.052437 0.904080 0.518315
O O5 0.561421 0.199097 0.241881
O O6 0.245927 0.537670 0.595638
O O7 0.524607 0.339072 0.457603
O O8 0.064424 0.378101 0.720471
O O9 0.582319 0.365186 0.770884
O O10 0.789632 0.334715 0.778598
O O11 0.430986 0.280536 0.980634
O O12 0.595084 0.358393 0.585213
O O13 0.993356 0.332374 0.389512
O O14 0.395326 0.604050 0.908537
O O15 0.593619 0.952962 0.058066
O O16 0.027670 0.129130 0.120420
#
# Coordination Sequence:
#
# PCOD9021125 Si02
#       8
#     2   2   2   2   2   2   2   2
#     4  11  21  40  65  96 139 176 220 270 336 407
#     4  11  24  44  72  96 135 177 230 282 339 392
#     4  11  22  41  63  98 137 172 222 266 334 405
#     4  11  24  42  62  97 135 171 228 270 334 395
#     4  10  22  37  68  95 136 187 208 272 337 398
#     4  11  25  40  63 100 134 176 226 279 327 404
#     4  11  21  41  71  98 134 174 230 271 335 405
#     4  10  24  46  68  99 131 181 224 284 340 396
#
# _framework density 21.217379999999999
#
# number of rings (size 3 to 8) (size 9 to 14) (size 15 to 20)
#    0.000    1.250    2.500    4.875    5.250    2.500 
#    0.000    0.625    0.000    0.000    0.000    0.000 
#    0.000    0.000    0.000    0.000    0.000    0.000 
#
# Total GULP energy -89203.796021 kJ/mol
# GULP energy per Si atom -5575.237251 kJ/mol
# Density = 2.116909 g / cm^3
# Si number density = 21.217380 Si / 1000 Ang^3
#
#
#
# Elastic Constant Matrix: (Units=GPa)
#
#
# Indices 1 2 3 4 5 6 
#
# 1 84.3391 69.0861 31.8956 -5.0662 -3.6084 5.6275
# 2 69.0861 115.8502 27.5420 -8.5092 -4.4909 6.3345
# 3 31.8956 27.5420 119.7590 4.7373 8.4725 8.8326
# 4 -5.0662 -8.5092 4.7373 23.3560 -0.1546 7.2995
# 5 -3.6084 -4.4909 8.4725 -0.1546 20.9674 3.7697
# 6 5.6275 6.3345 8.8326 7.2995 3.7697 40.9498
#
#
#
# Elastic Compliance Matrix: (Units=1/GPa)
#
#
# Indices 1 2 3 4 5 6 
#
# 1 0.024593 -0.013518 -0.003636 0.001494 0.003005 -0.001047
# 2 -0.013518 0.017277 -0.000549 0.003980 0.001909 -0.001582
# 3 -0.003636 -0.000549 0.009933 -0.002840 -0.004666 -0.000622
# 4 0.001494 0.003980 -0.002840 0.048059 0.004260 -0.009167
# 5 0.003005 0.001909 -0.004666 0.004260 0.051471 -0.005200
# 6 -0.001047 -0.001582 -0.000622 -0.009167 -0.005200 0.027056
#
#
# Mechanical properties :
#
#
# Convention : Reuss Voigt Hill
#
# Bulk Modulus (GPa) = 60.98391 64.11062 62.54726
# Shear Modulus (GPa) = 22.80401 29.81629 26.31015
#
# Velocity S-wave (km/s) = 3.28194 3.75277 3.52522
# Velocity P-wave (km/s) = 6.57011 7.00424 6.79064
#
# Compressibility (1/GPa) = 0.01639777
#
# Stress axis : x y z
#
# Youngs Moduli (GPa) = 40.66128 57.88180 100.67541
#
# Poissons Ratio (x) = 0.78246 0.36602
# Poissons Ratio (y) = 0.54967 0.05525
# Poissons Ratio (z) = 0.14783 0.03177
#
# Static dielectric constant tensor:
#      x y z
#    x 1.735590 -0.063070 -0.056960 
#    y -0.063070 1.878730 0.145210 
#    z -0.056960 0.145210 1.944040 
# 
# From -- ./inp_files/519793.got.cif
#   From: 2010.05.17/outbox.cif.g08.bks.cpg/sg2_260_cif.got.tgz:519793.got - 2010.06.03 11:33:40.
