data_PCOD9021517
_publ_section_title
;
Structure prediction by ZEFSAII (Michael W. Deem and Ramdas Pophale) SiO2 
 PCOD9021517
Probable space group: P -1
;
_chemical_formula_sum "Si O2"
_cell_formula_units_Z 14
_cell_length_a 14.356689
_cell_length_b 9.740363
_cell_length_c 7.741293
_cell_angle_alpha 112.641719
_cell_angle_beta 111.299183
_cell_angle_gamma 125.656662
_cell_volume 504.313462
_symmetry_space_group_name_H-M "P -1"
_symmetry_group_IT_number 2
_symmetry_cell_setting 'triclinic'
loop_
_space_group_symop_operation_xyz
x,y,z
-x,-y,-z
loop_
_atom_site_type_symbol
_atom_site_label
_atom_site_fract_x
_atom_site_fract_y
_atom_site_fract_z
Si Si1 0.818277 0.183247 0.437276
Si Si2 0.745333 0.108835 0.741885
Si Si3 0.425635 0.544093 0.859049
Si Si4 0.168015 0.092928 0.170690
Si Si5 0.617505 0.051117 0.969864
Si Si6 0.634973 0.453138 0.687647
Si Si7 0.889359 0.705993 0.267614
O O1 0.812929 0.233905 0.656728
O O2 0.616321 0.863413 0.096586
O O3 0.810409 0.284164 0.321690
O O4 0.964496 0.235750 0.560399
O O5 0.857663 0.115279 0.916343
O O6 0.703335 0.181212 0.893284
O O7 0.541314 0.782278 0.421325
O O8 0.291255 0.300265 0.512867
O O9 0.288423 0.492057 0.828609
O O10 0.500000 0.500000 0.000000
O O11 0.296097 0.294723 0.189292
O O12 0.000000 0.000000 0.000000
O O13 0.451259 0.733137 0.628805
O O14 0.500000 0.000000 0.000000
O O15 0.807762 0.592490 0.963637
O O16 0.000000 0.000000 0.500000
#
# Coordination Sequence:
#
# PCOD9021517 Si02
#       7
#     2   2   2   2   2   2   2
#     4  12  23  41  66  94 131 177 216 273 334 388
#     4  10  22  40  64  93 136 166 217 267 340 385
#     4  12  20  37  56  93 138 168 208 252 324 407
#     4  12  22  34  59  97 136 172 202 263 337 402
#     4  10  25  45  70  92 123 179 238 278 325 380
#     4  10  22  38  62  93 140 165 218 268 320 394
#     4  12  23  35  62 101 138 174 213 253 331 420
#
# _framework density 27.760511000000001
#
# number of rings (size 3 to 8) (size 9 to 14) (size 15 to 20)
#    0.857    0.000    5.714    2.143    4.000    0.571 
#    0.000    0.714    0.000    6.000    0.000    0.000 
#    0.000    0.000    0.000    0.000    0.000    0.000 
#
# Total GULP energy -78137.718167 kJ/mol
# GULP energy per Si atom -5581.265583 kJ/mol
# Density = 2.769733 g / cm^3
# Si number density = 27.760511 Si / 1000 Ang^3
#
#
#
# Elastic Constant Matrix: (Units=GPa)
#
#
# Indices 1 2 3 4 5 6 
#
# 1 175.7594 34.3389 78.2108 -13.1144 7.8416 21.4143
# 2 34.3389 58.7103 45.9308 -10.7874 -0.4331 3.7461
# 3 78.2108 45.9308 237.0306 -25.4678 24.8994 4.7297
# 4 -13.1144 -10.7874 -25.4678 54.4878 6.5193 2.4963
# 5 7.8416 -0.4331 24.8994 6.5193 61.6058 -2.9641
# 6 21.4143 3.7461 4.7297 2.4963 -2.9641 25.6135
#
#
#
# Elastic Compliance Matrix: (Units=1/GPa)
#
#
# Indices 1 2 3 4 5 6 
#
# 1 0.007826 -0.002641 -0.001785 0.000881 -0.000675 -0.005991
# 2 -0.002641 0.021507 -0.003247 0.001931 0.001579 -0.000343
# 3 -0.001785 -0.003247 0.005885 0.001941 -0.002360 0.000419
# 4 0.000881 0.001931 0.001941 0.020412 -0.003223 -0.003740
# 5 -0.000675 0.001579 -0.002360 -0.003223 0.017775 0.003140
# 6 -0.005991 -0.000343 0.000419 -0.003740 0.003140 0.044751
#
#
# Mechanical properties :
#
#
# Convention : Reuss Voigt Hill
#
# Bulk Modulus (GPa) = 50.32817 87.60679 68.96748
# Shear Modulus (GPa) = 35.68189 49.20943 42.44566
#
# Velocity S-wave (km/s) = 3.58906 4.21484 3.91448
# Velocity P-wave (km/s) = 5.94508 7.43728 6.73265
#
# Compressibility (1/GPa) = 0.01986959
#
# Stress axis : x y z
#
# Youngs Moduli (GPa) = 127.78154 46.49736 169.91418
#
# Poissons Ratio (x) = 0.12281 0.30335
# Poissons Ratio (y) = 0.33751 0.55179
# Poissons Ratio (z) = 0.22813 0.15100
#
# Static dielectric constant tensor:
#      x y z
#    x 2.077960 0.166910 -0.111440 
#    y 0.166910 1.992410 0.252680 
#    z -0.111440 0.252680 1.954690 
# 
# From -- ./inp_files/308151.got.cif
#   From: 2010.05.17/outbox.cif.g08.bks.cpg/sg2_155_cif.got.tgz:308151.got - 2010.06.03 11:33:40.
