data_PCOD9021303
_publ_section_title
;
Structure prediction by ZEFSAII (Michael W. Deem and Ramdas Pophale) SiO2 
 PCOD9021303
Probable space group: P -1
;
_chemical_formula_sum "Si O2"
_cell_formula_units_Z 10
_cell_length_a 17.609664
_cell_length_b 6.731979
_cell_length_c 9.501508
_cell_angle_alpha 44.463915
_cell_angle_beta 39.816828
_cell_angle_gamma 66.319543
_cell_volume 477.488598
_symmetry_space_group_name_H-M "P -1"
_symmetry_group_IT_number 2
_symmetry_cell_setting 'triclinic'
loop_
_space_group_symop_operation_xyz
x,y,z
-x,-y,-z
loop_
_atom_site_type_symbol
_atom_site_label
_atom_site_fract_x
_atom_site_fract_y
_atom_site_fract_z
Si Si1 0.485417 0.198573 0.752818
Si Si2 0.404682 0.265066 0.150294
Si Si3 0.253686 0.684745 0.202475
Si Si4 0.979173 0.640093 0.102900
Si Si5 0.098415 0.775555 0.137356
O O1 0.500000 0.500000 0.500000
O O2 0.600946 0.070049 0.629734
O O3 0.462834 0.272731 0.908600
O O4 0.365988 0.932371 0.997215
O O5 0.288160 0.388550 0.257349
O O6 0.500000 0.500000 0.000000
O O7 0.048844 0.057275 0.053180
O O8 0.219483 0.830540 0.035092
O O9 0.860349 0.431082 0.466401
O O10 0.094788 0.688670 0.022386
O O11 0.000000 0.500000 0.000000
O O12 0.000000 0.500000 0.500000
#
# Coordination Sequence:
#
# PCOD9021303 Si02
#       5
#     2   2   2   2   2
#     4  10  22  39  61  88 118 154 197 242 287 348
#     4   9  21  40  57  83 121 152 193 243 289 345
#     4  10  22  38  60  87 119 159 193 235 298 348
#     4  10  22  40  60  86 121 154 194 245 290 346
#     4   9  21  39  58  84 115 152 197 242 288 344
#
# _framework density 20.942910000000001
#
# number of rings (size 3 to 8) (size 9 to 14) (size 15 to 20)
#    0.000    2.400    0.000    0.000    0.000   19.200 
#    0.000    0.000    0.000    0.000    0.000    0.000 
#    0.000    0.000    0.000    0.000    0.000    0.000 
#
# Total GULP energy -55730.439106 kJ/mol
# GULP energy per Si atom -5573.043911 kJ/mol
# Density = 2.089524 g / cm^3
# Si number density = 20.942910 Si / 1000 Ang^3
#
#
#
# Elastic Constant Matrix: (Units=GPa)
#
#
# Indices 1 2 3 4 5 6 
#
# 1 150.8940 77.9205 37.5287 6.5867 28.6120 17.2400
# 2 77.9205 167.0247 43.5156 8.6308 20.7043 21.4992
# 3 37.5287 43.5156 73.0428 -11.2824 18.2581 -6.5422
# 4 6.5867 8.6308 -11.2824 27.4464 -7.2533 6.4430
# 5 28.6120 20.7043 18.2581 -7.2533 34.9110 -3.9982
# 6 17.2400 21.4992 -6.5422 6.4430 -3.9982 37.9296
#
#
#
# Elastic Compliance Matrix: (Units=1/GPa)
#
#
# Indices 1 2 3 4 5 6 
#
# 1 0.010680 -0.002584 -0.003209 -0.003934 -0.006817 -0.003994
# 2 -0.002584 0.009527 -0.004768 -0.003874 -0.002375 -0.004640
# 3 -0.003209 -0.004768 0.020782 0.008636 -0.002933 0.005970
# 4 -0.003934 -0.003874 0.008636 0.045117 0.010252 -0.001110
# 5 -0.006817 -0.002375 -0.002933 0.010252 0.040038 0.006418
# 6 -0.003994 -0.004640 0.005970 -0.001110 0.006418 0.032705
#
#
# Mechanical properties :
#
#
# Convention : Reuss Voigt Hill
#
# Bulk Modulus (GPa) = 50.33824 78.76568 64.55196
# Shear Modulus (GPa) = 26.79610 35.52385 31.15997
#
# Velocity S-wave (km/s) = 3.58087 4.12299 3.86145
# Velocity P-wave (km/s) = 6.41755 7.76896 7.12537
#
# Compressibility (1/GPa) = 0.01986561
#
# Stress axis : x y z
#
# Youngs Moduli (GPa) = 93.62948 104.96680 48.11855
#
# Poissons Ratio (x) = 0.27125 0.15443
# Poissons Ratio (y) = 0.24195 0.22945
# Poissons Ratio (z) = 0.30049 0.50052
#
# Static dielectric constant tensor:
#      x y z
#    x 1.877470 -0.019540 -0.036150 
#    y -0.019540 1.733150 -0.007100 
#    z -0.036150 -0.007100 1.842860 
# 
# From -- ./inp_files/85507.got.cif
#   From: 2010.05.17/outbox.cif.g08.bks.cpg/sg2_43_cif.got.tgz:85507.got - 2010.06.03 11:33:40.
