data_PCOD9021046
_publ_section_title
;
Structure prediction by ZEFSAII (Michael W. Deem and Ramdas Pophale) SiO2 
 PCOD9021046
Probable space group: P -1
;
_chemical_formula_sum "Si O2"
_cell_formula_units_Z 16
_cell_length_a 13.506742
_cell_length_b 9.044052
_cell_length_c 11.189188
_cell_angle_alpha 64.238663
_cell_angle_beta 120.570820
_cell_angle_gamma 67.664759
_cell_volume 669.598958
_symmetry_space_group_name_H-M "P -1"
_symmetry_group_IT_number 2
_symmetry_cell_setting 'triclinic'
loop_
_space_group_symop_operation_xyz
x,y,z
-x,-y,-z
loop_
_atom_site_type_symbol
_atom_site_label
_atom_site_fract_x
_atom_site_fract_y
_atom_site_fract_z
Si Si1 0.980667 0.591945 0.590531
Si Si2 0.777263 0.160730 0.016057
Si Si3 0.901483 0.216017 0.463055
Si Si4 0.470879 0.371184 0.610455
Si Si5 0.779718 0.025798 0.499502
Si Si6 0.360289 0.028000 0.349178
Si Si7 0.853045 0.426205 0.977268
Si Si8 0.068393 0.698364 0.208676
O O1 0.808820 0.883672 0.446193
O O2 0.982502 0.422748 0.726118
O O3 0.000000 0.500000 0.500000
O O4 0.136287 0.562571 0.691968
O O5 0.597170 0.256042 0.845111
O O6 0.724248 0.408796 0.920168
O O7 0.019998 0.196014 0.242604
O O8 0.898323 0.004818 0.024540
O O9 0.064772 0.064567 0.713450
O O10 0.741772 0.263141 0.379779
O O11 0.000000 0.000000 0.500000
O O12 0.500000 0.500000 0.500000
O O13 0.258222 0.559424 0.428735
O O14 0.559495 0.135425 0.663601
O O15 0.676201 0.056846 0.535516
O O16 0.198099 0.331264 0.112213
O O17 0.500000 0.000000 0.500000
O O18 0.901768 0.363448 0.890377
#
# Coordination Sequence:
#
# PCOD9021046 Si02
#       8
#     2   2   2   2   2   2   2   2
#     4  11  21  38  63  94 128 170 228 274 314 385
#     4  11  23  42  68  94 136 175 215 271 333 402
#     4   9  21  40  63  92 123 174 227 268 315 380
#     4  12  26  40  64 102 139 171 214 267 343 408
#     4  10  22  37  65  93 125 171 218 266 330 395
#     4  12  22  38  58  94 141 165 205 268 331 403
#     4  11  22  39  60  97 128 167 213 261 337 392
#     4  12  23  41  66  99 137 171 214 276 332 389
#
# _framework density 23.8949
#
# number of rings (size 3 to 8) (size 9 to 14) (size 15 to 20)
#    0.000    1.000    5.000    1.500    5.250    0.000 
#    0.000    0.625    0.000    2.250    0.000    0.000 
#    0.000    0.000    0.000    0.000    0.000    0.000 
#
# Total GULP energy -89171.762293 kJ/mol
# GULP energy per Si atom -5573.235143 kJ/mol
# Density = 2.384051 g / cm^3
# Si number density = 23.894900 Si / 1000 Ang^3
#
#
#
# Elastic Constant Matrix: (Units=GPa)
#
#
# Indices 1 2 3 4 5 6 
#
# 1 132.5463 22.9738 25.1927 -3.4651 5.8716 38.1223
# 2 22.9738 109.4858 26.1908 3.0624 21.7000 12.9015
# 3 25.1927 26.1908 68.9139 17.7882 20.1015 -7.6631
# 4 -3.4651 3.0624 17.7882 39.3349 0.2439 -3.3979
# 5 5.8716 21.7000 20.1015 0.2439 29.9871 2.6238
# 6 38.1223 12.9015 -7.6631 -3.3979 2.6238 47.3584
#
#
#
# Elastic Compliance Matrix: (Units=1/GPa)
#
#
# Indices 1 2 3 4 5 6 
#
# 1 0.012053 -0.000317 -0.007510 0.003527 0.003819 -0.010790
# 2 -0.000317 0.011421 -0.002827 0.000143 -0.006049 -0.002969
# 3 -0.007510 -0.002827 0.027120 -0.011639 -0.015551 0.011230
# 4 0.003527 0.000143 -0.011639 0.030688 0.007017 -0.002948
# 5 0.003819 -0.006049 -0.015551 0.007017 0.047878 -0.006092
# 6 -0.010790 -0.002969 0.011230 -0.002948 -0.006092 0.032553
#
#
# Mechanical properties :
#
#
# Convention : Reuss Voigt Hill
#
# Bulk Modulus (GPa) = 34.14559 51.07340 42.60949
# Shear Modulus (GPa) = 25.93591 39.10864 32.52228
#
# Velocity S-wave (km/s) = 3.29814 4.05000 3.69325
# Velocity P-wave (km/s) = 5.36885 6.57956 6.00479
#
# Compressibility (1/GPa) = 0.02928636
#
# Stress axis : x y z
#
# Youngs Moduli (GPa) = 82.96531 87.55699 36.87318
#
# Poissons Ratio (x) = 0.02773 0.27692
# Poissons Ratio (y) = 0.02628 0.10425
# Poissons Ratio (z) = 0.62307 0.24755
#
# Static dielectric constant tensor:
#      x y z
#    x 2.040490 -0.062280 0.038070 
#    y -0.062280 1.706200 0.250430 
#    z 0.038070 0.250430 1.754100 
# 
# From -- ./inp_files/445926.got.cif
#   From: 2010.05.17/outbox.cif.g08.bks.cpg/sg2_223_cif.got.tgz:445926.got - 2010.06.03 11:33:40.
