data_PCOD9021276
_publ_section_title
;
Structure prediction by ZEFSAII (Michael W. Deem and Ramdas Pophale) SiO2 
 PCOD9021276
Probable space group: P -1
;
_chemical_formula_sum "Si O2"
_cell_formula_units_Z 14
_cell_length_a 7.385800
_cell_length_b 10.343860
_cell_length_c 11.994218
_cell_angle_alpha 70.282928
_cell_angle_beta 111.359242
_cell_angle_gamma 136.129113
_cell_volume 587.444914
_symmetry_space_group_name_H-M "P -1"
_symmetry_group_IT_number 2
_symmetry_cell_setting 'triclinic'
loop_
_space_group_symop_operation_xyz
x,y,z
-x,-y,-z
loop_
_atom_site_type_symbol
_atom_site_label
_atom_site_fract_x
_atom_site_fract_y
_atom_site_fract_z
Si Si1 0.626885 0.244294 0.173322
Si Si2 0.878643 0.596514 0.268901
Si Si3 0.547784 0.613202 0.370544
Si Si4 0.140638 0.392175 0.167845
Si Si5 0.364081 0.944951 0.366241
Si Si6 0.057525 0.010166 0.736748
Si Si7 0.663384 0.731856 0.067012
O O1 0.746031 0.397444 0.251630
O O2 0.856012 0.326869 0.109599
O O3 0.554260 0.068399 0.269192
O O4 0.379956 0.203069 0.072937
O O5 0.697268 0.583265 0.325229
O O6 0.864901 0.700571 0.132751
O O7 0.166771 0.727323 0.350971
O O8 0.500000 0.500000 0.500000
O O9 0.740967 0.837875 0.358610
O O10 0.275356 0.516639 0.274489
O O11 0.370853 0.527800 0.089232
O O12 0.073248 0.200969 0.230706
O O13 0.175442 0.988895 0.315493
O O14 0.500000 0.000000 0.500000
O O15 0.235845 0.117296 0.857289
#
# Coordination Sequence:
#
# PCOD9021276 Si02
#       7
#     2   2   2   2   2   2   2
#     4  12  23  37  62  94 122 159 195 252 308 352
#     4   9  22  41  61  88 121 155 200 254 301 356
#     4   9  20  40  63  83 114 164 208 238 294 358
#     4  10  22  38  59  93 120 156 204 246 302 362
#     4  10  23  40  58  87 121 154 206 248 299 356
#     4   9  21  42  61  86 122 158 200 251 297 362
#     4   9  21  41  64  86 120 158 207 245 298 363
#
# _framework density 23.832018999999999
#
# number of rings (size 3 to 8) (size 9 to 14) (size 15 to 20)
#    0.000    2.857    0.000    2.571    4.000    7.429 
#    5.143    0.000    0.000    0.000    0.000    0.000 
#    0.000    0.000    0.000    0.000    0.000    0.000 
#
# Total GULP energy -78184.314356 kJ/mol
# GULP energy per Si atom -5584.593883 kJ/mol
# Density = 2.377778 g / cm^3
# Si number density = 23.832019 Si / 1000 Ang^3
#
#
#
# Elastic Constant Matrix: (Units=GPa)
#
#
# Indices 1 2 3 4 5 6 
#
# 1 37.8447 10.8319 -5.5322 -0.8171 5.5556 4.6594
# 2 10.8319 118.3182 40.0076 -3.9820 1.1429 6.0214
# 3 -5.5322 40.0076 117.1537 5.9808 -3.4736 13.7841
# 4 -0.8171 -3.9820 5.9808 38.0016 3.3480 4.5371
# 5 5.5556 1.1429 -3.4736 3.3480 16.2410 -0.0378
# 6 4.6594 6.0214 13.7841 4.5371 -0.0378 25.0564
#
#
#
# Elastic Compliance Matrix: (Units=1/GPa)
#
#
# Indices 1 2 3 4 5 6 
#
# 1 0.030084 -0.003269 0.002962 0.001500 -0.009752 -0.006725
# 2 -0.003269 0.010064 -0.003686 0.001637 -0.000716 -0.000080
# 3 0.002962 -0.003686 0.010687 -0.001538 0.001836 -0.005263
# 4 0.001500 0.001637 -0.001538 0.027938 -0.006728 -0.004895
# 5 -0.009752 -0.000716 0.001836 -0.006728 0.066744 0.002294
# 6 -0.006725 -0.000080 -0.005263 -0.004895 0.002294 0.044965
#
#
# Mechanical properties :
#
#
# Convention : Reuss Voigt Hill
#
# Bulk Modulus (GPa) = 23.33778 40.43680 31.88729
# Shear Modulus (GPa) = 23.50171 31.06041 27.28106
#
# Velocity S-wave (km/s) = 3.14369 3.61405 3.38705
# Velocity P-wave (km/s) = 4.79489 5.86680 5.35772
#
# Compressibility (1/GPa) = 0.04284898
#
# Stress axis : x y z
#
# Youngs Moduli (GPa) = 33.23977 99.36739 93.57357
#
# Poissons Ratio (x) = 0.32483 -0.27721
# Poissons Ratio (y) = 0.10866 0.34496
# Poissons Ratio (z) = -0.09847 0.36631
#
# Static dielectric constant tensor:
#      x y z
#    x 1.989370 0.054750 -0.012830 
#    y 0.054750 1.932040 -0.021480 
#    z -0.012830 -0.021480 1.924300 
# 
# From -- ./inp_files/498994.got.cif
#   From: 2010.05.17/outbox.cif.g08.bks.cpg/sg2_250_cif.got.tgz:498994.got - 2010.06.03 11:33:40.
