data_PCOD9021779
_publ_section_title
;
Structure prediction by ZEFSAII (Michael W. Deem and Ramdas Pophale) SiO2 
 PCOD9021779
Probable space group: P -1
;
_chemical_formula_sum "Si O2"
_cell_formula_units_Z 12
_cell_length_a 9.227154
_cell_length_b 10.514745
_cell_length_c 9.172373
_cell_angle_alpha 58.150978
_cell_angle_beta 132.200607
_cell_angle_gamma 121.002111
_cell_volume 541.443782
_symmetry_space_group_name_H-M "P -1"
_symmetry_group_IT_number 2
_symmetry_cell_setting 'triclinic'
loop_
_space_group_symop_operation_xyz
x,y,z
-x,-y,-z
loop_
_atom_site_type_symbol
_atom_site_label
_atom_site_fract_x
_atom_site_fract_y
_atom_site_fract_z
Si Si1 0.754993 0.691193 0.050718
Si Si2 0.540685 0.150614 0.542514
Si Si3 0.676868 0.134372 0.968264
Si Si4 0.896289 0.912437 0.756842
Si Si5 0.329661 0.634731 0.940731
Si Si6 0.100260 0.727587 0.473238
O O1 0.702897 0.547821 0.990335
O O2 0.896151 0.647513 0.298290
O O3 0.868591 0.841689 0.944987
O O4 0.548800 0.711107 0.970054
O O5 0.637612 0.126779 0.774797
O O6 0.319129 0.173930 0.407238
O O7 0.705866 0.279434 0.490297
O O8 0.500000 0.000000 0.500000
O O9 0.669784 0.295341 0.941442
O O10 0.900396 0.113419 0.157161
O O11 0.500000 0.000000 0.000000
O O12 0.910492 0.093762 0.642944
O O13 0.155343 0.679882 0.698704
#
# Coordination Sequence:
#
# PCOD9021779 Si02
#       6
#     2   2   2   2   2   2
#     4  11  23  43  68  92 128 181 212 251 326 388
#     4  10  22  38  65  94 125 164 214 257 316 382
#     4  12  25  41  63 101 132 161 212 279 319 365
#     4  11  23  39  70  95 124 170 216 262 319 381
#     4  11  26  42  64  97 135 163 216 270 313 378
#     4  11  21  40  70  94 121 173 222 256 310 390
#
# _framework density 22.162963000000001
#
# number of rings (size 3 to 8) (size 9 to 14) (size 15 to 20)
#    0.000    1.000    3.333    4.000    4.667    4.667 
#    0.000    0.833    0.000    0.000    0.000    0.000 
#    0.000    0.000    0.000    0.000    0.000    0.000 
#
# Total GULP energy -67064.140604 kJ/mol
# GULP energy per Si atom -5588.678384 kJ/mol
# Density = 2.211252 g / cm^3
# Si number density = 22.162963 Si / 1000 Ang^3
#
#
#
# Elastic Constant Matrix: (Units=GPa)
#
#
# Indices 1 2 3 4 5 6 
#
# 1 75.6312 31.8875 15.0502 -2.2568 29.8971 -12.1562
# 2 31.8875 89.4056 16.8989 6.8675 -3.6419 -16.6728
# 3 15.0502 16.8989 69.9891 10.0040 15.8352 -6.3828
# 4 -2.2568 6.8675 10.0040 27.8725 3.4051 -5.7097
# 5 29.8971 -3.6419 15.8352 3.4051 49.3633 1.6124
# 6 -12.1562 -16.6728 -6.3828 -5.7097 1.6124 27.6276
#
#
#
# Elastic Compliance Matrix: (Units=1/GPa)
#
#
# Indices 1 2 3 4 5 6 
#
# 1 0.025015 -0.008660 0.000119 0.007872 -0.016645 0.008407
# 2 -0.008660 0.016160 -0.002822 -0.003747 0.007467 0.004080
# 3 0.000119 -0.002822 0.016960 -0.004369 -0.005475 0.001685
# 4 0.007872 -0.003747 -0.004369 0.041727 -0.006822 0.009215
# 5 -0.016645 0.007467 -0.005475 -0.006822 0.033360 -0.007439
# 6 0.008407 0.004080 0.001685 0.009215 -0.007439 0.045085
#
#
# Mechanical properties :
#
#
# Convention : Reuss Voigt Hill
#
# Bulk Modulus (GPa) = 28.23932 40.29990 34.26961
# Shear Modulus (GPa) = 23.49237 32.38531 27.93884
#
# Velocity S-wave (km/s) = 3.25927 3.82676 3.55436
# Velocity P-wave (km/s) = 5.18971 6.14397 5.68689
#
# Compressibility (1/GPa) = 0.03541161
#
# Stress axis : x y z
#
# Youngs Moduli (GPa) = 39.97535 61.88277 58.96117
#
# Poissons Ratio (x) = 0.53588 -0.00703
# Poissons Ratio (y) = 0.34617 0.16636
# Poissons Ratio (z) = -0.00476 0.17460
#
# Static dielectric constant tensor:
#      x y z
#    x 1.825080 0.016420 0.019150 
#    y 0.016420 1.849080 0.002170 
#    z 0.019150 0.002170 1.857510 
# 
# From -- ./inp_files/157781.got.cif
#   From: 2010.05.17/outbox.cif.g08.bks.cpg/sg2_79_cif.got.tgz:157781.got - 2010.06.03 11:33:40.
