data_PCOD9021387
_publ_section_title
;
Structure prediction by ZEFSAII (Michael W. Deem and Ramdas Pophale) SiO2 
 PCOD9021387
Probable space group: P -1
;
_chemical_formula_sum "Si O2"
_cell_formula_units_Z 16
_cell_length_a 9.583378
_cell_length_b 13.761866
_cell_length_c 11.525914
_cell_angle_alpha 137.215840
_cell_angle_beta 133.824894
_cell_angle_gamma 64.848856
_cell_volume 734.098461
_symmetry_space_group_name_H-M "P -1"
_symmetry_group_IT_number 2
_symmetry_cell_setting 'triclinic'
loop_
_space_group_symop_operation_xyz
x,y,z
-x,-y,-z
loop_
_atom_site_type_symbol
_atom_site_label
_atom_site_fract_x
_atom_site_fract_y
_atom_site_fract_z
Si Si1 0.056075 0.063624 0.246112
Si Si2 0.676131 0.197386 0.100645
Si Si3 0.165454 0.401006 0.016590
Si Si4 0.980185 0.865307 0.459584
Si Si5 0.441381 0.000419 0.334105
Si Si6 0.796379 0.752821 0.850658
Si Si7 0.424149 0.900739 0.733554
Si Si8 0.578217 0.493255 0.404964
O O1 0.756418 0.928909 0.720382
O O2 0.894063 0.160302 0.203537
O O3 0.951857 0.895628 0.040822
O O4 0.117541 0.102458 0.448115
O O5 0.610036 0.158737 0.895293
O O6 0.525043 0.067246 0.962394
O O7 0.588858 0.093593 0.410465
O O8 0.647270 0.347532 0.271437
O O9 0.130588 0.278235 0.790763
O O10 0.155532 0.313376 0.056003
O O11 0.381279 0.498680 0.223339
O O12 0.000000 0.500000 0.000000
O O13 0.205355 0.852067 0.608239
O O14 0.000000 0.000000 0.500000
O O15 0.500000 0.000000 0.500000
O O16 0.761295 0.623972 0.623675
O O17 0.585069 0.805100 0.775502
O O18 0.500000 0.500000 0.500000
#
# Coordination Sequence:
#
# PCOD9021387 Si02
#       8
#     2   2   2   2   2   2   2   2
#     4  11  23  38  65  94 123 161 214 255 310 369
#     4   9  22  38  65  85 122 167 209 248 305 379
#     4  11  24  37  57  87 138 165 199 253 328 371
#     4  12  22  35  61 100 124 151 210 271 308 362
#     4  10  22  41  64  92 126 165 203 258 320 365
#     4  10  22  38  61  87 124 163 214 247 305 373
#     4   9  22  38  64  90 124 162 206 259 312 365
#     4  10  22  39  58  89 130 168 199 247 319 377
#
# _framework density 21.795441
#
# number of rings (size 3 to 8) (size 9 to 14) (size 15 to 20)
#    0.750    1.000    1.250    2.625   10.500    1.000 
#    0.000    0.625    0.000    0.750    0.000    0.000 
#    0.000    0.000    0.000    0.000    0.000    0.000 
#
# Total GULP energy -89345.964630 kJ/mol
# GULP energy per Si atom -5584.122789 kJ/mol
# Density = 2.174583 g / cm^3
# Si number density = 21.795441 Si / 1000 Ang^3
#
#
#
# Elastic Constant Matrix: (Units=GPa)
#
#
# Indices 1 2 3 4 5 6 
#
# 1 63.9335 8.2521 18.1742 4.6085 -12.6483 -18.1623
# 2 8.2521 100.7402 48.2918 1.0122 -14.0053 -16.0707
# 3 18.1742 48.2918 180.0064 23.2816 -16.3044 -10.6576
# 4 4.6085 1.0122 23.2816 40.3003 -5.5622 -2.4535
# 5 -12.6483 -14.0053 -16.3044 -5.5622 35.1364 -0.9101
# 6 -18.1623 -16.0707 -10.6576 -2.4535 -0.9101 22.8840
#
#
#
# Elastic Compliance Matrix: (Units=1/GPa)
#
#
# Indices 1 2 3 4 5 6 
#
# 1 0.023351 0.003335 -0.001208 0.000561 0.009801 0.020763
# 2 0.003335 0.013781 -0.003161 0.002610 0.005935 0.011369
# 3 -0.001208 -0.003161 0.007086 -0.003754 0.000993 -0.000241
# 4 0.000561 0.002610 -0.003754 0.027622 0.003967 0.003649
# 5 0.009801 0.005935 0.000993 0.003967 0.035813 0.014259
# 6 0.020763 0.011369 -0.000241 0.003649 0.014259 0.069007
#
#
# Mechanical properties :
#
#
# Convention : Reuss Voigt Hill
#
# Bulk Modulus (GPa) = 23.72368 54.90181 39.31274
# Shear Modulus (GPa) = 25.93662 37.66162 31.79912
#
# Velocity S-wave (km/s) = 3.45338 4.16138 3.82380
# Velocity P-wave (km/s) = 5.17779 6.95225 6.12957
#
# Compressibility (1/GPa) = 0.04215198
#
# Stress axis : x y z
#
# Youngs Moduli (GPa) = 42.82467 72.56400 141.11356
#
# Poissons Ratio (x) = -0.24203 0.17045
# Poissons Ratio (y) = -0.14284 0.44603
# Poissons Ratio (z) = 0.05173 0.22936
#
# Static dielectric constant tensor:
#      x y z
#    x 1.836510 0.028520 0.005390 
#    y 0.028520 1.849320 -0.026180 
#    z 0.005390 -0.026180 1.866760 
# 
# From -- ./inp_files/435084.got.cif
#   From: 2010.05.17/outbox.cif.g08.bks.cpg/sg2_218_cif.got.tgz:435084.got - 2010.06.03 11:33:40.
