data_PCOD9021409
_publ_section_title
;
Structure prediction by ZEFSAII (Michael W. Deem and Ramdas Pophale) SiO2 
 PCOD9021409
Probable space group: P -1
;
_chemical_formula_sum "Si O2"
_cell_formula_units_Z 16
_cell_length_a 23.737246
_cell_length_b 5.154190
_cell_length_c 11.543492
_cell_angle_alpha 93.381456
_cell_angle_beta 34.322858
_cell_angle_gamma 94.247455
_cell_volume 794.141918
_symmetry_space_group_name_H-M "P -1"
_symmetry_group_IT_number 2
_symmetry_cell_setting 'triclinic'
loop_
_space_group_symop_operation_xyz
x,y,z
-x,-y,-z
loop_
_atom_site_type_symbol
_atom_site_label
_atom_site_fract_x
_atom_site_fract_y
_atom_site_fract_z
Si Si1 0.413181 0.065574 0.448991
Si Si2 0.750705 0.861869 0.082203
Si Si3 0.126613 0.601278 0.164359
Si Si4 0.381859 0.823219 0.241527
Si Si5 0.895636 0.545739 0.531605
Si Si6 0.778259 0.035385 0.659663
Si Si7 0.379386 0.163117 0.913455
Si Si8 0.502106 0.579338 0.847800
O O1 0.324754 0.051133 0.688532
O O2 0.448929 0.355368 0.357492
O O3 0.385385 0.949256 0.366517
O O4 0.516285 0.944129 0.308992
O O5 0.682320 0.749091 0.089423
O O6 0.817206 0.625696 0.003141
O O7 0.816966 0.116459 0.935376
O O8 0.121631 0.491401 0.301956
O O9 0.012279 0.619156 0.318995
O O10 0.281893 0.917433 0.354693
O O11 0.410649 0.531250 0.223908
O O12 0.457971 0.819838 0.999733
O O13 0.861847 0.265029 0.532729
O O14 0.828233 0.763015 0.594548
O O15 0.694496 0.049617 0.903866
O O16 0.411919 0.374541 0.962210
#
# Coordination Sequence:
#
# PCOD9021409 Si02
#       8
#     2   2   2   2   2   2   2   2
#     4  11  25  40  60  92 137 184 210 251 312 382
#     4  12  26  42  67  93 137 175 213 252 321 402
#     4  11  24  45  66  97 127 165 213 272 328 388
#     4  10  23  38  62  93 129 172 222 267 305 371
#     4  11  23  42  70  97 126 156 212 281 337 367
#     4  12  22  38  68 101 125 162 210 272 330 373
#     4  11  23  38  59 100 132 172 208 260 314 387
#     4  10  22  38  61  90 135 176 218 267 304 358
#
# _framework density 20.147532999999999
#
# number of rings (size 3 to 8) (size 9 to 14) (size 15 to 20)
#    0.000    1.000    3.750    2.250   10.500    2.500 
#    0.000    0.000    0.000    4.500    0.000    0.000 
#    0.000    0.000    0.000    0.000    0.000    0.000 
#
# Total GULP energy -89138.288056 kJ/mol
# GULP energy per Si atom -5571.143003 kJ/mol
# Density = 2.010168 g / cm^3
# Si number density = 20.147533 Si / 1000 Ang^3
#
#
#
# Elastic Constant Matrix: (Units=GPa)
#
#
# Indices 1 2 3 4 5 6 
#
# 1 85.7398 22.1832 36.6347 1.0381 -17.9787 -6.1093
# 2 22.1832 78.5141 18.5688 -5.4005 -9.3561 -2.0237
# 3 36.6347 18.5688 86.5606 0.2472 -16.0115 5.4329
# 4 1.0381 -5.4005 0.2472 25.7303 -3.0732 -8.0286
# 5 -17.9787 -9.3561 -16.0115 -3.0732 21.6631 10.7323
# 6 -6.1093 -2.0237 5.4329 -8.0286 10.7323 27.7219
#
#
#
# Elastic Compliance Matrix: (Units=1/GPa)
#
#
# Indices 1 2 3 4 5 6 
#
# 1 0.016178 -0.002386 -0.004900 0.000264 0.008189 0.001258
# 2 -0.002386 0.014442 -0.001513 0.003732 0.003371 0.000601
# 3 -0.004900 -0.001513 0.016853 -0.001870 0.012329 -0.009808
# 4 0.000264 0.003732 -0.001870 0.043834 0.000041 0.013376
# 5 0.008189 0.003371 0.012329 0.000041 0.078826 -0.030870
# 6 0.001258 0.000601 -0.009808 0.013376 -0.030870 0.054141
#
#
# Mechanical properties :
#
#
# Convention : Reuss Voigt Hill
#
# Bulk Modulus (GPa) = 33.47322 45.06533 39.26928
# Shear Modulus (GPa) = 19.85473 26.58491 23.21982
#
# Velocity S-wave (km/s) = 3.14262 3.63645 3.39852
# Velocity P-wave (km/s) = 5.46061 6.32834 5.91042
#
# Compressibility (1/GPa) = 0.02987463
#
# Stress axis : x y z
#
# Youngs Moduli (GPa) = 61.81404 69.24057 59.33791
#
# Poissons Ratio (x) = 0.16518 0.29076
# Poissons Ratio (y) = 0.14746 0.08980
# Poissons Ratio (z) = 0.30289 0.10479
#
# Static dielectric constant tensor:
#      x y z
#    x 1.754610 -0.008050 -0.008030 
#    y -0.008050 1.814850 -0.011580 
#    z -0.008030 -0.011580 1.718620 
# 
# From -- ./inp_files/473440.got.cif
#   From: 2010.05.17/outbox.cif.g08.bks.cpg/sg2_237_cif.got.tgz:473440.got - 2010.06.03 11:33:40.
