data_PCOD9021499
_publ_section_title
;
Structure prediction by ZEFSAII (Michael W. Deem and Ramdas Pophale) SiO2 
 PCOD9021499
Probable space group: P -1
;
_chemical_formula_sum "Si O2"
_cell_formula_units_Z 16
_cell_length_a 10.535072
_cell_length_b 15.927599
_cell_length_c 9.457566
_cell_angle_alpha 134.253508
_cell_angle_beta 99.868467
_cell_angle_gamma 115.721341
_cell_volume 694.450956
_symmetry_space_group_name_H-M "P -1"
_symmetry_group_IT_number 2
_symmetry_cell_setting 'triclinic'
loop_
_space_group_symop_operation_xyz
x,y,z
-x,-y,-z
loop_
_atom_site_type_symbol
_atom_site_label
_atom_site_fract_x
_atom_site_fract_y
_atom_site_fract_z
Si Si1 0.140036 0.452288 0.157807
Si Si2 0.095138 0.276139 0.662978
Si Si3 0.736461 0.634383 0.695996
Si Si4 0.319345 0.844741 0.169554
Si Si5 0.198823 0.190234 0.344566
Si Si6 0.183497 0.108337 0.774625
Si Si7 0.479585 0.179282 0.460807
Si Si8 0.605534 0.351238 0.999446
O O1 0.217795 0.452829 0.320005
O O2 0.291300 0.663135 0.380040
O O3 0.157625 0.365037 0.935361
O O4 0.899115 0.304915 0.965299
O O5 0.200899 0.239440 0.562980
O O6 0.178350 0.438433 0.768628
O O7 0.862510 0.057298 0.373088
O O8 0.500000 0.500000 0.500000
O O9 0.775925 0.674993 0.586672
O O10 0.846097 0.815698 0.020438
O O11 0.500000 0.000000 0.500000
O O12 0.349089 0.966085 0.198676
O O13 0.347157 0.730333 0.995280
O O14 0.363351 0.202243 0.384903
O O15 0.000000 0.000000 0.000000
O O16 0.413113 0.280511 0.954615
O O17 0.000000 0.000000 0.500000
O O18 0.506697 0.240565 0.699700
#
# Coordination Sequence:
#
# PCOD9021499 Si02
#       8
#     2   2   2   2   2   2   2   2
#     4  11  23  40  66  97 131 174 218 272 321 396
#     4  11  23  39  63  96 131 169 217 269 332 382
#     4  12  24  40  62  98 138 172 212 267 337 401
#     4  10  22  41  63  97 131 167 223 275 325 374
#     4  12  23  38  61  96 133 169 211 269 337 397
#     4  12  23  39  66  97 136 169 215 273 333 388
#     4  10  22  38  62  92 129 171 213 266 328 388
#     4  10  24  39  64  98 129 165 216 281 319 380
#
# _framework density 23.039785999999999
#
# number of rings (size 3 to 8) (size 9 to 14) (size 15 to 20)
#    0.000    1.000    3.750    3.750    0.000    7.000 
#    0.000    0.000    0.000    7.500    0.000    0.000 
#    0.000    0.000    0.000    0.000    0.000    0.000 
#
# Total GULP energy -89129.636028 kJ/mol
# GULP energy per Si atom -5570.602252 kJ/mol
# Density = 2.298735 g / cm^3
# Si number density = 23.039786 Si / 1000 Ang^3
#
#
#
# Elastic Constant Matrix: (Units=GPa)
#
#
# Indices 1 2 3 4 5 6 
#
# 1 63.1653 34.8441 16.9942 -1.9185 16.2579 6.0233
# 2 34.8441 135.7498 21.0463 13.9101 -1.6522 7.2544
# 3 16.9942 21.0463 64.1214 12.6911 5.6792 5.9509
# 4 -1.9185 13.9101 12.6911 41.5844 0.8877 -0.3831
# 5 16.2579 -1.6522 5.6792 0.8877 26.3661 11.4366
# 6 6.0233 7.2544 5.9509 -0.3831 11.4366 25.2152
#
#
#
# Elastic Compliance Matrix: (Units=1/GPa)
#
#
# Indices 1 2 3 4 5 6 
#
# 1 0.024745 -0.006669 -0.004319 0.005098 -0.017008 0.004818
# 2 -0.006669 0.009901 -0.001011 -0.003497 0.006887 -0.004194
# 3 -0.004319 -0.001011 0.018445 -0.005524 0.000204 -0.003207
# 4 0.005098 -0.003497 -0.005524 0.027271 -0.004661 0.003620
# 5 -0.017008 0.006887 0.000204 -0.004661 0.059891 -0.025202
# 6 0.004818 -0.004194 -0.003207 0.003620 -0.025202 0.051957
#
#
# Mechanical properties :
#
#
# Convention : Reuss Voigt Hill
#
# Bulk Modulus (GPa) = 34.37238 45.42285 39.89762
# Shear Modulus (GPa) = 22.13312 31.30991 26.72152
#
# Velocity S-wave (km/s) = 3.10279 3.69039 3.40928
# Velocity P-wave (km/s) = 5.27139 6.15763 5.73166
#
# Compressibility (1/GPa) = 0.02909313
#
# Stress axis : x y z
#
# Youngs Moduli (GPa) = 40.41193 100.99752 54.21547
#
# Poissons Ratio (x) = 0.67353 0.23417
# Poissons Ratio (y) = 0.26950 0.05482
# Poissons Ratio (z) = 0.17455 0.10212
#
# Static dielectric constant tensor:
#      x y z
#    x 1.935200 -0.061170 -0.027980 
#    y -0.061170 1.955390 0.055060 
#    z -0.027980 0.055060 1.913540 
# 
# From -- ./inp_files/274108.got.cif
#   From: 2010.05.17/outbox.cif.g08.bks.cpg/sg2_138_cif.got.tgz:274108.got - 2010.06.03 11:33:40.
