data_PCOD9021042
_publ_section_title
;
Structure prediction by ZEFSAII (Michael W. Deem and Ramdas Pophale) SiO2 
 PCOD9021042
Probable space group: P -1
;
_chemical_formula_sum "Si O2"
_cell_formula_units_Z 16
_cell_length_a 11.934048
_cell_length_b 18.315464
_cell_length_c 9.169919
_cell_angle_alpha 149.393881
_cell_angle_beta 49.375785
_cell_angle_gamma 130.941338
_cell_volume 750.819677
_symmetry_space_group_name_H-M "P -1"
_symmetry_group_IT_number 2
_symmetry_cell_setting 'triclinic'
loop_
_space_group_symop_operation_xyz
x,y,z
-x,-y,-z
loop_
_atom_site_type_symbol
_atom_site_label
_atom_site_fract_x
_atom_site_fract_y
_atom_site_fract_z
Si Si1 0.890168 0.586106 0.827198
Si Si2 0.310098 0.521194 0.414395
Si Si3 0.452291 0.785470 0.549210
Si Si4 0.915806 0.114218 0.692035
Si Si5 0.154479 0.465337 0.750324
Si Si6 0.622391 0.434458 0.016062
Si Si7 0.060586 0.113478 0.277074
Si Si8 0.691323 0.961330 0.839500
O O1 0.779677 0.616467 0.844909
O O2 0.769475 0.510044 0.921983
O O3 0.000000 0.500000 0.500000
O O4 0.993199 0.726959 0.058670
O O5 0.331001 0.663542 0.536560
O O6 0.204131 0.519910 0.640084
O O7 0.479796 0.507439 0.279370
O O8 0.451431 0.713145 0.267111
O O9 0.599699 0.816413 0.582849
O O10 0.411858 0.942228 0.833214
O O11 0.924715 0.105758 0.496374
O O12 0.758798 0.066145 0.825615
O O13 0.000000 0.000000 0.500000
O O14 0.126392 0.285642 0.471650
O O15 0.295899 0.555634 0.881648
O O16 0.000000 0.500000 0.000000
O O17 0.189932 0.068611 0.192710
O O18 0.000000 0.000000 0.000000
#
# Coordination Sequence:
#
# PCOD9021042 Si02
#       8
#     2   2   2   2   2   2   2   2
#     4  11  21  39  66  99 128 171 228 285 329 389
#     4  11  25  39  70  96 138 177 225 282 348 402
#     4  10  22  41  69  99 131 174 229 280 329 416
#     4  10  22  37  65  90 130 168 221 276 324 392
#     4  12  27  44  69  99 139 180 231 284 345 410
#     4  11  23  41  67  96 139 177 225 283 340 406
#     4  11  26  43  65  94 139 178 218 279 343 408
#     4  10  23  42  67  96 133 177 224 277 344 400
#
# _framework density 21.310044000000001
#
# number of rings (size 3 to 8) (size 9 to 14) (size 15 to 20)
#    0.000    1.250    1.250    4.875   12.250    0.000 
#    0.000    0.000    0.000    3.750    0.000    0.000 
#    0.000    0.000    0.000    0.000    0.000    0.000 
#
# Total GULP energy -89150.948489 kJ/mol
# GULP energy per Si atom -5571.934281 kJ/mol
# Density = 2.126154 g / cm^3
# Si number density = 21.310044 Si / 1000 Ang^3
#
#
#
# Elastic Constant Matrix: (Units=GPa)
#
#
# Indices 1 2 3 4 5 6 
#
# 1 119.6110 20.3387 46.4708 7.3069 28.1881 3.0043
# 2 20.3387 52.8425 16.1664 1.3392 23.6083 5.1385
# 3 46.4708 16.1664 109.9895 8.0654 29.9097 2.7444
# 4 7.3069 1.3392 8.0654 22.4101 0.7183 3.2491
# 5 28.1881 23.6083 29.9097 0.7183 51.0451 -7.9685
# 6 3.0043 5.1385 2.7444 3.2491 -7.9685 32.1066
#
#
#
# Elastic Compliance Matrix: (Units=1/GPa)
#
#
# Indices 1 2 3 4 5 6 
#
# 1 0.010856 -0.001409 -0.003218 -0.002006 -0.003618 -0.001210
# 2 -0.001409 0.025563 0.000361 0.000225 -0.012365 -0.007082
# 3 -0.003218 0.000361 0.012246 -0.002909 -0.005829 -0.001956
# 4 -0.002006 0.000225 -0.002909 0.046842 0.001427 -0.003986
# 5 -0.003618 -0.012365 -0.005829 0.001427 0.032374 0.010706
# 6 -0.001210 -0.007082 -0.001956 -0.003986 0.010706 0.035621
#
#
# Mechanical properties :
#
#
# Convention : Reuss Voigt Hill
#
# Bulk Modulus (GPa) = 24.91782 49.82163 37.36972
# Shear Modulus (GPa) = 26.96682 34.41017 30.68850
#
# Velocity S-wave (km/s) = 3.56118 4.02274 3.79898
# Velocity P-wave (km/s) = 5.35049 6.70871 6.06772
#
# Compressibility (1/GPa) = 0.04013192
#
# Stress axis : x y z
#
# Youngs Moduli (GPa) = 92.11491 39.11854 81.66033
#
# Poissons Ratio (x) = 0.05511 0.26282
# Poissons Ratio (y) = 0.12977 -0.02944
# Poissons Ratio (z) = 0.29647 -0.01410
#
# Static dielectric constant tensor:
#      x y z
#    x 1.810650 0.046600 -0.028260 
#    y 0.046600 1.810930 0.006940 
#    z -0.028260 0.006940 1.792320 
# 
# From -- ./inp_files/238491.got.cif
#   From: 2010.05.17/outbox.cif.g08.bks.cpg/sg2_120_cif.got.tgz:238491.got - 2010.06.03 11:33:40.
