data_PCOD9021805
_publ_section_title
;
Structure prediction by ZEFSAII (Michael W. Deem and Ramdas Pophale) SiO2 
 PCOD9021805
Probable space group: P -1
;
_chemical_formula_sum "Si O2"
_cell_formula_units_Z 15
_cell_length_a 5.630213
_cell_length_b 11.283934
_cell_length_c 15.799269
_cell_angle_alpha 140.305057
_cell_angle_beta 96.129649
_cell_angle_gamma 99.849072
_cell_volume 584.561498
_symmetry_space_group_name_H-M "P -1"
_symmetry_group_IT_number 2
_symmetry_cell_setting 'triclinic'
loop_
_space_group_symop_operation_xyz
x,y,z
-x,-y,-z
loop_
_atom_site_type_symbol
_atom_site_label
_atom_site_fract_x
_atom_site_fract_y
_atom_site_fract_z
Si Si1 0.293532 0.223671 0.764379
Si Si2 0.075402 0.537652 0.390249
Si Si3 0.500000 0.500000 0.500000
Si Si4 0.095459 0.220457 0.023492
Si Si5 0.226720 0.609822 0.001769
Si Si6 0.768421 0.121129 0.124059
Si Si7 0.557095 0.337880 0.676231
Si Si8 0.843086 0.823313 0.579497
O O1 0.501385 0.282993 0.880886
O O2 0.443148 0.186350 0.667710
O O3 0.231344 0.417877 0.846147
O O4 0.025997 0.050625 0.689835
O O5 0.275182 0.460310 0.398911
O O6 0.194109 0.639190 0.360397
O O7 0.798936 0.341638 0.277396
O O8 0.033443 0.707316 0.536211
O O9 0.641711 0.741856 0.603425
O O10 0.334580 0.437433 0.155233
O O11 0.991603 0.186520 0.096704
O O12 0.867557 0.242850 0.973005
O O13 0.177545 0.038344 0.902029
O O14 0.000000 0.500000 0.000000
O O15 0.500000 0.000000 0.000000
O O16 0.323243 0.275364 0.565811
#
# Coordination Sequence:
#
# PCOD9021805 Si02
#       8
#     2   2   1   2   2   2   2   2
#     4  11  26  43  67 103 136 185 228 275 351 405
#     4  10  23  41  68  96 130 180 221 282 342 404
#     4  10  24  46  60  92 138 168 234 280 324 404
#     4  10  22  40  63  94 134 174 222 276 337 391
#     4  11  25  44  66  96 141 183 226 285 334 408
#     4  10  22  38  65  97 127 175 222 278 334 394
#     4  10  22  42  65  97 138 167 226 281 332 415
#     4  11  24  43  70  97 134 183 222 281 343 404
#
# _framework density 25.660261999999999
#
# number of rings (size 3 to 8) (size 9 to 14) (size 15 to 20)
#    0.000    1.600    1.333    1.600    5.600    6.933 
#    0.000    0.000    0.000    0.000    0.000    0.000 
#    0.000    0.000    0.000    0.000    0.000    0.000 
#
# Total GULP energy -83596.925323 kJ/mol
# GULP energy per Si atom -5573.128355 kJ/mol
# Density = 2.560186 g / cm^3
# Si number density = 25.660262 Si / 1000 Ang^3
#
#
#
# Elastic Constant Matrix: (Units=GPa)
#
#
# Indices 1 2 3 4 5 6 
#
# 1 73.6425 25.6905 33.5581 13.6528 20.5287 -1.7171
# 2 25.6905 104.0663 26.0909 4.7419 15.4414 -0.0833
# 3 33.5581 26.0909 61.2281 14.7870 27.7174 -1.9174
# 4 13.6528 4.7419 14.7870 32.4769 3.9300 11.9984
# 5 20.5287 15.4414 27.7174 3.9300 43.4453 4.2547
# 6 -1.7171 -0.0833 -1.9174 11.9984 4.2547 60.4079
#
#
#
# Elastic Compliance Matrix: (Units=1/GPa)
#
#
# Indices 1 2 3 4 5 6 
#
# 1 0.019457 -0.002331 -0.006723 -0.004902 -0.003787 0.001577
# 2 -0.002331 0.011095 -0.003392 0.001116 -0.000747 -0.000328
# 3 -0.006723 -0.003392 0.030707 -0.010312 -0.014654 0.003859
# 4 -0.004902 0.001116 -0.010312 0.039941 0.005748 -0.008803
# 5 -0.003787 -0.000747 -0.014654 0.005748 0.034306 -0.004132
# 6 0.001577 -0.000328 0.003859 -0.008803 -0.004132 0.018761
#
#
# Mechanical properties :
#
#
# Convention : Reuss Voigt Hill
#
# Bulk Modulus (GPa) = 27.49715 45.51287 36.50501
# Shear Modulus (GPa) = 26.13946 37.50586 31.82266
#
# Velocity S-wave (km/s) = 3.19513 3.82728 3.52540
# Velocity P-wave (km/s) = 4.93467 6.10786 5.55234
#
# Compressibility (1/GPa) = 0.03636740
#
# Stress axis : x y z
#
# Youngs Moduli (GPa) = 51.39438 90.13214 32.56540
#
# Poissons Ratio (x) = 0.21012 0.21894
# Poissons Ratio (y) = 0.11981 0.11046
# Poissons Ratio (z) = 0.34553 0.30571
#
# Static dielectric constant tensor:
#      x y z
#    x 2.378500 0.024920 -0.194170 
#    y 0.024920 2.064180 -0.009460 
#    z -0.194170 -0.009460 2.202950 
# 
# From -- ./inp_files/510597.got.cif
#   From: 2010.05.17/outbox.cif.g08.bks.cpg/sg2_256_cif.got.tgz:510597.got - 2010.06.03 11:33:40.
