data_PCOD9021048
_publ_section_title
;
Structure prediction by ZEFSAII (Michael W. Deem and Ramdas Pophale) SiO2 
 PCOD9021048
Probable space group: P -1
;
_chemical_formula_sum "Si O2"
_cell_formula_units_Z 14
_cell_length_a 13.561586
_cell_length_b 24.083681
_cell_length_c 8.531876
_cell_angle_alpha 37.875340
_cell_angle_beta 130.305675
_cell_angle_gamma 160.763518
_cell_volume 492.456259
_symmetry_space_group_name_H-M "P -1"
_symmetry_group_IT_number 2
_symmetry_cell_setting 'triclinic'
loop_
_space_group_symop_operation_xyz
x,y,z
-x,-y,-z
loop_
_atom_site_type_symbol
_atom_site_label
_atom_site_fract_x
_atom_site_fract_y
_atom_site_fract_z
Si Si1 0.516805 0.913918 0.918240
Si Si2 0.009272 0.903641 0.671764
Si Si3 0.420020 0.772746 0.696360
Si Si4 0.135616 0.674321 0.345792
Si Si5 0.501224 0.526180 0.705466
Si Si6 0.690369 0.410879 0.696738
Si Si7 0.952227 0.251681 0.348905
O O1 0.166983 0.730568 0.888794
O O2 0.830068 0.165885 0.593937
O O3 0.457363 0.906515 0.052994
O O4 0.519949 0.810744 0.107538
O O5 0.750973 0.710035 0.698836
O O6 0.871767 0.754684 0.005930
O O7 0.000000 0.000000 0.500000
O O8 0.383288 0.130151 0.474930
O O9 0.127070 0.644266 0.594358
O O10 0.672407 0.004095 0.528504
O O11 0.304584 0.625506 0.031519
O O12 0.000000 0.500000 0.500000
O O13 0.835603 0.547812 0.357430
O O14 0.505360 0.620655 0.399850
O O15 0.692461 0.564218 0.735081
#
# Coordination Sequence:
#
# PCOD9021048 Si02
#       7
#     2   2   2   2   2   2   2
#     4   9  20  37  65 102 127 184 225 273 346 404
#     4  10  24  41  69 100 141 183 228 282 342 413
#     4  10  22  41  62  98 139 181 229 286 344 407
#     4  10  22  37  65  93 129 177 231 278 339 405
#     4  10  23  44  72 101 140 182 228 280 352 409
#     4  10  22  41  67 101 136 182 225 284 348 409
#     4   9  20  41  66  97 142 179 224 280 346 415
#
# _framework density 28.428920000000002
#
# number of rings (size 3 to 8) (size 9 to 14) (size 15 to 20)
#    0.000    2.286    0.000    0.429   10.000    6.857 
#    0.000    2.143    0.000    0.000    0.000    0.000 
#    0.000    0.000    0.000    0.000    0.000    0.000 
#
# Total GULP energy -78166.522625 kJ/mol
# GULP energy per Si atom -5583.323045 kJ/mol
# Density = 2.836421 g / cm^3
# Si number density = 28.428920 Si / 1000 Ang^3
#
#
#
# Elastic Constant Matrix: (Units=GPa)
#
#
# Indices 1 2 3 4 5 6 
#
# 1 161.8126 24.9737 79.7026 3.9885 -11.8837 10.0392
# 2 24.9737 81.0944 35.4139 2.9338 -14.4588 1.8132
# 3 79.7026 35.4139 205.8574 11.0290 -9.1368 22.0778
# 4 3.9885 2.9338 11.0290 46.0201 1.3809 -5.8449
# 5 -11.8837 -14.4588 -9.1368 1.3809 68.8606 3.3356
# 6 10.0392 1.8132 22.0778 -5.8449 3.3356 47.0851
#
#
#
# Elastic Compliance Matrix: (Units=1/GPa)
#
#
# Indices 1 2 3 4 5 6 
#
# 1 0.007780 -0.001045 -0.002756 -0.000019 0.000777 -0.000384
# 2 -0.001045 0.013931 -0.001900 -0.000372 0.002483 0.000355
# 3 -0.002756 -0.001900 0.006628 -0.001570 0.000165 -0.002653
# 4 -0.000019 -0.000372 -0.001570 0.022620 -0.000919 0.003628
# 5 0.000777 0.002483 0.000165 -0.000919 0.015292 -0.001536
# 6 -0.000384 0.000355 -0.002653 0.003628 -0.001536 0.023110
#
#
# Mechanical properties :
#
#
# Convention : Reuss Voigt Hill
#
# Bulk Modulus (GPa) = 59.04085 80.99385 70.01735
# Shear Modulus (GPa) = 46.98941 52.97146 49.98043
#
# Velocity S-wave (km/s) = 4.06997 4.32127 4.19750
# Velocity P-wave (km/s) = 6.54974 7.31093 6.94078
#
# Compressibility (1/GPa) = 0.01693743
#
# Stress axis : x y z
#
# Youngs Moduli (GPa) = 128.53557 71.78236 150.88391
#
# Poissons Ratio (x) = 0.07499 0.41581
# Poissons Ratio (y) = 0.13428 0.28669
# Poissons Ratio (z) = 0.35422 0.13639
#
# Static dielectric constant tensor:
#      x y z
#    x 2.192760 -0.002040 -0.048980 
#    y -0.002040 2.392300 0.065690 
#    z -0.048980 0.065690 2.349710 
# 
# From -- ./inp_files/320383.got.cif
#   From: 2010.05.17/outbox.cif.g08.bks.cpg/sg2_161_cif.got.tgz:320383.got - 2010.06.03 11:33:40.
