data_PCOD9021957
_publ_section_title
;
Structure prediction by ZEFSAII (Michael W. Deem and Ramdas Pophale) SiO2 
 PCOD9021957
Probable space group: P -1
;
_chemical_formula_sum "Si O2"
_cell_formula_units_Z 16
_cell_length_a 8.411122
_cell_length_b 10.286336
_cell_length_c 16.516790
_cell_angle_alpha 145.953051
_cell_angle_beta 110.577414
_cell_angle_gamma 78.702461
_cell_volume 736.536361
_symmetry_space_group_name_H-M "P -1"
_symmetry_group_IT_number 2
_symmetry_cell_setting 'triclinic'
loop_
_space_group_symop_operation_xyz
x,y,z
-x,-y,-z
loop_
_atom_site_type_symbol
_atom_site_label
_atom_site_fract_x
_atom_site_fract_y
_atom_site_fract_z
Si Si1 0.433794 0.724357 0.839664
Si Si2 0.217783 0.769635 0.442126
Si Si3 0.293175 0.249736 0.796630
Si Si4 0.072110 0.159168 0.342654
Si Si5 0.369706 0.462550 0.080997
Si Si6 0.952495 0.430194 0.320337
Si Si7 0.939885 0.298501 0.792926
Si Si8 0.452395 0.406366 0.532071
O O1 0.560995 0.607512 0.857470
O O2 0.236065 0.639646 0.788039
O O3 0.431128 0.626913 0.697984
O O4 0.500000 0.000000 0.000000
O O5 0.165786 0.808316 0.360890
O O6 0.407934 0.718960 0.464072
O O7 0.093395 0.536396 0.334250
O O8 0.211166 0.001980 0.613788
O O9 0.469630 0.351900 0.832898
O O10 0.135191 0.398829 0.847313
O O11 0.345761 0.252223 0.901878
O O12 0.036225 0.352347 0.501897
O O13 0.276163 0.223269 0.399606
O O14 0.986202 0.212992 0.270327
O O15 0.032815 0.904044 0.243618
O O16 0.188528 0.548812 0.109297
O O17 0.500000 0.500000 0.500000
#
# Coordination Sequence:
#
# PCOD9021957 Si02
#       8
#     2   2   2   2   2   2   2   2
#     4  11  26  45  70  92 138 185 223 279 349 414
#     4  12  23  42  73 100 135 174 235 287 342 402
#     4  11  26  43  70  98 141 186 219 285 353 407
#     4  10  22  38  67  99 132 173 226 278 342 401
#     4  11  26  47  64 103 143 181 232 279 345 424
#     4  10  22  42  65  99 132 175 227 278 335 413
#     4  12  24  43  72 104 134 181 233 293 340 404
#     4  11  23  41  67 100 135 170 226 289 338 402
#
# _framework density 21.723300999999999
#
# number of rings (size 3 to 8) (size 9 to 14) (size 15 to 20)
#    0.000    1.000    3.750    2.250    7.000    1.000 
#    0.000    0.625    0.000    0.000    0.000    0.000 
#    0.000    0.000    0.000    0.000    0.000    0.000 
#
# Total GULP energy -89357.784603 kJ/mol
# GULP energy per Si atom -5584.861538 kJ/mol
# Density = 2.167386 g / cm^3
# Si number density = 21.723301 Si / 1000 Ang^3
#
#
#
# Elastic Constant Matrix: (Units=GPa)
#
#
# Indices 1 2 3 4 5 6 
#
# 1 107.0358 12.0073 3.8104 5.9251 -1.2868 -4.7038
# 2 12.0073 89.6719 16.2374 1.1387 -2.2175 -1.4531
# 3 3.8104 16.2374 78.7374 -10.3758 -5.1601 7.9042
# 4 5.9251 1.1387 -10.3758 22.8228 -1.2028 -0.1500
# 5 -1.2868 -2.2175 -5.1601 -1.2028 17.4626 -2.6519
# 6 -4.7038 -1.4531 7.9042 -0.1500 -2.6519 37.8731
#
#
#
# Elastic Compliance Matrix: (Units=1/GPa)
#
#
# Indices 1 2 3 4 5 6 
#
# 1 0.009708 -0.001105 -0.000715 -0.002762 0.000375 0.001328
# 2 -0.001105 0.011825 -0.002623 -0.001454 0.000683 0.000906
# 3 -0.000715 -0.002623 0.014791 0.007234 0.004033 -0.002965
# 4 -0.002762 -0.001454 0.007234 0.048141 0.004856 -0.001378
# 5 0.000375 0.000683 0.004033 0.004856 0.059424 0.003411
# 6 0.001328 0.000906 -0.002965 -0.001378 0.003411 0.027456
#
#
# Mechanical properties :
#
#
# Convention : Reuss Voigt Hill
#
# Bulk Modulus (GPa) = 36.44389 37.72838 37.08613
# Shear Modulus (GPa) = 26.40270 31.85771 29.13020
#
# Velocity S-wave (km/s) = 3.49005 3.83367 3.66589
# Velocity P-wave (km/s) = 5.74921 6.08288 5.91840
#
# Compressibility (1/GPa) = 0.02743944
#
# Stress axis : x y z
#
# Youngs Moduli (GPa) = 103.01042 84.56931 67.60808
#
# Poissons Ratio (x) = 0.09342 0.04831
# Poissons Ratio (y) = 0.11379 0.17732
# Poissons Ratio (z) = 0.07361 0.22181
#
# Static dielectric constant tensor:
#      x y z
#    x 1.857280 0.017950 -0.015100 
#    y 0.017950 1.815580 0.007270 
#    z -0.015100 0.007270 1.779500 
# 
# From -- ./inp_files/495926.got.cif
#   From: 2010.05.17/outbox.cif.g08.bks.cpg/sg2_248_cif.got.tgz:495926.got - 2010.06.03 11:33:40.
