data_PCOD9021511
_publ_section_title
;
Structure prediction by ZEFSAII (Michael W. Deem and Ramdas Pophale) SiO2 
 PCOD9021511
Probable space group: P -1
;
_chemical_formula_sum "Si O2"
_cell_formula_units_Z 14
_cell_length_a 8.936506
_cell_length_b 14.319462
_cell_length_c 13.314057
_cell_angle_alpha 29.945065
_cell_angle_beta 124.184581
_cell_angle_gamma 130.192734
_cell_volume 649.630288
_symmetry_space_group_name_H-M "P -1"
_symmetry_group_IT_number 2
_symmetry_cell_setting 'triclinic'
loop_
_space_group_symop_operation_xyz
x,y,z
-x,-y,-z
loop_
_atom_site_type_symbol
_atom_site_label
_atom_site_fract_x
_atom_site_fract_y
_atom_site_fract_z
Si Si1 0.286067 0.753977 0.906643
Si Si2 0.378966 0.052061 0.995050
Si Si3 0.176759 0.004908 0.488417
Si Si4 0.784786 0.323239 0.572480
Si Si5 0.098198 0.658831 0.614869
Si Si6 0.156865 0.389794 0.045207
Si Si7 0.304112 0.414569 0.568372
O O1 0.455918 0.799824 0.007318
O O2 0.260875 0.567637 0.998210
O O3 0.321289 0.953201 0.666369
O O4 0.075509 0.698088 0.933137
O O5 0.254582 0.856631 0.195445
O O6 0.255050 0.178938 0.791261
O O7 0.500000 0.000000 0.000000
O O8 0.114557 0.823519 0.553136
O O9 0.236654 0.213586 0.256242
O O10 0.000000 0.000000 0.500000
O O11 0.776593 0.254473 0.518886
O O12 0.656566 0.447039 0.446247
O O13 0.000000 0.500000 0.500000
O O14 0.166744 0.491388 0.846225
O O15 0.872357 0.567301 0.579548
O O16 0.500000 0.500000 0.500000
#
# Coordination Sequence:
#
# PCOD9021511 Si02
#       7
#     2   2   2   2   2   2   2
#     4   9  20  36  56  94 125 156 220 264 309 377
#     4  12  25  40  66  96 130 172 216 273 321 383
#     4   9  19  34  62  92 120 168 212 261 314 376
#     4  10  25  44  60  94 137 172 216 266 324 390
#     4  10  22  38  62  93 129 164 215 265 318 386
#     4   9  18  36  62  88 125 168 205 266 317 374
#     4  11  23  39  64  95 127 172 215 263 324 382
#
# _framework density 21.550718
#
# number of rings (size 3 to 8) (size 9 to 14) (size 15 to 20)
#    0.000    2.000    1.429    1.714    6.000    4.571 
#    0.000    2.857    0.000    5.143    0.000    0.000 
#    0.000    0.000    0.000    0.000    0.000    0.000 
#
# Total GULP energy -78150.344016 kJ/mol
# GULP energy per Si atom -5582.167430 kJ/mol
# Density = 2.150167 g / cm^3
# Si number density = 21.550718 Si / 1000 Ang^3
#
#
#
# Elastic Constant Matrix: (Units=GPa)
#
#
# Indices 1 2 3 4 5 6 
#
# 1 72.7641 15.3682 22.2002 0.8403 -21.6411 -24.1371
# 2 15.3682 49.5942 12.0362 7.8591 -8.1113 -2.2572
# 3 22.2002 12.0362 153.8751 -10.7122 -9.2282 -13.0786
# 4 0.8403 7.8591 -10.7122 30.7410 -3.7586 -2.9985
# 5 -21.6411 -8.1113 -9.2282 -3.7586 37.2516 -0.1528
# 6 -24.1371 -2.2572 -13.0786 -2.9985 -0.1528 30.4643
#
#
#
# Elastic Compliance Matrix: (Units=1/GPa)
#
#
# Indices 1 2 3 4 5 6 
#
# 1 0.026048 -0.005357 -0.000434 0.004268 0.014374 0.020548
# 2 -0.005357 0.023280 -0.001803 -0.006719 0.000816 -0.003951
# 3 -0.000434 -0.001803 0.007293 0.003494 0.001527 0.003005
# 4 0.004268 -0.006719 0.003494 0.036820 0.005630 0.008036
# 5 0.014374 0.000816 0.001527 0.005630 0.036372 0.012841
# 6 0.020548 -0.003951 0.003005 0.008036 0.012841 0.050958
#
#
# Mechanical properties :
#
#
# Convention : Reuss Voigt Hill
#
# Bulk Modulus (GPa) = 24.13455 41.71586 32.92520
# Shear Modulus (GPa) = 23.83584 34.79997 29.31790
#
# Velocity S-wave (km/s) = 3.32932 4.02281 3.69238
# Velocity P-wave (km/s) = 5.09926 6.40128 5.78700
#
# Compressibility (1/GPa) = 0.04143437
#
# Stress axis : x y z
#
# Youngs Moduli (GPa) = 38.39011 42.95624 137.12614
#
# Poissons Ratio (x) = 0.23011 0.05945
# Poissons Ratio (y) = 0.20565 0.24719
# Poissons Ratio (z) = 0.01664 0.07743
#
# Static dielectric constant tensor:
#      x y z
#    x 1.751890 -0.018990 -0.010330 
#    y -0.018990 1.787470 -0.006880 
#    z -0.010330 -0.006880 1.826830 
# 
# From -- ./inp_files/185513.got.cif
#   From: 2010.05.17/outbox.cif.g08.bks.cpg/sg2_93_cif.got.tgz:185513.got - 2010.06.03 11:33:40.
