data_PCOD9021749
_publ_section_title
;
Structure prediction by ZEFSAII (Michael W. Deem and Ramdas Pophale) SiO2 
 PCOD9021749
Probable space group: P -1
;
_chemical_formula_sum "Si O2"
_cell_formula_units_Z 14
_cell_length_a 9.851567
_cell_length_b 15.783536
_cell_length_c 9.717348
_cell_angle_alpha 46.399341
_cell_angle_beta 115.120261
_cell_angle_gamma 147.010020
_cell_volume 548.514257
_symmetry_space_group_name_H-M "P -1"
_symmetry_group_IT_number 2
_symmetry_cell_setting 'triclinic'
loop_
_space_group_symop_operation_xyz
x,y,z
-x,-y,-z
loop_
_atom_site_type_symbol
_atom_site_label
_atom_site_fract_x
_atom_site_fract_y
_atom_site_fract_z
Si Si1 0.053635 0.777114 0.837703
Si Si2 0.511639 0.620013 0.966297
Si Si3 0.108504 0.464405 0.492461
Si Si4 0.400787 0.985386 0.299852
Si Si5 0.927671 0.076471 0.584581
Si Si6 0.607062 0.938366 0.084468
Si Si7 0.810995 0.757212 0.205868
O O1 0.981385 0.821007 0.637958
O O2 0.307438 0.871228 0.777290
O O3 0.154501 0.907322 0.873765
O O4 0.790457 0.525047 0.024092
O O5 0.774590 0.856238 0.759732
O O6 0.500000 0.500000 0.000000
O O7 0.569903 0.638019 0.133017
O O8 0.379604 0.693862 0.286711
O O9 0.172458 0.374767 0.677315
O O10 0.000000 0.500000 0.500000
O O11 0.836161 0.264793 0.511538
O O12 0.331805 0.016157 0.367287
O O13 0.326084 0.016674 0.098150
O O14 0.160023 0.234638 0.624100
O O15 0.500000 0.000000 0.000000
O O16 0.000000 0.000000 0.000000
#
# Coordination Sequence:
#
# PCOD9021749 Si02
#       7
#     2   2   2   2   2   2   2
#     4  11  24  40  67 106 139 179 241 291 356 421
#     4  11  27  44  69  97 139 191 236 295 348 421
#     4  11  20  39  75 102 134 187 239 288 357 414
#     4  10  23  42  69 105 148 180 228 307 358 428
#     4  10  24  45  69  97 141 183 233 294 365 416
#     4  10  22  38  65 110 142 179 235 293 355 423
#     4   9  23  47  66  97 140 190 230 284 358 425
#
# _framework density 25.523492999999998
#
# number of rings (size 3 to 8) (size 9 to 14) (size 15 to 20)
#    0.000    1.714    2.857    0.429    6.000    6.286 
#    0.000    0.000    0.000    0.000    0.000    0.000 
#    0.000    0.000    0.000    0.000    0.000    0.000 
#
# Total GULP energy -77970.497892 kJ/mol
# GULP energy per Si atom -5569.321278 kJ/mol
# Density = 2.546540 g / cm^3
# Si number density = 25.523493 Si / 1000 Ang^3
#
#
#
# Elastic Constant Matrix: (Units=GPa)
#
#
# Indices 1 2 3 4 5 6 
#
# 1 86.9870 29.4946 30.9281 -18.8286 21.1644 -4.0455
# 2 29.4946 166.3786 55.4172 -8.1672 -5.6586 -2.2085
# 3 30.9281 55.4172 129.3689 -2.0650 0.1056 -4.8635
# 4 -18.8286 -8.1672 -2.0650 48.5115 -12.0136 -11.6805
# 5 21.1644 -5.6586 0.1056 -12.0136 39.9504 -3.3726
# 6 -4.0455 -2.2085 -4.8635 -11.6805 -3.3726 37.0211
#
#
#
# Elastic Compliance Matrix: (Units=1/GPa)
#
#
# Indices 1 2 3 4 5 6 
#
# 1 0.015959 -0.001876 -0.002859 0.004456 -0.007204 0.002006
# 2 -0.001876 0.007378 -0.002679 0.001107 0.002417 0.000453
# 3 -0.002859 -0.002679 0.009571 -0.000772 0.000931 0.000626
# 4 0.004456 0.001107 -0.000772 0.026365 0.006517 0.009364
# 5 -0.007204 0.002417 0.000931 0.006517 0.031519 0.004407
# 6 0.002006 0.000453 0.000626 0.009364 0.004407 0.030696
#
#
# Mechanical properties :
#
#
# Convention : Reuss Voigt Hill
#
# Bulk Modulus (GPa) = 55.31227 68.26826 61.79026
# Shear Modulus (GPa) = 35.12598 42.88959 39.00779
#
# Velocity S-wave (km/s) = 3.71377 4.10371 3.91360
# Velocity P-wave (km/s) = 6.33306 7.01849 6.68457
#
# Compressibility (1/GPa) = 0.01807917
#
# Stress axis : x y z
#
# Youngs Moduli (GPa) = 62.65976 135.53808 104.47710
#
# Poissons Ratio (x) = 0.25434 0.29871
# Poissons Ratio (y) = 0.11758 0.27991
# Poissons Ratio (z) = 0.17915 0.36313
#
# Static dielectric constant tensor:
#      x y z
#    x 5.081270 0.922860 1.139080 
#    y 0.922860 2.290440 0.303780 
#    z 1.139080 0.303780 2.664160 
# 
# From -- ./inp_files/436547.got.cif
#   From: 2010.05.17/outbox.cif.g08.bks.cpg/sg2_219_cif.got.tgz:436547.got - 2010.06.03 11:33:40.
