data_PCOD9021890
_publ_section_title
;
Structure prediction by ZEFSAII (Michael W. Deem and Ramdas Pophale) SiO2 
 PCOD9021890
Probable space group: P -1
;
_chemical_formula_sum "Si O2"
_cell_formula_units_Z 16
_cell_length_a 12.015413
_cell_length_b 10.918803
_cell_length_c 7.423086
_cell_angle_alpha 96.999596
_cell_angle_beta 136.364314
_cell_angle_gamma 79.306847
_cell_volume 660.253827
_symmetry_space_group_name_H-M "P -1"
_symmetry_group_IT_number 2
_symmetry_cell_setting 'triclinic'
loop_
_space_group_symop_operation_xyz
x,y,z
-x,-y,-z
loop_
_atom_site_type_symbol
_atom_site_label
_atom_site_fract_x
_atom_site_fract_y
_atom_site_fract_z
Si Si1 0.370675 0.373957 0.839815
Si Si2 0.097523 0.172697 0.726148
Si Si3 0.161633 0.607003 0.528598
Si Si4 0.373086 0.475142 0.496993
Si Si5 0.352221 0.920349 0.333338
Si Si6 0.837955 0.008119 0.538031
Si Si7 0.387152 0.269473 0.230237
Si Si8 0.634983 0.178373 0.057343
O O1 0.200368 0.468595 0.635978
O O2 0.452711 0.441097 0.780191
O O3 0.442352 0.231006 0.837918
O O4 0.399244 0.352136 0.080868
O O5 0.015391 0.316044 0.659172
O O6 0.981071 0.091387 0.681442
O O7 0.110610 0.121297 0.528702
O O8 0.271948 0.169568 0.020704
O O9 0.227196 0.581703 0.396471
O O10 0.273524 0.703119 0.764315
O O11 0.500000 0.500000 0.500000
O O12 0.309631 0.353262 0.319803
O O13 0.215037 0.988591 0.317020
O O14 0.437300 0.795573 0.512360
O O15 0.304426 0.877880 0.072797
O O16 0.500000 0.000000 0.500000
O O17 0.686147 0.077567 0.254040
#
# Coordination Sequence:
#
# PCOD9021890 Si02
#       8
#     2   2   2   2   2   2   2   2
#     4  10  22  38  66  98 132 167 219 275 333 392
#     4  10  24  45  69  92 137 192 215 270 343 403
#     4   9  22  42  65  95 135 177 218 263 331 407
#     4  10  23  40  66 103 134 169 220 277 333 395
#     4  12  26  40  71 107 127 171 233 290 337 385
#     4  10  24  48  68  94 137 178 232 275 332 405
#     4  12  24  41  68 101 136 173 222 283 338 395
#     4  11  20  41  68 101 128 173 220 278 339 384
#
# _framework density 24.233101999999999
#
# number of rings (size 3 to 8) (size 9 to 14) (size 15 to 20)
#    0.750    0.750    2.500    1.875    5.250    2.000 
#    0.000   12.500    0.000    0.000    0.000    0.000 
#    0.000    0.000    0.000    0.000    0.000    0.000 
#
# Total GULP energy -89198.503761 kJ/mol
# GULP energy per Si atom -5574.906485 kJ/mol
# Density = 2.417795 g / cm^3
# Si number density = 24.233102 Si / 1000 Ang^3
#
#
#
# Elastic Constant Matrix: (Units=GPa)
#
#
# Indices 1 2 3 4 5 6 
#
# 1 105.4368 46.3352 30.6335 18.9050 -38.8935 -12.4240
# 2 46.3352 76.8369 28.2887 2.2193 -11.2633 -30.3011
# 3 30.6335 28.2887 86.1711 9.1552 -34.8499 -11.9539
# 4 18.9050 2.2193 9.1552 58.2077 -15.2255 -1.6595
# 5 -38.8935 -11.2633 -34.8499 -15.2255 45.3226 9.9582
# 6 -12.4240 -30.3011 -11.9539 -1.6595 9.9582 49.5769
#
#
#
# Elastic Compliance Matrix: (Units=1/GPa)
#
#
# Indices 1 2 3 4 5 6 
#
# 1 0.020495 -0.013318 0.003638 -0.002290 0.017566 -0.005731
# 2 -0.013318 0.027616 -0.007865 0.001444 -0.013283 0.014361
# 3 0.003638 -0.007865 0.019226 0.000375 0.016647 -0.002590
# 4 -0.002290 0.001444 0.000375 0.019147 0.005111 0.000014
# 5 0.017566 -0.013283 0.016647 0.005111 0.050479 -0.009671
# 6 -0.005731 0.014361 -0.002590 0.000014 -0.009671 0.028830
#
#
# Mechanical properties :
#
#
# Convention : Reuss Voigt Hill
#
# Bulk Modulus (GPa) = 31.00904 53.21772 42.11338
# Shear Modulus (GPa) = 23.62610 41.50060 32.56335
#
# Velocity S-wave (km/s) = 3.12581 4.14280 3.66970
# Velocity P-wave (km/s) = 5.08444 6.70016 5.94742
#
# Compressibility (1/GPa) = 0.03224866
#
# Stress axis : x y z
#
# Youngs Moduli (GPa) = 48.79338 36.21131 52.01173
#
# Poissons Ratio (x) = 0.48225 -0.18924
# Poissons Ratio (y) = 0.64981 0.40906
# Poissons Ratio (z) = -0.17753 0.28479
#
# Static dielectric constant tensor:
#      x y z
#    x 1.996390 0.007870 0.064110 
#    y 0.007870 2.079910 -0.004920 
#    z 0.064110 -0.004920 1.932570 
# 
# From -- ./inp_files/70821.got.cif
#   From: 2010.05.17/outbox.cif.g08.bks.cpg/sg2_36_cif.got.tgz:70821.got - 2010.06.03 11:33:40.
