data_PCOD9021301
_publ_section_title
;
Structure prediction by ZEFSAII (Michael W. Deem and Ramdas Pophale) SiO2 
 PCOD9021301
Probable space group: P -1
;
_chemical_formula_sum "Si O2"
_cell_formula_units_Z 16
_cell_length_a 6.374430
_cell_length_b 9.613911
_cell_length_c 17.190800
_cell_angle_alpha 133.348574
_cell_angle_beta 77.814779
_cell_angle_gamma 88.854397
_cell_volume 728.416234
_symmetry_space_group_name_H-M "P -1"
_symmetry_group_IT_number 2
_symmetry_cell_setting 'triclinic'
loop_
_space_group_symop_operation_xyz
x,y,z
-x,-y,-z
loop_
_atom_site_type_symbol
_atom_site_label
_atom_site_fract_x
_atom_site_fract_y
_atom_site_fract_z
Si Si1 0.834264 0.954119 0.733720
Si Si2 0.395708 0.029889 0.399567
Si Si3 0.169678 0.234207 0.812559
Si Si4 0.175720 0.534157 0.799181
Si Si5 0.432227 0.303633 0.958085
Si Si6 0.855037 0.593523 0.699367
Si Si7 0.616368 0.267365 0.585824
Si Si8 0.521379 0.219559 0.090088
O O1 0.772159 0.907359 0.633066
O O2 0.911628 0.747177 0.692780
O O3 0.623448 0.105702 0.848813
O O4 0.014296 0.083618 0.766748
O O5 0.504730 0.195068 0.491694
O O6 0.596089 0.875883 0.284109
O O7 0.302520 0.920853 0.436106
O O8 0.090782 0.417232 0.830680
O O9 0.222529 0.289418 0.917080
O O10 0.411294 0.401789 0.700765
O O11 0.239450 0.732070 0.901297
O O12 0.020318 0.563855 0.747917
O O13 0.500000 0.500000 0.000000
O O14 0.411171 0.322111 0.059401
O O15 0.802668 0.386206 0.599081
O O16 0.619057 0.705222 0.794425
O O17 0.500000 0.000000 0.000000
#
# Coordination Sequence:
#
# PCOD9021301 Si02
#       8
#     2   2   2   2   2   2   2   2
#     4  11  24  38  58  89 119 152 191 239 289 343
#     4   9  20  41  65  86 113 152 194 240 288 338
#     4  10  22  38  60  87 116 149 195 244 282 340
#     4  10  22  38  60  87 115 153 193 237 288 343
#     4  11  23  41  60  85 115 155 199 240 286 336
#     4  11  24  38  58  87 121 154 189 237 290 347
#     4   9  20  41  65  86 114 151 193 240 289 343
#     4  11  23  41  58  83 119 157 193 236 289 344
#
# _framework density 21.965464000000001
#
# number of rings (size 3 to 8) (size 9 to 14) (size 15 to 20)
#    0.000    1.750    2.500    0.750    5.250    4.500 
#    0.000    5.000    0.000    0.000    0.000    0.000 
#    0.000    0.000    0.000    0.000    0.000    0.000 
#
# Total GULP energy -89343.658328 kJ/mol
# GULP energy per Si atom -5583.978645 kJ/mol
# Density = 2.191547 g / cm^3
# Si number density = 21.965464 Si / 1000 Ang^3
#
#
#
# Elastic Constant Matrix: (Units=GPa)
#
#
# Indices 1 2 3 4 5 6 
#
# 1 112.6293 87.5749 18.0310 6.8988 55.0677 5.2171
# 2 87.5749 161.9268 13.2784 16.2945 47.5889 16.4860
# 3 18.0310 13.2784 55.7704 5.8512 29.5393 9.5100
# 4 6.8988 16.2945 5.8512 25.9269 3.7419 7.1975
# 5 55.0677 47.5889 29.5393 3.7419 57.7376 4.0628
# 6 5.2171 16.4860 9.5100 7.1975 4.0628 22.7022
#
#
#
# Elastic Compliance Matrix: (Units=1/GPa)
#
#
# Indices 1 2 3 4 5 6 
#
# 1 0.022511 -0.007681 0.003139 -0.000021 -0.016893 0.002120
# 2 -0.007681 0.012174 0.002958 -0.003985 -0.003512 -0.006423
# 3 0.003139 0.002958 0.028397 -0.003514 -0.019011 -0.010249
# 4 -0.000021 -0.003985 -0.003514 0.044278 0.002950 -0.010195
# 5 -0.016893 -0.003512 -0.019011 0.002950 0.045487 0.005320
# 6 0.002120 -0.006423 -0.010249 -0.010195 0.005320 0.054799
#
#
# Mechanical properties :
#
#
# Convention : Reuss Voigt Hill
#
# Bulk Modulus (GPa) = 16.69041 63.12171 39.90606
# Shear Modulus (GPa) = 21.66514 35.36950 28.51732
#
# Velocity S-wave (km/s) = 3.14399 4.01712 3.60707
# Velocity P-wave (km/s) = 4.56010 7.09335 5.96281
#
# Compressibility (1/GPa) = 0.05991464
#
# Stress axis : x y z
#
# Youngs Moduli (GPa) = 44.42243 82.14113 35.21449
#
# Poissons Ratio (x) = 0.63093 -0.11054
# Poissons Ratio (y) = 0.34121 -0.10417
# Poissons Ratio (z) = -0.13944 -0.24298
#
# Static dielectric constant tensor:
#      x y z
#    x 1.856200 0.209470 -0.084170 
#    y 0.209470 2.677330 -0.246730 
#    z -0.084170 -0.246730 1.961680 
# 
# From -- ./inp_files/37472.got.cif
#   From: 2010.05.17/outbox.cif.g08.bks.cpg/sg2_19_cif.got.tgz:37472.got - 2010.06.03 11:33:40.
