data_PCOD9021996
_publ_section_title
;
Structure prediction by ZEFSAII (Michael W. Deem and Ramdas Pophale) SiO2 
 PCOD9021996
Probable space group: P -1
;
_chemical_formula_sum "Si O2"
_cell_formula_units_Z 16
_cell_length_a 7.474856
_cell_length_b 15.691647
_cell_length_c 7.066680
_cell_angle_alpha 92.405736
_cell_angle_beta 67.173134
_cell_angle_gamma 66.414981
_cell_volume 680.793002
_symmetry_space_group_name_H-M "P -1"
_symmetry_group_IT_number 2
_symmetry_cell_setting 'triclinic'
loop_
_space_group_symop_operation_xyz
x,y,z
-x,-y,-z
loop_
_atom_site_type_symbol
_atom_site_label
_atom_site_fract_x
_atom_site_fract_y
_atom_site_fract_z
Si Si1 0.030097 0.791947 0.779186
Si Si2 0.506463 0.280296 0.314812
Si Si3 0.358751 0.458818 0.165572
Si Si4 0.804305 0.971715 0.619426
Si Si5 0.979579 0.831119 0.249403
Si Si6 0.972472 0.639450 0.329825
Si Si7 0.435770 0.832233 0.091722
Si Si8 0.857486 0.657428 0.965215
O O1 0.283118 0.765546 0.644056
O O2 0.885628 0.881762 0.718833
O O3 0.979071 0.823726 0.023298
O O4 0.979008 0.701036 0.782790
O O5 0.525438 0.367290 0.206569
O O6 0.269934 0.334806 0.506346
O O7 0.509160 0.201712 0.154411
O O8 0.164753 0.551742 0.348993
O O9 0.500000 0.500000 0.000000
O O10 0.228603 0.411349 0.099850
O O11 0.784828 0.926523 0.423441
O O12 0.613464 0.063260 0.804978
O O13 0.000000 0.000000 0.500000
O O14 0.986327 0.738098 0.334961
O O15 0.210219 0.827228 0.206814
O O16 0.991002 0.614168 0.095673
O O17 0.634892 0.752515 0.117341
#
# Coordination Sequence:
#
# PCOD9021996 Si02
#       8
#     2   2   2   2   2   2   2   2
#     4  10  22  43  61  90 134 166 210 263 317 369
#     4  10  23  39  61  91 127 166 204 264 315 367
#     4  11  22  43  67  90 125 166 205 255 321 379
#     4  10  22  38  68  92 123 170 220 258 315 374
#     4   9  21  40  62  91 126 172 206 264 316 366
#     4  11  22  39  63  95 126 160 216 256 309 382
#     4   9  20  40  60  88 125 164 212 250 325 361
#     4  10  22  40  63  91 123 168 202 260 317 375
#
# _framework density 23.502002999999998
#
# number of rings (size 3 to 8) (size 9 to 14) (size 15 to 20)
#    0.000    2.000    0.000    3.750    7.000    5.000 
#    0.000    2.500    0.000    0.000    0.000    0.000 
#    0.000    0.000    0.000    0.000    0.000    0.000 
#
# Total GULP energy -89346.035276 kJ/mol
# GULP energy per Si atom -5584.127205 kJ/mol
# Density = 2.344851 g / cm^3
# Si number density = 23.502003 Si / 1000 Ang^3
#
#
#
# Elastic Constant Matrix: (Units=GPa)
#
#
# Indices 1 2 3 4 5 6 
#
# 1 61.2657 15.4919 14.5484 5.8800 -11.4898 9.0954
# 2 15.4919 100.7938 40.8346 27.6927 2.6419 5.3333
# 3 14.5484 40.8346 85.8107 13.4965 -13.7071 3.9596
# 4 5.8800 27.6927 13.4965 28.1913 -3.4594 3.3860
# 5 -11.4898 2.6419 -13.7071 -3.4594 27.2366 0.7356
# 6 9.0954 5.3333 3.9596 3.3860 0.7356 30.0421
#
#
#
# Elastic Compliance Matrix: (Units=1/GPa)
#
#
# Indices 1 2 3 4 5 6 
#
# 1 0.019542 -0.002989 -0.000380 0.000773 0.008593 -0.005633
# 2 -0.002989 0.017178 -0.006780 -0.014068 -0.008141 0.000534
# 3 -0.000380 -0.006780 0.016380 0.000103 0.008783 -0.001067
# 4 0.000773 -0.014068 0.000103 0.050532 0.008260 -0.003648
# 5 0.008593 -0.008141 0.008783 0.008260 0.046718 -0.004389
# 6 -0.005633 0.000534 -0.001067 -0.003648 -0.004389 0.035557
#
#
# Mechanical properties :
#
#
# Convention : Reuss Voigt Hill
#
# Bulk Modulus (GPa) = 30.48601 43.29113 36.88857
# Shear Modulus (GPa) = 23.02685 28.89367 25.96026
#
# Velocity S-wave (km/s) = 3.13354 3.51010 3.32715
# Velocity P-wave (km/s) = 5.10803 5.90660 5.52177
#
# Compressibility (1/GPa) = 0.03280193
#
# Stress axis : x y z
#
# Youngs Moduli (GPa) = 51.17160 58.21549 61.04922
#
# Poissons Ratio (x) = 0.17403 0.02318
# Poissons Ratio (y) = 0.15298 0.41390
# Poissons Ratio (z) = 0.01943 0.39469
#
# Static dielectric constant tensor:
#      x y z
#    x 1.892200 0.030020 0.035230 
#    y 0.030020 1.873040 0.011360 
#    z 0.035230 0.011360 1.970530 
# 
# From -- ./inp_files/201787.got.cif
#   From: 2010.05.17/outbox.cif.g08.bks.cpg/sg2_101_cif.got.tgz:201787.got - 2010.06.03 11:33:40.
