data_PCOD9021155
_publ_section_title
;
Structure prediction by ZEFSAII (Michael W. Deem and Ramdas Pophale) SiO2 
 PCOD9021155
Probable space group: P -1
;
_chemical_formula_sum "Si O2"
_cell_formula_units_Z 12
_cell_length_a 9.333022
_cell_length_b 19.056141
_cell_length_c 9.221615
_cell_angle_alpha 37.416242
_cell_angle_beta 46.790929
_cell_angle_gamma 45.844216
_cell_volume 681.701241
_symmetry_space_group_name_H-M "P -1"
_symmetry_group_IT_number 2
_symmetry_cell_setting 'triclinic'
loop_
_space_group_symop_operation_xyz
x,y,z
-x,-y,-z
loop_
_atom_site_type_symbol
_atom_site_label
_atom_site_fract_x
_atom_site_fract_y
_atom_site_fract_z
Si Si1 0.869057 0.512264 0.922062
Si Si2 0.866841 0.614968 0.305411
Si Si3 0.552130 0.428167 0.429383
Si Si4 0.852287 0.182434 0.752158
Si Si5 0.310505 0.023876 0.701800
Si Si6 0.145973 0.244051 0.643500
O O1 0.000503 0.401899 0.905852
O O2 0.265839 0.701404 0.453179
O O3 0.646591 0.502826 0.132119
O O4 0.000000 0.500000 0.000000
O O5 0.649970 0.597169 0.446300
O O6 0.836314 0.729950 0.243017
O O7 0.000000 0.500000 0.500000
O O8 0.500000 0.500000 0.500000
O O9 0.078543 0.095903 0.675865
O O10 0.924909 0.230105 0.773456
O O11 0.709996 0.100634 0.016721
O O12 0.155653 0.359862 0.351716
O O13 0.314497 0.118938 0.670385
O O14 0.500000 0.000000 0.500000
#
# Coordination Sequence:
#
# PCOD9021155 Si02
#       6
#     2   2   2   2   2   2
#     4  11  19  36  57  86 115 150 193 228 287 350
#     4  10  22  38  53  85 125 151 185 240 289 340
#     4  12  22  34  60  88 117 154 187 238 289 344
#     4   9  20  37  57  85 111 146 201 230 279 342
#     4   9  19  37  62  81 109 153 199 233 279 336
#     4   9  19  38  56  83 116 145 190 242 280 329
#
# _framework density 17.603019
#
# number of rings (size 3 to 8) (size 9 to 14) (size 15 to 20)
#    1.000    1.000    3.333    1.000    2.333    4.000 
#    3.000    0.833    0.000    2.000    0.000    0.000 
#    0.000    0.000    0.000    0.000    0.000    0.000 
#
# Total GULP energy -66805.753350 kJ/mol
# GULP energy per Si atom -5567.146112 kJ/mol
# Density = 1.756295 g / cm^3
# Si number density = 17.603019 Si / 1000 Ang^3
#
#
#
# Elastic Constant Matrix: (Units=GPa)
#
#
# Indices 1 2 3 4 5 6 
#
# 1 57.5796 18.1177 9.4168 6.2053 -5.8286 19.4768
# 2 18.1177 102.4945 57.7298 3.6596 2.9216 31.4736
# 3 9.4168 57.7298 104.6138 10.7469 -8.2276 14.0129
# 4 6.2053 3.6596 10.7469 32.8644 -1.9102 6.8580
# 5 -5.8286 2.9216 -8.2276 -1.9102 23.2357 -1.7848
# 6 19.4768 31.4736 14.0129 6.8580 -1.7848 35.1049
#
#
#
# Elastic Compliance Matrix: (Units=1/GPa)
#
#
# Indices 1 2 3 4 5 6 
#
# 1 0.021956 -0.000863 0.000527 -0.001635 0.004819 -0.011054
# 2 -0.000863 0.020122 -0.010014 0.003847 -0.007103 -0.014677
# 3 0.000527 -0.010014 0.015534 -0.004440 0.006811 0.003699
# 4 -0.001635 0.003847 -0.004440 0.033263 -0.000291 -0.007282
# 5 0.004819 -0.007103 0.006811 -0.000291 0.047793 0.003463
# 6 -0.011054 -0.014677 0.003699 -0.007282 0.003463 0.047900
#
#
# Mechanical properties :
#
#
# Convention : Reuss Voigt Hill
#
# Bulk Modulus (GPa) = 27.09114 48.35740 37.72427
# Shear Modulus (GPa) = 22.77175 30.20255 26.48715
#
# Velocity S-wave (km/s) = 3.60061 4.14667 3.88325
# Velocity P-wave (km/s) = 5.71920 7.10332 6.44851
#
# Compressibility (1/GPa) = 0.03691243
#
# Stress axis : x y z
#
# Youngs Moduli (GPa) = 45.54645 49.69799 64.37485
#
# Poissons Ratio (x) = 0.04287 -0.03395
# Poissons Ratio (y) = 0.03929 0.64465
# Poissons Ratio (z) = -0.02402 0.49768
#
# Static dielectric constant tensor:
#      x y z
#    x 1.593380 -0.000790 -0.009720 
#    y -0.000790 1.651830 -0.006090 
#    z -0.009720 -0.006090 1.597800 
# 
# From -- ./inp_files/141924.got.cif
#   From: 2010.05.17/outbox.cif.g08.bks.cpg/sg2_71_cif.got.tgz:141924.got - 2010.06.03 11:33:40.
