data_PCOD9021281
_publ_section_title
;
Structure prediction by ZEFSAII (Michael W. Deem and Ramdas Pophale) SiO2 
 PCOD9021281
Probable space group: P -1
;
_chemical_formula_sum "Si O2"
_cell_formula_units_Z 14
_cell_length_a 8.939888
_cell_length_b 26.262011
_cell_length_c 28.734659
_cell_angle_alpha 170.512398
_cell_angle_beta 29.383562
_cell_angle_gamma 148.908517
_cell_volume 545.218987
_symmetry_space_group_name_H-M "P -1"
_symmetry_group_IT_number 2
_symmetry_cell_setting 'triclinic'
loop_
_space_group_symop_operation_xyz
x,y,z
-x,-y,-z
loop_
_atom_site_type_symbol
_atom_site_label
_atom_site_fract_x
_atom_site_fract_y
_atom_site_fract_z
Si Si1 0.894183 0.893106 0.851801
Si Si2 0.773696 0.413490 0.781920
Si Si3 0.547979 0.350123 0.469617
Si Si4 0.789116 0.258696 0.815508
Si Si5 0.715157 0.756974 0.454004
Si Si6 0.161356 0.542892 0.373051
Si Si7 0.003406 0.075236 0.325349
O O1 0.580863 0.715461 0.781956
O O2 0.105770 0.776645 0.732982
O O3 0.023906 0.757214 0.645060
O O4 0.946820 0.254817 0.164871
O O5 0.438941 0.557526 0.992069
O O6 0.970866 0.721774 0.002064
O O7 0.838320 0.161555 0.496876
O O8 0.919068 0.280756 0.670983
O O9 0.410107 0.246782 0.463031
O O10 0.344053 0.192139 0.344477
O O11 0.632858 0.064219 0.723874
O O12 0.000000 0.000000 0.500000
O O13 0.000000 0.500000 0.000000
O O14 0.519775 0.488191 0.240655
O O15 0.160219 0.720729 0.485467
#
# Coordination Sequence:
#
# PCOD9021281 Si02
#       7
#     2   2   2   2   2   2   2
#     4  10  22  38  59  94 136 177 230 279 322 373
#     4  11  24  45  70 101 133 174 224 269 329 410
#     4   9  22  40  62  94 133 182 226 274 325 390
#     4  12  28  47  73 105 135 164 217 279 337 407
#     4  10  24  45  73  97 134 184 219 268 342 398
#     4  11  22  38  66  95 132 184 223 275 329 380
#     4  11  22  39  67  98 134 180 231 271 322 397
#
# _framework density 25.677755000000001
#
# number of rings (size 3 to 8) (size 9 to 14) (size 15 to 20)
#    0.000    1.429    1.429    2.571    2.000   12.000 
#    0.000    0.000    0.000    0.000    0.000    0.000 
#    0.000    0.000    0.000    0.000    0.000    0.000 
#
# Total GULP energy -78247.240463 kJ/mol
# GULP energy per Si atom -5589.088604 kJ/mol
# Density = 2.561931 g / cm^3
# Si number density = 25.677755 Si / 1000 Ang^3
#
#
#
# Elastic Constant Matrix: (Units=GPa)
#
#
# Indices 1 2 3 4 5 6 
#
# 1 113.3582 17.0899 4.7800 4.9143 10.7537 19.3205
# 2 17.0899 60.1392 9.9524 9.4632 22.2341 5.5702
# 3 4.7800 9.9524 86.5063 14.6014 33.4971 -0.1681
# 4 4.9143 9.4632 14.6014 36.9191 4.6768 4.3378
# 5 10.7537 22.2341 33.4971 4.6768 39.5263 10.0226
# 6 19.3205 5.5702 -0.1681 4.3378 10.0226 46.9386
#
#
#
# Elastic Compliance Matrix: (Units=1/GPa)
#
#
# Indices 1 2 3 4 5 6 
#
# 1 0.009840 -0.002282 -0.000129 -0.000199 -0.000324 -0.003692
# 2 -0.002282 0.023236 0.004763 -0.005723 -0.016373 0.002224
# 3 -0.000129 0.004763 0.019883 -0.007083 -0.019782 0.004438
# 4 -0.000199 -0.005723 -0.007083 0.030970 0.006503 -0.003515
# 5 -0.000324 -0.016373 -0.019782 0.006503 0.053112 -0.009936
# 6 -0.003692 0.002224 0.004438 -0.003515 -0.009936 0.025023
#
#
# Mechanical properties :
#
#
# Convention : Reuss Voigt Hill
#
# Bulk Modulus (GPa) = 17.34190 35.96091 26.65141
# Shear Modulus (GPa) = 28.31572 39.88890 34.10231
#
# Velocity S-wave (km/s) = 3.32435 3.94565 3.64825
# Velocity P-wave (km/s) = 4.63717 5.89853 5.30547
#
# Compressibility (1/GPa) = 0.05766379
#
# Stress axis : x y z
#
# Youngs Moduli (GPa) = 101.62915 43.03625 50.29425
#
# Poissons Ratio (x) = 0.09819 0.00650
# Poissons Ratio (y) = 0.23188 -0.23956
# Poissons Ratio (z) = 0.01313 -0.20499
#
# Static dielectric constant tensor:
#      x y z
#    x 1.988460 0.062370 -0.060620 
#    y 0.062370 2.189840 -0.083520 
#    z -0.060620 -0.083520 2.092260 
# 
# From -- ./inp_files/89612.got.cif
#   From: 2010.05.17/outbox.cif.g08.bks.cpg/sg2_45_cif.got.tgz:89612.got - 2010.06.03 11:33:40.
