data_PCOD9021334
_publ_section_title
;
Structure prediction by ZEFSAII (Michael W. Deem and Ramdas Pophale) SiO2 
 PCOD9021334
Probable space group: P -1
;
_chemical_formula_sum "Si O2"
_cell_formula_units_Z 16
_cell_length_a 19.703224
_cell_length_b 12.574166
_cell_length_c 9.509017
_cell_angle_alpha 31.170412
_cell_angle_beta 45.601598
_cell_angle_gamma 46.940731
_cell_volume 848.389969
_symmetry_space_group_name_H-M "P -1"
_symmetry_group_IT_number 2
_symmetry_cell_setting 'triclinic'
loop_
_space_group_symop_operation_xyz
x,y,z
-x,-y,-z
loop_
_atom_site_type_symbol
_atom_site_label
_atom_site_fract_x
_atom_site_fract_y
_atom_site_fract_z
Si Si1 0.441267 0.537911 0.188178
Si Si2 0.166161 0.404432 0.910567
Si Si3 0.072721 0.124667 0.182693
Si Si4 0.065314 0.769621 0.202128
Si Si5 0.063491 0.554831 0.167219
Si Si6 0.491936 0.288101 0.833579
Si Si7 0.619225 0.830050 0.119767
Si Si8 0.784559 0.234917 0.761346
O O1 0.502599 0.648405 0.083862
O O2 0.424080 0.324760 0.534836
O O3 0.332808 0.687286 0.149594
O O4 0.500000 0.500000 0.000000
O O5 0.266109 0.231586 0.962396
O O6 0.180551 0.585896 0.580373
O O7 0.086803 0.293468 0.086249
O O8 0.140068 0.498157 0.995516
O O9 0.173192 0.977242 0.148607
O O10 0.000000 0.000000 0.500000
O O11 0.019866 0.248409 0.985788
O O12 0.104838 0.631915 0.162309
O O13 0.153974 0.782970 0.162574
O O14 0.989408 0.638208 0.521189
O O15 0.000000 0.000000 0.000000
O O16 0.500000 0.500000 0.500000
O O17 0.405362 0.221756 0.947301
O O18 0.576570 0.076454 0.930687
#
# Coordination Sequence:
#
# PCOD9021334 Si02
#       8
#     2   2   2   2   2   2   2   2
#     4  10  22  38  60  91 120 152 198 245 300 357
#     4  11  22  37  59  91 115 149 210 243 287 353
#     4  12  21  35  63  89 117 152 197 248 297 341
#     4  11  23  40  56  80 123 164 196 236 297 352
#     4  11  23  37  57  84 118 156 197 243 288 349
#     4   9  18  39  62  83 114 151 192 242 300 347
#     4   9  20  38  63  86 116 155 191 248 297 349
#     4  11  22  39  61  85 118 161 200 247 292 350
#
# _framework density 18.859249999999999
#
# number of rings (size 3 to 8) (size 9 to 14) (size 15 to 20)
#    0.000    1.500    3.750    1.875    0.000    1.500 
#    0.000    3.750    0.000    0.000    0.000    0.000 
#    0.000    0.000    0.000    0.000    0.000    0.000 
#
# Total GULP energy -89185.602920 kJ/mol
# GULP energy per Si atom -5574.100183 kJ/mol
# Density = 1.881633 g / cm^3
# Si number density = 18.859250 Si / 1000 Ang^3
#
#
#
# Elastic Constant Matrix: (Units=GPa)
#
#
# Indices 1 2 3 4 5 6 
#
# 1 100.8567 51.2595 26.4238 9.1460 19.3580 24.0676
# 2 51.2595 101.9881 37.2291 1.8311 5.7963 9.5100
# 3 26.4238 37.2291 59.9242 -6.1762 10.8499 -6.3538
# 4 9.1460 1.8311 -6.1762 32.8976 -2.6771 8.3477
# 5 19.3580 5.7963 10.8499 -2.6771 22.7342 -5.4541
# 6 24.0676 9.5100 -6.3538 8.3477 -5.4541 35.1641
#
#
#
# Elastic Compliance Matrix: (Units=1/GPa)
#
#
# Indices 1 2 3 4 5 6 
#
# 1 0.022861 -0.007214 -0.004143 -0.004163 -0.020117 -0.016577
# 2 -0.007214 0.015911 -0.007734 0.000113 0.005817 0.000113
# 3 -0.004143 -0.007734 0.025333 0.003989 -0.004225 0.007903
# 4 -0.004163 0.000113 0.003989 0.033621 0.004679 -0.003716
# 5 -0.020117 0.005817 -0.004225 0.004679 0.067176 0.020740
# 6 -0.016577 0.000113 0.007903 -0.003716 0.020740 0.045280
#
#
# Mechanical properties :
#
#
# Convention : Reuss Voigt Hill
#
# Bulk Modulus (GPa) = 38.57453 54.73266 46.65360
# Shear Modulus (GPa) = 19.45483 28.01628 23.73555
#
# Velocity S-wave (km/s) = 3.21531 3.85846 3.55147
# Velocity P-wave (km/s) = 5.85513 6.99535 6.45048
#
# Compressibility (1/GPa) = 0.02592384
#
# Stress axis : x y z
#
# Youngs Moduli (GPa) = 43.74192 62.85080 39.47347
#
# Poissons Ratio (x) = 0.45340 0.16355
# Poissons Ratio (y) = 0.31555 0.30527
# Poissons Ratio (z) = 0.18124 0.48606
#
# Static dielectric constant tensor:
#      x y z
#    x 1.665910 0.014510 0.021250 
#    y 0.014510 1.654120 -0.012060 
#    z 0.021250 -0.012060 1.648270 
# 
# From -- ./inp_files/38734.got.cif
#   From: 2010.05.17/outbox.cif.g08.bks.cpg/sg2_20_cif.got.tgz:38734.got - 2010.06.03 11:33:40.
