data_PCOD9021245
_publ_section_title
;
Structure prediction by ZEFSAII (Michael W. Deem and Ramdas Pophale) SiO2 
 PCOD9021245
Probable space group: P -1
;
_chemical_formula_sum "Si O2"
_cell_formula_units_Z 11
_cell_length_a 19.127354
_cell_length_b 15.864518
_cell_length_c 9.639971
_cell_angle_alpha 45.412284
_cell_angle_beta 32.968563
_cell_angle_gamma 20.528627
_cell_volume 501.670063
_symmetry_space_group_name_H-M "P -1"
_symmetry_group_IT_number 2
_symmetry_cell_setting 'triclinic'
loop_
_space_group_symop_operation_xyz
x,y,z
-x,-y,-z
loop_
_atom_site_type_symbol
_atom_site_label
_atom_site_fract_x
_atom_site_fract_y
_atom_site_fract_z
Si Si1 0.000000 0.000000 0.500000
Si Si2 0.710408 0.745982 0.530668
Si Si3 0.787236 0.084573 0.458837
Si Si4 0.369643 0.211772 0.064389
Si Si5 0.398603 0.513059 0.373503
Si Si6 0.628605 0.541498 0.826211
O O1 0.877280 0.087906 0.435584
O O2 0.938802 0.203169 0.358563
O O3 0.650633 0.812736 0.715164
O O4 0.670990 0.639703 0.685410
O O5 0.041244 0.506802 0.224111
O O6 0.500000 0.000000 0.500000
O O7 0.625556 0.290021 0.368384
O O8 0.562865 0.168249 0.779511
O O9 0.077312 0.777766 0.276547
O O10 0.500000 0.000000 0.000000
O O11 0.455224 0.402741 0.260512
O O12 0.395757 0.660395 0.170419
#
# Coordination Sequence:
#
# PCOD9021245 Si02
#       6
#     1   2   2   2   2   2
#     4  10  22  38  58  98 128 168 228 270 334 412
#     4  11  26  44  70 100 139 187 228 286 344 401
#     4  11  22  41  68  94 137 180 222 285 349 401
#     4  11  25  45  67 101 139 178 235 284 332 421
#     4  10  22  38  67  95 132 178 217 289 345 400
#     4  10  22  41  61  99 136 169 237 276 334 420
#
# _framework density 21.926763000000001
#
# number of rings (size 3 to 8) (size 9 to 14) (size 15 to 20)
#    0.000    1.455    1.818    2.182    2.545    5.091 
#    0.000    3.636    0.000    0.000    0.000    0.000 
#    0.000    0.000    0.000    0.000    0.000    0.000 
#
# Total GULP energy -61364.509597 kJ/mol
# GULP energy per Si atom -5578.591782 kJ/mol
# Density = 2.187686 g / cm^3
# Si number density = 21.926763 Si / 1000 Ang^3
#
#
#
# Elastic Constant Matrix: (Units=GPa)
#
#
# Indices 1 2 3 4 5 6 
#
# 1 118.1619 76.6418 24.3789 18.3560 22.0313 -9.7565
# 2 76.6418 163.3074 39.5235 20.3374 23.3200 -42.7784
# 3 24.3789 39.5235 90.8463 29.5047 -9.0684 -4.3693
# 4 18.3560 20.3374 29.5047 23.5678 6.0758 -0.0701
# 5 22.0313 23.3200 -9.0684 6.0758 39.3545 3.2520
# 6 -9.7565 -42.7784 -4.3693 -0.0701 3.2520 53.3158
#
#
#
# Elastic Compliance Matrix: (Units=1/GPa)
#
#
# Indices 1 2 3 4 5 6 
#
# 1 0.013340 -0.005755 0.000015 -0.004630 -0.003175 -0.001987
# 2 -0.005755 0.013376 -0.004625 0.000471 -0.006645 0.009706
# 3 0.000015 -0.004625 0.023510 -0.028762 0.012805 -0.002600
# 4 -0.004630 0.000471 -0.028762 0.086138 -0.017477 -0.001647
# 5 -0.003175 -0.006645 0.012805 -0.017477 0.037366 -0.007166
# 6 -0.001987 0.009706 -0.002600 -0.001647 -0.007166 0.026402
#
#
# Mechanical properties :
#
#
# Convention : Reuss Voigt Hill
#
# Bulk Modulus (GPa) = 33.90143 72.60045 53.25094
# Shear Modulus (GPa) = 21.67379 38.69906 30.18643
#
# Velocity S-wave (km/s) = 3.14739 4.20566 3.71441
# Velocity P-wave (km/s) = 5.35751 7.53430 6.53715
#
# Compressibility (1/GPa) = 0.02949728
#
# Stress axis : x y z
#
# Youngs Moduli (GPa) = 74.96487 74.75943 42.53542
#
# Poissons Ratio (x) = 0.43021 -0.00064
# Poissons Ratio (y) = 0.43139 0.19671
# Poissons Ratio (z) = -0.00113 0.34573
#
# Static dielectric constant tensor:
#      x y z
#    x 1.735410 0.049350 0.052030 
#    y 0.049350 1.850330 0.114780 
#    z 0.052030 0.114780 1.964660 
# 
# From -- ./inp_files/21651.got.cif
#   From: 2010.05.17/outbox.cif.g08.bks.cpg/sg2_11_cif.got.tgz:21651.got - 2010.06.03 11:33:40.
