data_PCOD9021128
_publ_section_title
;
Structure prediction by ZEFSAII (Michael W. Deem and Ramdas Pophale) SiO2 
 PCOD9021128
Probable space group: P -1
;
_chemical_formula_sum "Si O2"
_cell_formula_units_Z 14
_cell_length_a 10.413440
_cell_length_b 11.585691
_cell_length_c 9.397012
_cell_angle_alpha 144.456228
_cell_angle_beta 112.199042
_cell_angle_gamma 61.030291
_cell_volume 576.300162
_symmetry_space_group_name_H-M "P -1"
_symmetry_group_IT_number 2
_symmetry_cell_setting 'triclinic'
loop_
_space_group_symop_operation_xyz
x,y,z
-x,-y,-z
loop_
_atom_site_type_symbol
_atom_site_label
_atom_site_fract_x
_atom_site_fract_y
_atom_site_fract_z
Si Si1 0.312102 0.560693 0.577065
Si Si2 0.223461 0.351928 0.574265
Si Si3 0.943591 0.506743 0.751474
Si Si4 0.503088 0.029786 0.703101
Si Si5 0.930695 0.239498 0.749597
Si Si6 0.625626 0.532268 0.985911
Si Si7 0.419085 0.850951 0.741261
O O1 0.245093 0.544302 0.687396
O O2 0.219665 0.454135 0.330818
O O3 0.471119 0.384466 0.480302
O O4 0.308079 0.782725 0.729899
O O5 0.275815 0.373138 0.777361
O O6 0.054129 0.381362 0.549061
O O7 0.335538 0.128817 0.345250
O O8 0.964436 0.361608 0.751814
O O9 0.990036 0.703157 0.020754
O O10 0.462053 0.277706 0.963446
O O11 0.389648 0.957550 0.679564
O O12 0.500000 0.000000 0.500000
O O13 0.753007 0.329550 0.779873
O O14 0.000000 0.000000 0.500000
O O15 0.500000 0.500000 0.000000
O O16 0.500000 0.000000 0.000000
#
# Coordination Sequence:
#
# PCOD9021128 Si02
#       7
#     2   2   2   2   2   2   2
#     4  10  22  41  65  95 132 177 221 268 346 402
#     4   9  20  41  63  96 133 174 222 280 323 413
#     4  10  22  42  65  94 134 179 219 273 338 413
#     4   9  20  39  63  95 132 174 219 280 341 388
#     4  10  24  43  64  97 136 174 226 284 336 405
#     4  10  22  37  68  98 130 175 229 281 336 400
#     4  10  23  39  65  97 137 171 223 284 332 412
#
# _framework density 24.292897
#
# number of rings (size 3 to 8) (size 9 to 14) (size 15 to 20)
#    0.000    2.286    0.000    0.429    6.000    4.571 
#    7.714    0.000    0.000    5.143    0.000    0.000 
#    0.000    0.000    0.000    0.000    0.000    0.000 
#
# Total GULP energy -78060.280301 kJ/mol
# GULP energy per Si atom -5575.734307 kJ/mol
# Density = 2.423761 g / cm^3
# Si number density = 24.292897 Si / 1000 Ang^3
#
#
#
# Elastic Constant Matrix: (Units=GPa)
#
#
# Indices 1 2 3 4 5 6 
#
# 1 132.9697 43.2596 34.7075 26.0655 -8.2164 11.3654
# 2 43.2596 86.9049 32.5030 19.0609 4.1492 21.7411
# 3 34.7075 32.5030 116.4256 25.9443 -0.2107 -14.4575
# 4 26.0655 19.0609 25.9443 41.2761 -3.0736 -1.5890
# 5 -8.2164 4.1492 -0.2107 -3.0736 34.1352 -1.7057
# 6 11.3654 21.7411 -14.4575 -1.5890 -1.7057 34.0552
#
#
#
# Elastic Compliance Matrix: (Units=1/GPa)
#
#
# Indices 1 2 3 4 5 6 
#
# 1 0.010013 -0.003211 -0.001481 -0.003811 0.002349 -0.001980
# 2 -0.003211 0.019942 -0.005357 -0.004693 -0.004371 -0.014371
# 3 -0.001481 -0.005357 0.012570 -0.004109 0.000456 0.009082
# 4 -0.003811 -0.004693 -0.004109 0.031743 0.002693 0.004139
# 5 0.002349 -0.004371 0.000456 0.002693 0.030831 0.003870
# 6 -0.001980 -0.014371 0.009082 0.004139 0.003870 0.043442
#
#
# Mechanical properties :
#
#
# Convention : Reuss Voigt Hill
#
# Bulk Modulus (GPa) = 44.58843 61.91560 53.25201
# Shear Modulus (GPa) = 28.39044 36.94866 32.66955
#
# Velocity S-wave (km/s) = 3.42229 3.90419 3.67116
# Velocity P-wave (km/s) = 5.83185 6.77245 6.31967
#
# Compressibility (1/GPa) = 0.02242734
#
# Stress axis : x y z
#
# Youngs Moduli (GPa) = 99.86705 50.14513 79.55286
#
# Poissons Ratio (x) = 0.16104 0.11782
# Poissons Ratio (y) = 0.32072 0.42614
# Poissons Ratio (z) = 0.14790 0.26861
#
# Static dielectric constant tensor:
#      x y z
#    x 2.109230 -0.067440 -0.046620 
#    y -0.067440 2.058240 -0.031740 
#    z -0.046620 -0.031740 2.017980 
# 
# From -- ./inp_files/432128.got.cif
#   From: 2010.05.17/outbox.cif.g08.bks.cpg/sg2_217_cif.got.tgz:432128.got - 2010.06.03 11:33:40.
