data_PCOD9021399
_publ_section_title
;
Structure prediction by ZEFSAII (Michael W. Deem and Ramdas Pophale) SiO2 
 PCOD9021399
Probable space group: P -1
;
_chemical_formula_sum "Si O2"
_cell_formula_units_Z 16
_cell_length_a 26.416910
_cell_length_b 15.452563
_cell_length_c 7.932373
_cell_angle_alpha 57.961093
_cell_angle_beta 130.238461
_cell_angle_gamma 161.021710
_cell_volume 760.577472
_symmetry_space_group_name_H-M "P -1"
_symmetry_group_IT_number 2
_symmetry_cell_setting 'triclinic'
loop_
_space_group_symop_operation_xyz
x,y,z
-x,-y,-z
loop_
_atom_site_type_symbol
_atom_site_label
_atom_site_fract_x
_atom_site_fract_y
_atom_site_fract_z
Si Si1 0.351015 0.296493 0.737863
Si Si2 0.432768 0.212711 0.360683
Si Si3 0.855929 0.166135 0.423642
Si Si4 0.987094 0.101876 0.382006
Si Si5 0.673239 0.210154 0.881105
Si Si6 0.747057 0.206596 0.354248
Si Si7 0.913679 0.168466 0.914639
Si Si8 0.395220 0.699048 0.585737
O O1 0.447860 0.519627 0.594632
O O2 0.290179 0.101702 0.728713
O O3 0.159578 0.070053 0.621807
O O4 0.500000 0.500000 0.000000
O O5 0.549902 0.332250 0.337374
O O6 0.382920 0.045636 0.545156
O O7 0.233351 0.977114 0.146121
O O8 0.798892 0.195823 0.335345
O O9 0.868366 0.117084 0.673596
O O10 0.063612 0.481351 0.477575
O O11 0.198570 0.432445 0.524235
O O12 0.922548 0.066573 0.108753
O O13 0.000000 0.000000 0.500000
O O14 0.610615 0.229747 0.656291
O O15 0.547185 0.949616 0.784466
O O16 0.668337 0.185441 0.095647
O O17 0.882236 0.496682 0.975165
#
# Coordination Sequence:
#
# PCOD9021399 Si02
#       8
#     2   2   2   2   2   2   2   2
#     4  12  25  42  64  95 124 164 209 260 310 373
#     4  11  22  39  60  99 120 161 211 253 310 367
#     4   9  21  41  63  94 127 159 206 256 318 364
#     4  11  22  41  60  83 127 166 208 248 306 367
#     4   9  20  39  61  90 122 165 203 254 315 356
#     4   9  20  39  66  92 125 163 203 260 306 367
#     4   9  20  40  63  88 123 157 201 262 302 365
#     4  10  22  38  61  89 126 162 206 255 307 371
#
# _framework density 21.036648
#
# number of rings (size 3 to 8) (size 9 to 14) (size 15 to 20)
#    0.000    2.000    2.500    0.750    1.750    6.000 
#    2.250    3.125    0.000    0.000    0.000    0.000 
#    0.000    0.000    0.000    0.000    0.000    0.000 
#
# Total GULP energy -89141.928851 kJ/mol
# GULP energy per Si atom -5571.370553 kJ/mol
# Density = 2.098877 g / cm^3
# Si number density = 21.036648 Si / 1000 Ang^3
#
#
#
# Elastic Constant Matrix: (Units=GPa)
#
#
# Indices 1 2 3 4 5 6 
#
# 1 55.1034 21.3727 5.4294 28.6072 20.0908 5.4155
# 2 21.3727 121.0174 30.5444 7.5333 -8.1357 -0.6870
# 3 5.4294 30.5444 76.8149 19.7006 10.0069 8.7431
# 4 28.6072 7.5333 19.7006 9.0408 -29.6240 -22.3735
# 5 20.0908 -8.1357 10.0069 -29.6240 -4.3056 -8.8886
# 6 5.4155 -0.6870 8.7431 -22.3735 -8.8886 22.4900
#
#
#
# Elastic Compliance Matrix: (Units=1/GPa)
#
#
# Indices 1 2 3 4 5 6 
#
# 1 0.013088 -0.001277 -0.003373 0.005229 0.007053 0.006110
# 2 -0.001277 0.009318 -0.002445 -0.003624 -0.000029 -0.002074
# 3 -0.003373 -0.002445 0.013010 0.002022 0.005494 -0.000138
# 4 0.005229 -0.003624 0.002022 0.009347 -0.023739 -0.002240
# 5 0.007053 -0.000029 0.005494 -0.023739 0.018441 -0.020164
# 6 0.006110 -0.002074 -0.000138 -0.002240 -0.020164 0.032786
#
#
# Mechanical properties :
#
#
# Convention : Reuss Voigt Hill
#
# Bulk Modulus (GPa) = 47.11096 40.84765 43.97931
# Shear Modulus (GPa) = 42.64161 18.48433 30.56297
#
# Velocity S-wave (km/s) = 4.50712 2.96746 3.81575
# Velocity P-wave (km/s) = 7.03768 5.58575 6.35332
#
# Compressibility (1/GPa) = 0.02122648
#
# Stress axis : x y z
#
# Youngs Moduli (GPa) = 76.40315 107.32054 76.86126
#
# Poissons Ratio (x) = 0.13704 0.25924
# Poissons Ratio (y) = 0.09756 0.18796
# Poissons Ratio (z) = 0.25769 0.26244
#
# Static dielectric constant tensor:
#      x y z
#    x 1.758200 0.036390 -0.000620 
#    y 0.036390 1.832740 -0.039150 
#    z -0.000620 -0.039150 1.775650 
# 
# From -- ./inp_files/357409.got.cif
#   From: 2010.05.17/outbox.cif.g08.bks.cpg/sg2_179_cif.got.tgz:357409.got - 2010.06.03 11:33:40.
