data_PCOD9021927
_publ_section_title
;
Structure prediction by ZEFSAII (Michael W. Deem and Ramdas Pophale) SiO2 
 PCOD9021927
Probable space group: P -1
;
_chemical_formula_sum "Si O2"
_cell_formula_units_Z 14
_cell_length_a 15.167717
_cell_length_b 7.975856
_cell_length_c 12.446660
_cell_angle_alpha 49.011924
_cell_angle_beta 141.651698
_cell_angle_gamma 112.799858
_cell_volume 678.822131
_symmetry_space_group_name_H-M "P -1"
_symmetry_group_IT_number 2
_symmetry_cell_setting 'triclinic'
loop_
_space_group_symop_operation_xyz
x,y,z
-x,-y,-z
loop_
_atom_site_type_symbol
_atom_site_label
_atom_site_fract_x
_atom_site_fract_y
_atom_site_fract_z
Si Si1 0.876370 0.859317 0.939383
Si Si2 0.413570 0.480421 0.072913
Si Si3 0.124236 0.651098 0.832431
Si Si4 0.305287 0.936080 0.524529
Si Si5 0.236905 0.176240 0.930203
Si Si6 0.509079 0.057311 0.109113
Si Si7 0.965119 0.123428 0.580246
O O1 0.774833 0.912517 0.714712
O O2 0.931706 0.579614 0.116009
O O3 0.780525 0.931579 0.925842
O O4 0.000000 0.000000 0.000000
O O5 0.557747 0.263369 0.309429
O O6 0.304476 0.567704 0.033751
O O7 0.303247 0.388262 0.930533
O O8 0.464666 0.688432 0.982776
O O9 0.076364 0.775031 0.620036
O O10 0.050232 0.849276 0.763711
O O11 0.368706 0.054053 0.636256
O O12 0.177078 0.845292 0.494839
O O13 0.080794 0.236147 0.699429
O O14 0.358053 0.032786 0.025632
O O15 0.500000 0.000000 0.000000
#
# Coordination Sequence:
#
# PCOD9021927 Si02
#       7
#     2   2   2   2   2   2   2
#     4  11  24  44  62 101 140 181 223 271 336 409
#     4  10  22  42  64  96 128 176 221 281 327 395
#     4  10  24  39  68  95 141 173 224 281 335 396
#     4  11  23  42  69  95 137 175 226 271 337 405
#     4  10  22  38  67  91 135 170 223 273 328 402
#     4  11  23  41  65 100 135 171 226 287 335 392
#     4  11  22  42  68 104 127 178 229 282 341 382
#
# _framework density 20.623958999999999
#
# number of rings (size 3 to 8) (size 9 to 14) (size 15 to 20)
#    0.000    1.429    2.857    2.571    4.000   10.286 
#    0.000    0.000    0.000    8.571    0.000    0.000 
#    0.000    0.000    0.000    0.000    0.000    0.000 
#
# Total GULP energy -78001.426601 kJ/mol
# GULP energy per Si atom -5571.530471 kJ/mol
# Density = 2.057702 g / cm^3
# Si number density = 20.623959 Si / 1000 Ang^3
#
#
#
# Elastic Constant Matrix: (Units=GPa)
#
#
# Indices 1 2 3 4 5 6 
#
# 1 132.4780 54.4676 57.6404 11.1189 0.2433 11.4229
# 2 54.4676 90.6883 34.0821 -3.6083 11.8794 5.4462
# 3 57.6404 34.0821 80.3929 7.4991 8.5610 -7.2877
# 4 11.1189 -3.6083 7.4991 36.9420 3.1923 -2.6144
# 5 0.2433 11.8794 8.5610 3.1923 39.2719 9.2775
# 6 11.4229 5.4462 -7.2877 -2.6144 9.2775 30.5464
#
#
#
# Elastic Compliance Matrix: (Units=1/GPa)
#
#
# Indices 1 2 3 4 5 6 
#
# 1 0.015370 -0.006109 -0.009529 -0.004495 0.006382 -0.009255
# 2 -0.006109 0.016371 -0.002388 0.004393 -0.004907 0.000662
# 3 -0.009529 -0.002388 0.022052 -0.000473 -0.006640 0.011226
# 4 -0.004495 0.004393 -0.000473 0.029694 -0.004737 0.004765
# 5 0.006382 -0.004907 -0.006640 -0.004737 0.031853 -0.013175
# 6 -0.009255 0.000662 0.011226 0.004765 -0.013175 0.043168
#
#
# Mechanical properties :
#
#
# Convention : Reuss Voigt Hill
#
# Bulk Modulus (GPa) = 56.36495 66.21548 61.29021
# Shear Modulus (GPa) = 24.94104 31.84335 28.39219
#
# Velocity S-wave (km/s) = 3.48131 3.93364 3.71436
# Velocity P-wave (km/s) = 6.59913 7.26685 6.94102
#
# Compressibility (1/GPa) = 0.01774152
#
# Stress axis : x y z
#
# Youngs Moduli (GPa) = 65.06340 61.08416 45.34672
#
# Poissons Ratio (x) = 0.37315 0.43212
# Poissons Ratio (y) = 0.39746 0.10827
# Poissons Ratio (z) = 0.62000 0.14585
#
# Static dielectric constant tensor:
#      x y z
#    x 1.803980 -0.070050 0.030860 
#    y -0.070050 1.798410 -0.019830 
#    z 0.030860 -0.019830 1.768590 
# 
# From -- ./inp_files/446837.got.cif
#   From: 2010.05.17/outbox.cif.g08.bks.cpg/sg2_224_cif.got.tgz:446837.got - 2010.06.03 11:33:40.
