data_PCOD9021182
_publ_section_title
;
Structure prediction by ZEFSAII (Michael W. Deem and Ramdas Pophale) SiO2 
 PCOD9021182
Probable space group: P -1
;
_chemical_formula_sum "Si O2"
_cell_formula_units_Z 16
_cell_length_a 6.204472
_cell_length_b 25.149270
_cell_length_c 23.721767
_cell_angle_alpha 163.033309
_cell_angle_beta 49.093041
_cell_angle_gamma 138.509132
_cell_volume 678.273745
_symmetry_space_group_name_H-M "P -1"
_symmetry_group_IT_number 2
_symmetry_cell_setting 'triclinic'
loop_
_space_group_symop_operation_xyz
x,y,z
-x,-y,-z
loop_
_atom_site_type_symbol
_atom_site_label
_atom_site_fract_x
_atom_site_fract_y
_atom_site_fract_z
Si Si1 0.230275 0.310436 0.602692
Si Si2 0.368607 0.693530 0.660856
Si Si3 0.381443 0.675099 0.154548
Si Si4 0.388335 0.653203 0.012006
Si Si5 0.761597 0.553818 0.381234
Si Si6 0.572239 0.890458 0.445757
Si Si7 0.452284 0.087271 0.406025
Si Si8 0.588052 0.880003 0.939541
O O1 0.364844 0.401498 0.610148
O O2 0.240118 0.103412 0.408752
O O3 0.836884 0.234301 0.598885
O O4 0.428991 0.506373 0.812170
O O5 0.631601 0.633798 0.535174
O O6 0.428283 0.749581 0.774757
O O7 0.000000 0.500000 0.500000
O O8 0.463441 0.922369 0.850115
O O9 0.541121 0.658554 0.052741
O O10 0.606392 0.755727 0.254111
O O11 0.323681 0.870865 0.349863
O O12 0.012281 0.469644 0.026797
O O13 0.487269 0.883062 0.201899
O O14 0.604498 0.300346 0.161891
O O15 0.168641 0.702928 0.458389
O O16 0.703796 0.893903 0.488873
O O17 0.000000 0.000000 0.000000
#
# Coordination Sequence:
#
# PCOD9021182 Si02
#       8
#     2   2   2   2   2   2   2   2
#     4  10  22  38  57  84 123 162 212 252 312 393
#     4  11  25  45  72 105 135 166 218 271 323 392
#     4   8  14  32  58  78 117 152 200 268 325 365
#     4   9  18  35  57  86 115 159 206 265 316 382
#     4  11  25  41  64  92 127 174 206 262 325 380
#     4   8  16  35  55  82 115 157 200 264 322 377
#     4  10  22  38  57  82 124 163 207 258 320 382
#     4  11  25  44  71 103 134 168 214 269 326 389
#
# _framework density 23.589293000000001
#
# number of rings (size 3 to 8) (size 9 to 14) (size 15 to 20)
#    0.000    2.250    1.250    0.375    1.750    3.000 
#    0.000   33.750    0.000    0.000    0.000    0.000 
#    0.000    0.000    0.000    0.000    0.000    0.000 
#
# Total GULP energy -89373.197389 kJ/mol
# GULP energy per Si atom -5585.824837 kJ/mol
# Density = 2.353560 g / cm^3
# Si number density = 23.589293 Si / 1000 Ang^3
#
#
#
# Elastic Constant Matrix: (Units=GPa)
#
#
# Indices 1 2 3 4 5 6 
#
# 1 67.4200 24.0906 22.9571 17.1612 4.4076 -4.6313
# 2 24.0906 52.4106 42.6716 25.6254 2.5595 -15.4978
# 3 22.9571 42.6716 118.1594 23.7478 3.9548 -4.3822
# 4 17.1612 25.6254 23.7478 45.3533 -6.8854 -8.9182
# 5 4.4076 2.5595 3.9548 -6.8854 48.8746 6.7680
# 6 -4.6313 -15.4978 -4.3822 -8.9182 6.7680 25.3358
#
#
#
# Elastic Compliance Matrix: (Units=1/GPa)
#
#
# Indices 1 2 3 4 5 6 
#
# 1 0.018258 -0.006826 -0.000412 -0.003399 -0.001498 -0.001705
# 2 -0.006826 0.043989 -0.010930 -0.013347 -0.005529 0.020548
# 3 -0.000412 -0.010930 0.012542 -0.001210 0.000124 -0.005051
# 4 -0.003399 -0.013347 -0.001210 0.032546 0.005553 0.000978
# 5 -0.001498 -0.005529 0.000124 0.005553 0.022731 -0.007752
# 6 -0.001705 0.020548 -0.005051 0.000978 -0.007752 0.053269
#
#
# Mechanical properties :
#
#
# Convention : Reuss Voigt Hill
#
# Bulk Modulus (GPa) = 26.00618 46.38098 36.19358
# Shear Modulus (GPa) = 21.50652 33.79745 27.65199
#
# Velocity S-wave (km/s) = 3.02272 3.78927 3.42749
# Velocity P-wave (km/s) = 4.81985 6.23292 5.57137
#
# Compressibility (1/GPa) = 0.03845240
#
# Stress axis : x y z
#
# Youngs Moduli (GPa) = 54.77131 22.73313 79.73087
#
# Poissons Ratio (x) = 0.15517 0.03287
# Poissons Ratio (y) = 0.37386 0.87146
# Poissons Ratio (z) = 0.02258 0.24847
#
# Static dielectric constant tensor:
#      x y z
#    x 2.051710 -0.030280 0.097310 
#    y -0.030280 1.881010 -0.014550 
#    z 0.097310 -0.014550 1.936870 
# 
# From -- ./inp_files/605212.got.cif
#   From: 2010.05.17/outbox.cif.g08.bks.cpg/sg2_303_cif.got.tgz:605212.got - 2010.06.03 11:33:40.
