data_PCOD9021374
_publ_section_title
;
Structure prediction by ZEFSAII (Michael W. Deem and Ramdas Pophale) SiO2 
 PCOD9021374
Probable space group: P -1
;
_chemical_formula_sum "Si O2"
_cell_formula_units_Z 14
_cell_length_a 9.007438
_cell_length_b 13.626878
_cell_length_c 8.807345
_cell_angle_alpha 137.826532
_cell_angle_beta 85.678102
_cell_angle_gamma 118.148046
_cell_volume 567.124020
_symmetry_space_group_name_H-M "P -1"
_symmetry_group_IT_number 2
_symmetry_cell_setting 'triclinic'
loop_
_space_group_symop_operation_xyz
x,y,z
-x,-y,-z
loop_
_atom_site_type_symbol
_atom_site_label
_atom_site_fract_x
_atom_site_fract_y
_atom_site_fract_z
Si Si1 0.576923 0.262149 0.927412
Si Si2 0.216482 0.100360 0.301024
Si Si3 0.430562 0.482620 0.177475
Si Si4 0.779229 0.389591 0.755161
Si Si5 0.167297 0.217078 0.141561
Si Si6 0.489471 0.033119 0.212580
Si Si7 0.075516 0.449693 0.577094
O O1 0.704260 0.288021 0.805514
O O2 0.458450 0.060257 0.779555
O O3 0.463945 0.334113 0.960567
O O4 0.709101 0.390186 0.205429
O O5 0.361894 0.310118 0.600201
O O6 0.246222 0.146046 0.170621
O O7 0.287540 0.982964 0.208841
O O8 0.986801 0.950427 0.152231
O O9 0.262991 0.462958 0.074687
O O10 0.334374 0.403956 0.259112
O O11 0.631574 0.251733 0.478849
O O12 0.965147 0.430889 0.717693
O O13 0.062715 0.275195 0.321851
O O14 0.500000 0.000000 0.000000
O O15 0.000000 0.500000 0.500000
#
# Coordination Sequence:
#
# PCOD9021374 Si02
#       7
#     2   2   2   2   2   2   2
#     4  12  25  43  67  98 140 179 221 281 348 409
#     4  10  22  38  61 102 131 171 222 291 332 399
#     4  11  23  42  70  97 136 181 227 277 344 409
#     4  11  25  44  67  97 139 180 222 277 349 413
#     4  11  21  38  68 100 135 170 231 288 340 389
#     4  11  23  41  68  97 133 174 233 279 338 399
#     4  12  23  41  67 100 129 174 231 281 334 400
#
# _framework density 24.685957999999999
#
# number of rings (size 3 to 8) (size 9 to 14) (size 15 to 20)
#    0.000    0.857    2.857    5.143    2.000    1.143 
#    0.000    0.000    0.000    3.429    0.000    0.000 
#    0.000    0.000    0.000    0.000    0.000    0.000 
#
# Total GULP energy -78085.716170 kJ/mol
# GULP energy per Si atom -5577.551155 kJ/mol
# Density = 2.462977 g / cm^3
# Si number density = 24.685958 Si / 1000 Ang^3
#
#
#
# Elastic Constant Matrix: (Units=GPa)
#
#
# Indices 1 2 3 4 5 6 
#
# 1 68.4725 15.0935 23.3360 1.0796 -17.6507 6.6291
# 2 15.0935 93.9422 29.9710 -11.7867 -26.5149 3.9375
# 3 23.3360 29.9710 71.6947 3.4782 -3.0701 1.9870
# 4 1.0796 -11.7867 3.4782 26.8527 3.3533 -3.6934
# 5 -17.6507 -26.5149 -3.0701 3.3533 38.4147 1.6338
# 6 6.6291 3.9375 1.9870 -3.6934 1.6338 28.8957
#
#
#
# Elastic Compliance Matrix: (Units=1/GPa)
#
#
# Indices 1 2 3 4 5 6 
#
# 1 0.019492 0.001841 -0.006496 -0.001069 0.010013 -0.004979
# 2 0.001841 0.016838 -0.007414 0.006579 0.011387 -0.002010
# 3 -0.006496 -0.007414 0.019090 -0.004558 -0.006219 0.000957
# 4 -0.001069 0.006579 -0.004558 0.041463 -0.000146 0.004970
# 5 0.010013 0.011387 -0.006219 -0.000146 0.038246 -0.005602
# 6 -0.004979 -0.002010 0.000957 0.004970 -0.005602 0.036910
#
#
# Mechanical properties :
#
#
# Convention : Reuss Voigt Hill
#
# Bulk Modulus (GPa) = 31.96596 41.21226 36.58911
# Shear Modulus (GPa) = 24.20102 29.87989 27.04046
#
# Velocity S-wave (km/s) = 3.13446 3.48286 3.31324
# Velocity P-wave (km/s) = 5.10656 5.73625 5.43054
#
# Compressibility (1/GPa) = 0.03128328
#
# Stress axis : x y z
#
# Youngs Moduli (GPa) = 51.30220 59.39006 52.38371
#
# Poissons Ratio (x) = -0.10935 0.34027
# Poissons Ratio (y) = -0.09446 0.38837
# Poissons Ratio (z) = 0.33324 0.44032
#
# Static dielectric constant tensor:
#      x y z
#    x 2.132480 0.013990 -0.022360 
#    y 0.013990 1.978600 0.046040 
#    z -0.022360 0.046040 1.977460 
# 
# From -- ./inp_files/158447.got.cif
#   From: 2010.05.17/outbox.cif.g08.bks.cpg/sg2_80_cif.got.tgz:158447.got - 2010.06.03 11:33:40.
