data_PCOD9021651
_publ_section_title
;
Structure prediction by ZEFSAII (Michael W. Deem and Ramdas Pophale) SiO2 
 PCOD9021651
Probable space group: P -1
;
_chemical_formula_sum "Si O2"
_cell_formula_units_Z 15
_cell_length_a 9.313358
_cell_length_b 11.925015
_cell_length_c 14.565578
_cell_angle_alpha 40.487915
_cell_angle_beta 51.520081
_cell_angle_gamma 76.823153
_cell_volume 720.157501
_symmetry_space_group_name_H-M "P -1"
_symmetry_group_IT_number 2
_symmetry_cell_setting 'triclinic'
loop_
_space_group_symop_operation_xyz
x,y,z
-x,-y,-z
loop_
_atom_site_type_symbol
_atom_site_label
_atom_site_fract_x
_atom_site_fract_y
_atom_site_fract_z
Si Si1 0.500000 0.000000 0.000000
Si Si2 0.659755 0.917299 0.851320
Si Si3 0.496408 0.200916 0.676212
Si Si4 0.235275 0.874835 0.827867
Si Si5 0.180922 0.356536 0.749106
Si Si6 0.535374 0.713925 0.831919
Si Si7 0.145241 0.105793 0.572114
Si Si8 0.004884 0.701155 0.345156
O O1 0.239896 0.880510 0.150246
O O2 0.468823 0.187521 0.942777
O O3 0.586144 0.820671 0.843422
O O4 0.583905 0.091043 0.780370
O O5 0.902164 0.988778 0.714037
O O6 0.338596 0.266287 0.742645
O O7 0.690556 0.406383 0.437812
O O8 0.376425 0.048558 0.736505
O O9 0.338660 0.734702 0.861993
O O10 0.221045 0.971827 0.679011
O O11 0.004396 0.752133 0.037753
O O12 0.075402 0.313087 0.717505
O O13 0.717548 0.808649 0.625801
O O14 0.500000 0.500000 0.000000
O O15 0.145087 0.260652 0.549727
O O16 0.000000 0.500000 0.500000
#
# Coordination Sequence:
#
# PCOD9021651 Si02
#       8
#     1   2   2   2   2   2   2   2
#     4  10  22  38  64 104 130 166 216 270 358 384
#     4  10  23  42  70  93 139 172 218 286 336 410
#     4  10  22  40  64 102 139 177 215 277 343 420
#     4  11  24  45  69  95 139 179 227 293 335 406
#     4  11  22  39  68 102 138 182 224 268 364 397
#     4  11  26  46  70  93 129 187 233 279 340 406
#     4  11  24  44  66  98 131 180 230 277 346 396
#     4  11  23  38  66 101 142 173 225 288 329 413
#
# _framework density 20.828776000000001
#
# number of rings (size 3 to 8) (size 9 to 14) (size 15 to 20)
#    0.000    1.333    1.333    4.400    9.333    0.000 
#    2.400    0.667    0.000    0.000    0.000    0.000 
#    0.000    0.000    0.000    0.000    0.000    0.000 
#
# Total GULP energy -83642.421469 kJ/mol
# GULP energy per Si atom -5576.161431 kJ/mol
# Density = 2.078137 g / cm^3
# Si number density = 20.828776 Si / 1000 Ang^3
#
#
#
# Elastic Constant Matrix: (Units=GPa)
#
#
# Indices 1 2 3 4 5 6 
#
# 1 115.4288 27.6040 63.1928 -3.9798 11.3466 -25.7093
# 2 27.6040 94.1969 79.8516 17.8923 9.7762 -27.3472
# 3 63.1928 79.8516 63.9993 5.6063 -8.4451 22.6501
# 4 -3.9798 17.8923 5.6063 42.1200 -4.7559 12.0633
# 5 11.3466 9.7762 -8.4451 -4.7559 35.8193 -0.4371
# 6 -25.7093 -27.3472 22.6501 12.0633 -0.4371 21.3504
#
#
#
# Elastic Compliance Matrix: (Units=1/GPa)
#
#
# Indices 1 2 3 4 5 6 
#
# 1 0.007834 -0.007105 0.002656 0.004999 0.000683 -0.005296
# 2 -0.007105 0.003730 0.006504 0.000265 0.002670 -0.010773
# 3 0.002656 0.006504 -0.000785 -0.007556 -0.003603 0.016558
# 4 0.004999 0.000265 -0.007556 0.025028 -0.000111 0.000232
# 5 0.000683 0.002670 -0.003603 -0.000111 0.026214 0.008664
# 6 -0.005296 -0.010773 0.016558 0.000232 0.008664 0.009143
#
#
# Mechanical properties :
#
#
# Convention : Reuss Voigt Hill
#
# Bulk Modulus (GPa) = 67.16951 68.32466 67.74708
# Shear Modulus (GPa) = 69.42794 26.72306 48.07550
#
# Velocity S-wave (km/s) = 5.77971 3.58577 4.80951
# Velocity P-wave (km/s) = 8.76690 7.07233 7.96481
#
# Compressibility (1/GPa) = 0.01488771
#
# Stress axis : x y z
#
# Youngs Moduli (GPa) = 127.64744 268.10019 -1273.19222
#
# Poissons Ratio (x) = 1.90490 3.38182
# Poissons Ratio (y) = 0.90696 8.28030
# Poissons Ratio (z) = -0.33905 -1.74361
#
# Static dielectric constant tensor:
#      x y z
#    x 1.908430 0.154820 0.221810 
#    y 0.154820 2.018730 0.291130 
#    z 0.221810 0.291130 2.150250 
# 
# From -- ./inp_files/499847.got.cif
#   From: 2010.05.17/outbox.cif.g08.bks.cpg/sg2_250_cif.got.tgz:499847.got - 2010.06.03 11:33:40.
