data_PCOD9021647
_publ_section_title
;
Structure prediction by ZEFSAII (Michael W. Deem and Ramdas Pophale) SiO2 
 PCOD9021647
Probable space group: P -1
;
_chemical_formula_sum "Si O2"
_cell_formula_units_Z 13
_cell_length_a 12.126162
_cell_length_b 13.784360
_cell_length_c 7.179820
_cell_angle_alpha 137.559958
_cell_angle_beta 121.049822
_cell_angle_gamma 44.222139
_cell_volume 564.612608
_symmetry_space_group_name_H-M "P -1"
_symmetry_group_IT_number 2
_symmetry_cell_setting 'triclinic'
loop_
_space_group_symop_operation_xyz
x,y,z
-x,-y,-z
loop_
_atom_site_type_symbol
_atom_site_label
_atom_site_fract_x
_atom_site_fract_y
_atom_site_fract_z
Si Si1 0.536556 0.320397 0.021733
Si Si2 0.240132 0.956561 0.883930
Si Si3 0.500000 0.000000 0.000000
Si Si4 0.342619 0.701339 0.281620
Si Si5 0.362652 0.160944 0.729791
Si Si6 0.029384 0.435146 0.722988
Si Si7 0.915767 0.331263 0.170688
O O1 0.687989 0.184800 0.085301
O O2 0.474583 0.523526 0.254014
O O3 0.572345 0.261213 0.751809
O O4 0.396691 0.309380 0.957151
O O5 0.243745 0.856507 0.560289
O O6 0.369210 0.996765 0.010237
O O7 0.068051 0.129741 0.017587
O O8 0.368734 0.106903 0.870291
O O9 0.234251 0.660257 0.016085
O O10 0.195191 0.242332 0.602593
O O11 0.500000 0.000000 0.500000
O O12 0.051277 0.562032 0.795555
O O13 0.902761 0.417011 0.481851
O O14 0.000000 0.500000 0.000000
#
# Coordination Sequence:
#
# PCOD9021647 Si02
#       7
#     2   2   1   2   2   2   2
#     4  10  23  41  63  97 130 176 223 269 330 395
#     4  11  23  42  68  99 133 174 222 276 330 396
#     4  10  22  38  64 102 124 164 224 266 326 390
#     4  11  23  44  65  95 136 177 220 275 328 398
#     4  11  21  41  68  96 129 169 222 279 326 390
#     4  11  24  43  67  95 137 175 217 278 341 392
#     4  11  25  43  65  98 134 174 225 267 335 404
#
# _framework density 23.024633999999999
#
# number of rings (size 3 to 8) (size 9 to 14) (size 15 to 20)
#    0.000    1.231    1.538    4.615    0.000    4.308 
#   13.846    0.000    0.000    0.000    0.000    0.000 
#    0.000    0.000    0.000    0.000    0.000    0.000 
#
# Total GULP energy -72489.910490 kJ/mol
# GULP energy per Si atom -5576.146961 kJ/mol
# Density = 2.297223 g / cm^3
# Si number density = 23.024634 Si / 1000 Ang^3
#
#
#
# Elastic Constant Matrix: (Units=GPa)
#
#
# Indices 1 2 3 4 5 6 
#
# 1 45.1791 33.6019 14.5633 -1.8781 2.2878 7.2498
# 2 33.6019 144.5441 38.6179 -19.4916 -6.3821 7.3979
# 3 14.5633 38.6179 106.3316 -12.8138 -14.2046 9.3390
# 4 -1.8781 -19.4916 -12.8138 30.8142 -4.0703 -11.9998
# 5 2.2878 -6.3821 -14.2046 -4.0703 30.5401 -9.9046
# 6 7.2498 7.3979 9.3390 -11.9998 -9.9046 42.0911
#
#
#
# Elastic Compliance Matrix: (Units=1/GPa)
#
#
# Indices 1 2 3 4 5 6 
#
# 1 0.029746 -0.007215 -0.002909 -0.008025 -0.008598 -0.007521
# 2 -0.007215 0.009942 -0.001560 0.006694 0.003629 0.002604
# 3 -0.002909 -0.001560 0.011723 0.004975 0.006361 0.001089
# 4 -0.008025 0.006694 0.004975 0.046615 0.015747 0.016097
# 5 -0.008598 0.003629 0.006361 0.015747 0.043819 0.014232
# 6 -0.007521 0.002604 0.001089 0.016097 0.014232 0.032292
#
#
# Mechanical properties :
#
#
# Convention : Reuss Voigt Hill
#
# Bulk Modulus (GPa) = 35.65762 52.18010 43.91886
# Shear Modulus (GPa) = 24.17175 34.64054 29.40615
#
# Velocity S-wave (km/s) = 3.24361 3.88300 3.57761
# Velocity P-wave (km/s) = 5.43584 6.54335 6.01514
#
# Compressibility (1/GPa) = 0.02804450
#
# Stress axis : x y z
#
# Youngs Moduli (GPa) = 33.61751 100.58485 85.30188
#
# Poissons Ratio (x) = 0.72570 0.24813
# Poissons Ratio (y) = 0.24254 0.13306
# Poissons Ratio (z) = 0.09779 0.15689
#
# Static dielectric constant tensor:
#      x y z
#    x 1.840410 -0.005100 0.030810 
#    y -0.005100 1.864880 0.007280 
#    z 0.030810 0.007280 1.916130 
# 
# From -- ./inp_files/72617.got.cif
#   From: 2010.05.17/outbox.cif.g08.bks.cpg/sg2_37_cif.got.tgz:72617.got - 2010.06.03 11:33:40.
