data_PCOD9021940
_publ_section_title
;
Structure prediction by ZEFSAII (Michael W. Deem and Ramdas Pophale) SiO2 
 PCOD9021940
Probable space group: P -1
;
_chemical_formula_sum "Si O2"
_cell_formula_units_Z 16
_cell_length_a 11.582331
_cell_length_b 21.249686
_cell_length_c 18.285659
_cell_angle_alpha 28.010954
_cell_angle_beta 143.829470
_cell_angle_gamma 158.099370
_cell_volume 786.556633
_symmetry_space_group_name_H-M "P -1"
_symmetry_group_IT_number 2
_symmetry_cell_setting 'triclinic'
loop_
_space_group_symop_operation_xyz
x,y,z
-x,-y,-z
loop_
_atom_site_type_symbol
_atom_site_label
_atom_site_fract_x
_atom_site_fract_y
_atom_site_fract_z
Si Si1 0.654986 0.374567 0.462329
Si Si2 0.363333 0.960645 0.764785
Si Si3 0.638930 0.520756 0.851643
Si Si4 0.707893 0.462657 0.569249
Si Si5 0.137248 0.164160 0.696281
Si Si6 0.680050 0.844981 0.040291
Si Si7 0.734320 0.185120 0.871073
Si Si8 0.312602 0.302540 0.052862
O O1 0.559046 0.448243 0.288217
O O2 0.637031 0.420285 0.489759
O O3 0.000000 0.500000 0.500000
O O4 0.432930 0.131008 0.579643
O O5 0.542444 0.919421 0.879329
O O6 0.001352 0.743081 0.810615
O O7 0.520450 0.084218 0.794608
O O8 0.523128 0.388321 0.001907
O O9 0.557859 0.386240 0.879163
O O10 0.394151 0.296080 0.628312
O O11 0.899578 0.698173 0.444667
O O12 0.859742 0.400361 0.731226
O O13 0.263898 0.162846 0.837962
O O14 0.837634 0.918038 0.772186
O O15 0.000000 0.000000 0.000000
O O16 0.012489 0.232200 0.951772
O O17 0.500000 0.000000 0.000000
O O18 0.500000 0.500000 0.000000
#
# Coordination Sequence:
#
# PCOD9021940 Si02
#       8
#     2   2   2   2   2   2   2   2
#     4  11  23  41  67  96 133 176 224 273 333 397
#     4  11  24  38  63  95 130 170 215 280 329 392
#     4  12  24  41  62  99 133 170 224 275 333 397
#     4  10  22  38  67  95 127 174 222 264 330 396
#     4  11  22  41  65  95 130 174 217 270 331 398
#     4  12  21  42  67  93 129 174 225 269 332 399
#     4  11  19  40  64  91 126 170 222 263 329 399
#     4  12  25  41  66  96 130 172 220 278 333 399
#
# _framework density 20.341828
#
# number of rings (size 3 to 8) (size 9 to 14) (size 15 to 20)
#    0.000    0.750    5.000    3.750    1.750    0.000 
#    0.000    0.625    0.000    0.000    0.000    0.000 
#    0.000    0.000    0.000    0.000    0.000    0.000 
#
# Total GULP energy -89324.975852 kJ/mol
# GULP energy per Si atom -5582.810991 kJ/mol
# Density = 2.029553 g / cm^3
# Si number density = 20.341828 Si / 1000 Ang^3
#
#
#
# Elastic Constant Matrix: (Units=GPa)
#
#
# Indices 1 2 3 4 5 6 
#
# 1 90.1293 27.7813 34.8765 -13.9677 5.3632 2.6627
# 2 27.7813 86.3830 18.3390 -32.8560 2.6344 -7.4759
# 3 34.8765 18.3390 115.7598 -32.1742 27.1315 -6.3301
# 4 -13.9677 -32.8560 -32.1742 36.6620 -4.9079 1.4995
# 5 5.3632 2.6344 27.1315 -4.9079 48.6989 -5.0491
# 6 2.6627 -7.4759 -6.3301 1.4995 -5.0491 27.8509
#
#
#
# Elastic Compliance Matrix: (Units=1/GPa)
#
#
# Indices 1 2 3 4 5 6 
#
# 1 0.014007 -0.004949 -0.004573 -0.002888 0.000626 -0.003438
# 2 -0.004949 0.020256 0.004107 0.019601 -0.000268 0.005740
# 3 -0.004573 0.004107 0.014916 0.014061 -0.006297 0.003031
# 4 -0.002888 0.019601 0.014061 0.055540 -0.002429 0.005303
# 5 0.000626 -0.000268 -0.006297 -0.002429 0.024047 0.002927
# 6 -0.003438 0.005740 0.003031 0.005303 0.002927 0.038709
#
#
# Mechanical properties :
#
#
# Convention : Reuss Voigt Hill
#
# Bulk Modulus (GPa) = 26.07693 50.47399 38.27546
# Shear Modulus (GPa) = 26.16581 36.72738 31.44659
#
# Velocity S-wave (km/s) = 3.59040 4.25374 3.93607
# Velocity P-wave (km/s) = 5.48044 6.99946 6.28600
#
# Compressibility (1/GPa) = 0.03834808
#
# Stress axis : x y z
#
# Youngs Moduli (GPa) = 71.39228 49.36688 67.04426
#
# Poissons Ratio (x) = 0.24431 0.30662
# Poissons Ratio (y) = 0.35331 -0.27533
# Poissons Ratio (z) = 0.32650 -0.20273
#
# Static dielectric constant tensor:
#      x y z
#    x 1.729030 -0.019360 0.033080 
#    y -0.019360 1.698900 -0.012770 
#    z 0.033080 -0.012770 1.793130 
# 
# From -- ./inp_files/419953.got.cif
#   From: 2010.05.17/outbox.cif.g08.bks.cpg/sg2_210_cif.got.tgz:419953.got - 2010.06.03 11:33:40.
