data_PCOD9021294
_publ_section_title
;
Structure prediction by ZEFSAII (Michael W. Deem and Ramdas Pophale) SiO2 
 PCOD9021294
Probable space group: P -1
;
_chemical_formula_sum "Si O2"
_cell_formula_units_Z 15
_cell_length_a 14.974292
_cell_length_b 8.563022
_cell_length_c 8.244367
_cell_angle_alpha 65.361960
_cell_angle_beta 41.649724
_cell_angle_gamma 88.103112
_cell_volume 566.721079
_symmetry_space_group_name_H-M "P -1"
_symmetry_group_IT_number 2
_symmetry_cell_setting 'triclinic'
loop_
_space_group_symop_operation_xyz
x,y,z
-x,-y,-z
loop_
_atom_site_type_symbol
_atom_site_label
_atom_site_fract_x
_atom_site_fract_y
_atom_site_fract_z
Si Si1 0.336178 0.744860 0.260661
Si Si2 0.799704 0.385781 0.799243
Si Si3 0.796909 0.740501 0.824851
Si Si4 0.861033 0.145711 0.069072
Si Si5 0.500000 0.500000 0.000000
Si Si6 0.019933 0.118185 0.172074
Si Si7 0.467220 0.186905 0.776686
Si Si8 0.552712 0.820832 0.576053
O O1 0.362096 0.721411 0.425124
O O2 0.185186 0.634326 0.405403
O O3 0.444797 0.659355 0.074921
O O4 0.388485 0.970578 0.054129
O O5 0.889258 0.316358 0.829679
O O6 0.622974 0.232812 0.137021
O O7 0.805523 0.585952 0.758811
O O8 0.886445 0.950460 0.530322
O O9 0.625199 0.699937 0.089583
O O10 0.867749 0.744096 0.902793
O O11 0.950900 0.200175 0.092453
O O12 0.681246 0.015200 0.396790
O O13 0.905619 0.997488 0.975965
O O14 0.586227 0.651452 0.672227
O O15 0.438021 0.171142 0.633439
#
# Coordination Sequence:
#
# PCOD9021294 Si02
#       8
#     2   2   2   2   1   2   2   2
#     4  10  22  38  60 101 131 177 202 264 340 401
#     4  11  24  39  68 102 132 168 220 277 338 386
#     4  11  24  45  66  97 130 174 228 277 319 398
#     4  11  23  45  68  94 131 179 223 272 326 407
#     4  10  24  36  62  96 132 168 220 256 332 384
#     4  10  25  45  69  89 127 188 224 268 332 380
#     4  11  22  40  65  91 147 170 214 256 338 405
#     4  11  23  41  66 101 136 172 209 280 336 405
#
# _framework density 26.468046000000001
#
# number of rings (size 3 to 8) (size 9 to 14) (size 15 to 20)
#    0.000    1.333    2.667    2.000    9.333    4.267 
#    0.000    0.000    0.000    0.000    0.000    0.000 
#    0.000    0.000    0.000    0.000    0.000    0.000 
#
# Total GULP energy -83637.485078 kJ/mol
# GULP energy per Si atom -5575.832339 kJ/mol
# Density = 2.640780 g / cm^3
# Si number density = 26.468046 Si / 1000 Ang^3
#
#
#
# Elastic Constant Matrix: (Units=GPa)
#
#
# Indices 1 2 3 4 5 6 
#
# 1 241.0499 41.5902 31.0985 -15.6548 30.5576 29.4265
# 2 41.5902 94.0405 3.9852 -13.3101 4.6092 -4.1547
# 3 31.0985 3.9852 40.9792 -2.5923 3.2081 -1.5301
# 4 -15.6548 -13.3101 -2.5923 27.6319 -9.1225 -0.4210
# 5 30.5576 4.6092 3.2081 -9.1225 38.4076 -2.7982
# 6 29.4265 -4.1547 -1.5301 -0.4210 -2.7982 43.4476
#
#
#
# Elastic Compliance Matrix: (Units=1/GPa)
#
#
# Indices 1 2 3 4 5 6 
#
# 1 0.006394 -0.002586 -0.004400 0.000337 -0.004696 -0.005032
# 2 -0.002586 0.012536 0.001047 0.005371 0.001972 0.003166
# 3 -0.004400 0.001047 0.027744 0.001223 0.001652 0.004175
# 4 0.000337 0.005371 0.001223 0.042101 0.009081 0.001321
# 5 -0.004696 0.001972 0.001652 0.009081 0.031961 0.005573
# 6 -0.005032 0.003166 0.004175 0.001321 0.005573 0.027246
#
#
# Mechanical properties :
#
#
# Convention : Reuss Voigt Hill
#
# Bulk Modulus (GPa) = 28.73853 58.82417 43.78135
# Shear Modulus (GPa) = 29.16185 41.85714 35.50950
#
# Velocity S-wave (km/s) = 3.32290 3.98102 3.66676
# Velocity P-wave (km/s) = 5.06000 6.58819 5.87401
#
# Compressibility (1/GPa) = 0.03479649
#
# Stress axis : x y z
#
# Youngs Moduli (GPa) = 156.40568 79.76831 36.04442
#
# Poissons Ratio (x) = 0.20625 0.15858
# Poissons Ratio (y) = 0.40441 -0.03773
# Poissons Ratio (z) = 0.68811 -0.08349
#
# Static dielectric constant tensor:
#      x y z
#    x 2.315200 0.120790 0.163060 
#    y 0.120790 2.108110 0.182620 
#    z 0.163060 0.182620 2.387900 
# 
# From -- ./inp_files/294431.got.cif
#   From: 2010.05.17/outbox.cif.g08.bks.cpg/sg2_148_cif.got.tgz:294431.got - 2010.06.03 11:33:40.
