data_PCOD9021520
_publ_section_title
;
Structure prediction by ZEFSAII (Michael W. Deem and Ramdas Pophale) SiO2 
 PCOD9021520
Probable space group: P -1
;
_chemical_formula_sum "Si O2"
_cell_formula_units_Z 12
_cell_length_a 9.092393
_cell_length_b 21.467129
_cell_length_c 5.252808
_cell_angle_alpha 111.997839
_cell_angle_beta 55.041810
_cell_angle_gamma 141.787635
_cell_volume 513.969178
_symmetry_space_group_name_H-M "P -1"
_symmetry_group_IT_number 2
_symmetry_cell_setting 'triclinic'
loop_
_space_group_symop_operation_xyz
x,y,z
-x,-y,-z
loop_
_atom_site_type_symbol
_atom_site_label
_atom_site_fract_x
_atom_site_fract_y
_atom_site_fract_z
Si Si1 0.717310 0.709433 0.657614
Si Si2 0.140674 0.569691 0.220032
Si Si3 0.159108 0.938829 0.492083
Si Si4 0.599587 0.940169 0.058349
Si Si5 0.360072 0.430166 0.786598
Si Si6 0.126166 0.710438 0.250005
O O1 0.621840 0.644665 0.394220
O O2 0.458918 0.642607 0.989542
O O3 0.868719 0.821005 0.618959
O O4 0.943514 0.720604 0.557995
O O5 0.000000 0.500000 0.500000
O O6 0.040913 0.354886 0.942040
O O7 0.119582 0.643994 0.330132
O O8 0.000000 0.500000 0.000000
O O9 0.376109 0.937872 0.266716
O O10 0.227963 0.000103 0.767934
O O11 0.784318 0.001871 0.722816
O O12 0.420606 0.822647 0.069494
O O13 0.500000 0.500000 0.500000
O O14 0.500000 0.500000 0.000000
#
# Coordination Sequence:
#
# PCOD9021520 Si02
#       6
#     2   2   2   2   2   2
#     4   9  23  45  67  99 135 180 225 277 339 402
#     4  12  28  46  66  98 136 180 230 284 333 400
#     4   9  18  35  62  95 128 169 219 271 331 396
#     4   9  18  35  62  95 128 169 219 271 331 396
#     4  10  22  38  62  94 128 176 226 264 327 396
#     4   9  23  45  67  99 135 180 225 277 339 402
#
# _framework density 23.347701000000001
#
# number of rings (size 3 to 8) (size 9 to 14) (size 15 to 20)
#    1.000    1.333    0.000    1.000    0.000   11.333 
#    0.000    1.667    0.000    0.000    0.000    0.000 
#    0.000    0.000    0.000    0.000    0.000    0.000 
#
# Total GULP energy -67084.863633 kJ/mol
# GULP energy per Si atom -5590.405303 kJ/mol
# Density = 2.329456 g / cm^3
# Si number density = 23.347701 Si / 1000 Ang^3
#
#
#
# Elastic Constant Matrix: (Units=GPa)
#
#
# Indices 1 2 3 4 5 6 
#
# 1 90.7465 89.3283 89.0807 -4.2017 19.6924 -17.7975
# 2 89.3283 270.4646 103.1113 -18.7803 42.1661 -2.9661
# 3 89.0807 103.1113 119.8406 -22.7876 30.6651 -3.8160
# 4 -4.2017 -18.7803 -22.7876 31.5304 2.6945 12.9285
# 5 19.6924 42.1661 30.6651 2.6945 59.8699 6.5350
# 6 -17.7975 -2.9661 -3.8160 12.9285 6.5350 31.6158
#
#
#
# Elastic Compliance Matrix: (Units=1/GPa)
#
#
# Indices 1 2 3 4 5 6 
#
# 1 1.356109 -0.104159 -1.142007 -1.152524 0.148808 1.056325
# 2 -0.104159 0.013657 0.083368 0.088795 -0.013229 -0.080867
# 3 -1.142007 0.083368 0.976772 0.979844 -0.130238 -0.890919
# 4 -1.152524 0.088795 0.979844 1.025300 -0.131673 -0.914251
# 5 0.148808 -0.013229 -0.130238 -0.131673 0.037381 0.112926
# 6 1.056325 -0.080867 -0.890919 -0.914251 0.112926 0.861668
#
#
# Mechanical properties :
#
#
# Convention : Reuss Voigt Hill
#
# Bulk Modulus (GPa) = 47.75025 116.01025 81.88025
# Shear Modulus (GPa) = 0.75718 37.90530 19.33124
#
# Velocity S-wave (km/s) = 0.57010 4.03366 2.88057
# Velocity P-wave (km/s) = 4.57488 8.45516 6.79777
#
# Compressibility (1/GPa) = 0.02094230
#
# Stress axis : x y z
#
# Youngs Moduli (GPa) = 0.73740 73.22307 1.02378
#
# Poissons Ratio (x) = 7.62687 1.16916
# Poissons Ratio (y) = 0.07681 -0.08535
# Poissons Ratio (z) = 0.84212 -6.10449
#
# Static dielectric constant tensor:
#      x y z
#    x 1.929280 0.000850 -0.078090 
#    y 0.000850 1.868210 0.015090 
#    z -0.078090 0.015090 1.905740 
# 
# From -- ./inp_files/50700.got.cif
#   From: 2010.05.17/outbox.cif.g08.bks.cpg/sg2_26_cif.got.tgz:50700.got - 2010.06.03 11:33:40.
