data_PCOD9021260
_publ_section_title
;
Structure prediction by ZEFSAII (Michael W. Deem and Ramdas Pophale) SiO2 
 PCOD9021260
Probable space group: P -1
;
_chemical_formula_sum "Si O2"
_cell_formula_units_Z 16
_cell_length_a 10.120317
_cell_length_b 16.872921
_cell_length_c 9.040310
_cell_angle_alpha 57.212104
_cell_angle_beta 98.631417
_cell_angle_gamma 51.538166
_cell_volume 683.859878
_symmetry_space_group_name_H-M "P -1"
_symmetry_group_IT_number 2
_symmetry_cell_setting 'triclinic'
loop_
_space_group_symop_operation_xyz
x,y,z
-x,-y,-z
loop_
_atom_site_type_symbol
_atom_site_label
_atom_site_fract_x
_atom_site_fract_y
_atom_site_fract_z
Si Si1 0.637155 0.976756 0.669149
Si Si2 0.118822 0.354361 0.279392
Si Si3 0.821866 0.950606 0.178700
Si Si4 0.662278 0.383755 0.828930
Si Si5 0.676883 0.668279 0.399642
Si Si6 0.980237 0.700821 0.235220
Si Si7 0.275799 0.761811 0.289225
Si Si8 0.979568 0.222416 0.303139
O O1 0.841577 0.908003 0.675424
O O2 0.500000 0.000000 0.500000
O O3 0.420345 0.169501 0.501321
O O4 0.739115 0.843768 0.943045
O O5 0.123792 0.393427 0.405196
O O6 0.006565 0.317900 0.255737
O O7 0.000000 0.500000 0.000000
O O8 0.924122 0.888583 0.424642
O O9 0.886261 0.812868 0.249331
O O10 0.993025 0.922711 0.142058
O O11 0.526779 0.148539 0.909537
O O12 0.846905 0.339879 0.806467
O O13 0.396513 0.592891 0.548992
O O14 0.692700 0.270297 0.852154
O O15 0.721996 0.350020 0.047309
O O16 0.852414 0.490366 0.520857
O O17 0.478579 0.720581 0.406601
#
# Coordination Sequence:
#
# PCOD9021260 Si02
#       8
#     2   2   2   2   2   2   2   2
#     4   9  17  36  60  81 111 155 198 241 283 348
#     4  11  21  38  65  91 115 156 207 246 291 364
#     4  11  22  38  58  90 125 162 193 247 308 350
#     4   8  16  35  62  86 112 160 204 245 290 352
#     4  11  21  37  62  91 119 156 213 239 288 367
#     4   9  18  37  59  82 117 156 198 244 287 350
#     4   9  18  35  64  87 115 158 207 249 287 349
#     4  10  22  38  59  90 125 156 197 248 307 350
#
# _framework density 23.396606999999999
#
# number of rings (size 3 to 8) (size 9 to 14) (size 15 to 20)
#    0.000    2.250    1.250    4.125    0.000    1.000 
#    2.250    1.250    0.000    0.000    0.000    0.000 
#    0.000    0.000    0.000    0.000    0.000    0.000 
#
# Total GULP energy -89078.949482 kJ/mol
# GULP energy per Si atom -5567.434343 kJ/mol
# Density = 2.334335 g / cm^3
# Si number density = 23.396607 Si / 1000 Ang^3
#
#
#
# Elastic Constant Matrix: (Units=GPa)
#
#
# Indices 1 2 3 4 5 6 
#
# 1 54.4094 19.8392 27.4966 8.6797 -5.5099 13.9725
# 2 19.8392 98.8657 61.2466 2.7306 -0.5458 9.0786
# 3 27.4966 61.2466 176.4508 15.4003 15.0680 -0.7232
# 4 8.6797 2.7306 15.4003 47.4310 9.7191 4.4185
# 5 -5.5099 -0.5458 15.0680 9.7191 25.5792 9.1748
# 6 13.9725 9.0786 -0.7232 4.4185 9.1748 30.0918
#
#
#
# Elastic Compliance Matrix: (Units=1/GPa)
#
#
# Indices 1 2 3 4 5 6 
#
# 1 0.028535 -0.000499 -0.005391 -0.005422 0.017775 -0.017852
# 2 -0.000499 0.014053 -0.005311 0.000477 0.005219 -0.005797
# 3 -0.005391 -0.005311 0.009199 -0.000503 -0.009073 0.007167
# 4 -0.005422 0.000477 -0.000503 0.024233 -0.010823 0.002103
# 5 0.017775 0.005219 -0.009073 -0.010823 0.062343 -0.027465
# 6 -0.017852 -0.005797 0.007167 0.002103 -0.027465 0.051507
#
#
# Mechanical properties :
#
#
# Convention : Reuss Voigt Hill
#
# Bulk Modulus (GPa) = 34.03186 60.76563 47.39875
# Shear Modulus (GPa) = 22.51560 35.36330 28.93945
#
# Velocity S-wave (km/s) = 3.10553 3.89198 3.52079
# Velocity P-wave (km/s) = 5.23797 6.79890 6.06883
#
# Compressibility (1/GPa) = 0.02938423
#
# Stress axis : x y z
#
# Youngs Moduli (GPa) = 35.04443 71.15880 108.70683
#
# Poissons Ratio (x) = 0.03551 0.58608
# Poissons Ratio (y) = 0.01749 0.57736
# Poissons Ratio (z) = 0.18894 0.37794
#
# Static dielectric constant tensor:
#      x y z
#    x 2.055410 -0.048280 0.078250 
#    y -0.048280 1.884870 -0.082950 
#    z 0.078250 -0.082950 2.028170 
# 
# From -- ./inp_files/279233.got.cif
#   From: 2010.05.17/outbox.cif.g08.bks.cpg/sg2_140_cif.got.tgz:279233.got - 2010.06.03 11:33:40.
