data_PCOD9021913
_publ_section_title
;
Structure prediction by ZEFSAII (Michael W. Deem and Ramdas Pophale) SiO2 
 PCOD9021913
Probable space group: P -1
;
_chemical_formula_sum "Si O2"
_cell_formula_units_Z 16
_cell_length_a 11.105185
_cell_length_b 14.601832
_cell_length_c 8.810739
_cell_angle_alpha 74.922184
_cell_angle_beta 108.387309
_cell_angle_gamma 148.625437
_cell_volume 705.734889
_symmetry_space_group_name_H-M "P -1"
_symmetry_group_IT_number 2
_symmetry_cell_setting 'triclinic'
loop_
_space_group_symop_operation_xyz
x,y,z
-x,-y,-z
loop_
_atom_site_type_symbol
_atom_site_label
_atom_site_fract_x
_atom_site_fract_y
_atom_site_fract_z
Si Si1 0.959212 0.743995 0.261024
Si Si2 0.521627 0.492952 0.692044
Si Si3 0.710642 0.108522 0.247710
Si Si4 0.848608 0.312857 0.493473
Si Si5 0.213333 0.179449 0.214032
Si Si6 0.331908 0.196429 0.910297
Si Si7 0.651469 0.915073 0.528069
Si Si8 0.274268 0.949905 0.038141
O O1 0.047397 0.693382 0.339254
O O2 0.043352 0.829865 0.093634
O O3 0.694707 0.592505 0.268886
O O4 0.122696 0.906138 0.368766
O O5 0.500000 0.500000 0.500000
O O6 0.746459 0.690244 0.760590
O O7 0.485999 0.362005 0.791747
O O8 0.862077 0.264510 0.360180
O O9 0.684077 0.983056 0.348021
O O10 0.458950 0.002620 0.182613
O O11 0.794600 0.153757 0.090602
O O12 0.579585 0.176129 0.464780
O O13 0.000000 0.500000 0.500000
O O14 0.346649 0.193960 0.382479
O O15 0.319595 0.227669 0.066351
O O16 0.938071 0.978007 0.182374
O O17 0.402914 0.130624 0.975985
#
# Coordination Sequence:
#
# PCOD9021913 Si02
#       8
#     2   2   2   2   2   2   2   2
#     4  11  20  43  67  95 136 178 228 277 343 403
#     4  12  28  44  67 105 137 175 240 290 332 410
#     4  10  22  38  67 104 128 175 228 276 335 406
#     4  11  21  37  64 101 140 176 224 277 339 407
#     4  11  23  43  73  98 135 180 229 282 345 410
#     4  11  23  45  68  97 135 189 223 275 360 402
#     4  11  19  41  70  98 132 179 228 270 341 411
#     4  11  21  41  72  96 135 177 231 277 340 412
#
# _framework density 22.671402
#
# number of rings (size 3 to 8) (size 9 to 14) (size 15 to 20)
#    0.000    1.000    5.000    2.625    1.750    2.500 
#    0.000    0.625    0.000    0.000    0.000    0.000 
#    0.000    0.000    0.000    0.000    0.000    0.000 
#
# Total GULP energy -89353.105566 kJ/mol
# GULP energy per Si atom -5584.569098 kJ/mol
# Density = 2.261980 g / cm^3
# Si number density = 22.671402 Si / 1000 Ang^3
#
#
#
# Elastic Constant Matrix: (Units=GPa)
#
#
# Indices 1 2 3 4 5 6 
#
# 1 48.7146 16.0127 19.2148 -6.6404 19.0102 -2.4445
# 2 16.0127 80.2642 38.7662 -7.2537 1.5161 -28.3013
# 3 19.2148 38.7662 111.1291 -6.9930 2.2831 -18.8692
# 4 -6.6404 -7.2537 -6.9930 33.2189 -10.4451 6.6385
# 5 19.0102 1.5161 2.2831 -10.4451 48.0559 1.2063
# 6 -2.4445 -28.3013 -18.8692 6.6385 1.2063 33.6887
#
#
#
# Elastic Compliance Matrix: (Units=1/GPa)
#
#
# Indices 1 2 3 4 5 6 
#
# 1 0.027424 -0.004901 -0.003409 0.001286 -0.010154 -0.003927
# 2 -0.004901 0.020412 -0.003811 0.000115 0.001135 0.014594
# 3 -0.003409 -0.003811 0.011409 0.000647 0.000998 0.002778
# 4 0.001286 0.000115 0.000647 0.034004 0.007008 -0.006399
# 5 -0.010154 0.001135 0.000998 0.007008 0.026305 -0.001548
# 6 -0.003927 0.014594 0.002778 -0.006399 -0.001548 0.044532
#
#
# Mechanical properties :
#
#
# Convention : Reuss Voigt Hill
#
# Bulk Modulus (GPa) = 28.56910 43.12172 35.84541
# Shear Modulus (GPa) = 25.00032 34.06697 29.53365
#
# Velocity S-wave (km/s) = 3.32433 3.88060 3.61319
# Velocity P-wave (km/s) = 5.23103 6.25622 5.76645
#
# Compressibility (1/GPa) = 0.03500285
#
# Stress axis : x y z
#
# Youngs Moduli (GPa) = 36.46422 48.98990 87.64656
#
# Poissons Ratio (x) = 0.24010 0.29882
# Poissons Ratio (y) = 0.17871 0.33404
# Poissons Ratio (z) = 0.12432 0.18671
#
# Static dielectric constant tensor:
#      x y z
#    x 1.869270 -0.066000 0.072730 
#    y -0.066000 1.726190 -0.006840 
#    z 0.072730 -0.006840 1.903810 
# 
# From -- ./inp_files/272654.got.cif
#   From: 2010.05.17/outbox.cif.g08.bks.cpg/sg2_137_cif.got.tgz:272654.got - 2010.06.03 11:33:40.
