data_PCOD9021194
_publ_section_title
;
Structure prediction by ZEFSAII (Michael W. Deem and Ramdas Pophale) SiO2 
 PCOD9021194
Probable space group: P -1
;
_chemical_formula_sum "Si O2"
_cell_formula_units_Z 16
_cell_length_a 20.073416
_cell_length_b 7.901442
_cell_length_c 7.103265
_cell_angle_alpha 41.734684
_cell_angle_beta 64.232884
_cell_angle_gamma 58.688167
_cell_volume 638.568536
_symmetry_space_group_name_H-M "P -1"
_symmetry_group_IT_number 2
_symmetry_cell_setting 'triclinic'
loop_
_space_group_symop_operation_xyz
x,y,z
-x,-y,-z
loop_
_atom_site_type_symbol
_atom_site_label
_atom_site_fract_x
_atom_site_fract_y
_atom_site_fract_z
Si Si1 0.332320 0.409568 0.035912
Si Si2 0.954046 0.213428 0.145852
Si Si3 0.115243 0.242835 0.424168
Si Si4 0.419701 0.961412 0.059374
Si Si5 0.482350 0.572879 0.741817
Si Si6 0.124395 0.946503 0.307007
Si Si7 0.774923 0.091297 0.141263
Si Si8 0.374191 0.079606 0.597577
O O1 0.406697 0.501949 0.823852
O O2 0.340482 0.350770 0.297868
O O3 0.348431 0.130222 0.138418
O O4 0.252011 0.647409 0.906278
O O5 0.927351 0.449122 0.831338
O O6 0.057174 0.066133 0.677640
O O7 0.900196 0.268890 0.356271
O O8 0.042238 0.148794 0.161191
O O9 0.156344 0.106792 0.291406
O O10 0.173995 0.165900 0.589492
O O11 0.443773 0.637133 0.278638
O O12 0.399485 0.087784 0.772365
O O13 0.500000 0.000000 0.000000
O O14 0.500000 0.500000 0.000000
O O15 0.446844 0.894305 0.536058
O O16 0.179422 0.854813 0.138681
O O17 0.695109 0.047543 0.212095
#
# Coordination Sequence:
#
# PCOD9021194 Si02
#       8
#     2   2   2   2   2   2   2   2
#     4  10  22  38  57  88 126 163 221 263 333 405
#     4   9  21  44  69 101 135 173 233 296 332 404
#     4  10  22  42  66 100 135 177 229 285 341 408
#     4   9  19  38  64  89 118 167 217 283 330 392
#     4   8  17  36  58  85 117 152 212 268 325 379
#     4   9  22  41  67  96 134 178 226 284 347 398
#     4  11  25  41  60  94 134 185 217 278 341 420
#     4  10  22  38  58  90 129 168 217 274 333 412
#
# _framework density 25.056045000000001
#
# number of rings (size 3 to 8) (size 9 to 14) (size 15 to 20)
#    0.750    1.750    0.000    0.375    1.750    9.000 
#    0.000    8.750    0.000    0.000    0.000    0.000 
#    0.000    0.000    0.000    0.000    0.000    0.000 
#
# Total GULP energy -89344.762808 kJ/mol
# GULP energy per Si atom -5584.047675 kJ/mol
# Density = 2.499902 g / cm^3
# Si number density = 25.056045 Si / 1000 Ang^3
#
#
#
# Elastic Constant Matrix: (Units=GPa)
#
#
# Indices 1 2 3 4 5 6 
#
# 1 85.1933 28.1924 33.3676 11.4626 3.5719 0.8094
# 2 28.1924 102.3872 56.2960 10.9338 -8.5482 -6.1842
# 3 33.3676 56.2960 143.5760 -12.1132 10.1890 -7.1112
# 4 11.4626 10.9338 -12.1132 40.2553 1.3235 -5.5668
# 5 3.5719 -8.5482 10.1890 1.3235 29.9399 5.3830
# 6 0.8094 -6.1842 -7.1112 -5.5668 5.3830 21.4991
#
#
#
# Elastic Compliance Matrix: (Units=1/GPa)
#
#
# Indices 1 2 3 4 5 6 
#
# 1 0.014311 -0.001928 -0.003123 -0.004936 -0.000382 -0.003309
# 2 -0.001928 0.015040 -0.006509 -0.005880 0.007193 -0.001078
# 3 -0.003123 -0.006509 0.011605 0.007150 -0.006763 0.005629
# 4 -0.004936 -0.005880 0.007150 0.031714 -0.006865 0.010790
# 5 -0.000382 0.007193 -0.006763 -0.006865 0.040264 -0.012013
# 6 -0.003309 -0.001078 0.005629 0.010790 -0.012013 0.053991
#
#
# Mechanical properties :
#
#
# Convention : Reuss Voigt Hill
#
# Bulk Modulus (GPa) = 56.06795 62.98541 59.52668
# Shear Modulus (GPa) = 25.51142 32.55889 29.03515
#
# Velocity S-wave (km/s) = 3.19435 3.60869 3.40782
# Velocity P-wave (km/s) = 6.00256 6.52349 6.26844
#
# Compressibility (1/GPa) = 0.01783550
#
# Stress axis : x y z
#
# Youngs Moduli (GPa) = 69.87709 66.48954 86.16997
#
# Poissons Ratio (x) = 0.12818 0.26913
# Poissons Ratio (y) = 0.13471 0.56089
# Poissons Ratio (z) = 0.21824 0.43278
#
# Static dielectric constant tensor:
#      x y z
#    x 2.004460 0.058850 -0.035330 
#    y 0.058850 2.070830 -0.041940 
#    z -0.035330 -0.041940 2.013920 
# 
# From -- ./inp_files/122767.got.cif
#   From: 2010.05.17/outbox.cif.g08.bks.cpg/sg2_62_cif.got.tgz:122767.got - 2010.06.03 11:33:40.
