data_PCOD9021595
_publ_section_title
;
Structure prediction by ZEFSAII (Michael W. Deem and Ramdas Pophale) SiO2 
 PCOD9021595
Probable space group: P -1
;
_chemical_formula_sum "Si O2"
_cell_formula_units_Z 16
_cell_length_a 18.643471
_cell_length_b 5.220095
_cell_length_c 12.202503
_cell_angle_alpha 114.058776
_cell_angle_beta 144.302395
_cell_angle_gamma 67.533035
_cell_volume 629.835718
_symmetry_space_group_name_H-M "P -1"
_symmetry_group_IT_number 2
_symmetry_cell_setting 'triclinic'
loop_
_space_group_symop_operation_xyz
x,y,z
-x,-y,-z
loop_
_atom_site_type_symbol
_atom_site_label
_atom_site_fract_x
_atom_site_fract_y
_atom_site_fract_z
Si Si1 0.370513 0.887441 0.932416
Si Si2 0.482186 0.580699 0.829450
Si Si3 0.852454 0.484935 0.837794
Si Si4 0.641117 0.950884 0.718877
Si Si5 0.900692 0.117076 0.640658
Si Si6 0.937525 0.410564 0.170620
Si Si7 0.565789 0.536228 0.703201
Si Si8 0.124918 0.136170 0.657232
O O1 0.372500 0.704365 0.791166
O O2 0.233776 0.939378 0.814192
O O3 0.463100 0.705018 0.095135
O O4 0.418094 0.185830 0.008642
O O5 0.463649 0.553385 0.673430
O O6 0.748910 0.757489 0.755039
O O7 0.821599 0.251853 0.668806
O O8 0.859566 0.407253 0.961172
O O9 0.000000 0.500000 0.000000
O O10 0.629526 0.812939 0.799836
O O11 0.500000 0.000000 0.500000
O O12 0.661287 0.276723 0.810788
O O13 0.954683 0.384198 0.694089
O O14 0.850447 0.908535 0.450187
O O15 0.010027 0.906905 0.792737
O O16 0.882826 0.564021 0.239894
O O17 0.500000 0.500000 0.500000
O O18 0.000000 0.000000 0.500000
#
# Coordination Sequence:
#
# PCOD9021595 Si02
#       8
#     2   2   2   2   2   2   2   2
#     4  10  23  41  65  94 128 179 213 284 321 400
#     4  10  22  42  65  95 131 167 232 264 337 389
#     4  10  23  43  66  98 132 175 220 274 333 401
#     4  10  23  41  63  97 132 174 221 272 335 395
#     4  10  22  41  61  89 132 169 212 264 327 394
#     4  10  22  38  63  93 127 165 216 266 322 390
#     4  10  22  40  65  98 132 172 216 275 333 399
#     4  10  23  42  65  98 133 170 221 269 341 395
#
# _framework density 25.403448000000001
#
# number of rings (size 3 to 8) (size 9 to 14) (size 15 to 20)
#    0.000    2.000    0.000    1.500    3.500   10.000 
#    0.000    5.000    0.000    0.000    0.000    0.000 
#    0.000    0.000    0.000    0.000    0.000    0.000 
#
# Total GULP energy -89222.214452 kJ/mol
# GULP energy per Si atom -5576.388403 kJ/mol
# Density = 2.534563 g / cm^3
# Si number density = 25.403448 Si / 1000 Ang^3
#
#
#
# Elastic Constant Matrix: (Units=GPa)
#
#
# Indices 1 2 3 4 5 6 
#
# 1 92.5144 54.9118 43.4196 -3.9025 -2.6877 -19.2067
# 2 54.9118 166.2562 33.0677 -18.4804 -2.7449 -26.3609
# 3 43.4196 33.0677 97.8814 8.2912 -21.6868 -27.6186
# 4 -3.9025 -18.4804 8.2912 42.7241 -18.0241 -6.9144
# 5 -2.6877 -2.7449 -21.6868 -18.0241 54.3600 0.9326
# 6 -19.2067 -26.3609 -27.6186 -6.9144 0.9326 56.2836
#
#
#
# Elastic Compliance Matrix: (Units=1/GPa)
#
#
# Indices 1 2 3 4 5 6 
#
# 1 0.016117 -0.004008 -0.005988 0.000302 -0.001707 0.000750
# 2 -0.004008 0.008375 -0.000253 0.004434 0.001544 0.002950
# 3 -0.005988 -0.000253 0.015808 -0.000408 0.005769 0.005450
# 4 0.000302 0.004434 -0.000408 0.030605 0.010128 0.005571
# 5 -0.001707 0.001544 0.005769 0.010128 0.023984 0.003818
# 6 0.000750 0.002950 0.005450 0.005571 0.003818 0.022700
#
#
# Mechanical properties :
#
#
# Convention : Reuss Voigt Hill
#
# Bulk Modulus (GPa) = 50.49506 68.82780 59.66143
# Shear Modulus (GPa) = 34.55732 45.69040 40.12386
#
# Velocity S-wave (km/s) = 3.69228 4.24558 3.97856
# Velocity P-wave (km/s) = 6.17233 7.15444 6.68145
#
# Compressibility (1/GPa) = 0.01980392
#
# Stress axis : x y z
#
# Youngs Moduli (GPa) = 62.04609 119.40367 63.25751
#
# Poissons Ratio (x) = 0.47858 0.37876
# Poissons Ratio (y) = 0.24868 0.01598
# Poissons Ratio (z) = 0.37150 0.03017
#
# Static dielectric constant tensor:
#      x y z
#    x 2.032130 -0.077590 0.001300 
#    y -0.077590 1.823870 -0.094430 
#    z 0.001300 -0.094430 1.805710 
# 
# From -- ./inp_files/468431.got.cif
#   From: 2010.05.17/outbox.cif.g08.bks.cpg/sg2_235_cif.got.tgz:468431.got - 2010.06.03 11:33:40.
