data_PCOD9021411
_publ_section_title
;
Structure prediction by ZEFSAII (Michael W. Deem and Ramdas Pophale) SiO2 
 PCOD9021411
Probable space group: P -1
;
_chemical_formula_sum "Si O2"
_cell_formula_units_Z 14
_cell_length_a 8.984650
_cell_length_b 8.281617
_cell_length_c 16.923723
_cell_angle_alpha 51.832703
_cell_angle_beta 56.777674
_cell_angle_gamma 46.130146
_cell_volume 697.653282
_symmetry_space_group_name_H-M "P -1"
_symmetry_group_IT_number 2
_symmetry_cell_setting 'triclinic'
loop_
_space_group_symop_operation_xyz
x,y,z
-x,-y,-z
loop_
_atom_site_type_symbol
_atom_site_label
_atom_site_fract_x
_atom_site_fract_y
_atom_site_fract_z
Si Si1 0.202875 0.154826 0.366273
Si Si2 0.033279 0.460002 0.909441
Si Si3 0.659396 0.573356 0.859796
Si Si4 0.060265 0.861759 0.694796
Si Si5 0.907589 0.344455 0.546395
Si Si6 0.757331 0.084232 0.027799
Si Si7 0.531546 0.193324 0.482103
O O1 0.264076 0.345569 0.262824
O O2 0.101547 0.114928 0.331930
O O3 0.032209 0.232583 0.462050
O O4 0.406315 0.916512 0.414964
O O5 0.091871 0.652678 0.806245
O O6 0.822640 0.529436 0.898069
O O7 0.208699 0.173392 0.929452
O O8 0.000000 0.500000 0.000000
O O9 0.421385 0.785911 0.890780
O O10 0.675927 0.316576 0.922823
O O11 0.280760 0.794696 0.614657
O O12 0.955070 0.145909 0.659776
O O13 0.666457 0.536117 0.542679
O O14 0.000000 0.500000 0.500000
O O15 0.000000 0.000000 0.000000
O O16 0.500000 0.000000 0.500000
#
# Coordination Sequence:
#
# PCOD9021411 Si02
#       7
#     2   2   2   2   2   2   2
#     4  10  22  38  61  91 119 156 203 247 296 364
#     4  10  22  40  60  90 123 157 202 250 302 358
#     4   9  20  40  62  88 120 158 206 243 300 360
#     4  10  23  40  58  89 122 157 205 246 299 362
#     4  11  21  38  60  85 124 155 198 251 298 355
#     4   9  19  39  61  86 121 156 201 250 294 359
#     4  11  21  39  59  88 120 155 198 246 303 360
#
# _framework density 20.067274999999999
#
# number of rings (size 3 to 8) (size 9 to 14) (size 15 to 20)
#    0.000    2.000    2.857    1.714    0.000    9.714 
#    7.714    0.000    0.000    0.000    0.000    0.000 
#    0.000    0.000    0.000    0.000    0.000    0.000 
#
# Total GULP energy -77947.939089 kJ/mol
# GULP energy per Si atom -5567.709935 kJ/mol
# Density = 2.002160 g / cm^3
# Si number density = 20.067275 Si / 1000 Ang^3
#
#
#
# Elastic Constant Matrix: (Units=GPa)
#
#
# Indices 1 2 3 4 5 6 
#
# 1 37.3848 15.6854 33.3588 -11.3318 -5.8384 -9.7349
# 2 15.6854 137.9947 60.9465 -34.9211 -5.3254 -20.4749
# 3 33.3588 60.9465 168.4467 -40.4641 -17.3770 0.9124
# 4 -11.3318 -34.9211 -40.4641 30.9750 6.6633 -7.3605
# 5 -5.8384 -5.3254 -17.3770 6.6633 25.5032 -3.3637
# 6 -9.7349 -20.4749 0.9124 -7.3605 -3.3637 36.7395
#
#
#
# Elastic Compliance Matrix: (Units=1/GPa)
#
#
# Indices 1 2 3 4 5 6 
#
# 1 0.039271 0.004365 -0.005311 0.015299 0.004455 0.016443
# 2 0.004365 0.013945 -0.001624 0.018256 -0.000304 0.012598
# 3 -0.005311 -0.001624 0.009892 0.008376 0.002916 -0.000613
# 4 0.015299 0.018256 0.008376 0.077033 -0.003260 0.029154
# 5 0.004455 -0.000304 0.002916 -0.003260 0.043570 0.004275
# 6 0.016443 0.012598 -0.000613 0.029154 0.004275 0.044844
#
#
# Mechanical properties :
#
#
# Convention : Reuss Voigt Hill
#
# Bulk Modulus (GPa) = 17.25078 62.64530 39.94804
# Shear Modulus (GPa) = 19.76143 34.23257 26.99700
#
# Velocity S-wave (km/s) = 3.14149 4.13472 3.67185
# Velocity P-wave (km/s) = 4.66624 7.35391 6.15848
#
# Compressibility (1/GPa) = 0.05796838
#
# Stress axis : x y z
#
# Youngs Moduli (GPa) = 25.46396 71.70915 101.09066
#
# Poissons Ratio (x) = -0.31301 0.53689
# Poissons Ratio (y) = -0.11115 0.16419
# Poissons Ratio (z) = 0.13524 0.11647
#
# Static dielectric constant tensor:
#      x y z
#    x 1.767730 -0.008020 -0.014160 
#    y -0.008020 1.826480 -0.057180 
#    z -0.014160 -0.057180 1.725250 
# 
# From -- ./inp_files/555886.got.cif
#   From: 2010.05.17/outbox.cif.g08.bks.cpg/sg2_278_cif.got.tgz:555886.got - 2010.06.03 11:33:40.
