data_PCOD9021075
_publ_section_title
;
Structure prediction by ZEFSAII (Michael W. Deem and Ramdas Pophale) SiO2 
 PCOD9021075
Probable space group: P -1
;
_chemical_formula_sum "Si O2"
_cell_formula_units_Z 16
_cell_length_a 14.044106
_cell_length_b 5.186125
_cell_length_c 11.793212
_cell_angle_alpha 83.402298
_cell_angle_beta 100.711005
_cell_angle_gamma 69.669218
_cell_volume 776.249639
_symmetry_space_group_name_H-M "P -1"
_symmetry_group_IT_number 2
_symmetry_cell_setting 'triclinic'
loop_
_space_group_symop_operation_xyz
x,y,z
-x,-y,-z
loop_
_atom_site_type_symbol
_atom_site_label
_atom_site_fract_x
_atom_site_fract_y
_atom_site_fract_z
Si Si1 0.822020 0.162763 0.918361
Si Si2 0.589704 0.187763 0.905789
Si Si3 0.116402 0.205285 0.451983
Si Si4 0.089771 0.096377 0.820309
Si Si5 0.251014 0.227636 0.696762
Si Si6 0.111004 0.372784 0.194050
Si Si7 0.095612 0.763333 0.626758
Si Si8 0.533328 0.179501 0.158807
O O1 0.705378 0.169050 0.905625
O O2 0.826583 0.444020 0.851827
O O3 0.882327 0.887145 0.869902
O O4 0.875836 0.110909 0.055902
O O5 0.510263 0.495534 0.833796
O O6 0.557792 0.944583 0.857804
O O7 0.574158 0.168521 0.038716
O O8 0.193574 0.242323 0.562308
O O9 0.152843 0.245460 0.333474
O O10 0.989547 0.376038 0.406614
O O11 0.110921 0.912875 0.508843
O O12 0.190855 0.129369 0.785900
O O13 0.005610 0.391133 0.829149
O O14 0.048743 0.971071 0.711227
O O15 0.211722 0.557341 0.699006
O O16 0.370633 0.029818 0.736885
#
# Coordination Sequence:
#
# PCOD9021075 Si02
#       8
#     2   2   2   2   2   2   2   2
#     4  12  26  43  66  90 133 178 211 257 310 385
#     4  10  22  42  63  94 125 156 211 265 326 379
#     4  10  23  39  58  95 127 174 217 254 311 377
#     4  11  24  39  60 100 130 166 216 255 318 382
#     4  11  22  37  68  95 129 163 204 281 319 372
#     4  12  26  41  63  91 135 183 212 244 302 393
#     4  10  22  37  66  88 136 166 208 276 313 366
#     4  10  22  39  68  95 122 155 203 277 332 368
#
# _framework density 20.611926
#
# number of rings (size 3 to 8) (size 9 to 14) (size 15 to 20)
#    0.000    1.250    2.500    2.625   10.500    1.000 
#    0.000    0.000    0.000    4.500    0.000    0.000 
#    0.000    0.000    0.000    0.000    0.000    0.000 
#
# Total GULP energy -89276.920382 kJ/mol
# GULP energy per Si atom -5579.807524 kJ/mol
# Density = 2.056501 g / cm^3
# Si number density = 20.611926 Si / 1000 Ang^3
#
#
#
# Elastic Constant Matrix: (Units=GPa)
#
#
# Indices 1 2 3 4 5 6 
#
# 1 74.8364 4.8904 35.4365 -7.0434 -6.8994 2.1530
# 2 4.8904 65.2199 34.1641 -6.8171 4.1902 2.2222
# 3 35.4365 34.1641 139.1902 -15.0951 -13.5439 3.7824
# 4 -7.0434 -6.8171 -15.0951 23.4391 -0.7359 0.0252
# 5 -6.8994 4.1902 -13.5439 -0.7359 32.9284 -14.2550
# 6 2.1530 2.2222 3.7824 0.0252 -14.2550 27.4763
#
#
#
# Elastic Compliance Matrix: (Units=1/GPa)
#
#
# Indices 1 2 3 4 5 6 
#
# 1 0.015461 0.000952 -0.003730 0.002574 0.001683 0.000096
# 2 0.000952 0.018655 -0.005041 0.002284 -0.005910 -0.003958
# 3 -0.003730 -0.005041 0.010258 0.004174 0.004981 0.001868
# 4 0.002574 0.002284 0.004174 0.046893 0.003326 0.000721
# 5 0.001683 -0.005910 0.004981 0.003326 0.043137 0.022037
# 6 0.000096 -0.003958 0.001868 0.000721 0.022037 0.047883
#
#
# Mechanical properties :
#
#
# Convention : Reuss Voigt Hill
#
# Bulk Modulus (GPa) = 34.79882 47.58094 41.18988
# Shear Modulus (GPa) = 24.09594 30.41912 27.25753
#
# Velocity S-wave (km/s) = 3.42282 3.84578 3.64045
# Velocity P-wave (km/s) = 5.70442 6.54632 6.13982
#
# Compressibility (1/GPa) = 0.02873661
#
# Stress axis : x y z
#
# Youngs Moduli (GPa) = 64.67907 53.60391 97.48648
#
# Poissons Ratio (x) = -0.05103 0.36358
# Poissons Ratio (y) = -0.06157 0.49144
# Poissons Ratio (z) = 0.24122 0.27022
#
# Static dielectric constant tensor:
#      x y z
#    x 1.751900 0.018750 0.010690 
#    y 0.018750 1.826330 -0.012920 
#    z 0.010690 -0.012920 1.755120 
# 
# From -- ./inp_files/92398.got.cif
#   From: 2010.05.17/outbox.cif.g08.bks.cpg/sg2_47_cif.got.tgz:92398.got - 2010.06.03 11:33:40.
