data_PCOD9021235
_publ_section_title
;
Structure prediction by ZEFSAII (Michael W. Deem and Ramdas Pophale) SiO2 
 PCOD9021235
Probable space group: P -1
;
_chemical_formula_sum "Si O2"
_cell_formula_units_Z 16
_cell_length_a 8.838716
_cell_length_b 21.911864
_cell_length_c 8.685435
_cell_angle_alpha 146.403910
_cell_angle_beta 109.751508
_cell_angle_gamma 54.603901
_cell_volume 718.738157
_symmetry_space_group_name_H-M "P -1"
_symmetry_group_IT_number 2
_symmetry_cell_setting 'triclinic'
loop_
_space_group_symop_operation_xyz
x,y,z
-x,-y,-z
loop_
_atom_site_type_symbol
_atom_site_label
_atom_site_fract_x
_atom_site_fract_y
_atom_site_fract_z
Si Si1 0.413539 0.742177 0.460544
Si Si2 0.699615 0.894453 0.260539
Si Si3 0.800956 0.447089 0.437585
Si Si4 0.074874 0.857187 0.800343
Si Si5 0.776031 0.646608 0.609845
Si Si6 0.702421 0.968758 0.062038
Si Si7 0.565959 0.330405 0.021687
Si Si8 0.175110 0.939088 0.312730
O O1 0.251370 0.746471 0.521505
O O2 0.600166 0.705062 0.550062
O O3 0.315524 0.893363 0.680747
O O4 0.464660 0.655987 0.143353
O O5 0.500000 0.000000 0.500000
O O6 0.718055 0.928447 0.160727
O O7 0.836408 0.928689 0.466814
O O8 0.728814 0.753700 0.954518
O O9 0.797545 0.520718 0.435025
O O10 0.742340 0.345412 0.159386
O O11 0.629170 0.555264 0.718019
O O12 0.016589 0.388558 0.455629
O O13 0.160396 0.864842 0.007512
O O14 0.000000 0.000000 0.000000
O O15 0.886234 0.859976 0.790647
O O16 0.500000 0.000000 0.000000
O O17 0.631651 0.183467 0.793441
O O18 0.000000 0.000000 0.500000
#
# Coordination Sequence:
#
# PCOD9021235 Si02
#       8
#     2   2   2   2   2   2   2   2
#     4  11  22  41  67  95 129 166 214 270 332 381
#     4  12  23  37  65  98 130 166 202 265 329 392
#     4  10  25  46  65  89 127 176 228 269 309 379
#     4  10  22  38  58  92 139 168 202 256 321 404
#     4  11  24  44  64  93 133 171 217 270 322 381
#     4  11  22  39  57  98 137 167 198 256 334 402
#     4  11  23  43  69  93 126 172 224 270 319 382
#     4  12  21  38  66  98 128 168 216 262 328 389
#
# _framework density 22.261237999999999
#
# number of rings (size 3 to 8) (size 9 to 14) (size 15 to 20)
#    0.000    1.000    3.750    3.750    1.750    1.000 
#    0.000    0.000    0.000    0.000    0.000    0.000 
#    0.000    0.000    0.000    0.000    0.000    0.000 
#
# Total GULP energy -89285.211788 kJ/mol
# GULP energy per Si atom -5580.325737 kJ/mol
# Density = 2.221057 g / cm^3
# Si number density = 22.261238 Si / 1000 Ang^3
#
#
#
# Elastic Constant Matrix: (Units=GPa)
#
#
# Indices 1 2 3 4 5 6 
#
# 1 146.7535 23.9644 31.1375 -12.8721 -19.7028 -8.1842
# 2 23.9644 65.8716 12.7804 0.1930 -5.7589 -0.0929
# 3 31.1375 12.7804 70.1146 -5.8227 -9.9189 -4.2326
# 4 -12.8721 0.1930 -5.8227 25.3193 5.0614 4.4698
# 5 -19.7028 -5.7589 -9.9189 5.0614 41.1506 2.8506
# 6 -8.1842 -0.0929 -4.2326 4.4698 2.8506 33.0993
#
#
#
# Elastic Compliance Matrix: (Units=1/GPa)
#
#
# Indices 1 2 3 4 5 6 
#
# 1 0.008430 -0.002333 -0.002632 0.002976 0.002632 0.001113
# 2 -0.002333 0.016513 -0.002028 -0.001864 0.000977 -0.000622
# 3 -0.002632 -0.002028 0.016309 0.001833 0.002093 0.001001
# 4 0.002976 -0.001864 0.001833 0.042917 -0.003358 -0.004541
# 5 0.002632 0.000977 0.002093 -0.003358 0.026679 -0.000923
# 6 0.001113 -0.000622 0.001001 -0.004541 -0.000923 0.031306
#
#
# Mechanical properties :
#
#
# Convention : Reuss Voigt Hill
#
# Bulk Modulus (GPa) = 36.67443 46.50048 41.58745
# Shear Modulus (GPa) = 30.26072 34.23769 32.24920
#
# Velocity S-wave (km/s) = 3.69093 3.92598 3.81027
# Velocity P-wave (km/s) = 5.88849 6.44089 6.17087
#
# Compressibility (1/GPa) = 0.02726696
#
# Stress axis : x y z
#
# Youngs Moduli (GPa) = 118.62360 60.55686 61.31409
#
# Poissons Ratio (x) = 0.14130 0.16136
# Poissons Ratio (y) = 0.27678 0.12434
# Poissons Ratio (z) = 0.31219 0.12281
#
# Static dielectric constant tensor:
#      x y z
#    x 2.181660 0.041160 -0.113360 
#    y 0.041160 1.878880 -0.031090 
#    z -0.113360 -0.031090 2.005150 
# 
# From -- ./inp_files/225745.got.cif
#   From: 2010.05.17/outbox.cif.g08.bks.cpg/sg2_113_cif.got.tgz:225745.got - 2010.06.03 11:33:40.
