data_PCOD9021821
_publ_section_title
;
Structure prediction by ZEFSAII (Michael W. Deem and Ramdas Pophale) SiO2 
 PCOD9021821
Probable space group: P -1
;
_chemical_formula_sum "Si O2"
_cell_formula_units_Z 16
_cell_length_a 13.135461
_cell_length_b 15.109400
_cell_length_c 5.664937
_cell_angle_alpha 78.781282
_cell_angle_beta 55.656297
_cell_angle_gamma 109.100819
_cell_volume 766.649174
_symmetry_space_group_name_H-M "P -1"
_symmetry_group_IT_number 2
_symmetry_cell_setting 'triclinic'
loop_
_space_group_symop_operation_xyz
x,y,z
-x,-y,-z
loop_
_atom_site_type_symbol
_atom_site_label
_atom_site_fract_x
_atom_site_fract_y
_atom_site_fract_z
Si Si1 0.224014 0.573588 0.450445
Si Si2 0.674940 0.052608 0.737030
Si Si3 0.929465 0.636359 0.475817
Si Si4 0.439154 0.573186 0.466841
Si Si5 0.904649 0.300202 0.272541
Si Si6 0.632790 0.627267 0.804114
Si Si7 0.488439 0.723093 0.711012
Si Si8 0.623826 0.970642 0.346299
O O1 0.127830 0.488698 0.419754
O O2 0.290551 0.515098 0.540387
O O3 0.140576 0.613058 0.693917
O O4 0.367352 0.678508 0.099098
O O5 0.763493 0.180383 0.539352
O O6 0.704863 0.011878 0.472441
O O7 0.500000 0.000000 0.000000
O O8 0.709362 0.019664 0.962275
O O9 0.785395 0.642081 0.646574
O O10 0.004272 0.679018 0.611849
O O11 0.023732 0.689682 0.084215
O O12 0.500000 0.500000 0.500000
O O13 0.404092 0.635631 0.665739
O O14 0.576444 0.658908 0.089340
O O15 0.617967 0.700279 0.595219
O O16 0.500000 0.500000 0.000000
O O17 0.546517 0.843127 0.509441
O O18 0.500000 0.000000 0.500000
#
# Coordination Sequence:
#
# PCOD9021821 Si02
#       8
#     2   2   2   2   2   2   2   2
#     4  11  24  39  62 100 145 182 225 267 335 430
#     4  10  22  44  66  91 129 167 226 283 336 393
#     4  12  26  44  66  98 147 184 222 273 340 420
#     4  11  21  36  66  96 138 177 236 276 324 387
#     4  12  28  43  68 100 139 187 221 276 361 409
#     4  11  22  42  63  99 133 187 232 275 322 403
#     4  11  23  37  71 102 134 178 234 287 335 391
#     4  10  22  38  66 100 130 162 220 293 344 381
#
# _framework density 20.870042000000002
#
# number of rings (size 3 to 8) (size 9 to 14) (size 15 to 20)
#    0.000    1.000    3.750    3.000   14.000    0.000 
#    0.000    0.000    0.000    4.500    0.000    0.000 
#    0.000    0.000    0.000    0.000    0.000    0.000 
#
# Total GULP energy -89107.120686 kJ/mol
# GULP energy per Si atom -5569.195043 kJ/mol
# Density = 2.082254 g / cm^3
# Si number density = 20.870042 Si / 1000 Ang^3
#
#
#
# Elastic Constant Matrix: (Units=GPa)
#
#
# Indices 1 2 3 4 5 6 
#
# 1 108.8728 35.7697 37.6378 7.5440 -0.5587 2.1194
# 2 35.7697 86.7538 34.2960 -11.9065 8.8070 -3.2923
# 3 37.6378 34.2960 114.9756 5.1508 8.8649 3.7943
# 4 7.5440 -11.9065 5.1508 41.4144 5.6978 11.8306
# 5 -0.5587 8.8070 8.8649 5.6978 33.3774 5.9361
# 6 2.1194 -3.2923 3.7943 11.8306 5.9361 30.3629
#
#
#
# Elastic Compliance Matrix: (Units=1/GPa)
#
#
# Indices 1 2 3 4 5 6 
#
# 1 0.011850 -0.004646 -0.002541 -0.003502 0.002729 -0.000183
# 2 -0.004646 0.016089 -0.003227 0.006247 -0.004703 0.000958
# 3 -0.002541 -0.003227 0.010705 -0.001381 -0.001684 -0.000643
# 4 -0.003502 0.006247 -0.001381 0.030188 -0.004762 -0.009737
# 5 0.002729 -0.004703 -0.001684 -0.004762 0.033426 -0.005170
# 6 -0.000183 0.000958 -0.000643 -0.009737 -0.005170 0.037937
#
#
# Mechanical properties :
#
#
# Convention : Reuss Voigt Hill
#
# Bulk Modulus (GPa) = 56.12937 58.44547 57.28742
# Shear Modulus (GPa) = 29.94681 34.55752 32.25216
#
# Velocity S-wave (km/s) = 3.79214 4.07362 3.93540
# Velocity P-wave (km/s) = 6.79168 7.08457 6.93967
#
# Compressibility (1/GPa) = 0.01781598
#
# Stress axis : x y z
#
# Youngs Moduli (GPa) = 84.38792 62.15283 93.41563
#
# Poissons Ratio (x) = 0.28876 0.23735
# Poissons Ratio (y) = 0.39207 0.30148
# Poissons Ratio (z) = 0.21442 0.20058
#
# Static dielectric constant tensor:
#      x y z
#    x 2.081290 0.194950 0.241740 
#    y 0.194950 1.838520 0.128230 
#    z 0.241740 0.128230 1.914600 
# 
# From -- ./inp_files/96959.got.cif
#   From: 2010.05.17/outbox.cif.g08.bks.cpg/sg2_49_cif.got.tgz:96959.got - 2010.06.03 11:33:40.
