data_PCOD9021778
_publ_section_title
;
Structure prediction by ZEFSAII (Michael W. Deem and Ramdas Pophale) SiO2 
 PCOD9021778
Probable space group: P -1
;
_chemical_formula_sum "Si O2"
_cell_formula_units_Z 12
_cell_length_a 12.824389
_cell_length_b 15.447251
_cell_length_c 9.279005
_cell_angle_alpha 37.492585
_cell_angle_beta 136.508098
_cell_angle_gamma 152.260333
_cell_volume 519.010552
_symmetry_space_group_name_H-M "P -1"
_symmetry_group_IT_number 2
_symmetry_cell_setting 'triclinic'
loop_
_space_group_symop_operation_xyz
x,y,z
-x,-y,-z
loop_
_atom_site_type_symbol
_atom_site_label
_atom_site_fract_x
_atom_site_fract_y
_atom_site_fract_z
Si Si1 0.963516 0.680911 0.470739
Si Si2 0.246638 0.969979 0.113400
Si Si3 0.564265 0.597976 0.275489
Si Si4 0.622810 0.213628 0.698863
Si Si5 0.099172 0.202975 0.245299
Si Si6 0.829684 0.206287 0.175867
O O1 0.804174 0.698068 0.342036
O O2 0.794510 0.457885 0.512104
O O3 0.161688 0.870262 0.317194
O O4 0.071579 0.684036 0.716737
O O5 0.334122 0.891748 0.221015
O O6 0.031466 0.873710 0.933347
O O7 0.418349 0.220076 0.954692
O O8 0.500000 0.500000 0.500000
O O9 0.365671 0.397761 0.242712
O O10 0.355056 0.047452 0.647966
O O11 0.690269 0.222360 0.920470
O O12 0.022875 0.282500 0.164488
O O13 0.000000 0.000000 0.500000
#
# Coordination Sequence:
#
# PCOD9021778 Si02
#       6
#     2   2   2   2   2   2
#     4  12  24  42  65  95 130 164 208 263 316 366
#     4  11  26  42  62  98 130 162 208 264 317 367
#     4  12  24  40  69  93 124 166 215 256 310 374
#     4  10  24  41  66  92 128 168 212 251 314 379
#     4  11  21  40  65  92 126 165 211 258 307 373
#     4  10  22  38  65  94 124 162 218 254 306 371
#
# _framework density 23.120918
#
# number of rings (size 3 to 8) (size 9 to 14) (size 15 to 20)
#    0.000    1.000    3.333    2.500    4.667    5.333 
#    0.000    0.000    0.000    0.000    0.000    0.000 
#    0.000    0.000    0.000    0.000    0.000    0.000 
#
# Total GULP energy -67131.414109 kJ/mol
# GULP energy per Si atom -5594.284509 kJ/mol
# Density = 2.306829 g / cm^3
# Si number density = 23.120918 Si / 1000 Ang^3
#
#
#
# Elastic Constant Matrix: (Units=GPa)
#
#
# Indices 1 2 3 4 5 6 
#
# 1 95.0858 14.5800 26.7360 -13.7547 -5.2868 2.1844
# 2 14.5800 108.8589 7.4302 -17.4517 1.3115 -4.8608
# 3 26.7360 7.4302 41.6738 -24.8402 -10.3431 -8.5473
# 4 -13.7547 -17.4517 -24.8402 47.9457 -5.1715 6.6506
# 5 -5.2868 1.3115 -10.3431 -5.1715 33.8586 -7.7010
# 6 2.1844 -4.8608 -8.5473 6.6506 -7.7010 29.9541
#
#
#
# Elastic Compliance Matrix: (Units=1/GPa)
#
#
# Indices 1 2 3 4 5 6 
#
# 1 0.013602 -0.001577 -0.011407 -0.002221 -0.002709 -0.004706
# 2 -0.001577 0.009991 0.002492 0.004357 0.001200 0.001789
# 3 -0.011407 0.002492 0.056246 0.026892 0.023351 0.017319
# 4 -0.002221 0.004357 0.026892 0.036711 0.014227 0.004049
# 5 -0.002709 0.001200 0.023351 0.014227 0.041696 0.014616
# 6 -0.004706 0.001789 0.017319 0.004049 0.014616 0.041818
#
#
# Mechanical properties :
#
#
# Convention : Reuss Voigt Hill
#
# Bulk Modulus (GPa) = 16.99063 38.12344 27.55704
# Shear Modulus (GPa) = 20.77565 35.47652 28.12608
#
# Velocity S-wave (km/s) = 3.00086 3.92138 3.49159
# Velocity P-wave (km/s) = 4.40130 6.08502 5.31032
#
# Compressibility (1/GPa) = 0.05885597
#
# Stress axis : x y z
#
# Youngs Moduli (GPa) = 73.51791 100.08860 17.77896
#
# Poissons Ratio (x) = 0.15782 0.20280
# Poissons Ratio (y) = 0.11592 -0.04430
# Poissons Ratio (z) = 0.83860 -0.24940
#
# Static dielectric constant tensor:
#      x y z
#    x 1.848760 -0.001690 0.042170 
#    y -0.001690 1.897740 -0.024070 
#    z 0.042170 -0.024070 1.918230 
# 
# From -- ./inp_files/21907.got.cif
#   From: 2010.05.17/outbox.cif.g08.bks.cpg/sg2_11_cif.got.tgz:21907.got - 2010.06.03 11:33:40.
