data_PCOD9021874
_publ_section_title
;
Structure prediction by ZEFSAII (Michael W. Deem and Ramdas Pophale) SiO2 
 PCOD9021874
Probable space group: P -1
;
_chemical_formula_sum "Si O2"
_cell_formula_units_Z 14
_cell_length_a 7.484908
_cell_length_b 13.782971
_cell_length_c 11.667521
_cell_angle_alpha 130.124121
_cell_angle_beta 126.094738
_cell_angle_gamma 38.256765
_cell_volume 561.050287
_symmetry_space_group_name_H-M "P -1"
_symmetry_group_IT_number 2
_symmetry_cell_setting 'triclinic'
loop_
_space_group_symop_operation_xyz
x,y,z
-x,-y,-z
loop_
_atom_site_type_symbol
_atom_site_label
_atom_site_fract_x
_atom_site_fract_y
_atom_site_fract_z
Si Si1 0.346087 0.803677 0.520558
Si Si2 0.497042 0.820205 0.242245
Si Si3 0.203555 0.725350 0.200430
Si Si4 0.579857 0.833514 0.019644
Si Si5 0.035231 0.204553 0.449242
Si Si6 0.732456 0.453272 0.312705
Si Si7 0.711946 0.806245 0.815940
O O1 0.160915 0.858558 0.376641
O O2 0.653326 0.622708 0.457938
O O3 0.472046 0.882106 0.681684
O O4 0.185200 0.777765 0.531880
O O5 0.383186 0.726624 0.170186
O O6 0.546769 0.793452 0.104084
O O7 0.773675 0.766138 0.381422
O O8 0.251819 0.018666 0.332644
O O9 0.412368 0.545539 0.207410
O O10 0.899426 0.779088 0.096583
O O11 0.315740 0.033114 0.051586
O O12 0.600949 0.762343 0.847365
O O13 0.850663 0.332314 0.372906
O O14 0.971916 0.352081 0.227561
#
# Coordination Sequence:
#
# PCOD9021874 Si02
#       7
#     2   2   2   2   2   2   2
#     4  10  22  38  66  95 124 163 215 264 311 372
#     4  11  22  38  66  97 129 166 212 267 308 380
#     4  10  24  41  68  93 130 162 215 263 321 363
#     4  11  24  45  62  95 133 170 210 261 316 387
#     4  11  21  37  66  99 127 163 218 262 316 370
#     4  10  22  41  65  93 127 167 212 266 314 376
#     4  11  23  42  66  90 132 172 210 258 324 376
#
# _framework density 24.953202000000001
#
# number of rings (size 3 to 8) (size 9 to 14) (size 15 to 20)
#    0.857    0.571    2.857    2.571    4.000    1.714 
#    2.571    2.857    0.000    0.000    0.000    0.000 
#    0.000    0.000    0.000    0.000    0.000    0.000 
#
# Total GULP energy -78173.424280 kJ/mol
# GULP energy per Si atom -5583.816020 kJ/mol
# Density = 2.489641 g / cm^3
# Si number density = 24.953202 Si / 1000 Ang^3
#
#
#
# Elastic Constant Matrix: (Units=GPa)
#
#
# Indices 1 2 3 4 5 6 
#
# 1 115.5165 8.4630 33.7861 -4.7545 -49.2838 -0.8576
# 2 8.4630 95.7013 24.1728 -22.6586 -11.8545 -4.6332
# 3 33.7861 24.1728 54.8123 -11.5240 -26.1973 -3.7642
# 4 -4.7545 -22.6586 -11.5240 31.5066 -1.2401 -12.6977
# 5 -49.2838 -11.8545 -26.1973 -1.2401 46.4645 -7.2416
# 6 -0.8576 -4.6332 -3.7642 -12.6977 -7.2416 35.8919
#
#
#
# Elastic Compliance Matrix: (Units=1/GPa)
#
#
# Indices 1 2 3 4 5 6 
#
# 1 0.018244 0.003912 0.000500 0.010315 0.022332 0.009148
# 2 0.003912 0.015709 -0.000714 0.015884 0.009678 0.009618
# 3 0.000500 -0.000714 0.033739 0.018622 0.022129 0.014511
# 4 0.010315 0.015884 0.018622 0.066690 0.032638 0.034428
# 5 0.022332 0.009678 0.022129 0.032638 0.065525 0.028871
# 6 0.009148 0.009618 0.014511 0.034428 0.028871 0.048848
#
#
# Mechanical properties :
#
#
# Convention : Reuss Voigt Hill
#
# Bulk Modulus (GPa) = 13.31783 44.31934 28.81858
# Shear Modulus (GPa) = 18.76956 36.07981 27.42468
#
# Velocity S-wave (km/s) = 2.74558 3.80662 3.31878
# Velocity P-wave (km/s) = 3.92424 6.09262 5.12444
#
# Compressibility (1/GPa) = 0.07508732
#
# Stress axis : x y z
#
# Youngs Moduli (GPa) = 54.81183 63.65940 29.63944
#
# Poissons Ratio (x) = -0.24903 -0.01481
# Poissons Ratio (y) = -0.21442 0.02115
# Poissons Ratio (z) = -0.02738 0.04542
#
# Static dielectric constant tensor:
#      x y z
#    x 1.940530 -0.002530 -0.017520 
#    y -0.002530 2.004990 0.036490 
#    z -0.017520 0.036490 2.119860 
# 
# From -- ./inp_files/403278.got.cif
#   From: 2010.05.17/outbox.cif.g08.bks.cpg/sg2_202_cif.got.tgz:403278.got - 2010.06.03 11:33:40.
