data_PCOD9021412
_publ_section_title
;
Structure prediction by ZEFSAII (Michael W. Deem and Ramdas Pophale) SiO2 
 PCOD9021412
Probable space group: P -1
;
_chemical_formula_sum "Si O2"
_cell_formula_units_Z 12
_cell_length_a 12.154490
_cell_length_b 8.477793
_cell_length_c 16.933762
_cell_angle_alpha 131.007056
_cell_angle_beta 157.091021
_cell_angle_gamma 48.921287
_cell_volume 504.257291
_symmetry_space_group_name_H-M "P -1"
_symmetry_group_IT_number 2
_symmetry_cell_setting 'triclinic'
loop_
_space_group_symop_operation_xyz
x,y,z
-x,-y,-z
loop_
_atom_site_type_symbol
_atom_site_label
_atom_site_fract_x
_atom_site_fract_y
_atom_site_fract_z
Si Si1 0.161247 0.096475 0.760781
Si Si2 0.556236 0.682656 0.850383
Si Si3 0.207312 0.165880 0.365181
Si Si4 0.558126 0.245960 0.941775
Si Si5 0.611996 0.420730 0.460333
Si Si6 0.284211 0.327850 0.627364
O O1 0.405426 0.166883 0.889409
O O2 0.858683 0.215629 0.568353
O O3 0.257938 0.844809 0.727982
O O4 0.210319 0.205260 0.913428
O O5 0.587694 0.645498 0.764535
O O6 0.526706 0.456471 0.795831
O O7 0.258334 0.386464 0.431330
O O8 0.191090 0.174334 0.451362
O O9 0.500000 0.000000 0.500000
O O10 0.892159 0.142529 0.120680
O O11 0.396725 0.216430 0.744953
O O12 0.500000 0.500000 0.000000
O O13 0.500000 0.500000 0.500000
O O14 0.000000 0.500000 0.500000
#
# Coordination Sequence:
#
# PCOD9021412 Si02
#       6
#     2   2   2   2   2   2
#     4  11  22  40  65  91 121 158 210 254 301 370
#     4  10  22  38  61  91 119 159 207 251 302 364
#     4  11  25  41  61  93 126 160 205 257 309 360
#     4  12  20  40  68  90 120 160 210 252 302 363
#     4  11  24  41  60  87 128 164 198 254 310 365
#     4  11  20  38  66  91 122 162 205 255 304 365
#
# _framework density 23.797374999999999
#
# number of rings (size 3 to 8) (size 9 to 14) (size 15 to 20)
#    0.000    1.000    5.000    1.500    0.000    6.667 
#    0.000    1.667    0.000    0.000    0.000    0.000 
#    0.000    0.000    0.000    0.000    0.000    0.000 
#
# Total GULP energy -67008.134606 kJ/mol
# GULP energy per Si atom -5584.011217 kJ/mol
# Density = 2.374321 g / cm^3
# Si number density = 23.797375 Si / 1000 Ang^3
#
#
#
# Elastic Constant Matrix: (Units=GPa)
#
#
# Indices 1 2 3 4 5 6 
#
# 1 120.2400 -1.1432 42.7515 2.5709 -35.9546 -12.7085
# 2 -1.1432 66.1088 26.6105 -13.9646 5.2407 11.5238
# 3 42.7515 26.6105 103.7745 -17.4495 -27.3757 2.3231
# 4 2.5709 -13.9646 -17.4495 42.2355 2.7936 11.6243
# 5 -35.9546 5.2407 -27.3757 2.7936 46.1691 -2.6661
# 6 -12.7085 11.5238 2.3231 11.6243 -2.6661 36.3115
#
#
#
# Elastic Compliance Matrix: (Units=1/GPa)
#
#
# Indices 1 2 3 4 5 6 
#
# 1 0.013335 -0.001512 -0.003840 -0.005666 0.009077 0.007873
# 2 -0.001512 0.021393 -0.005308 0.008302 -0.007845 -0.010213
# 3 -0.003840 -0.005308 0.015036 0.004750 0.006142 -0.001691
# 4 -0.005666 0.008302 0.004750 0.033511 -0.005493 -0.016053
# 5 0.009077 -0.007845 0.006142 -0.005493 0.034144 0.009539
# 6 0.007873 -0.010213 -0.001691 -0.016053 0.009539 0.039484
#
#
# Mechanical properties :
#
#
# Convention : Reuss Voigt Hill
#
# Bulk Modulus (GPa) = 35.15679 47.39565 41.27622
# Shear Modulus (GPa) = 26.63764 39.73684 33.18724
#
# Velocity S-wave (km/s) = 3.34930 4.09075 3.73845
# Velocity P-wave (km/s) = 5.45551 6.50168 6.00144
#
# Compressibility (1/GPa) = 0.02844400
#
# Stress axis : x y z
#
# Youngs Moduli (GPa) = 74.98946 46.74470 66.50565
#
# Poissons Ratio (x) = 0.07069 0.25540
# Poissons Ratio (y) = 0.11341 0.35298
# Poissons Ratio (z) = 0.28798 0.24810
#
# Static dielectric constant tensor:
#      x y z
#    x 1.958360 -0.000400 -0.034550 
#    y -0.000400 1.950580 0.073910 
#    z -0.034550 0.073910 1.882980 
# 
# From -- ./inp_files/374921.got.cif
#   From: 2010.05.17/outbox.cif.g08.bks.cpg/sg2_188_cif.got.tgz:374921.got - 2010.06.03 11:33:40.
