data_PCOD9021070
_publ_section_title
;
Structure prediction by ZEFSAII (Michael W. Deem and Ramdas Pophale) SiO2 
 PCOD9021070
Probable space group: P -1
;
_chemical_formula_sum "Si O2"
_cell_formula_units_Z 14
_cell_length_a 19.893855
_cell_length_b 15.881416
_cell_length_c 12.840903
_cell_angle_alpha 43.918027
_cell_angle_beta 153.372574
_cell_angle_gamma 156.415340
_cell_volume 606.757690
_symmetry_space_group_name_H-M "P -1"
_symmetry_group_IT_number 2
_symmetry_cell_setting 'triclinic'
loop_
_space_group_symop_operation_xyz
x,y,z
-x,-y,-z
loop_
_atom_site_type_symbol
_atom_site_label
_atom_site_fract_x
_atom_site_fract_y
_atom_site_fract_z
Si Si1 0.081675 0.940261 0.758653
Si Si2 0.666416 0.821276 0.724455
Si Si3 0.467665 0.511285 0.065495
Si Si4 0.646002 0.834508 0.280182
Si Si5 0.434702 0.089842 0.296395
Si Si6 0.093964 0.591094 0.667786
Si Si7 0.246566 0.961429 0.533878
O O1 0.312608 0.219655 0.849091
O O2 0.170562 0.973039 0.734251
O O3 0.196125 0.926757 0.014508
O O4 0.747446 0.765118 0.474527
O O5 0.467124 0.562055 0.710580
O O6 0.691089 0.921070 0.772246
O O7 0.562240 0.830622 0.474899
O O8 0.000000 0.000000 0.000000
O O9 0.500000 0.500000 0.000000
O O10 0.106819 0.291361 0.774604
O O11 0.739723 0.955176 0.413855
O O12 0.288083 0.615289 0.959555
O O13 0.772534 0.381920 0.470513
O O14 0.500000 0.000000 0.500000
O O15 0.308877 0.864007 0.727117
O O16 0.000000 0.500000 0.500000
#
# Coordination Sequence:
#
# PCOD9021070 Si02
#       7
#     2   2   2   2   2   2   2
#     4  11  22  42  68  98 135 178 234 273 338 402
#     4  10  22  37  66 103 133 175 227 281 328 401
#     4  11  17  38  69  96 125 179 231 269 327 407
#     4  11  24  40  66 102 135 178 221 285 337 410
#     4  12  24  43  72 102 134 179 235 282 337 408
#     4  12  23  44  69  97 134 182 228 277 348 408
#     4  11  21  39  65  97 139 171 221 273 342 401
#
# _framework density 23.073461999999999
#
# number of rings (size 3 to 8) (size 9 to 14) (size 15 to 20)
#    0.000    0.857    5.714    2.143    0.000    1.143 
#    0.000    5.000    0.000    0.000    0.000    0.000 
#    0.000    0.000    0.000    0.000    0.000    0.000 
#
# Total GULP energy -78268.164490 kJ/mol
# GULP energy per Si atom -5590.583178 kJ/mol
# Density = 2.302095 g / cm^3
# Si number density = 23.073462 Si / 1000 Ang^3
#
#
#
# Elastic Constant Matrix: (Units=GPa)
#
#
# Indices 1 2 3 4 5 6 
#
# 1 133.5368 16.4590 15.7340 -6.9809 -7.6511 18.2455
# 2 16.4590 72.2918 0.4854 -28.5493 -7.9681 8.0146
# 3 15.7340 0.4854 117.4790 -20.8107 7.6482 16.0953
# 4 -6.9809 -28.5493 -20.8107 40.0152 5.3779 -6.9506
# 5 -7.6511 -7.9681 7.6482 5.3779 40.8274 -2.7594
# 6 18.2455 8.0146 16.0953 -6.9506 -2.7594 22.7825
#
#
#
# Elastic Compliance Matrix: (Units=1/GPa)
#
#
# Indices 1 2 3 4 5 6 
#
# 1 0.008597 -0.001612 -0.000589 -0.001174 0.001148 -0.006121
# 2 -0.001612 0.020807 0.003313 0.015561 0.000850 -0.003519
# 3 -0.000589 0.003313 0.010944 0.007200 -0.002907 -0.006581
# 4 -0.001174 0.015561 0.007200 0.040531 -0.003716 0.002294
# 5 0.001148 0.000850 -0.002907 -0.003716 0.026102 0.002863
# 6 -0.006121 -0.003519 -0.006581 0.002294 0.002863 0.055730
#
#
# Mechanical properties :
#
#
# Convention : Reuss Voigt Hill
#
# Bulk Modulus (GPa) = 23.48909 43.18494 33.33701
# Shear Modulus (GPa) = 28.62445 40.10030 34.36237
#
# Velocity S-wave (km/s) = 3.52601 4.17338 3.86328
# Velocity P-wave (km/s) = 5.17486 6.47918 5.86340
#
# Compressibility (1/GPa) = 0.04257296
#
# Stress axis : x y z
#
# Youngs Moduli (GPa) = 116.31428 48.06108 91.37701
#
# Poissons Ratio (x) = 0.07747 0.05380
# Poissons Ratio (y) = 0.18749 -0.30275
# Poissons Ratio (z) = 0.06849 -0.15924
#
# Static dielectric constant tensor:
#      x y z
#    x 1.843960 0.020510 -0.000980 
#    y 0.020510 1.925040 -0.023820 
#    z -0.000980 -0.023820 1.969610 
# 
# From -- ./inp_files/263360.got.cif
#   From: 2010.05.17/outbox.cif.g08.bks.cpg/sg2_132_cif.got.tgz:263360.got - 2010.06.03 11:33:40.
