data_PCOD9021094
_publ_section_title
;
Structure prediction by ZEFSAII (Michael W. Deem and Ramdas Pophale) SiO2 
 PCOD9021094
Probable space group: P -1
;
_chemical_formula_sum "Si O2"
_cell_formula_units_Z 14
_cell_length_a 13.065368
_cell_length_b 7.687160
_cell_length_c 26.381191
_cell_angle_alpha 145.928665
_cell_angle_beta 157.272947
_cell_angle_gamma 36.446416
_cell_volume 563.403653
_symmetry_space_group_name_H-M "P -1"
_symmetry_group_IT_number 2
_symmetry_cell_setting 'triclinic'
loop_
_space_group_symop_operation_xyz
x,y,z
-x,-y,-z
loop_
_atom_site_type_symbol
_atom_site_label
_atom_site_fract_x
_atom_site_fract_y
_atom_site_fract_z
Si Si1 0.294435 0.276179 0.078562
Si Si2 0.712273 0.912629 0.855093
Si Si3 0.162763 0.548020 0.285139
Si Si4 0.014581 0.150637 0.212306
Si Si5 0.863304 0.820843 0.351464
Si Si6 0.447195 0.057647 0.548909
Si Si7 0.874342 0.171051 0.332258
O O1 0.322569 0.125162 0.110692
O O2 0.589476 0.371869 0.232439
O O3 0.000000 0.500000 0.000000
O O4 0.241224 0.016730 0.950517
O O5 0.720176 0.601653 0.749778
O O6 0.453194 0.152873 0.775388
O O7 0.000000 0.000000 0.000000
O O8 0.070816 0.289543 0.216363
O O9 0.379770 0.719013 0.453727
O O10 0.925228 0.851862 0.243071
O O11 0.981409 0.452670 0.307021
O O12 0.282035 0.904128 0.290847
O O13 0.879991 0.013820 0.352956
O O14 0.000000 0.000000 0.500000
O O15 0.160769 0.289847 0.484411
O O16 0.500000 0.000000 0.500000
#
# Coordination Sequence:
#
# PCOD9021094 Si02
#       7
#     2   2   2   2   2   2   2
#     4  11  25  43  63  93 135 175 212 262 324 386
#     4  11  22  38  64  98 126 163 218 268 314 385
#     4   9  20  39  69  89 130 158 221 265 326 369
#     4  11  22  41  67  92 129 173 211 264 328 381
#     4  10  22  37  66  99 126 162 218 269 318 378
#     4  10  22  40  65  94 125 172 213 262 324 384
#     4   8  22  41  67  88 133 169 211 269 323 378
#
# _framework density 24.848970000000001
#
# number of rings (size 3 to 8) (size 9 to 14) (size 15 to 20)
#    0.857    1.143    1.429    1.286    6.000    1.714 
#    2.571    2.143    0.000    0.000    0.000    0.000 
#    0.000    0.000    0.000    0.000    0.000    0.000 
#
# Total GULP energy -78120.356526 kJ/mol
# GULP energy per Si atom -5580.025466 kJ/mol
# Density = 2.479241 g / cm^3
# Si number density = 24.848970 Si / 1000 Ang^3
#
#
#
# Elastic Constant Matrix: (Units=GPa)
#
#
# Indices 1 2 3 4 5 6 
#
# 1 47.4793 24.2006 26.0299 -13.8127 -1.1779 -17.7954
# 2 24.2006 104.2685 50.3307 -27.0153 -2.9500 -22.3318
# 3 26.0299 50.3307 164.0068 -38.7210 -2.7492 -22.4658
# 4 -13.8127 -27.0153 -38.7210 49.1958 -13.2780 4.6038
# 5 -1.1779 -2.9500 -2.7492 -13.2780 33.0983 3.7062
# 6 -17.7954 -22.3318 -22.4658 4.6038 3.7062 34.8057
#
#
#
# Elastic Compliance Matrix: (Units=1/GPa)
#
#
# Indices 1 2 3 4 5 6 
#
# 1 0.028753 -0.002244 -0.000958 0.005418 0.001601 0.011755
# 2 -0.002244 0.013669 -0.001680 0.005769 0.002699 0.005488
# 3 -0.000958 -0.001680 0.008636 0.006042 0.002630 0.002928
# 4 0.005418 0.005769 0.006042 0.033128 0.013995 0.004499
# 5 0.001601 0.002699 0.002630 0.013995 0.036510 -0.001491
# 6 0.011755 0.005488 0.002928 0.004499 -0.001491 0.039716
#
#
# Mechanical properties :
#
#
# Convention : Reuss Voigt Hill
#
# Bulk Modulus (GPa) = 24.21660 57.43076 40.82368
# Shear Modulus (GPa) = 27.18272 37.76619 32.47445
#
# Velocity S-wave (km/s) = 3.31103 3.90273 3.61899
# Velocity P-wave (km/s) = 4.93801 6.59322 5.82471
#
# Compressibility (1/GPa) = 0.04129399
#
# Stress axis : x y z
#
# Youngs Moduli (GPa) = 34.77894 73.16034 115.78893
#
# Poissons Ratio (x) = 0.16417 0.11098
# Poissons Ratio (y) = 0.07805 0.19447
# Poissons Ratio (z) = 0.03333 0.12287
#
# Static dielectric constant tensor:
#      x y z
#    x 1.986440 -0.073980 0.038530 
#    y -0.073980 2.046160 0.019010 
#    z 0.038530 0.019010 2.056630 
# 
# From -- ./inp_files/623393.got.cif
#   From: 2010.05.17/outbox.cif.g08.bks.cpg/sg2_312_cif.got.tgz:623393.got - 2010.06.03 11:33:40.
