data_PCOD9021468
_publ_section_title
;
Structure prediction by ZEFSAII (Michael W. Deem and Ramdas Pophale) SiO2 
 PCOD9021468
Probable space group: P -1
;
_chemical_formula_sum "Si O2"
_cell_formula_units_Z 14
_cell_length_a 9.877486
_cell_length_b 7.373960
_cell_length_c 8.364358
_cell_angle_alpha 110.713581
_cell_angle_beta 95.146171
_cell_angle_gamma 77.276652
_cell_volume 555.808433
_symmetry_space_group_name_H-M "P -1"
_symmetry_group_IT_number 2
_symmetry_cell_setting 'triclinic'
loop_
_space_group_symop_operation_xyz
x,y,z
-x,-y,-z
loop_
_atom_site_type_symbol
_atom_site_label
_atom_site_fract_x
_atom_site_fract_y
_atom_site_fract_z
Si Si1 0.168719 0.168093 0.724622
Si Si2 0.395575 0.616267 0.813351
Si Si3 0.116590 0.728208 0.644864
Si Si4 0.699935 0.032022 0.600152
Si Si5 0.550955 0.031828 0.257364
Si Si6 0.695224 0.419572 0.847265
Si Si7 0.061857 0.487279 0.249845
O O1 0.124870 0.959326 0.698221
O O2 0.324174 0.158811 0.807551
O O3 0.803147 0.850726 0.471577
O O4 0.056294 0.360081 0.811126
O O5 0.269419 0.612171 0.680199
O O6 0.438590 0.824657 0.842226
O O7 0.541558 0.465522 0.767992
O O8 0.334263 0.599067 0.976011
O O9 0.086828 0.616196 0.447640
O O10 0.005297 0.693167 0.754415
O O11 0.604223 0.108361 0.457245
O O12 0.770788 0.204038 0.724050
O O13 0.601191 0.991355 0.719300
O O14 0.793135 0.562312 0.841980
#
# Coordination Sequence:
#
# PCOD9021468 Si02
#       7
#     2   2   2   2   2   2   2
#     4   9  18  38  59  90 120 140 188 257 279 355
#     4  10  23  41  56  78 127 148 202 241 275 354
#     4  10  22  38  62  88 116 155 191 246 295 342
#     4   9  18  34  61  86 113 147 196 233 303 329
#     4   8  18  36  59  90 110 151 189 249 290 338
#     4  11  23  38  57  85 113 166 189 237 294 343
#     4  11  22  37  64  89 116 151 197 238 306 341
#
# _framework density 25.188538000000001
#
# number of rings (size 3 to 8) (size 9 to 14) (size 15 to 20)
#    0.857    1.429    1.429    0.429    2.000    5.714 
#    0.000    2.857    0.000    0.000    0.000    0.000 
#    0.000    0.000    0.000    0.000    0.000    0.000 
#
# Total GULP energy -78202.460534 kJ/mol
# GULP energy per Si atom -5585.890038 kJ/mol
# Density = 2.513121 g / cm^3
# Si number density = 25.188538 Si / 1000 Ang^3
#
#
#
# Elastic Constant Matrix: (Units=GPa)
#
#
# Indices 1 2 3 4 5 6 
#
# 1 153.7716 35.5408 46.6839 -21.2287 -39.2826 17.7663
# 2 35.5408 71.8092 38.1744 -12.4575 -18.6217 10.5642
# 3 46.6839 38.1744 45.7432 -6.2162 -19.6860 0.7863
# 4 -21.2287 -12.4575 -6.2162 29.5762 5.6460 -11.0557
# 5 -39.2826 -18.6217 -19.6860 5.6460 50.2142 -17.8829
# 6 17.7663 10.5642 0.7863 -11.0557 -17.8829 49.3422
#
#
#
# Elastic Compliance Matrix: (Units=1/GPa)
#
#
# Indices 1 2 3 4 5 6 
#
# 1 0.011306 0.002610 -0.011127 0.005432 0.004234 -0.001701
# 2 0.002610 0.027669 -0.024752 0.006441 0.000098 -0.004991
# 3 -0.011127 -0.024752 0.056848 -0.004151 0.008646 0.010603
# 4 0.005432 0.006441 -0.004151 0.041659 0.002855 0.007100
# 5 0.004234 0.000098 0.008646 0.002855 0.029807 0.009760
# 6 -0.001701 -0.004991 0.010603 0.007100 0.009760 0.026907
#
#
# Mechanical properties :
#
#
# Convention : Reuss Voigt Hill
#
# Bulk Modulus (GPa) = 34.14680 56.90248 45.52464
# Shear Modulus (GPa) = 18.48463 35.88820 27.18641
#
# Velocity S-wave (km/s) = 2.71191 3.77872 3.28886
# Velocity P-wave (km/s) = 4.83651 6.45585 5.70394
#
# Compressibility (1/GPa) = 0.02928532
#
# Stress axis : x y z
#
# Youngs Moduli (GPa) = 88.44864 36.14146 17.59086
#
# Poissons Ratio (x) = -0.09433 0.19574
# Poissons Ratio (y) = -0.23086 0.43540
# Poissons Ratio (z) = 0.98419 0.89456
#
# Static dielectric constant tensor:
#      x y z
#    x 2.027610 -0.000190 0.016160 
#    y -0.000190 2.007750 -0.008470 
#    z 0.016160 -0.008470 1.996630 
# 
# From -- ./inp_files/154769.got.cif
#   From: 2010.05.17/outbox.cif.g08.bks.cpg/sg2_78_cif.got.tgz:154769.got - 2010.06.03 11:33:40.
