data_PCOD9021588
_publ_section_title
;
Structure prediction by ZEFSAII (Michael W. Deem and Ramdas Pophale) SiO2 
 PCOD9021588
Probable space group: P -1
;
_chemical_formula_sum "Si O2"
_cell_formula_units_Z 16
_cell_length_a 9.271937
_cell_length_b 8.522206
_cell_length_c 11.103137
_cell_angle_alpha 109.238226
_cell_angle_beta 117.228958
_cell_angle_gamma 54.432079
_cell_volume 632.129747
_symmetry_space_group_name_H-M "P -1"
_symmetry_group_IT_number 2
_symmetry_cell_setting 'triclinic'
loop_
_space_group_symop_operation_xyz
x,y,z
-x,-y,-z
loop_
_atom_site_type_symbol
_atom_site_label
_atom_site_fract_x
_atom_site_fract_y
_atom_site_fract_z
Si Si1 0.406933 0.734765 0.542030
Si Si2 0.075570 0.041437 0.917302
Si Si3 0.157499 0.286014 0.425047
Si Si4 0.446570 0.624788 0.888794
Si Si5 0.234228 0.590176 0.584459
Si Si6 0.695221 0.794258 0.030708
Si Si7 0.380196 0.104881 0.712960
Si Si8 0.700053 0.109005 0.722271
O O1 0.500000 0.500000 0.500000
O O2 0.217463 0.766321 0.545208
O O3 0.453709 0.874723 0.675714
O O4 0.392856 0.813321 0.422977
O O5 0.153627 0.187400 0.985795
O O6 0.877413 0.138545 0.795778
O O7 0.252203 0.835361 0.886064
O O8 0.000000 0.000000 0.000000
O O9 0.223955 0.434666 0.454188
O O10 0.938698 0.370542 0.386443
O O11 0.259582 0.194243 0.568437
O O12 0.213580 0.120564 0.309595
O O13 0.402647 0.539653 0.731059
O O14 0.500000 0.500000 0.000000
O O15 0.628580 0.644870 0.938550
O O16 0.741496 0.792282 0.189594
O O17 0.500000 0.000000 0.000000
O O18 0.547790 0.154648 0.780761
#
# Coordination Sequence:
#
# PCOD9021588 Si02
#       8
#     2   2   2   2   2   2   2   2
#     4  11  23  37  61  94 134 169 217 265 327 383
#     4  11  24  43  66  97 129 173 221 274 323 392
#     4  10  22  38  63  92 135 167 213 260 334 386
#     4  11  23  44  70  96 130 175 225 272 329 387
#     4  11  22  39  62  97 129 170 215 275 316 389
#     4  10  22  41  65  93 126 175 221 262 324 392
#     4  11  22  39  66  91 132 173 213 262 330 398
#     4  11  22  40  63  95 133 170 213 263 331 393
#
# _framework density 25.311259
#
# number of rings (size 3 to 8) (size 9 to 14) (size 15 to 20)
#    0.000    1.250    1.250    6.750    1.750    2.000 
#    0.000    0.625    0.000    0.000    0.000    0.000 
#    0.000    0.000    0.000    0.000    0.000    0.000 
#
# Total GULP energy -89256.673680 kJ/mol
# GULP energy per Si atom -5578.542105 kJ/mol
# Density = 2.525365 g / cm^3
# Si number density = 25.311259 Si / 1000 Ang^3
#
#
#
# Elastic Constant Matrix: (Units=GPa)
#
#
# Indices 1 2 3 4 5 6 
#
# 1 179.5262 32.9621 41.2811 18.1525 35.4713 48.1466
# 2 32.9621 61.4706 2.0116 23.6677 10.8733 18.5156
# 3 41.2811 2.0116 87.8222 14.3239 14.9156 10.5415
# 4 18.1525 23.6677 14.3239 32.5603 8.8201 3.2058
# 5 35.4713 10.8733 14.9156 8.8201 46.7632 7.3832
# 6 48.1466 18.5156 10.5415 3.2058 7.3832 39.5980
#
#
#
# Elastic Compliance Matrix: (Units=1/GPa)
#
#
# Indices 1 2 3 4 5 6 
#
# 1 0.010155 -0.000735 -0.002417 -0.001747 -0.004802 -0.010323
# 2 -0.000735 0.028233 0.004751 -0.020572 -0.001816 -0.011569
# 3 -0.002417 0.004751 0.014254 -0.007616 -0.002053 -0.002078
# 4 -0.001747 -0.020572 -0.007616 0.049645 -0.002438 0.010206
# 5 -0.004802 -0.001816 -0.002053 -0.002438 0.026160 0.002554
# 6 -0.010323 -0.011569 -0.002078 0.010206 0.002554 0.042466
#
#
# Mechanical properties :
#
#
# Convention : Reuss Voigt Hill
#
# Bulk Modulus (GPa) = 17.90805 53.48093 35.69449
# Shear Modulus (GPa) = 26.83432 40.62192 33.72812
#
# Velocity S-wave (km/s) = 3.25956 4.01046 3.65435
# Velocity P-wave (km/s) = 4.61051 6.52842 5.65142
#
# Compressibility (1/GPa) = 0.05584081
#
# Stress axis : x y z
#
# Youngs Moduli (GPa) = 98.47513 35.41965 70.15459
#
# Poissons Ratio (x) = 0.02602 0.16956
# Poissons Ratio (y) = 0.07235 -0.33331
# Poissons Ratio (z) = 0.23801 -0.16828
#
# Static dielectric constant tensor:
#      x y z
#    x 2.142560 -0.132130 0.068440 
#    y -0.132130 2.173890 -0.059220 
#    z 0.068440 -0.059220 2.203410 
# 
# From -- ./inp_files/383020.got.cif
#   From: 2010.05.17/outbox.cif.g08.bks.cpg/sg2_192_cif.got.tgz:383020.got - 2010.06.03 11:33:40.
