data_PCOD9021053
_publ_section_title
;
Structure prediction by ZEFSAII (Michael W. Deem and Ramdas Pophale) SiO2 
 PCOD9021053
Probable space group: P -1
;
_chemical_formula_sum "Si O2"
_cell_formula_units_Z 14
_cell_length_a 13.949490
_cell_length_b 5.137998
_cell_length_c 22.897067
_cell_angle_alpha 102.477085
_cell_angle_beta 160.121587
_cell_angle_gamma 78.535844
_cell_volume 544.784528
_symmetry_space_group_name_H-M "P -1"
_symmetry_group_IT_number 2
_symmetry_cell_setting 'triclinic'
loop_
_space_group_symop_operation_xyz
x,y,z
-x,-y,-z
loop_
_atom_site_type_symbol
_atom_site_label
_atom_site_fract_x
_atom_site_fract_y
_atom_site_fract_z
Si Si1 0.291179 0.102079 0.745639
Si Si2 0.162711 0.307603 0.211780
Si Si3 0.207614 0.275238 0.582235
Si Si4 0.198661 0.533083 0.799055
Si Si5 0.263205 0.839056 0.420229
Si Si6 0.148474 0.946676 0.879437
Si Si7 0.623827 0.235680 0.718557
O O1 0.346761 0.126782 0.709978
O O2 0.239921 0.402453 0.753643
O O3 0.002535 0.937168 0.578858
O O4 0.541169 0.964424 0.918932
O O5 0.922096 0.266533 0.120435
O O6 0.175827 0.545164 0.185442
O O7 0.447598 0.320314 0.414121
O O8 0.196112 0.030685 0.181499
O O9 0.450767 0.352194 0.679664
O O10 0.000000 0.500000 0.500000
O O11 0.150008 0.829798 0.808878
O O12 0.500000 0.500000 0.000000
O O13 0.963779 0.339859 0.683534
O O14 0.124805 0.871908 0.278150
O O15 0.379484 0.117125 0.529311
#
# Coordination Sequence:
#
# PCOD9021053 Si02
#       7
#     2   2   2   2   2   2   2
#     4  10  24  44  65 102 132 177 230 288 342 403
#     4  10  24  43  69 101 140 182 228 272 343 414
#     4  11  25  43  74  92 132 180 240 284 341 400
#     4  10  22  38  64  98 143 172 221 276 352 401
#     4  10  22  37  65  94 141 176 220 268 340 402
#     4  11  24  41  66 101 141 176 221 278 350 413
#     4  10  24  44  70  99 135 182 232 281 333 405
#
# _framework density 25.698235
#
# number of rings (size 3 to 8) (size 9 to 14) (size 15 to 20)
#    0.857    0.857    1.429    1.286   10.000    5.714 
#    0.000    1.429    0.000    0.000    0.000    0.000 
#    0.000    0.000    0.000    0.000    0.000    0.000 
#
# Total GULP energy -78125.993127 kJ/mol
# GULP energy per Si atom -5580.428081 kJ/mol
# Density = 2.563974 g / cm^3
# Si number density = 25.698235 Si / 1000 Ang^3
#
#
#
# Elastic Constant Matrix: (Units=GPa)
#
#
# Indices 1 2 3 4 5 6 
#
# 1 81.0754 13.8970 4.3503 10.0205 10.0690 -13.7714
# 2 13.8970 93.7552 -2.1913 7.0107 -6.9137 -5.5207
# 3 4.3503 -2.1913 75.1412 14.9007 -6.8699 -0.0406
# 4 10.0205 7.0107 14.9007 24.4782 1.8360 4.2286
# 5 10.0690 -6.9137 -6.8699 1.8360 27.2036 2.4975
# 6 -13.7714 -5.5207 -0.0406 4.2286 2.4975 36.9483
#
#
#
# Elastic Compliance Matrix: (Units=1/GPa)
#
#
# Indices 1 2 3 4 5 6 
#
# 1 0.015363 -0.001905 -0.000296 -0.006219 -0.006430 0.006587
# 2 -0.001905 0.011679 0.001654 -0.004102 0.004256 0.001218
# 3 -0.000296 0.001654 0.015956 -0.010631 0.005183 0.001021
# 4 -0.006219 -0.004102 -0.010631 0.052863 -0.004194 -0.008709
# 5 -0.006430 0.004256 0.005183 -0.004194 0.042193 -0.004127
# 6 0.006587 0.001218 0.001021 -0.008709 -0.004127 0.030979
#
#
# Mechanical properties :
#
#
# Convention : Reuss Voigt Hill
#
# Bulk Modulus (GPa) = 23.86430 31.34264 27.60347
# Shear Modulus (GPa) = 27.15971 33.32040 30.24006
#
# Velocity S-wave (km/s) = 3.25448 3.60474 3.43408
# Velocity P-wave (km/s) = 4.84032 5.43585 5.14671
#
# Compressibility (1/GPa) = 0.04190360
#
# Stress axis : x y z
#
# Youngs Moduli (GPa) = 65.09220 85.62021 62.67159
#
# Poissons Ratio (x) = 0.16314 0.01856
# Poissons Ratio (y) = 0.12403 -0.10366
# Poissons Ratio (z) = 0.01928 -0.14162
#
# Static dielectric constant tensor:
#      x y z
#    x 2.607990 0.229030 0.019770 
#    y 0.229030 2.500940 -0.131640 
#    z 0.019770 -0.131640 2.008120 
# 
# From -- ./inp_files/611185.got.cif
#   From: 2010.05.17/outbox.cif.g08.bks.cpg/sg2_306_cif.got.tgz:611185.got - 2010.06.03 11:33:40.
