data_PCOD9021916
_publ_section_title
;
Structure prediction by ZEFSAII (Michael W. Deem and Ramdas Pophale) SiO2 
 PCOD9021916
Probable space group: P -1
;
_chemical_formula_sum "Si O2"
_cell_formula_units_Z 11
_cell_length_a 8.501383
_cell_length_b 11.009606
_cell_length_c 5.402225
_cell_angle_alpha 119.340204
_cell_angle_beta 102.893419
_cell_angle_gamma 61.173185
_cell_volume 386.094921
_symmetry_space_group_name_H-M "P -1"
_symmetry_group_IT_number 2
_symmetry_cell_setting 'triclinic'
loop_
_space_group_symop_operation_xyz
x,y,z
-x,-y,-z
loop_
_atom_site_type_symbol
_atom_site_label
_atom_site_fract_x
_atom_site_fract_y
_atom_site_fract_z
Si Si1 0.084621 0.571535 0.796075
Si Si2 0.713403 0.677096 0.011545
Si Si3 0.500000 0.500000 0.500000
Si Si4 0.004429 0.151840 0.271522
Si Si5 0.286199 0.803760 0.456664
Si Si6 0.363400 0.940853 0.122770
O O1 0.913164 0.655361 0.998133
O O2 0.122835 0.697149 0.780687
O O3 0.000000 0.500000 0.500000
O O4 0.247175 0.430579 0.839607
O O5 0.619222 0.599640 0.720342
O O6 0.577429 0.860028 0.149192
O O7 0.402451 0.624040 0.369754
O O8 0.917724 0.167646 0.525488
O O9 0.212770 0.117195 0.285984
O O10 0.000000 0.000000 0.000000
O O11 0.316094 0.857312 0.254762
O O12 0.329891 0.892138 0.787822
#
# Coordination Sequence:
#
# PCOD9021916 Si02
#       6
#     2   2   1   2   2   2
#     4  11  25  48  72 106 153 192 246 305 385 443
#     4  10  25  44  73 106 144 198 247 310 369 445
#     4  10  22  40  74 104 136 190 254 302 350 440
#     4  10  23  44  70 104 148 195 244 305 370 450
#     4  10  22  38  67 105 143 180 244 305 367 423
#     4  10  23  42  67 103 141 186 245 306 360 438
#
# _framework density 28.490400000000001
#
# number of rings (size 3 to 8) (size 9 to 14) (size 15 to 20)
#    0.000    1.818    0.000    1.636   12.727    2.182 
#   13.091    0.909    0.000    0.000    0.000    0.000 
#    0.000    0.000    0.000    0.000    0.000    0.000 
#
# Total GULP energy -61297.744019 kJ/mol
# GULP energy per Si atom -5572.522184 kJ/mol
# Density = 2.842556 g / cm^3
# Si number density = 28.490400 Si / 1000 Ang^3
#
#
#
# Elastic Constant Matrix: (Units=GPa)
#
#
# Indices 1 2 3 4 5 6 
#
# 1 97.4390 11.5344 49.6627 5.9671 -11.9562 1.1193
# 2 11.5344 152.5672 27.0282 -17.8135 -0.8288 9.0333
# 3 49.6627 27.0282 106.6596 -17.2853 17.6921 16.3630
# 4 5.9671 -17.8135 -17.2853 26.3130 -2.1892 -1.2053
# 5 -11.9562 -0.8288 17.6921 -2.1892 56.6326 -6.4845
# 6 1.1193 9.0333 16.3630 -1.2053 -6.4845 64.7693
#
#
#
# Elastic Compliance Matrix: (Units=1/GPa)
#
#
# Indices 1 2 3 4 5 6 
#
# 1 0.017910 -0.000776 -0.011738 -0.011534 0.007367 0.003287
# 2 -0.000776 0.007322 -0.000665 0.004684 0.000249 -0.000728
# 3 -0.011738 -0.000665 0.019530 0.014082 -0.008645 -0.005242
# 4 -0.011534 0.004684 0.014082 0.052450 -0.005145 -0.003550
# 5 0.007367 0.000249 -0.008645 -0.005145 0.022193 0.004148
# 6 0.003287 -0.000728 -0.005242 -0.003550 0.004148 0.017158
#
#
# Mechanical properties :
#
#
# Convention : Reuss Voigt Hill
#
# Bulk Modulus (GPa) = 54.33509 59.23514 56.78512
# Shear Modulus (GPa) = 29.57596 47.43900 38.50748
#
# Velocity S-wave (km/s) = 3.22546 4.08498 3.68039
# Velocity P-wave (km/s) = 5.74319 6.56397 6.16725
#
# Compressibility (1/GPa) = 0.01840431
#
# Stress axis : x y z
#
# Youngs Moduli (GPa) = 55.83471 136.57060 51.20357
#
# Poissons Ratio (x) = 0.10596 0.60104
# Poissons Ratio (y) = 0.04332 0.03404
# Poissons Ratio (z) = 0.65540 0.09079
#
# Static dielectric constant tensor:
#      x y z
#    x 1.738980 -0.078430 -0.454470 
#    y -0.078430 2.208290 0.054740 
#    z -0.454470 0.054740 2.028650 
# 
# From -- ./inp_files/21743.got.cif
#   From: 2010.05.17/outbox.cif.g08.bks.cpg/sg2_11_cif.got.tgz:21743.got - 2010.06.03 11:33:40.
