data_PCOD9021929
_publ_section_title
;
Structure prediction by ZEFSAII (Michael W. Deem and Ramdas Pophale) SiO2 
 PCOD9021929
Probable space group: P -1
;
_chemical_formula_sum "Si O2"
_cell_formula_units_Z 16
_cell_length_a 20.078497
_cell_length_b 15.994066
_cell_length_c 27.587854
_cell_angle_alpha 23.331887
_cell_angle_beta 164.845464
_cell_angle_gamma 162.579575
_cell_volume 692.967383
_symmetry_space_group_name_H-M "P -1"
_symmetry_group_IT_number 2
_symmetry_cell_setting 'triclinic'
loop_
_space_group_symop_operation_xyz
x,y,z
-x,-y,-z
loop_
_atom_site_type_symbol
_atom_site_label
_atom_site_fract_x
_atom_site_fract_y
_atom_site_fract_z
Si Si1 0.135923 0.805857 0.098397
Si Si2 0.584436 0.412156 0.193514
Si Si3 0.645916 0.452078 0.674808
Si Si4 0.388580 0.788304 0.126506
Si Si5 0.609550 0.698280 0.144815
Si Si6 0.165178 0.808422 0.229359
Si Si7 0.805669 0.333771 0.294698
Si Si8 0.106091 0.078733 0.672736
O O1 0.169292 0.643475 0.169003
O O2 0.222980 0.788148 0.224495
O O3 0.417225 0.133779 0.109195
O O4 0.739925 0.620852 0.923647
O O5 0.746241 0.663978 0.210331
O O6 0.800090 0.463295 0.271318
O O7 0.462974 0.125266 0.285215
O O8 0.211314 0.291812 0.977951
O O9 0.500000 0.500000 0.500000
O O10 0.463654 0.249762 0.701176
O O11 0.905463 0.760304 0.714171
O O12 0.595846 0.827646 0.203842
O O13 0.000000 0.500000 0.000000
O O14 0.426950 0.065329 0.012356
O O15 0.794433 0.767154 0.288451
O O16 0.108545 0.575047 0.345727
O O17 0.871550 0.121592 0.459184
#
# Coordination Sequence:
#
# PCOD9021929 Si02
#       8
#     2   2   2   2   2   2   2   2
#     4  10  22  38  67  92 133 165 214 270 322 390
#     4   9  21  40  65  93 129 171 219 271 324 389
#     4  12  25  41  66 104 134 170 218 279 336 391
#     4  12  26  45  70  94 133 185 224 263 335 407
#     4  11  23  46  67  94 132 179 223 271 323 403
#     4   9  20  41  63  98 129 171 216 270 325 399
#     4  11  23  40  68  98 131 169 217 274 335 387
#     4  12  26  44  66  97 138 169 219 283 329 391
#
# _framework density 23.089110000000002
#
# number of rings (size 3 to 8) (size 9 to 14) (size 15 to 20)
#    0.000    1.250    3.750    2.250    5.250    1.000 
#    2.250    0.625    0.000    0.000    0.000    0.000 
#    0.000    0.000    0.000    0.000    0.000    0.000 
#
# Total GULP energy -89244.519675 kJ/mol
# GULP energy per Si atom -5577.782480 kJ/mol
# Density = 2.303656 g / cm^3
# Si number density = 23.089110 Si / 1000 Ang^3
#
#
#
# Elastic Constant Matrix: (Units=GPa)
#
#
# Indices 1 2 3 4 5 6 
#
# 1 58.8132 21.5273 -5.6373 -4.6432 -3.2190 -23.9164
# 2 21.5273 86.9400 6.8203 -0.3879 -8.5575 -6.5177
# 3 -5.6373 6.8203 23.1448 -2.3421 -5.8032 5.1825
# 4 -4.6432 -0.3879 -2.3421 24.3172 -0.7189 -6.1125
# 5 -3.2190 -8.5575 -5.8032 -0.7189 26.5418 -5.3871
# 6 -23.9164 -6.5177 5.1825 -6.1125 -5.3871 45.2350
#
#
#
# Elastic Compliance Matrix: (Units=1/GPa)
#
#
# Indices 1 2 3 4 5 6 
#
# 1 0.026719 -0.005443 0.007408 0.009570 0.006315 0.014539
# 2 -0.005443 0.013446 -0.004716 -0.001271 0.002555 -0.000267
# 3 0.007408 -0.004716 0.049719 0.006341 0.010345 -0.000370
# 4 0.009570 -0.001271 0.006341 0.046500 0.005651 0.011106
# 5 0.006315 0.002555 0.010345 0.005651 0.043397 0.008454
# 6 0.014539 -0.000267 -0.000370 0.011106 0.008454 0.032305
#
#
# Mechanical properties :
#
#
# Convention : Reuss Voigt Hill
#
# Bulk Modulus (GPa) = 11.85090 23.81316 17.83203
# Shear Modulus (GPa) = 20.34896 28.96464 24.65680
#
# Velocity S-wave (km/s) = 2.97193 3.54569 3.27141
# Velocity P-wave (km/s) = 4.11343 5.20563 4.69142
#
# Compressibility (1/GPa) = 0.08438179
#
# Stress axis : x y z
#
# Youngs Moduli (GPa) = 37.42714 74.37376 20.11319
#
# Poissons Ratio (x) = 0.40479 -0.14900
# Poissons Ratio (y) = 0.20370 0.09485
# Poissons Ratio (z) = -0.27726 0.35073
#
# Static dielectric constant tensor:
#      x y z
#    x 1.843520 0.024570 -0.055380 
#    y 0.024570 1.912170 -0.022460 
#    z -0.055380 -0.022460 1.958500 
# 
# From -- ./inp_files/613249.got.cif
#   From: 2010.05.17/outbox.cif.g08.bks.cpg/sg2_307_cif.got.tgz:613249.got - 2010.06.03 11:33:40.
