data_PCOD9021611
_publ_section_title
;
Structure prediction by ZEFSAII (Michael W. Deem and Ramdas Pophale) SiO2 
 PCOD9021611
Probable space group: P -1
;
_chemical_formula_sum "Si O2"
_cell_formula_units_Z 14
_cell_length_a 8.427766
_cell_length_b 6.923429
_cell_length_c 19.238723
_cell_angle_alpha 123.894209
_cell_angle_beta 108.994991
_cell_angle_gamma 110.032592
_cell_volume 655.882034
_symmetry_space_group_name_H-M "P -1"
_symmetry_group_IT_number 2
_symmetry_cell_setting 'triclinic'
loop_
_space_group_symop_operation_xyz
x,y,z
-x,-y,-z
loop_
_atom_site_type_symbol
_atom_site_label
_atom_site_fract_x
_atom_site_fract_y
_atom_site_fract_z
Si Si1 0.032625 0.719109 0.607962
Si Si2 0.345351 0.993391 0.922153
Si Si3 0.732254 0.858434 0.602777
Si Si4 0.258011 0.137769 0.234792
Si Si5 0.504173 0.074343 0.806214
Si Si6 0.130981 0.239807 0.003766
Si Si7 0.854438 0.448915 0.682911
O O1 0.000000 0.500000 0.500000
O O2 0.920085 0.858906 0.599564
O O3 0.918125 0.535210 0.627984
O O4 0.295229 0.980568 0.715271
O O5 0.092149 0.663803 0.802830
O O6 0.468060 0.098602 0.886637
O O7 0.500000 0.000000 0.000000
O O8 0.302323 0.210571 0.989550
O O9 0.500000 0.500000 0.500000
O O10 0.793648 0.962615 0.712573
O O11 0.721563 0.090989 0.607950
O O12 0.273478 0.431810 0.290189
O O13 0.470231 0.178341 0.251621
O O14 0.051875 0.873036 0.103495
O O15 0.731496 0.409884 0.882053
O O16 0.000000 0.000000 0.000000
#
# Coordination Sequence:
#
# PCOD9021611 Si02
#       7
#     2   2   2   2   2   2   2
#     4  10  23  45  64  98 130 170 219 272 329 381
#     4  10  22  38  63  94 132 172 213 267 333 375
#     4  11  24  44  68  96 129 173 217 271 328 389
#     4  10  23  41  64  93 134 169 218 264 323 381
#     4  11  23  41  66  97 134 171 219 271 322 387
#     4  11  24  40  62 100 132 177 220 261 324 395
#     4   9  23  42  65  96 129 168 222 264 322 397
#
# _framework density 21.345300999999999
#
# number of rings (size 3 to 8) (size 9 to 14) (size 15 to 20)
#    0.000    1.714    0.000    3.429    8.000    2.857 
#    2.571    0.000    0.000    0.000    0.000    0.000 
#    0.000    0.000    0.000    0.000    0.000    0.000 
#
# Total GULP energy -78282.035594 kJ/mol
# GULP energy per Si atom -5591.573971 kJ/mol
# Density = 2.129672 g / cm^3
# Si number density = 21.345301 Si / 1000 Ang^3
#
#
#
# Elastic Constant Matrix: (Units=GPa)
#
#
# Indices 1 2 3 4 5 6 
#
# 1 133.4089 29.7641 20.7111 7.8435 -17.7622 -26.3382
# 2 29.7641 86.6373 33.8424 25.6958 -4.3019 -8.3988
# 3 20.7111 33.8424 86.3940 1.3807 -6.6756 1.3575
# 4 7.8435 25.6958 1.3807 36.5944 0.4378 -4.9720
# 5 -17.7622 -4.3019 -6.6756 0.4378 33.8097 -3.5823
# 6 -26.3382 -8.3988 1.3575 -4.9720 -3.5823 27.0603
#
#
#
# Elastic Compliance Matrix: (Units=1/GPa)
#
#
# Indices 1 2 3 4 5 6 
#
# 1 0.011281 -0.001956 -0.001618 0.000489 0.006561 0.011413
# 2 -0.001956 0.018621 -0.006632 -0.012135 0.000405 0.002032
# 3 -0.001618 -0.006632 0.014612 0.003963 0.000765 -0.003537
# 4 0.000489 -0.012135 0.003963 0.036014 -0.000649 0.003042
# 5 0.006561 0.000405 0.000765 -0.000649 0.034391 0.010907
# 6 0.011413 0.002032 -0.003537 0.003042 0.010907 0.050874
#
#
# Mechanical properties :
#
#
# Convention : Reuss Voigt Hill
#
# Bulk Modulus (GPa) = 41.49162 52.78615 47.13889
# Shear Modulus (GPa) = 25.74125 34.30105 30.02115
#
# Velocity S-wave (km/s) = 3.47644 4.01304 3.75434
# Velocity P-wave (km/s) = 5.96613 6.80117 6.39729
#
# Compressibility (1/GPa) = 0.02410125
#
# Stress axis : x y z
#
# Youngs Moduli (GPa) = 88.64082 53.70216 68.43631
#
# Poissons Ratio (x) = 0.10506 0.11075
# Poissons Ratio (y) = 0.17342 0.45388
# Poissons Ratio (z) = 0.14345 0.35616
#
# Static dielectric constant tensor:
#      x y z
#    x 1.776260 -0.009420 0.020980 
#    y -0.009420 1.759940 0.005300 
#    z 0.020980 0.005300 1.743740 
# 
# From -- ./inp_files/51575.got.cif
#   From: 2010.05.17/outbox.cif.g08.bks.cpg/sg2_26_cif.got.tgz:51575.got - 2010.06.03 11:33:40.
