data_PCOD9021009
_publ_section_title
;
Structure prediction by ZEFSAII (Michael W. Deem and Ramdas Pophale) SiO2 
 PCOD9021009
Probable space group: P -1
;
_chemical_formula_sum "Si O2"
_cell_formula_units_Z 14
_cell_length_a 12.116827
_cell_length_b 7.707522
_cell_length_c 9.051363
_cell_angle_alpha 91.850871
_cell_angle_beta 37.737990
_cell_angle_gamma 89.244473
_cell_volume 516.068003
_symmetry_space_group_name_H-M "P -1"
_symmetry_group_IT_number 2
_symmetry_cell_setting 'triclinic'
loop_
_space_group_symop_operation_xyz
x,y,z
-x,-y,-z
loop_
_atom_site_type_symbol
_atom_site_label
_atom_site_fract_x
_atom_site_fract_y
_atom_site_fract_z
Si Si1 0.666006 0.675554 0.026154
Si Si2 0.081938 0.094730 0.128507
Si Si3 0.602867 0.320875 0.167812
Si Si4 0.933828 0.508488 0.360268
Si Si5 0.187151 0.809820 0.352326
Si Si6 0.923395 0.275812 0.026111
Si Si7 0.309213 0.178421 0.302236
O O1 0.548714 0.524336 0.203805
O O2 0.602787 0.744372 0.936350
O O3 0.714793 0.841687 0.077875
O O4 0.863578 0.565783 0.814431
O O5 0.010191 0.113380 0.371936
O O6 0.970181 0.231773 0.144032
O O7 0.043377 0.911159 0.096437
O O8 0.737135 0.236175 0.893193
O O9 0.715162 0.315736 0.200510
O O10 0.424000 0.220898 0.326618
O O11 0.805178 0.372729 0.569429
O O12 0.873098 0.695988 0.500093
O O13 0.952897 0.583329 0.175529
O O14 0.292345 0.975026 0.300483
#
# Coordination Sequence:
#
# PCOD9021009 Si02
#       7
#     2   2   2   2   2   2   2
#     4  10  22  37  64  93 120 162 204 254 303 356
#     4  10  22  39  69  90 119 161 211 258 303 351
#     4  11  24  38  61  92 131 160 200 249 311 367
#     4  10  22  37  64  90 122 156 209 251 294 362
#     4  11  23  37  64  94 118 166 200 254 301 362
#     4  10  22  43  63  92 122 159 210 257 302 364
#     4  12  22  40  60  93 133 160 194 258 305 363
#
# _framework density 27.128208999999998
#
# number of rings (size 3 to 8) (size 9 to 14) (size 15 to 20)
#    0.000    1.429    2.857    2.143    6.000    8.000 
#    0.000    0.714    3.143    4.286    0.000    0.000 
#    0.000    0.000    0.000    0.000    0.000    0.000 
#
# Total GULP energy -78085.306267 kJ/mol
# GULP energy per Si atom -5577.521876 kJ/mol
# Density = 2.706646 g / cm^3
# Si number density = 27.128209 Si / 1000 Ang^3
#
#
#
# Elastic Constant Matrix: (Units=GPa)
#
#
# Indices 1 2 3 4 5 6 
#
# 1 116.7004 -9.9604 15.0733 -18.2223 18.6427 -5.0420
# 2 -9.9604 133.6858 28.0462 -39.1322 -2.2010 6.4417
# 3 15.0733 28.0462 40.3757 2.4696 21.8832 -2.4038
# 4 -18.2223 -39.1322 2.4696 54.1373 -3.0756 -5.3398
# 5 18.6427 -2.2010 21.8832 -3.0756 43.0761 2.0666
# 6 -5.0420 6.4417 -2.4038 -5.3398 2.0666 45.8912
#
#
#
# Elastic Compliance Matrix: (Units=1/GPa)
#
#
# Indices 1 2 3 4 5 6 
#
# 1 0.011206 0.004578 -0.007619 0.007520 -0.000260 0.001076
# 2 0.004578 0.016467 -0.019506 0.014742 0.009897 -0.001560
# 3 -0.007619 -0.019506 0.058375 -0.020594 -0.029011 0.003869
# 4 0.007520 0.014742 -0.020594 0.033290 0.010285 0.001089
# 5 -0.000260 0.009897 -0.029011 0.010285 0.039474 -0.003518
# 6 0.001076 -0.001560 0.003869 0.001089 -0.003518 0.022616
#
#
# Mechanical properties :
#
#
# Convention : Reuss Voigt Hill
#
# Bulk Modulus (GPa) = 24.41734 39.67557 32.04645
# Shear Modulus (GPa) = 20.81836 45.79444 33.30640
#
# Velocity S-wave (km/s) = 2.77322 4.11308 3.50771
# Velocity P-wave (km/s) = 4.39028 6.10029 5.31451
#
# Compressibility (1/GPa) = 0.04095451
#
# Stress axis : x y z
#
# Youngs Moduli (GPa) = 89.23706 60.72728 17.13067
#
# Poissons Ratio (x) = -0.27804 0.13052
# Poissons Ratio (y) = -0.40857 0.33416
# Poissons Ratio (z) = 0.67988 1.18457
#
# Static dielectric constant tensor:
#      x y z
#    x 2.155130 0.003520 -0.080440 
#    y 0.003520 2.228260 0.034340 
#    z -0.080440 0.034340 2.217300 
# 
# From -- ./inp_files/243335.got.cif
#   From: 2010.05.17/outbox.cif.g08.bks.cpg/sg2_122_cif.got.tgz:243335.got - 2010.06.03 11:33:40.
