data_PCOD9021178
_publ_section_title
;
Structure prediction by ZEFSAII (Michael W. Deem and Ramdas Pophale) SiO2 
 PCOD9021178
Probable space group: P -1
;
_chemical_formula_sum "Si O2"
_cell_formula_units_Z 14
_cell_length_a 11.385249
_cell_length_b 10.494600
_cell_length_c 7.439330
_cell_angle_alpha 77.461555
_cell_angle_beta 39.285056
_cell_angle_gamma 89.012285
_cell_volume 532.794447
_symmetry_space_group_name_H-M "P -1"
_symmetry_group_IT_number 2
_symmetry_cell_setting 'triclinic'
loop_
_space_group_symop_operation_xyz
x,y,z
-x,-y,-z
loop_
_atom_site_type_symbol
_atom_site_label
_atom_site_fract_x
_atom_site_fract_y
_atom_site_fract_z
Si Si1 0.137723 0.652193 0.597562
Si Si2 0.720581 0.044285 0.791674
Si Si3 0.971090 0.751877 0.058833
Si Si4 0.366023 0.590770 0.060528
Si Si5 0.358599 0.687101 0.656642
Si Si6 0.298179 0.161095 0.387867
Si Si7 0.273329 0.072118 0.811784
O O1 0.957771 0.639252 0.951282
O O2 0.305788 0.629859 0.538503
O O3 0.181675 0.809071 0.441938
O O4 0.167323 0.571875 0.410217
O O5 0.790290 0.919275 0.657982
O O6 0.734271 0.033406 0.992054
O O7 0.500000 0.000000 0.000000
O O8 0.183185 0.758583 0.873524
O O9 0.829670 0.746236 0.397054
O O10 0.923500 0.880978 0.981134
O O11 0.349276 0.588352 0.865825
O O12 0.492900 0.741567 0.909832
O O13 0.500000 0.500000 0.000000
O O14 0.559803 0.795177 0.380224
O O15 0.314075 0.053399 0.559118
#
# Coordination Sequence:
#
# PCOD9021178 Si02
#       7
#     2   2   2   2   2   2   2
#     4  10  22  38  56  92 120 151 202 235 290 356
#     4  12  19  33  62  91 117 161 196 230 291 352
#     4   8  20  41  56  88 124 152 196 233 301 347
#     4  11  22  39  65  86 110 158 203 244 296 347
#     4   9  19  40  61  81 124 154 187 255 292 340
#     4   9  21  39  57  87 122 151 196 239 294 353
#     4   9  19  36  58  87 123 160 186 240 288 352
#
# _framework density 26.276551000000001
#
# number of rings (size 3 to 8) (size 9 to 14) (size 15 to 20)
#    1.714    0.571    2.857    0.000    0.000    4.571 
#    0.000    1.429    0.000    0.000    0.000    0.000 
#    0.000    0.000    0.000    0.000    0.000    0.000 
#
# Total GULP energy -78086.707340 kJ/mol
# GULP energy per Si atom -5577.621953 kJ/mol
# Density = 2.621674 g / cm^3
# Si number density = 26.276551 Si / 1000 Ang^3
#
#
#
# Elastic Constant Matrix: (Units=GPa)
#
#
# Indices 1 2 3 4 5 6 
#
# 1 107.1753 37.1527 28.0896 -22.0676 23.4173 -19.1518
# 2 37.1527 83.2025 37.9109 -2.8784 14.8249 -19.3952
# 3 28.0896 37.9109 118.1957 29.0186 16.3516 1.7035
# 4 -22.0676 -2.8784 29.0186 29.2942 -9.3097 -1.9248
# 5 23.4173 14.8249 16.3516 -9.3097 49.7131 -2.0558
# 6 -19.1518 -19.3952 1.7035 -1.9248 -2.0558 39.2839
#
#
#
# Elastic Compliance Matrix: (Units=1/GPa)
#
#
# Indices 1 2 3 4 5 6 
#
# 1 0.020183 0.000033 -0.011761 0.027632 0.000011 0.011720
# 2 0.000033 0.018943 -0.009033 0.011475 -0.000118 0.010316
# 3 -0.011761 -0.009033 0.024512 -0.037253 -0.007362 -0.013467
# 4 0.027632 0.011475 -0.037253 0.099669 0.015574 0.026450
# 5 0.000011 -0.000118 -0.007362 0.015574 0.025581 0.002368
# 6 0.011720 0.010316 -0.013467 0.026450 0.002368 0.038267
#
#
# Mechanical properties :
#
#
# Convention : Reuss Voigt Hill
#
# Bulk Modulus (GPa) = 45.22035 57.20886 51.21461
# Shear Modulus (GPa) = 18.11265 37.35293 27.73279
#
# Velocity S-wave (km/s) = 2.62832 3.77441 3.25225
# Velocity P-wave (km/s) = 5.14368 6.38858 5.79963
#
# Compressibility (1/GPa) = 0.02211394
#
# Stress axis : x y z
#
# Youngs Moduli (GPa) = 49.54629 52.79003 40.79685
#
# Poissons Ratio (x) = -0.00173 0.47983
# Poissons Ratio (y) = -0.00162 0.36853
# Poissons Ratio (z) = 0.58273 0.47687
#
# Static dielectric constant tensor:
#      x y z
#    x 2.008400 0.020910 -0.004750 
#    y 0.020910 2.083510 0.066470 
#    z -0.004750 0.066470 2.131460 
# 
# From -- ./inp_files/302727.got.cif
#   From: 2010.05.17/outbox.cif.g08.bks.cpg/sg2_152_cif.got.tgz:302727.got - 2010.06.03 11:33:40.
