data_PCOD9021987
_publ_section_title
;
Structure prediction by ZEFSAII (Michael W. Deem and Ramdas Pophale) SiO2 
 PCOD9021987
Probable space group: P -1
;
_chemical_formula_sum "Si O2"
_cell_formula_units_Z 16
_cell_length_a 18.289774
_cell_length_b 9.382823
_cell_length_c 18.143704
_cell_angle_alpha 29.077777
_cell_angle_beta 29.480745
_cell_angle_gamma 38.472491
_cell_volume 741.512952
_symmetry_space_group_name_H-M "P -1"
_symmetry_group_IT_number 2
_symmetry_cell_setting 'triclinic'
loop_
_space_group_symop_operation_xyz
x,y,z
-x,-y,-z
loop_
_atom_site_type_symbol
_atom_site_label
_atom_site_fract_x
_atom_site_fract_y
_atom_site_fract_z
Si Si1 0.367922 0.443205 0.913940
Si Si2 0.645036 0.070619 0.418471
Si Si3 0.055554 0.327592 0.311274
Si Si4 0.140081 0.647313 0.780494
Si Si5 0.655607 0.158086 0.851821
Si Si6 0.396614 0.342416 0.605469
Si Si7 0.743832 0.507043 0.489872
Si Si8 0.017365 0.765616 0.418760
O O1 0.206427 0.425740 0.100278
O O2 0.380684 0.176632 0.963741
O O3 0.383615 0.728804 0.720846
O O4 0.498929 0.362156 0.895897
O O5 0.766481 0.215610 0.297229
O O6 0.502505 0.069660 0.600044
O O7 0.702304 0.759156 0.473500
O O8 0.915250 0.526755 0.310501
O O9 0.046550 0.350944 0.396221
O O10 0.000000 0.000000 0.500000
O O11 0.242331 0.386625 0.766259
O O12 0.076170 0.926709 0.660116
O O13 0.000000 0.500000 0.000000
O O14 0.714655 0.215363 0.691552
O O15 0.804076 0.197820 0.750008
O O16 0.500000 0.500000 0.500000
O O17 0.349702 0.496702 0.500061
O O18 0.000000 0.500000 0.500000
#
# Coordination Sequence:
#
# PCOD9021987 Si02
#       8
#     2   2   2   2   2   2   2   2
#     4  11  22  40  66  98 125 162 234 268 313 389
#     4  11  24  42  66  95 132 173 211 276 330 380
#     4  11  22  40  70  94 123 176 224 263 322 396
#     4  11  24  41  66  95 131 171 219 265 323 393
#     4  10  22  38  68  91 127 170 217 264 319 386
#     4  10  23  41  62  91 130 175 210 259 335 396
#     4  11  21  41  65  95 129 169 221 267 330 387
#     4  11  23  44  64  93 134 170 212 267 336 389
#
# _framework density 21.577504000000001
#
# number of rings (size 3 to 8) (size 9 to 14) (size 15 to 20)
#    0.000    1.250    3.750    3.375    1.750    0.500 
#    2.250    0.625    0.000    0.000    0.000    0.000 
#    0.000    0.000    0.000    0.000    0.000    0.000 
#
# Total GULP energy -89069.792287 kJ/mol
# GULP energy per Si atom -5566.862018 kJ/mol
# Density = 2.152839 g / cm^3
# Si number density = 21.577504 Si / 1000 Ang^3
#
#
#
# Elastic Constant Matrix: (Units=GPa)
#
#
# Indices 1 2 3 4 5 6 
#
# 1 102.7289 29.5535 4.5055 13.7317 -14.5909 4.8378
# 2 29.5535 107.0035 49.1894 35.2794 -14.8693 -0.6038
# 3 4.5055 49.1894 83.2714 34.8466 -13.7502 -3.3982
# 4 13.7317 35.2794 34.8466 45.6713 -9.0563 -6.0844
# 5 -14.5909 -14.8693 -13.7502 -9.0563 23.6564 7.2371
# 6 4.8378 -0.6038 -3.3982 -6.0844 7.2371 42.6017
#
#
#
# Elastic Compliance Matrix: (Units=1/GPa)
#
#
# Indices 1 2 3 4 5 6 
#
# 1 0.011966 -0.002918 0.003343 -0.002825 0.007255 -0.002769
# 2 -0.002918 0.015191 -0.005967 -0.005997 0.002347 -0.001185
# 3 0.003343 -0.005967 0.021184 -0.011432 0.006722 -0.001549
# 4 -0.002825 -0.005997 -0.011432 0.036809 0.000562 0.004485
# 5 0.007255 0.002347 0.006722 0.000562 0.055270 -0.009563
# 6 -0.002769 -0.001185 -0.001549 0.004485 -0.009563 0.025913
#
#
# Mechanical properties :
#
#
# Convention : Reuss Voigt Hill
#
# Bulk Modulus (GPa) = 26.84018 51.05563 38.94791
# Shear Modulus (GPa) = 26.33883 36.36958 31.35421
#
# Velocity S-wave (km/s) = 3.49759 4.10998 3.81609
# Velocity P-wave (km/s) = 5.36440 6.79966 6.12422
#
# Compressibility (1/GPa) = 0.03725757
#
# Stress axis : x y z
#
# Youngs Moduli (GPa) = 83.57260 65.82844 47.20655
#
# Poissons Ratio (x) = 0.19207 -0.15783
# Poissons Ratio (y) = 0.24384 0.28167
# Poissons Ratio (z) = -0.27941 0.39279
#
# Static dielectric constant tensor:
#      x y z
#    x 1.802820 -0.080180 -0.023450 
#    y -0.080180 1.898750 0.041660 
#    z -0.023450 0.041660 1.781140 
# 
# From -- ./inp_files/262830.got.cif
#   From: 2010.05.17/outbox.cif.g08.bks.cpg/sg2_132_cif.got.tgz:262830.got - 2010.06.03 11:33:40.
