data_PCOD9021183
_publ_section_title
;
Structure prediction by ZEFSAII (Michael W. Deem and Ramdas Pophale) SiO2 
 PCOD9021183
Probable space group: P -1
;
_chemical_formula_sum "Si O2"
_cell_formula_units_Z 16
_cell_length_a 15.951865
_cell_length_b 5.085697
_cell_length_c 12.640419
_cell_angle_alpha 88.353741
_cell_angle_beta 62.355995
_cell_angle_gamma 112.308069
_cell_volume 813.745528
_symmetry_space_group_name_H-M "P -1"
_symmetry_group_IT_number 2
_symmetry_cell_setting 'triclinic'
loop_
_space_group_symop_operation_xyz
x,y,z
-x,-y,-z
loop_
_atom_site_type_symbol
_atom_site_label
_atom_site_fract_x
_atom_site_fract_y
_atom_site_fract_z
Si Si1 0.263618 0.449782 0.684212
Si Si2 0.462473 0.746939 0.436457
Si Si3 0.590043 0.544707 0.242465
Si Si4 0.523035 0.981399 0.805357
Si Si5 0.240871 0.114963 0.028967
Si Si6 0.870640 0.242434 0.193490
Si Si7 0.885245 0.516138 0.947347
Si Si8 0.402252 0.591512 0.059216
O O1 0.343173 0.529582 0.538356
O O2 0.334514 0.586452 0.748162
O O3 0.185394 0.595096 0.710986
O O4 0.199079 0.105525 0.750640
O O5 0.548859 0.626480 0.372569
O O6 0.500000 0.000000 0.500000
O O7 0.470845 0.857907 0.309595
O O8 0.488532 0.322631 0.237933
O O9 0.666271 0.792800 0.115221
O O10 0.599489 0.227483 0.838500
O O11 0.423250 0.817646 0.945706
O O12 0.162294 0.250088 0.034001
O O13 0.299395 0.297473 0.096202
O O14 0.180342 0.768459 0.082543
O O15 0.990832 0.329391 0.152839
O O16 0.874448 0.368258 0.071216
O O17 0.500000 0.500000 0.000000
#
# Coordination Sequence:
#
# PCOD9021183 Si02
#       8
#     2   2   2   2   2   2   2   2
#     4  12  23  36  58  85 124 172 200 242 305 360
#     4  12  25  37  57  89 132 173 208 240 297 385
#     4  11  22  35  55  87 130 166 205 237 292 382
#     4  10  22  38  57  82 127 162 211 242 301 351
#     4  11  23  36  67  88 123 164 200 254 321 367
#     4  11  23  39  59  86 125 159 211 263 305 371
#     4  11  22  40  60  90 119 161 208 263 319 371
#     4  10  23  38  60  87 126 164 208 261 297 363
#
# _framework density 19.662167
#
# number of rings (size 3 to 8) (size 9 to 14) (size 15 to 20)
#    0.000    1.000    3.750    3.375   10.500    2.000 
#    0.000    0.000    0.000    0.000    0.000    5.250 
#    0.000    0.000    0.000    0.000    0.000    0.000 
#
# Total GULP energy -89136.896503 kJ/mol
# GULP energy per Si atom -5571.056031 kJ/mol
# Density = 1.961742 g / cm^3
# Si number density = 19.662167 Si / 1000 Ang^3
#
#
#
# Elastic Constant Matrix: (Units=GPa)
#
#
# Indices 1 2 3 4 5 6 
#
# 1 68.4082 22.6075 41.6242 2.2671 -16.8367 -9.1378
# 2 22.6075 100.0155 50.2379 4.0417 -15.3157 2.0060
# 3 41.6242 50.2379 96.4128 3.3022 -9.5011 4.0174
# 4 2.2671 4.0417 3.3022 36.7193 1.3143 1.6023
# 5 -16.8367 -15.3157 -9.5011 1.3143 33.3525 4.1242
# 6 -9.1378 2.0060 4.0174 1.6023 4.1242 31.9225
#
#
#
# Elastic Compliance Matrix: (Units=1/GPa)
#
#
# Indices 1 2 3 4 5 6 
#
# 1 0.023494 0.000969 -0.010039 -0.001264 0.008645 0.006874
# 2 0.000969 0.014275 -0.007308 -0.001142 0.005044 -0.000294
# 3 -0.010039 -0.007308 0.018437 0.000052 -0.002630 -0.004398
# 4 -0.001264 -0.001142 0.000052 0.027568 -0.002059 -0.001414
# 5 0.008645 0.005044 -0.002630 -0.002059 0.036254 -0.002092
# 6 0.006874 -0.000294 -0.004398 -0.001414 -0.002092 0.034207
#
#
# Mechanical properties :
#
#
# Convention : Reuss Voigt Hill
#
# Bulk Modulus (GPa) = 42.64581 54.86396 48.75488
# Shear Modulus (GPa) = 25.66640 30.42330 28.04485
#
# Velocity S-wave (km/s) = 3.61691 3.93784 3.78078
# Velocity P-wave (km/s) = 6.25932 6.97419 6.62640
#
# Compressibility (1/GPa) = 0.02344897
#
# Stress axis : x y z
#
# Youngs Moduli (GPa) = 42.56343 70.05412 54.23965
#
# Poissons Ratio (x) = -0.06790 0.54453
# Poissons Ratio (y) = -0.04125 0.39639
# Poissons Ratio (z) = 0.42731 0.51197
#
# Static dielectric constant tensor:
#      x y z
#    x 1.881490 -0.104670 0.012640 
#    y -0.104670 1.854320 0.006460 
#    z 0.012640 0.006460 1.695670 
# 
# From -- ./inp_files/94937.got.cif
#   From: 2010.05.17/outbox.cif.g08.bks.cpg/sg2_48_cif.got.tgz:94937.got - 2010.06.03 11:33:40.
