data_PCOD9021450
_publ_section_title
;
Structure prediction by ZEFSAII (Michael W. Deem and Ramdas Pophale) SiO2 
 PCOD9021450
Probable space group: P -1
;
_chemical_formula_sum "Si O2"
_cell_formula_units_Z 10
_cell_length_a 5.140748
_cell_length_b 15.257220
_cell_length_c 11.963355
_cell_angle_alpha 153.415344
_cell_angle_beta 100.019206
_cell_angle_gamma 89.876101
_cell_volume 387.648271
_symmetry_space_group_name_H-M "P -1"
_symmetry_group_IT_number 2
_symmetry_cell_setting 'triclinic'
loop_
_space_group_symop_operation_xyz
x,y,z
-x,-y,-z
loop_
_atom_site_type_symbol
_atom_site_label
_atom_site_fract_x
_atom_site_fract_y
_atom_site_fract_z
Si Si1 0.949984 0.254276 0.218465
Si Si2 0.642244 0.567654 0.708970
Si Si3 0.625784 0.828040 0.667157
Si Si4 0.434676 0.171726 0.807544
Si Si5 0.182851 0.097018 0.480936
O O1 0.000000 0.500000 0.500000
O O2 0.089019 0.241298 0.093336
O O3 0.130259 0.209392 0.281239
O O4 0.652885 0.065341 0.970951
O O5 0.500000 0.500000 0.500000
O O6 0.655395 0.353853 0.519138
O O7 0.492893 0.654048 0.892206
O O8 0.699670 0.807857 0.521556
O O9 0.328479 0.239347 0.760937
O O10 0.690869 0.091681 0.711992
O O11 0.153758 0.984706 0.618166
#
# Coordination Sequence:
#
# PCOD9021450 Si02
#       5
#     2   2   2   2   2
#     4  10  22  40  60  94 142 174 221 281 337 399
#     4  10  22  38  61  99 132 173 219 280 335 397
#     4  10  22  38  63  99 126 182 228 268 340 410
#     4  10  22  42  67  95 138 176 223 285 334 392
#     4  10  22  42  68  96 131 183 227 274 336 404
#
# _framework density 25.796579000000001
#
# number of rings (size 3 to 8) (size 9 to 14) (size 15 to 20)
#    0.000    2.000    2.000    0.000    5.600    3.200 
#    0.000    0.000    0.000    8.400    0.000    0.000 
#    0.000    0.000    0.000    0.000    0.000    0.000 
#
# Total GULP energy -55783.911705 kJ/mol
# GULP energy per Si atom -5578.391171 kJ/mol
# Density = 2.573787 g / cm^3
# Si number density = 25.796579 Si / 1000 Ang^3
#
#
#
# Elastic Constant Matrix: (Units=GPa)
#
#
# Indices 1 2 3 4 5 6 
#
# 1 77.5407 -1.5380 6.0032 -4.2731 -1.4350 4.1796
# 2 -1.5380 189.1990 49.2423 -11.6163 14.8648 17.8271
# 3 6.0032 49.2423 107.7726 -20.0840 -9.8752 -3.3192
# 4 -4.2731 -11.6163 -20.0840 48.2218 1.0403 -0.3071
# 5 -1.4350 14.8648 -9.8752 1.0403 35.7161 -1.6026
# 6 4.1796 17.8271 -3.3192 -0.3071 -1.6026 36.6771
#
#
#
# Elastic Compliance Matrix: (Units=1/GPa)
#
#
# Indices 1 2 3 4 5 6 
#
# 1 0.013126 0.000573 -0.000884 0.000923 -0.000065 -0.001849
# 2 0.000573 0.006948 -0.003651 0.000266 -0.004063 -0.003948
# 3 -0.000884 -0.003651 0.012307 0.004083 0.004913 0.003238
# 4 0.000923 0.000266 0.004083 0.022577 0.000413 0.000342
# 5 -0.000065 -0.004063 0.004913 0.000413 0.031203 0.003794
# 6 -0.001849 -0.003948 0.003238 0.000342 0.003794 0.029856
#
#
# Mechanical properties :
#
#
# Convention : Reuss Voigt Hill
#
# Bulk Modulus (GPa) = 40.88863 53.54747 47.21805
# Shear Modulus (GPa) = 37.85226 45.50999 41.68112
#
# Velocity S-wave (km/s) = 3.83474 4.20478 4.02401
# Velocity P-wave (km/s) = 5.95750 6.66155 6.31933
#
# Compressibility (1/GPa) = 0.02445667
#
# Stress axis : x y z
#
# Youngs Moduli (GPa) = 76.18728 143.93057 81.25641
#
# Poissons Ratio (x) = -0.08243 0.07181
# Poissons Ratio (y) = -0.04363 0.29664
# Poissons Ratio (z) = 0.06733 0.52544
#
# Static dielectric constant tensor:
#      x y z
#    x 2.453700 0.052870 0.007660 
#    y 0.052870 2.050440 0.020290 
#    z 0.007660 0.020290 2.118940 
# 
# From -- ./inp_files/85819.got.cif
#   From: 2010.05.17/outbox.cif.g08.bks.cpg/sg2_43_cif.got.tgz:85819.got - 2010.06.03 11:33:40.
