data_PCOD9021467
_publ_section_title
;
Structure prediction by ZEFSAII (Michael W. Deem and Ramdas Pophale) SiO2 
 PCOD9021467
Probable space group: P -1
;
_chemical_formula_sum "Si O2"
_cell_formula_units_Z 14
_cell_length_a 5.288077
_cell_length_b 9.973240
_cell_length_c 17.466452
_cell_angle_alpha 143.365109
_cell_angle_beta 66.122889
_cell_angle_gamma 109.371015
_cell_volume 502.590155
_symmetry_space_group_name_H-M "P -1"
_symmetry_group_IT_number 2
_symmetry_cell_setting 'triclinic'
loop_
_space_group_symop_operation_xyz
x,y,z
-x,-y,-z
loop_
_atom_site_type_symbol
_atom_site_label
_atom_site_fract_x
_atom_site_fract_y
_atom_site_fract_z
Si Si1 0.383470 0.707533 0.563563
Si Si2 0.129968 0.851923 0.480650
Si Si3 0.485736 0.043201 0.825325
Si Si4 0.105407 0.438443 0.351012
Si Si5 0.292951 0.303848 0.725338
Si Si6 0.080066 0.729192 0.013083
Si Si7 0.855669 0.289410 0.174436
O O1 0.500000 0.500000 0.500000
O O2 0.059994 0.710825 0.636797
O O3 0.336858 0.596690 0.435177
O O4 0.517093 0.931042 0.686318
O O5 0.386811 0.737452 0.351953
O O6 0.930594 0.656673 0.445617
O O7 0.195361 0.044802 0.623955
O O8 0.000000 0.000000 0.500000
O O9 0.368564 0.842083 0.804862
O O10 0.744455 0.147092 0.886190
O O11 0.246929 0.227164 0.926321
O O12 0.118032 0.307548 0.209105
O O13 0.188362 0.470972 0.880763
O O14 0.185048 0.457888 0.738545
O O15 0.140372 0.823872 0.961765
#
# Coordination Sequence:
#
# PCOD9021467 Si02
#       7
#     2   2   2   2   2   2   2
#     4  10  25  40  63  89 120 171 211 265 305 372
#     4  11  20  37  60  91 125 163 205 260 319 370
#     4  11  23  38  62  88 130 168 210 251 318 382
#     4  10  22  38  62  87 127 157 213 258 315 367
#     4   9  23  33  57  93 124 161 201 252 321 374
#     4  10  23  38  59  94 129 165 203 259 318 389
#     4   9  20  35  57  93 123 161 198 255 325 373
#
# _framework density 27.855696999999999
#
# number of rings (size 3 to 8) (size 9 to 14) (size 15 to 20)
#    0.857    1.143    1.429    0.857   14.000    0.000 
#    0.000    0.000    0.000    1.714    0.000    0.000 
#    0.000    0.000    0.000    0.000    0.000    0.000 
#
# Total GULP energy -77942.540494 kJ/mol
# GULP energy per Si atom -5567.324321 kJ/mol
# Density = 2.779230 g / cm^3
# Si number density = 27.855697 Si / 1000 Ang^3
#
#
#
# Elastic Constant Matrix: (Units=GPa)
#
#
# Indices 1 2 3 4 5 6 
#
# 1 108.8805 19.2032 78.5192 -20.4465 19.2425 -21.0101
# 2 19.2032 70.3191 11.5396 4.3899 8.1747 1.8277
# 3 78.5192 11.5396 195.1498 16.5995 -0.1697 -12.7890
# 4 -20.4465 4.3899 16.5995 52.2997 -13.3731 18.5113
# 5 19.2425 8.1747 -0.1697 -13.3731 59.9127 -2.5145
# 6 -21.0101 1.8277 -12.7890 18.5113 -2.5145 39.4297
#
#
#
# Elastic Compliance Matrix: (Units=1/GPa)
#
#
# Indices 1 2 3 4 5 6 
#
# 1 0.017887 -0.003839 -0.007379 0.007522 -0.003413 0.003567
# 2 -0.003839 0.015546 0.000808 -0.003062 -0.001618 -0.001170
# 3 -0.007379 0.000808 0.008678 -0.006074 0.001002 0.001761
# 4 0.007522 -0.003062 -0.006074 0.029284 0.004047 -0.011310
# 5 -0.003413 -0.001618 0.001002 0.004047 0.018825 -0.002118
# 6 0.003567 -0.001170 0.001761 -0.011310 -0.002118 0.033062
#
#
# Mechanical properties :
#
#
# Convention : Reuss Voigt Hill
#
# Bulk Modulus (GPa) = 46.96811 65.87483 56.42147
# Shear Modulus (GPa) = 33.06872 48.00091 40.53482
#
# Velocity S-wave (km/s) = 3.44923 4.15565 3.81881
# Velocity P-wave (km/s) = 5.72370 6.83563 6.30423
#
# Compressibility (1/GPa) = 0.02129104
#
# Stress axis : x y z
#
# Youngs Moduli (GPa) = 55.90757 64.32333 115.22966
#
# Poissons Ratio (x) = 0.24695 0.85026
# Poissons Ratio (y) = 0.21464 -0.09308
# Poissons Ratio (z) = 0.41253 -0.05196
#
# Static dielectric constant tensor:
#      x y z
#    x 2.617900 -0.239800 -0.099200 
#    y -0.239800 2.465210 0.082820 
#    z -0.099200 0.082820 2.332910 
# 
# From -- ./inp_files/583366.got.cif
#   From: 2010.05.17/outbox.cif.g08.bks.cpg/sg2_292_cif.got.tgz:583366.got - 2010.06.03 11:33:40.
