data_PCOD9021297
_publ_section_title
;
Structure prediction by ZEFSAII (Michael W. Deem and Ramdas Pophale) SiO2 
 PCOD9021297
Probable space group: P -1
;
_chemical_formula_sum "Si O2"
_cell_formula_units_Z 13
_cell_length_a 10.251282
_cell_length_b 10.529338
_cell_length_c 7.409691
_cell_angle_alpha 73.385122
_cell_angle_beta 85.330832
_cell_angle_gamma 40.233509
_cell_volume 482.764612
_symmetry_space_group_name_H-M "P -1"
_symmetry_group_IT_number 2
_symmetry_cell_setting 'triclinic'
loop_
_space_group_symop_operation_xyz
x,y,z
-x,-y,-z
loop_
_atom_site_type_symbol
_atom_site_label
_atom_site_fract_x
_atom_site_fract_y
_atom_site_fract_z
Si Si1 0.804268 0.691319 0.260270
Si Si2 0.500000 0.000000 0.500000
Si Si3 0.630821 0.643077 0.052524
Si Si4 0.286230 0.749999 0.223898
Si Si5 0.675485 0.121773 0.350171
Si Si6 0.095888 0.646930 0.393831
Si Si7 0.875078 0.200712 0.178116
O O1 0.692588 0.741435 0.067594
O O2 0.004217 0.629624 0.246476
O O3 0.870999 0.494436 0.407759
O O4 0.661849 0.865097 0.362584
O O5 0.587724 0.080511 0.509963
O O6 0.484053 0.685650 0.197608
O O7 0.825353 0.393219 0.115821
O O8 0.499019 0.747318 0.841471
O O9 0.282897 0.601785 0.359558
O O10 0.204728 0.786018 0.013797
O O11 0.113902 0.974968 0.251225
O O12 0.729362 0.234888 0.321244
O O13 0.905759 0.892687 0.361196
#
# Coordination Sequence:
#
# PCOD9021297 Si02
#       7
#     2   1   2   2   2   2   2
#     4  10  23  41  59  88 125 160 205 248 307 357
#     4  10  22  38  60  82 116 172 194 236 306 374
#     4  11  22  38  65 100 117 152 209 267 285 353
#     4   9  18  37  63  90 122 162 200 242 309 363
#     4   9  19  39  63  86 121 159 203 242 305 363
#     4   9  20  40  61  79 126 170 192 240 310 374
#     4   9  19  36  61  94 126 157 193 255 310 357
#
# _framework density 26.928234
#
# number of rings (size 3 to 8) (size 9 to 14) (size 15 to 20)
#    0.000    2.462    0.000    2.769    4.308    3.077 
#    8.308    2.308    0.000    0.000    0.000    0.000 
#    0.000    0.000    0.000    0.000    0.000    0.000 
#
# Total GULP energy -72413.351058 kJ/mol
# GULP energy per Si atom -5570.257774 kJ/mol
# Density = 2.686694 g / cm^3
# Si number density = 26.928234 Si / 1000 Ang^3
#
#
#
# Elastic Constant Matrix: (Units=GPa)
#
#
# Indices 1 2 3 4 5 6 
#
# 1 104.7045 17.8765 16.0142 18.5598 -14.2520 -2.3804
# 2 17.8765 106.2255 27.7688 -1.5522 0.8254 18.0738
# 3 16.0142 27.7688 48.8441 0.0603 10.0421 0.8032
# 4 18.5598 -1.5522 0.0603 24.2928 15.3066 -6.9116
# 5 -14.2520 0.8254 10.0421 15.3066 43.1726 6.2618
# 6 -2.3804 18.0738 0.8032 -6.9116 6.2618 30.2620
#
#
#
# Elastic Compliance Matrix: (Units=1/GPa)
#
#
# Indices 1 2 3 4 5 6 
#
# 1 0.019246 0.000706 -0.010887 -0.030923 0.021299 -0.010089
# 2 0.000706 0.013161 -0.008700 -0.006119 0.005645 -0.010140
# 3 -0.010887 -0.008700 0.033315 0.025705 -0.022313 0.013943
# 4 -0.030923 -0.006119 0.025705 0.115147 -0.062669 0.039806
# 5 0.021299 0.005645 -0.022313 -0.062669 0.061579 -0.028159
# 6 -0.010089 -0.010140 0.013943 0.039806 -0.028159 0.052855
#
#
# Mechanical properties :
#
#
# Convention : Reuss Voigt Hill
#
# Bulk Modulus (GPa) = 35.76347 42.56588 39.16468
# Shear Modulus (GPa) = 14.60337 32.75311 23.67824
#
# Velocity S-wave (km/s) = 2.33127 3.49135 2.96853
# Velocity P-wave (km/s) = 4.53391 5.66517 5.13081
#
# Compressibility (1/GPa) = 0.02796149
#
# Stress axis : x y z
#
# Youngs Moduli (GPa) = 51.95789 75.97935 30.01625
#
# Poissons Ratio (x) = -0.05365 0.32677
# Poissons Ratio (y) = -0.03669 0.26115
# Poissons Ratio (z) = 0.56564 0.66105
#
# Static dielectric constant tensor:
#      x y z
#    x 1.647150 -0.313230 -0.046580 
#    y -0.313230 1.857770 -0.047060 
#    z -0.046580 -0.047060 2.236520 
# 
# From -- ./inp_files/252977.got.cif
#   From: 2010.05.17/outbox.cif.g08.bks.cpg/sg2_127_cif.got.tgz:252977.got - 2010.06.03 11:33:40.
