data_PCOD9021149
_publ_section_title
;
Structure prediction by ZEFSAII (Michael W. Deem and Ramdas Pophale) SiO2 
 PCOD9021149
Probable space group: P -1
;
_chemical_formula_sum "Si O2"
_cell_formula_units_Z 10
_cell_length_a 15.638673
_cell_length_b 6.697999
_cell_length_c 13.999746
_cell_angle_alpha 55.465829
_cell_angle_beta 153.534119
_cell_angle_gamma 120.496341
_cell_volume 538.380182
_symmetry_space_group_name_H-M "P -1"
_symmetry_group_IT_number 2
_symmetry_cell_setting 'triclinic'
loop_
_space_group_symop_operation_xyz
x,y,z
-x,-y,-z
loop_
_atom_site_type_symbol
_atom_site_label
_atom_site_fract_x
_atom_site_fract_y
_atom_site_fract_z
Si Si1 0.499999 0.755761 0.504090
Si Si2 0.500000 0.084923 0.868506
Si Si3 0.772900 0.520089 0.980419
Si Si4 0.772904 0.479903 0.565387
Si Si5 0.499996 0.846182 0.744052
O O1 0.316381 0.609541 0.398379
O O2 0.500000 0.000000 0.500000
O O3 0.500001 0.873280 0.368383
O O4 0.316385 0.390467 0.234386
O O5 0.317239 0.259005 0.619019
O O6 0.499997 0.866240 0.852055
O O7 0.682765 0.258995 0.984546
O O8 0.500000 0.000000 0.000000
O O9 0.999998 0.524574 0.206425
O O10 0.680498 0.704279 0.916630
O O11 0.680509 0.295710 0.444380
#
# Coordination Sequence:
#
# PCOD9021149 Si02
#       5
#     2   2   2   2   2
#     4   7  15  31  52  77 107 130 156 202 257 307
#     4  10  22  38  51  70 104 139 173 213 250 289
#     4   9  19  34  54  80 103 128 168 210 250 304
#     4   9  19  34  54  80 103 128 168 210 250 304
#     4   9  19  35  54  75 104 138 164 201 258 304
#
# _framework density 18.574235000000002
#
# number of rings (size 3 to 8) (size 9 to 14) (size 15 to 20)
#    0.000    4.000    0.000    0.000    0.000   16.000 
#    0.000    4.000    0.000    0.000    0.000    0.000 
#    0.000    0.000    0.000    0.000    0.000    0.000 
#
# Total GULP energy -55674.935046 kJ/mol
# GULP energy per Si atom -5567.493505 kJ/mol
# Density = 1.853196 g / cm^3
# Si number density = 18.574235 Si / 1000 Ang^3
#
#
#
# Elastic Constant Matrix: (Units=GPa)
#
#
# Indices 1 2 3 4 5 6 
#
# 1 47.9541 10.6283 48.4985 10.3899 9.6379 -10.5562
# 2 10.6283 65.4242 16.1559 7.6588 9.5746 -14.3595
# 3 48.4985 16.1559 91.0326 7.3715 48.3736 -1.4978
# 4 10.3899 7.6588 7.3715 13.0141 -0.9348 -11.9193
# 5 9.6379 9.5746 48.3736 -0.9348 51.0365 8.2994
# 6 -10.5562 -14.3595 -1.4978 -11.9193 8.2994 24.1012
#
#
#
# Elastic Compliance Matrix: (Units=1/GPa)
#
#
# Indices 1 2 3 4 5 6 
#
# 1 0.092894 0.000009 -0.075575 -0.020408 0.052438 0.007846
# 2 0.000009 0.019063 -0.000356 0.001268 -0.005469 0.013850
# 3 -0.075575 -0.000356 0.086717 0.004117 -0.067339 -0.002700
# 4 -0.020408 0.001268 0.004117 0.155426 -0.009163 0.072094
# 5 0.052438 -0.005469 -0.067339 -0.009163 0.076893 -0.015486
# 6 0.007846 0.013850 -0.002700 0.072094 -0.015486 0.093999
#
#
# Mechanical properties :
#
#
# Convention : Reuss Voigt Hill
#
# Bulk Modulus (GPa) = 21.35438 39.44180 30.39809
# Shear Modulus (GPa) = 7.22077 26.23890 16.72983
#
# Velocity S-wave (km/s) = 1.97382 3.76260 3.00442
# Velocity P-wave (km/s) = 4.08856 6.33696 5.33261
#
# Compressibility (1/GPa) = 0.04682880
#
# Stress axis : x y z
#
# Youngs Moduli (GPa) = 10.76498 52.45695 11.53175
#
# Poissons Ratio (x) = -0.00045 0.87151
# Poissons Ratio (y) = -0.00009 0.00411
# Poissons Ratio (z) = 0.81356 0.01870
#
# Static dielectric constant tensor:
#      x y z
#    x 1.673700 -0.004920 -0.052090 
#    y -0.004920 1.685990 -0.002540 
#    z -0.052090 -0.002540 1.632650 
# 
# From -- ./inp_files/18703.got.cif
#   From: 2010.05.17/outbox.cif.g08.bks.cpg/sg2_10_cif.got.tgz:18703.got - 2010.06.03 11:33:40.
