data_PCOD9021357
_publ_section_title
;
Structure prediction by ZEFSAII (Michael W. Deem and Ramdas Pophale) SiO2 
 PCOD9021357
Probable space group: P -1
;
_chemical_formula_sum "Si O2"
_cell_formula_units_Z 15
_cell_length_a 23.064505
_cell_length_b 12.093653
_cell_length_c 5.082514
_cell_angle_alpha 110.803098
_cell_angle_beta 120.561462
_cell_angle_gamma 29.075852
_cell_volume 579.600023
_symmetry_space_group_name_H-M "P -1"
_symmetry_group_IT_number 2
_symmetry_cell_setting 'triclinic'
loop_
_space_group_symop_operation_xyz
x,y,z
-x,-y,-z
loop_
_atom_site_type_symbol
_atom_site_label
_atom_site_fract_x
_atom_site_fract_y
_atom_site_fract_z
Si Si1 0.079077 0.561362 0.256843
Si Si2 0.500000 0.000000 0.500000
Si Si3 0.342141 0.402384 0.089127
Si Si4 0.895609 0.273668 0.854420
Si Si5 0.843094 0.789400 0.631941
Si Si6 0.706956 0.097413 0.083047
Si Si7 0.115405 0.971524 0.478317
Si Si8 0.470491 0.299843 0.770501
O O1 0.168171 0.519898 0.270466
O O2 0.153536 0.355748 0.435870
O O3 0.980417 0.797898 0.382959
O O4 0.987282 0.623022 0.901470
O O5 0.418995 0.173131 0.193846
O O6 0.557853 0.048457 0.711899
O O7 0.188425 0.615761 0.979755
O O8 0.385978 0.437114 0.425883
O O9 0.383682 0.382750 0.883217
O O10 0.888340 0.162016 0.587765
O O11 0.046257 0.076506 0.118160
O O12 0.806284 0.881356 0.332210
O O13 0.741108 0.001935 0.786803
O O14 0.744542 0.177382 0.275351
O O15 0.564032 0.269781 0.991176
#
# Coordination Sequence:
#
# PCOD9021357 Si02
#       8
#     2   1   2   2   2   2   2   2
#     4  10  22  38  60  94 131 166 209 266 317 393
#     4   8  22  38  60  90 124 164 208 254 324 370
#     4  10  23  39  62  93 123 165 212 260 315 376
#     4  11  23  42  63  93 129 174 217 266 311 389
#     4  10  23  36  65  96 132 163 210 255 337 380
#     4  11  22  43  64  96 130 170 210 269 318 391
#     4  10  24  41  65  91 128 175 219 260 322 376
#     4  10  22  40  61  89 126 162 209 261 320 372
#
# _framework density 25.879918
#
# number of rings (size 3 to 8) (size 9 to 14) (size 15 to 20)
#    0.800    1.067    1.333    1.600    5.600    1.600 
#    0.000    1.333    0.000    0.000    0.000    0.000 
#    0.000    0.000    0.000    0.000    0.000    0.000 
#
# Total GULP energy -83574.774905 kJ/mol
# GULP energy per Si atom -5571.651660 kJ/mol
# Density = 2.582101 g / cm^3
# Si number density = 25.879918 Si / 1000 Ang^3
#
#
#
# Elastic Constant Matrix: (Units=GPa)
#
#
# Indices 1 2 3 4 5 6 
#
# 1 123.5672 13.5256 27.4132 6.2412 24.2177 4.3913
# 2 13.5256 51.8692 9.4977 14.5536 4.5255 9.4252
# 3 27.4132 9.4977 75.0704 -9.5427 23.2152 3.6402
# 4 6.2412 14.5536 -9.5427 25.4054 8.5233 9.3839
# 5 24.2177 4.5255 23.2152 8.5233 42.6707 -2.1534
# 6 4.3913 9.4252 3.6402 9.3839 -2.1534 36.9192
#
#
#
# Elastic Compliance Matrix: (Units=1/GPa)
#
#
# Indices 1 2 3 4 5 6 
#
# 1 0.009567 -0.001424 -0.002155 -0.000790 -0.003979 -0.000593
# 2 -0.001424 0.025713 -0.006700 -0.018426 0.005369 -0.000738
# 3 -0.002155 -0.006700 0.022231 0.019812 -0.014427 -0.006102
# 4 -0.000790 -0.018426 0.019812 0.071627 -0.023528 -0.016734
# 5 -0.003979 0.005369 -0.014427 -0.023528 0.038113 0.008728
# 6 -0.000593 -0.000738 -0.006102 -0.016734 0.008728 0.032709
#
#
# Mechanical properties :
#
#
# Convention : Reuss Voigt Hill
#
# Bulk Modulus (GPa) = 27.06056 39.04222 33.05139
# Shear Modulus (GPa) = 21.47431 34.33706 27.90568
#
# Velocity S-wave (km/s) = 2.88369 3.64646 3.28727
# Velocity P-wave (km/s) = 4.64397 5.73128 5.21603
#
# Compressibility (1/GPa) = 0.03695415
#
# Stress axis : x y z
#
# Youngs Moduli (GPa) = 104.52129 38.89106 44.98183
#
# Poissons Ratio (x) = 0.05536 0.09693
# Poissons Ratio (y) = 0.14879 0.30139
# Poissons Ratio (z) = 0.22523 0.26058
#
# Static dielectric constant tensor:
#      x y z
#    x 2.061790 -0.080580 0.038560 
#    y -0.080580 2.170520 -0.031120 
#    z 0.038560 -0.031120 2.112520 
# 
# From -- ./inp_files/118353.got.cif
#   From: 2010.05.17/outbox.cif.g08.bks.cpg/sg2_60_cif.got.tgz:118353.got - 2010.06.03 11:33:40.
