data_PCOD9021225
_publ_section_title
;
Structure prediction by ZEFSAII (Michael W. Deem and Ramdas Pophale) SiO2 
 PCOD9021225
Probable space group: P -1
;
_chemical_formula_sum "Si O2"
_cell_formula_units_Z 16
_cell_length_a 15.602662
_cell_length_b 9.234814
_cell_length_c 5.540262
_cell_angle_alpha 83.721877
_cell_angle_beta 55.036171
_cell_angle_gamma 93.553667
_cell_volume 642.622759
_symmetry_space_group_name_H-M "P -1"
_symmetry_group_IT_number 2
_symmetry_cell_setting 'triclinic'
loop_
_space_group_symop_operation_xyz
x,y,z
-x,-y,-z
loop_
_atom_site_type_symbol
_atom_site_label
_atom_site_fract_x
_atom_site_fract_y
_atom_site_fract_z
Si Si1 0.528763 0.922478 0.721467
Si Si2 0.023487 0.177525 0.428727
Si Si3 0.330689 0.477813 0.481681
Si Si4 0.540438 0.672448 0.061571
Si Si5 0.983405 0.820740 0.062423
Si Si6 0.308099 0.174033 0.820803
Si Si7 0.778179 0.252784 0.326586
Si Si8 0.781349 0.135066 0.840531
O O1 0.649564 0.903273 0.469670
O O2 0.500000 0.000000 0.500000
O O3 0.492248 0.751321 0.893783
O O4 0.500000 0.000000 0.000000
O O5 0.071869 0.230590 0.087458
O O6 0.903154 0.212402 0.618033
O O7 0.075296 0.231141 0.587120
O O8 0.000000 0.000000 0.500000
O O9 0.440652 0.577669 0.369745
O O10 0.294677 0.335404 0.727577
O O11 0.242805 0.583842 0.610334
O O12 0.372443 0.419532 0.171272
O O13 0.602326 0.788813 0.125246
O O14 0.099664 0.773774 0.883018
O O15 0.000000 0.000000 0.000000
O O16 0.224083 0.040842 0.082703
O O17 0.733077 0.161652 0.653624
O O18 0.733086 0.202384 0.143070
#
# Coordination Sequence:
#
# PCOD9021225 Si02
#       8
#     2   2   2   2   2   2   2   2
#     4  11  23  38  59  85 108 144 193 252 299 340
#     4   8  14  29  50  79 114 142 172 217 280 346
#     4  10  24  40  59  79 114 160 202 241 290 352
#     4  10  23  42  58  79 109 165 204 240 290 353
#     4   8  14  28  52  82 113 138 175 226 283 334
#     4  11  24  40  60  81 120 150 198 247 304 341
#     4  10  22  38  58  89 116 148 192 244 287 348
#     4  10  23  35  58  91 116 142 190 246 297 331
#
# _framework density 24.897964000000002
#
# number of rings (size 3 to 8) (size 9 to 14) (size 15 to 20)
#    0.000    2.250    1.250    0.375    8.750    0.000 
#    0.000    0.000    0.000    0.000    0.000   28.000 
#    0.000    0.000    0.000    0.000    0.000    0.000 
#
# Total GULP energy -89105.979740 kJ/mol
# GULP energy per Si atom -5569.123734 kJ/mol
# Density = 2.484129 g / cm^3
# Si number density = 24.897964 Si / 1000 Ang^3
#
#
#
# Elastic Constant Matrix: (Units=GPa)
#
#
# Indices 1 2 3 4 5 6 
#
# 1 60.9604 32.5071 73.4794 0.5099 16.3401 -5.0732
# 2 32.5071 140.6063 58.0098 6.9025 5.8243 -34.2443
# 3 73.4794 58.0098 155.7885 5.0662 59.2268 -1.0107
# 4 0.5099 6.9025 5.0662 48.3152 1.2651 -3.1952
# 5 16.3401 5.8243 59.2268 1.2651 52.5280 3.8606
# 6 -5.0732 -34.2443 -1.0107 -3.1952 3.8606 35.0493
#
#
#
# Elastic Compliance Matrix: (Units=1/GPa)
#
#
# Indices 1 2 3 4 5 6 
#
# 1 0.046999 0.002165 -0.030040 0.002272 0.018499 0.006222
# 2 0.002165 0.012413 -0.007803 -0.000370 0.005910 0.011531
# 3 -0.030040 -0.007803 0.033914 -0.001947 -0.027383 -0.008155
# 4 0.002272 -0.000370 -0.001947 0.021021 0.000896 0.001729
# 5 0.018499 0.005910 -0.027383 0.000896 0.043262 0.002979
# 6 0.006222 0.011531 -0.008155 0.001729 0.002979 0.040292
#
#
# Mechanical properties :
#
#
# Convention : Reuss Voigt Hill
#
# Bulk Modulus (GPa) = 45.51795 76.14975 60.83385
# Shear Modulus (GPa) = 18.07787 40.06909 29.07348
#
# Velocity S-wave (km/s) = 2.69751 4.01600 3.42088
# Velocity P-wave (km/s) = 5.29373 7.22187 6.33163
#
# Compressibility (1/GPa) = 0.02196936
#
# Stress axis : x y z
#
# Youngs Moduli (GPa) = 21.27696 80.56361 29.48623
#
# Poissons Ratio (x) = -0.17445 0.88578
# Poissons Ratio (y) = -0.04607 0.23009
# Poissons Ratio (z) = 0.63917 0.62865
#
# Static dielectric constant tensor:
#      x y z
#    x 2.021990 -0.044200 0.061890 
#    y -0.044200 1.984010 0.007760 
#    z 0.061890 0.007760 2.035240 
# 
# From -- ./inp_files/116000.got.cif
#   From: 2010.05.17/outbox.cif.g08.bks.cpg/sg2_58_cif.got.tgz:116000.got - 2010.06.03 11:33:40.
