data_PCOD9021820
_publ_section_title
;
Structure prediction by ZEFSAII (Michael W. Deem and Ramdas Pophale) SiO2 
 PCOD9021820
Probable space group: P -1
;
_chemical_formula_sum "Si O2"
_cell_formula_units_Z 16
_cell_length_a 19.536901
_cell_length_b 8.037311
_cell_length_c 5.103110
_cell_angle_alpha 85.622742
_cell_angle_beta 69.106541
_cell_angle_gamma 66.978823
_cell_volume 687.141045
_symmetry_space_group_name_H-M "P -1"
_symmetry_group_IT_number 2
_symmetry_cell_setting 'triclinic'
loop_
_space_group_symop_operation_xyz
x,y,z
-x,-y,-z
loop_
_atom_site_type_symbol
_atom_site_label
_atom_site_fract_x
_atom_site_fract_y
_atom_site_fract_z
Si Si1 0.164186 0.995841 0.192679
Si Si2 0.374519 0.694865 0.731864
Si Si3 0.316478 0.465564 0.226266
Si Si4 0.225723 0.783465 0.649919
Si Si5 0.998626 0.118913 0.238375
Si Si6 0.089230 0.486553 0.815231
Si Si7 0.192642 0.320802 0.195183
Si Si8 0.473710 0.375963 0.249103
O O1 0.219241 0.110331 0.104847
O O2 0.080908 0.142436 0.181501
O O3 0.173366 0.912442 0.478490
O O4 0.180060 0.836770 0.979201
O O5 0.306685 0.814545 0.610192
O O6 0.425039 0.509570 0.530624
O O7 0.441369 0.761496 0.740888
O O8 0.331466 0.625692 0.026878
O O9 0.260882 0.577078 0.528875
O O10 0.266549 0.373751 0.151972
O O11 0.404822 0.330098 0.210004
O O12 0.927515 0.311332 0.288350
O O13 0.000000 0.000000 0.500000
O O14 0.000000 0.000000 0.000000
O O15 0.136848 0.355177 0.528824
O O16 0.140501 0.439913 0.014762
O O17 0.000000 0.500000 0.000000
O O18 0.500000 0.500000 0.000000
#
# Coordination Sequence:
#
# PCOD9021820 Si02
#       8
#     2   2   2   2   2   2   2   2
#     4  12  26  44  60  92 131 170 205 271 337 390
#     4   9  17  35  62  98 128 170 211 268 319 379
#     4  10  22  38  66 100 126 168 219 273 318 386
#     4  11  23  39  64  90 130 164 215 258 323 381
#     4  12  28  43  68  96 126 165 221 280 333 392
#     4  12  27  49  69  92 129 178 225 269 336 406
#     4  12  28  43  71  94 132 174 221 272 333 394
#     4   8  16  32  59  97 133 162 211 269 316 375
#
# _framework density 23.284883000000001
#
# number of rings (size 3 to 8) (size 9 to 14) (size 15 to 20)
#    0.000    1.250    2.500    2.625   10.500    0.000 
#    0.000    0.000    0.000    1.500    0.000    0.000 
#    0.000    0.000    0.000    0.000    0.000    0.000 
#
# Total GULP energy -89297.083703 kJ/mol
# GULP energy per Si atom -5581.067731 kJ/mol
# Density = 2.323189 g / cm^3
# Si number density = 23.284883 Si / 1000 Ang^3
#
#
#
# Elastic Constant Matrix: (Units=GPa)
#
#
# Indices 1 2 3 4 5 6 
#
# 1 201.3394 19.6021 32.6761 -14.2767 19.5574 -6.2505
# 2 19.6021 34.3706 7.9177 -5.3582 7.4855 15.3500
# 3 32.6761 7.9177 121.6747 -2.5478 18.1534 2.9983
# 4 -14.2767 -5.3582 -2.5478 23.7505 -3.8685 7.9398
# 5 19.5574 7.4855 18.1534 -3.8685 40.6650 -3.7547
# 6 -6.2505 15.3500 2.9983 7.9398 -3.7547 32.7705
#
#
#
# Elastic Compliance Matrix: (Units=1/GPa)
#
#
# Indices 1 2 3 4 5 6 
#
# 1 0.005811 -0.003593 -0.001167 0.001560 -0.001245 0.002378
# 2 -0.003593 0.048150 0.000102 0.016829 -0.008190 -0.028265
# 3 -0.001167 0.000102 0.009114 0.000233 -0.003650 -0.001579
# 4 0.001560 0.016829 0.000233 0.053658 -0.000758 -0.020694
# 5 -0.001245 -0.008190 -0.003650 -0.000758 0.028941 0.007432
# 6 0.002378 -0.028265 -0.001579 -0.020694 0.007432 0.050218
#
#
# Mechanical properties :
#
#
# Convention : Reuss Voigt Hill
#
# Bulk Modulus (GPa) = 18.60120 53.08629 35.84374
# Shear Modulus (GPa) = 22.40868 39.24978 30.82923
#
# Velocity S-wave (km/s) = 3.10557 4.11010 3.64263
# Velocity P-wave (km/s) = 4.56786 6.73587 5.75488
#
# Compressibility (1/GPa) = 0.05375999
#
# Stress axis : x y z
#
# Youngs Moduli (GPa) = 172.07921 20.76822 109.72500
#
# Poissons Ratio (x) = 0.07462 0.12806
# Poissons Ratio (y) = 0.61830 -0.01124
# Poissons Ratio (z) = 0.20083 -0.00213
#
# Static dielectric constant tensor:
#      x y z
#    x 2.087380 0.009120 -0.110120 
#    y 0.009120 1.855880 -0.019560 
#    z -0.110120 -0.019560 2.006930 
# 
# From -- ./inp_files/105119.got.cif
#   From: 2010.05.17/outbox.cif.g08.bks.cpg/sg2_53_cif.got.tgz:105119.got - 2010.06.03 11:33:40.
