data_PCOD9021624
_publ_section_title
;
Structure prediction by ZEFSAII (Michael W. Deem and Ramdas Pophale) SiO2 
 PCOD9021624
Probable space group: P -1
;
_chemical_formula_sum "Si O2"
_cell_formula_units_Z 14
_cell_length_a 26.045651
_cell_length_b 16.194984
_cell_length_c 5.317852
_cell_angle_alpha 105.388066
_cell_angle_beta 95.276780
_cell_angle_gamma 18.974207
_cell_volume 606.065919
_symmetry_space_group_name_H-M "P -1"
_symmetry_group_IT_number 2
_symmetry_cell_setting 'triclinic'
loop_
_space_group_symop_operation_xyz
x,y,z
-x,-y,-z
loop_
_atom_site_type_symbol
_atom_site_label
_atom_site_fract_x
_atom_site_fract_y
_atom_site_fract_z
Si Si1 0.551121 0.688335 0.278333
Si Si2 0.853930 0.773366 0.969677
Si Si3 0.621807 0.674873 0.775718
Si Si4 0.347656 0.668194 0.047830
Si Si5 0.183660 0.314558 0.459285
Si Si6 0.840738 0.973497 0.250900
Si Si7 0.772450 0.614243 0.837063
O O1 0.655694 0.555636 0.465432
O O2 0.335134 0.051611 0.519993
O O3 0.603927 0.657775 0.025744
O O4 0.575018 0.550146 0.127637
O O5 0.754397 0.852248 0.864803
O O6 0.976450 0.622243 0.683497
O O7 0.000000 0.500000 0.000000
O O8 0.761040 0.002674 0.242272
O O9 0.766203 0.522091 0.740349
O O10 0.431201 0.027536 0.901410
O O11 0.235634 0.854099 0.406115
O O12 0.500000 0.500000 0.000000
O O13 0.223538 0.884460 0.923596
O O14 0.193395 0.393498 0.419425
O O15 0.060725 0.620339 0.101963
#
# Coordination Sequence:
#
# PCOD9021624 Si02
#       7
#     2   2   2   2   2   2   2
#     4  11  24  44  65  91 129 179 223 261 322 383
#     4  11  22  36  62 100 131 160 206 270 343 389
#     4  10  24  43  71  99 133 166 216 279 332 389
#     4  12  28  46  66  93 133 181 223 263 314 389
#     4  10  22  38  63  96 134 167 210 270 333 406
#     4  12  25  43  67  97 133 172 219 269 323 389
#     4  10  22  43  68 103 130 168 213 276 342 385
#
# _framework density 23.099798
#
# number of rings (size 3 to 8) (size 9 to 14) (size 15 to 20)
#    0.000    1.143    1.429    3.857    6.000    8.571 
#    0.000    4.286    0.000    0.000    0.000    0.000 
#    0.000    0.000    0.000    0.000    0.000    0.000 
#
# Total GULP energy -78278.400223 kJ/mol
# GULP energy per Si atom -5591.314302 kJ/mol
# Density = 2.304722 g / cm^3
# Si number density = 23.099798 Si / 1000 Ang^3
#
#
#
# Elastic Constant Matrix: (Units=GPa)
#
#
# Indices 1 2 3 4 5 6 
#
# 1 133.5996 4.1396 42.7233 4.1159 12.3726 6.6330
# 2 4.1396 74.3049 23.7446 -9.3366 -1.1669 14.8579
# 3 42.7233 23.7446 105.2658 -19.6908 15.3401 4.8775
# 4 4.1159 -9.3366 -19.6908 29.2011 -3.9817 5.9417
# 5 12.3726 -1.1669 15.3401 -3.9817 26.1898 1.5782
# 6 6.6330 14.8579 4.8775 5.9417 1.5782 32.6477
#
#
#
# Elastic Compliance Matrix: (Units=1/GPa)
#
#
# Indices 1 2 3 4 5 6 
#
# 1 0.009215 0.000367 -0.004238 -0.004273 -0.002474 -0.000509
# 2 0.000367 0.016863 -0.003075 0.005498 0.003725 -0.008470
# 3 -0.004238 -0.003075 0.014378 0.008864 -0.005133 -0.001253
# 4 -0.004273 0.005498 0.008864 0.045558 0.004689 -0.011476
# 5 -0.002474 0.003725 -0.005133 0.004689 0.043440 -0.003379
# 6 -0.000509 -0.008470 -0.001253 -0.011476 -0.003379 0.037027
#
#
# Mechanical properties :
#
#
# Convention : Reuss Voigt Hill
#
# Bulk Modulus (GPa) = 37.64462 50.48727 44.06595
# Shear Modulus (GPa) = 26.42325 33.77858 30.10092
#
# Velocity S-wave (km/s) = 3.38579 3.82814 3.61374
# Velocity P-wave (km/s) = 5.62287 6.43763 6.04400
#
# Compressibility (1/GPa) = 0.02656422
#
# Stress axis : x y z
#
# Youngs Moduli (GPa) = 108.51971 59.30066 69.55282
#
# Poissons Ratio (x) = -0.02176 0.29476
# Poissons Ratio (y) = -0.03981 0.21385
# Poissons Ratio (z) = 0.45991 0.18233
#
# Static dielectric constant tensor:
#      x y z
#    x 1.877490 -0.027240 -0.001330 
#    y -0.027240 1.868770 0.003850 
#    z -0.001330 0.003850 1.993680 
# 
# From -- ./inp_files/65481.got.cif
#   From: 2010.05.17/outbox.cif.g08.bks.cpg/sg2_33_cif.got.tgz:65481.got - 2010.06.03 11:33:40.
