data_PCOD9021539
_publ_section_title
;
Structure prediction by ZEFSAII (Michael W. Deem and Ramdas Pophale) SiO2 
 PCOD9021539
Probable space group: P -1
;
_chemical_formula_sum "Si O2"
_cell_formula_units_Z 16
_cell_length_a 21.470667
_cell_length_b 10.851740
_cell_length_c 5.570581
_cell_angle_alpha 123.693772
_cell_angle_beta 110.301391
_cell_angle_gamma 35.138472
_cell_volume 605.906118
_symmetry_space_group_name_H-M "P -1"
_symmetry_group_IT_number 2
_symmetry_cell_setting 'triclinic'
loop_
_space_group_symop_operation_xyz
x,y,z
-x,-y,-z
loop_
_atom_site_type_symbol
_atom_site_label
_atom_site_fract_x
_atom_site_fract_y
_atom_site_fract_z
Si Si1 0.969855 0.228327 0.746338
Si Si2 0.786023 0.384702 0.834862
Si Si3 0.553172 0.258492 0.425012
Si Si4 0.350810 0.116105 0.249728
Si Si5 0.921389 0.894151 0.729185
Si Si6 0.745383 0.969186 0.735930
Si Si7 0.686622 0.337757 0.313743
Si Si8 0.606481 0.678484 0.257088
O O1 0.003158 0.251919 0.570012
O O2 0.839909 0.436447 0.856563
O O3 0.021156 0.197303 0.030477
O O4 0.000000 0.000000 0.500000
O O5 0.774862 0.270364 0.507029
O O6 0.862949 0.161976 0.897059
O O7 0.665240 0.635719 0.052809
O O8 0.500000 0.500000 0.500000
O O9 0.632979 0.167724 0.644350
O O10 0.435232 0.397261 0.479608
O O11 0.621369 0.023364 0.101019
O O12 0.255110 0.200701 0.359370
O O13 0.475338 0.892470 0.300997
O O14 0.340667 0.309958 0.455448
O O15 0.842334 0.888327 0.644848
O O16 0.720552 0.107829 0.095575
O O17 0.667932 0.413021 0.091641
#
# Coordination Sequence:
#
# PCOD9021539 Si02
#       8
#     2   2   2   2   2   2   2   2
#     4  10  22  38  62  97 134 161 210 279 335 376
#     4  11  22  38  65  91 129 166 208 265 331 380
#     4  12  22  35  59  90 124 164 209 265 316 377
#     4  11  25  41  58  89 130 170 215 256 318 385
#     4  11  23  38  63 100 130 163 216 276 326 384
#     4  12  23  37  63  87 127 166 207 266 321 380
#     4  12  22  36  62  94 124 165 216 260 318 386
#     4  11  24  41  59  89 129 171 211 260 313 397
#
# _framework density 26.406728999999999
#
# number of rings (size 3 to 8) (size 9 to 14) (size 15 to 20)
#    0.000    0.750    5.000    4.875    3.500    1.500 
#    0.000    0.000    0.000    1.500    0.000    0.000 
#    0.000    0.000    0.000    0.000    0.000    0.000 
#
# Total GULP energy -89220.866692 kJ/mol
# GULP energy per Si atom -5576.304168 kJ/mol
# Density = 2.634663 g / cm^3
# Si number density = 26.406729 Si / 1000 Ang^3
#
#
#
# Elastic Constant Matrix: (Units=GPa)
#
#
# Indices 1 2 3 4 5 6 
#
# 1 229.4904 22.0233 66.7471 -11.9407 -1.6129 -31.4777
# 2 22.0233 47.2752 23.1207 -22.1303 5.2858 -11.1333
# 3 66.7471 23.1207 121.7794 -25.8665 8.9935 -12.0547
# 4 -11.9407 -22.1303 -25.8665 35.1988 -8.2760 9.7107
# 5 -1.6129 5.2858 8.9935 -8.2760 47.4236 3.4169
# 6 -31.4777 -11.1333 -12.0547 9.7107 3.4169 39.7725
#
#
#
# Elastic Compliance Matrix: (Units=1/GPa)
#
#
# Indices 1 2 3 4 5 6 
#
# 1 0.005766 -0.001328 -0.002992 -0.002049 0.000283 0.003761
# 2 -0.001328 0.031270 -0.001172 0.017360 -0.000506 0.003152
# 3 -0.002992 -0.001172 0.011486 0.006682 -0.000928 -0.000767
# 4 -0.002049 0.017360 0.006682 0.046608 0.005336 -0.006575
# 5 0.000283 -0.000506 -0.000928 0.005336 0.022507 -0.003435
# 6 0.003761 0.003152 -0.000767 -0.006575 -0.003435 0.030670
#
#
# Mechanical properties :
#
#
# Convention : Reuss Voigt Hill
#
# Bulk Modulus (GPa) = 26.63997 69.14746 47.89371
# Shear Modulus (GPa) = 29.10267 43.58924 36.34596
#
# Velocity S-wave (km/s) = 3.32338 4.06727 3.71400
# Velocity P-wave (km/s) = 4.98364 6.94977 6.04715
#
# Compressibility (1/GPa) = 0.03753758
#
# Stress axis : x y z
#
# Youngs Moduli (GPa) = 173.41615 31.97961 87.06173
#
# Poissons Ratio (x) = 0.04246 0.26051
# Poissons Ratio (y) = 0.23027 0.10207
# Poissons Ratio (z) = 0.51890 0.03749
#
# Static dielectric constant tensor:
#      x y z
#    x 2.526660 -0.041810 -0.255280 
#    y -0.041810 2.090330 0.020040 
#    z -0.255280 0.020040 2.170740 
# 
# From -- ./inp_files/118915.got.cif
#   From: 2010.05.17/outbox.cif.g08.bks.cpg/sg2_60_cif.got.tgz:118915.got - 2010.06.03 11:33:40.
