data_PCOD9021990
_publ_section_title
;
Structure prediction by ZEFSAII (Michael W. Deem and Ramdas Pophale) SiO2 
 PCOD9021990
Probable space group: P -1
;
_chemical_formula_sum "Si O2"
_cell_formula_units_Z 16
_cell_length_a 16.930584
_cell_length_b 12.961526
_cell_length_c 8.843052
_cell_angle_alpha 87.371000
_cell_angle_beta 106.549698
_cell_angle_gamma 151.752820
_cell_volume 785.316580
_symmetry_space_group_name_H-M "P -1"
_symmetry_group_IT_number 2
_symmetry_cell_setting 'triclinic'
loop_
_space_group_symop_operation_xyz
x,y,z
-x,-y,-z
loop_
_atom_site_type_symbol
_atom_site_label
_atom_site_fract_x
_atom_site_fract_y
_atom_site_fract_z
Si Si1 0.028330 0.792435 0.037039
Si Si2 0.886122 0.988054 0.621822
Si Si3 0.616845 0.833012 0.305396
Si Si4 0.142814 0.598675 0.964094
Si Si5 0.044289 0.657791 0.438427
Si Si6 0.628803 0.938155 0.967231
Si Si7 0.777949 0.546327 0.392805
Si Si8 0.782259 0.646948 0.711312
O O1 0.969447 0.817706 0.891531
O O2 0.842653 0.501040 0.954840
O O3 0.079562 0.897184 0.222457
O O4 0.210296 0.936890 0.056812
O O5 0.737147 0.869299 0.427379
O O6 0.812267 0.796871 0.659246
O O7 0.092810 0.218123 0.633171
O O8 0.399344 0.568891 0.260717
O O9 0.628338 0.880083 0.133340
O O10 0.732417 0.055539 0.440514
O O11 0.023505 0.435901 0.761108
O O12 0.000000 0.500000 0.000000
O O13 0.313630 0.874242 0.002364
O O14 0.912400 0.597244 0.446190
O O15 0.000000 0.500000 0.500000
O O16 0.420633 0.693897 0.790106
O O17 0.745840 0.537244 0.549634
#
# Coordination Sequence:
#
# PCOD9021990 Si02
#       8
#     2   2   2   2   2   2   2   2
#     4  11  22  43  67  94 130 169 216 264 317 377
#     4  11  23  46  66  91 129 169 214 275 319 368
#     4  11  23  41  67  95 130 166 216 263 316 381
#     4  10  22  38  68  91 131 163 208 249 327 372
#     4  11  22  43  66  93 131 169 205 263 320 380
#     4  11  24  42  66  98 131 171 207 262 320 384
#     4  11  25  42  65  95 133 164 218 262 314 385
#     4  12  26  42  66  95 126 173 219 264 319 373
#
# _framework density 20.373949
#
# number of rings (size 3 to 8) (size 9 to 14) (size 15 to 20)
#    0.000    1.000    3.750    4.125    3.500    1.500 
#    0.000    3.125    0.000    0.000    0.000    0.000 
#    0.000    0.000    0.000    0.000    0.000    0.000 
#
# Total GULP energy -89318.848810 kJ/mol
# GULP energy per Si atom -5582.428051 kJ/mol
# Density = 2.032758 g / cm^3
# Si number density = 20.373949 Si / 1000 Ang^3
#
#
#
# Elastic Constant Matrix: (Units=GPa)
#
#
# Indices 1 2 3 4 5 6 
#
# 1 66.6534 28.4237 24.2274 -5.7927 5.6275 -15.1109
# 2 28.4237 100.4131 16.3277 -9.4225 12.2582 -5.5641
# 3 24.2274 16.3277 81.6281 -8.5098 -5.6338 1.3604
# 4 -5.7927 -9.4225 -8.5098 36.1854 1.5712 6.7884
# 5 5.6275 12.2582 -5.6338 1.5712 32.7359 -8.2139
# 6 -15.1109 -5.5641 1.3604 6.7884 -8.2139 29.8656
#
#
#
# Elastic Compliance Matrix: (Units=1/GPa)
#
#
# Indices 1 2 3 4 5 6 
#
# 1 0.021318 -0.004598 -0.005709 -0.001058 -0.000277 0.010354
# 2 -0.004598 0.012139 -0.001061 0.002726 -0.004542 -0.001885
# 3 -0.005709 -0.001061 0.014710 0.002821 0.002870 -0.003609
# 4 -0.001058 0.002726 0.002821 0.030538 -0.003867 -0.008161
# 5 -0.000277 -0.004542 0.002870 -0.003867 0.035355 0.009486
# 6 0.010354 -0.001885 -0.003609 -0.008161 0.009486 0.042999
#
#
# Mechanical properties :
#
#
# Convention : Reuss Voigt Hill
#
# Bulk Modulus (GPa) = 39.32445 42.96133 41.14289
# Shear Modulus (GPa) = 26.55739 31.73845 29.14792
#
# Velocity S-wave (km/s) = 3.61431 3.95117 3.78649
# Velocity P-wave (km/s) = 6.06308 6.47672 6.27331
#
# Compressibility (1/GPa) = 0.02542947
#
# Stress axis : x y z
#
# Youngs Moduli (GPa) = 46.90963 82.38151 67.98170
#
# Poissons Ratio (x) = 0.37876 0.38813
# Poissons Ratio (y) = 0.21567 0.07215
# Poissons Ratio (z) = 0.26782 0.08743
#
# Static dielectric constant tensor:
#      x y z
#    x 1.760940 -0.067900 0.049240 
#    y -0.067900 1.803990 -0.072120 
#    z 0.049240 -0.072120 1.751480 
# 
# From -- ./inp_files/246101.got.cif
#   From: 2010.05.17/outbox.cif.g08.bks.cpg/sg2_124_cif.got.tgz:246101.got - 2010.06.03 11:33:40.
