data_PCOD9021775
_publ_section_title
;
Structure prediction by ZEFSAII (Michael W. Deem and Ramdas Pophale) SiO2 
 PCOD9021775
Probable space group: P -1
;
_chemical_formula_sum "Si O2"
_cell_formula_units_Z 16
_cell_length_a 8.603401
_cell_length_b 12.819786
_cell_length_c 9.868662
_cell_angle_alpha 55.773519
_cell_angle_beta 57.076708
_cell_angle_gamma 61.887194
_cell_volume 733.628449
_symmetry_space_group_name_H-M "P -1"
_symmetry_group_IT_number 2
_symmetry_cell_setting 'triclinic'
loop_
_space_group_symop_operation_xyz
x,y,z
-x,-y,-z
loop_
_atom_site_type_symbol
_atom_site_label
_atom_site_fract_x
_atom_site_fract_y
_atom_site_fract_z
Si Si1 0.472993 0.096365 0.067603
Si Si2 0.418341 0.902086 0.705397
Si Si3 0.028399 0.461370 0.857239
Si Si4 0.067648 0.131388 0.383528
Si Si5 0.478671 0.350137 0.717387
Si Si6 0.795133 0.699972 0.618504
Si Si7 0.438521 0.396052 0.412572
Si Si8 0.807235 0.274137 0.180023
O O1 0.612068 0.047846 0.164084
O O2 0.264405 0.110427 0.221442
O O3 0.498729 0.232122 0.896615
O O4 0.500000 0.000000 0.000000
O O5 0.587839 0.769632 0.727977
O O6 0.243766 0.855416 0.757907
O O7 0.500000 0.000000 0.500000
O O8 0.911916 0.575682 0.734780
O O9 0.254315 0.421858 0.759949
O O10 0.934327 0.338684 0.974896
O O11 0.000000 0.500000 0.000000
O O12 0.094496 0.187325 0.479858
O O13 0.920156 0.239277 0.291242
O O14 0.000000 0.000000 0.500000
O O15 0.521482 0.312388 0.567631
O O16 0.594175 0.454272 0.636103
O O17 0.736593 0.652828 0.534558
O O18 0.608974 0.374012 0.238652
#
# Coordination Sequence:
#
# PCOD9021775 Si02
#       8
#     2   2   2   2   2   2   2   2
#     4  11  25  43  65  91 128 171 210 264 314 372
#     4  10  23  41  64  95 126 166 219 260 305 383
#     4  12  20  39  64  91 125 155 206 265 319 372
#     4  11  22  41  65  94 121 169 215 256 309 388
#     4  11  23  43  60  93 131 162 210 253 334 370
#     4  10  22  38  65  94 121 163 213 259 318 373
#     4  10  24  38  66  90 126 166 200 266 316 388
#     4  11  21  38  67  91 120 162 208 266 319 368
#
# _framework density 21.809404000000001
#
# number of rings (size 3 to 8) (size 9 to 14) (size 15 to 20)
#    0.000    1.250    3.750    2.250    7.000    1.500 
#    0.000    1.875    0.000    0.000    0.000    0.000 
#    0.000    0.000    0.000    0.000    0.000    0.000 
#
# Total GULP energy -89269.932678 kJ/mol
# GULP energy per Si atom -5579.370792 kJ/mol
# Density = 2.175976 g / cm^3
# Si number density = 21.809404 Si / 1000 Ang^3
#
#
#
# Elastic Constant Matrix: (Units=GPa)
#
#
# Indices 1 2 3 4 5 6 
#
# 1 104.6559 46.4447 25.5318 -4.0480 8.9487 46.9620
# 2 46.4447 73.5308 41.4657 -13.0464 4.9064 37.0246
# 3 25.5318 41.4657 99.5594 -18.6945 0.7299 31.1509
# 4 -4.0480 -13.0464 -18.6945 37.9195 7.5115 -5.9957
# 5 8.9487 4.9064 0.7299 7.5115 34.4552 1.0826
# 6 46.9620 37.0246 31.1509 -5.9957 1.0826 57.4725
#
#
#
# Elastic Compliance Matrix: (Units=1/GPa)
#
#
# Indices 1 2 3 4 5 6 
#
# 1 0.016933 -0.005986 0.001419 -0.000639 -0.003098 -0.010758
# 2 -0.005986 0.025649 -0.005764 0.004625 -0.002733 -0.007974
# 3 0.001419 -0.005764 0.014463 0.004686 -0.000725 -0.004783
# 4 -0.000639 0.004625 0.004686 0.031419 -0.007392 -0.001580
# 5 -0.003098 -0.002733 -0.000725 -0.007392 0.031740 0.003317
# 6 -0.010758 -0.007974 -0.004783 -0.001580 0.003317 0.033692
#
#
# Mechanical properties :
#
#
# Convention : Reuss Voigt Hill
#
# Bulk Modulus (GPa) = 27.48507 56.07005 41.77756
# Shear Modulus (GPa) = 26.78314 36.92304 31.85309
#
# Velocity S-wave (km/s) = 3.50816 4.11906 3.82582
# Velocity P-wave (km/s) = 5.38882 6.95608 6.22200
#
# Compressibility (1/GPa) = 0.03638339
#
# Stress axis : x y z
#
# Youngs Moduli (GPa) = 59.05774 38.98745 69.14314
#
# Poissons Ratio (x) = 0.23336 -0.09813
# Poissons Ratio (y) = 0.35349 0.39856
# Poissons Ratio (z) = -0.08381 0.22473
#
# Static dielectric constant tensor:
#      x y z
#    x 1.865730 0.022610 0.003510 
#    y 0.022610 1.866820 0.004740 
#    z 0.003510 0.004740 1.824550 
# 
# From -- ./inp_files/184817.got.cif
#   From: 2010.05.17/outbox.cif.g08.bks.cpg/sg2_93_cif.got.tgz:184817.got - 2010.06.03 11:33:40.
