data_PCOD9021372
_publ_section_title
;
Structure prediction by ZEFSAII (Michael W. Deem and Ramdas Pophale) SiO2 
 PCOD9021372
Probable space group: P -1
;
_chemical_formula_sum "Si O2"
_cell_formula_units_Z 14
_cell_length_a 9.352356
_cell_length_b 9.415272
_cell_length_c 12.261252
_cell_angle_alpha 120.433144
_cell_angle_beta 97.943188
_cell_angle_gamma 45.510573
_cell_volume 621.482660
_symmetry_space_group_name_H-M "P -1"
_symmetry_group_IT_number 2
_symmetry_cell_setting 'triclinic'
loop_
_space_group_symop_operation_xyz
x,y,z
-x,-y,-z
loop_
_atom_site_type_symbol
_atom_site_label
_atom_site_fract_x
_atom_site_fract_y
_atom_site_fract_z
Si Si1 0.053720 0.512597 0.631135
Si Si2 0.786196 0.131576 0.424377
Si Si3 0.522315 0.670002 0.327324
Si Si4 0.861154 0.368518 0.645734
Si Si5 0.616963 0.069445 0.817235
Si Si6 0.245536 0.845966 0.945129
Si Si7 0.414167 0.903270 0.806990
O O1 0.286487 0.387230 0.622264
O O2 0.000000 0.500000 0.500000
O O3 0.028674 0.372252 0.647205
O O4 0.860647 0.798723 0.748970
O O5 0.654391 0.204306 0.549106
O O6 0.814029 0.305378 0.504418
O O7 0.667450 0.145130 0.318164
O O8 0.023009 0.855148 0.348654
O O9 0.433786 0.833301 0.273207
O O10 0.631954 0.405934 0.200379
O O11 0.644258 0.636912 0.763333
O O12 0.460678 0.050574 0.830441
O O13 0.620895 0.218805 0.958406
O O14 0.257044 0.998452 0.927880
O O15 0.000000 0.000000 0.000000
#
# Coordination Sequence:
#
# PCOD9021372 Si02
#       7
#     2   2   2   2   2   2   2
#     4  11  23  39  66  99 136 172 216 274 337 392
#     4  11  23  40  69 104 130 172 218 278 341 391
#     4  12  24  44  70 100 139 172 225 277 332 395
#     4  10  22  38  61 100 133 165 214 267 336 397
#     4  11  25  45  67  97 136 181 223 271 330 401
#     4  12  26  47  69  96 133 185 228 272 328 396
#     4  11  24  45  70  95 137 173 221 277 337 391
#
# _framework density 22.526775000000001
#
# number of rings (size 3 to 8) (size 9 to 14) (size 15 to 20)
#    0.000    0.857    2.857    4.714    2.000    4.000 
#    2.571    0.714    0.000    0.000    0.000    0.000 
#    0.000    0.000    0.000    0.000    0.000    0.000 
#
# Total GULP energy -78295.964587 kJ/mol
# GULP energy per Si atom -5592.568899 kJ/mol
# Density = 2.247550 g / cm^3
# Si number density = 22.526775 Si / 1000 Ang^3
#
#
#
# Elastic Constant Matrix: (Units=GPa)
#
#
# Indices 1 2 3 4 5 6 
#
# 1 116.9640 40.9883 23.1519 -2.8728 4.5098 -9.1018
# 2 40.9883 75.0645 19.6844 -14.2614 -2.1182 -2.8734
# 3 23.1519 19.6844 77.5823 -17.0677 4.9494 -7.3322
# 4 -2.8728 -14.2614 -17.0677 24.5880 2.6633 4.6602
# 5 4.5098 -2.1182 4.9494 2.6633 33.4934 -8.0187
# 6 -9.1018 -2.8734 -7.3322 4.6602 -8.0187 30.1478
#
#
#
# Elastic Compliance Matrix: (Units=1/GPa)
#
#
# Indices 1 2 3 4 5 6 
#
# 1 0.011390 -0.006338 -0.002493 -0.004546 -0.000537 0.002788
# 2 -0.006338 0.018850 -0.000972 0.009704 0.001040 -0.001577
# 3 -0.002493 -0.000972 0.016500 0.010765 -0.002841 0.000748
# 4 -0.004546 0.009704 0.010765 0.055526 -0.006745 -0.008207
# 5 -0.000537 0.001040 -0.002841 -0.006745 0.033130 0.009100
# 6 0.002788 -0.001577 0.000748 -0.008207 0.009100 0.037732
#
#
# Mechanical properties :
#
#
# Convention : Reuss Voigt Hill
#
# Bulk Modulus (GPa) = 36.85337 48.58448 42.71892
# Shear Modulus (GPa) = 24.77951 30.03158 27.40554
#
# Velocity S-wave (km/s) = 3.32023 3.65519 3.49173
# Velocity P-wave (km/s) = 5.57619 6.27919 5.93810
#
# Compressibility (1/GPa) = 0.02713456
#
# Stress axis : x y z
#
# Youngs Moduli (GPa) = 87.79484 53.04992 60.60512
#
# Poissons Ratio (x) = 0.33622 0.15111
# Poissons Ratio (y) = 0.55643 0.05890
# Poissons Ratio (z) = 0.21891 0.05156
#
# Static dielectric constant tensor:
#      x y z
#    x 1.861030 0.060600 -0.009150 
#    y 0.060600 1.849910 0.013760 
#    z -0.009150 0.013760 1.910690 
# 
# From -- ./inp_files/186238.got.cif
#   From: 2010.05.17/outbox.cif.g08.bks.cpg/sg2_94_cif.got.tgz:186238.got - 2010.06.03 11:33:40.
