data_PCOD9021038
_publ_section_title
;
Structure prediction by ZEFSAII (Michael W. Deem and Ramdas Pophale) SiO2 
 PCOD9021038
Probable space group: P -1
;
_chemical_formula_sum "Si O2"
_cell_formula_units_Z 12
_cell_length_a 8.220531
_cell_length_b 12.007809
_cell_length_c 17.630675
_cell_angle_alpha 149.792571
_cell_angle_beta 130.931867
_cell_angle_gamma 34.022015
_cell_volume 478.233247
_symmetry_space_group_name_H-M "P -1"
_symmetry_group_IT_number 2
_symmetry_cell_setting 'triclinic'
loop_
_space_group_symop_operation_xyz
x,y,z
-x,-y,-z
loop_
_atom_site_type_symbol
_atom_site_label
_atom_site_fract_x
_atom_site_fract_y
_atom_site_fract_z
Si Si1 0.859246 0.216979 0.901610
Si Si2 0.844960 0.730534 0.658148
Si Si3 0.002756 0.260861 0.131009
Si Si4 0.824253 0.422108 0.862780
Si Si5 0.434828 0.301094 0.212242
Si Si6 0.689311 0.209056 0.441302
O O1 0.207129 0.956119 0.827314
O O2 0.788268 0.021482 0.789440
O O3 0.675580 0.423738 0.893351
O O4 0.846844 0.373533 0.066192
O O5 0.050351 0.588079 0.713497
O O6 0.528468 0.838434 0.635603
O O7 0.000000 0.500000 0.500000
O O8 0.291504 0.206903 0.163011
O O9 0.000000 0.000000 0.000000
O O10 0.638911 0.649063 0.870058
O O11 0.029140 0.088344 0.690916
O O12 0.000000 0.500000 0.000000
O O13 0.280946 0.640528 0.392169
O O14 0.500000 0.500000 0.500000
#
# Coordination Sequence:
#
# PCOD9021038 Si02
#       6
#     2   2   2   2   2   2
#     4  11  23  44  68 101 136 180 224 287 340 410
#     4  11  21  41  70  99 131 181 233 275 341 405
#     4  10  22  37  65 102 135 175 225 279 339 401
#     4  12  26  43  71 105 136 179 233 283 340 414
#     4  12  23  43  74  98 137 180 234 275 348 409
#     4  12  23  44  72 100 137 185 226 284 343 409
#
# _framework density 25.092355999999999
#
# number of rings (size 3 to 8) (size 9 to 14) (size 15 to 20)
#    0.000    0.667    6.667    1.000    2.333    0.000 
#    0.000    5.000    0.000    0.000    0.000    0.000 
#    0.000    0.000    0.000    0.000    0.000    0.000 
#
# Total GULP energy -67024.633381 kJ/mol
# GULP energy per Si atom -5585.386115 kJ/mol
# Density = 2.503525 g / cm^3
# Si number density = 25.092356 Si / 1000 Ang^3
#
#
#
# Elastic Constant Matrix: (Units=GPa)
#
#
# Indices 1 2 3 4 5 6 
#
# 1 156.2229 33.7829 38.9908 -4.3148 11.6694 19.7220
# 2 33.7829 86.6946 34.4101 -17.2005 -29.1629 34.7373
# 3 38.9908 34.4101 170.0508 -33.1188 -26.4400 4.8254
# 4 -4.3148 -17.2005 -33.1188 47.3874 14.0842 -22.3391
# 5 11.6694 -29.1629 -26.4400 14.0842 63.9300 -5.8161
# 6 19.7220 34.7373 4.8254 -22.3391 -5.8161 42.6245
#
#
#
# Elastic Compliance Matrix: (Units=1/GPa)
#
#
# Indices 1 2 3 4 5 6 
#
# 1 0.008082 -0.002713 -0.002159 -0.002085 -0.003405 -0.002842
# 2 -0.002713 0.023762 -0.003322 -0.005998 0.009501 -0.019581
# 3 -0.002159 -0.003322 0.008497 0.007310 0.001398 0.006766
# 4 -0.002085 -0.005998 0.007310 0.036433 -0.005229 0.023406
# 5 -0.003405 0.009501 0.001398 -0.005229 0.021773 -0.006095
# 6 -0.002842 -0.019581 0.006766 0.023406 -0.006095 0.051402
#
#
# Mechanical properties :
#
#
# Convention : Reuss Voigt Hill
#
# Bulk Modulus (GPa) = 41.74672 69.70398 55.72535
# Shear Modulus (GPa) = 28.68266 51.17403 39.92834
#
# Velocity S-wave (km/s) = 3.38462 4.52090 3.99338
# Velocity P-wave (km/s) = 5.65222 7.42231 6.59690
#
# Compressibility (1/GPa) = 0.02395398
#
# Stress axis : x y z
#
# Youngs Moduli (GPa) = 123.72970 42.08401 117.69014
#
# Poissons Ratio (x) = 0.11417 0.25411
# Poissons Ratio (y) = 0.33567 0.39091
# Poissons Ratio (z) = 0.26715 0.13978
#
# Static dielectric constant tensor:
#      x y z
#    x 2.298170 -0.732910 -0.310120 
#    y -0.732910 4.099110 0.699130 
#    z -0.310120 0.699130 2.471400 
# 
# From -- ./inp_files/161334.got.cif
#   From: 2010.05.17/outbox.cif.g08.bks.cpg/sg2_81_cif.got.tgz:161334.got - 2010.06.03 11:33:40.
