data_PCOD9021654
_publ_section_title
;
Structure prediction by ZEFSAII (Michael W. Deem and Ramdas Pophale) SiO2 
 PCOD9021654
Probable space group: P -1
;
_chemical_formula_sum "Si O2"
_cell_formula_units_Z 15
_cell_length_a 10.862401
_cell_length_b 8.756085
_cell_length_c 21.184312
_cell_angle_alpha 53.360382
_cell_angle_beta 149.608421
_cell_angle_gamma 136.522971
_cell_volume 698.908925
_symmetry_space_group_name_H-M "P -1"
_symmetry_group_IT_number 2
_symmetry_cell_setting 'triclinic'
loop_
_space_group_symop_operation_xyz
x,y,z
-x,-y,-z
loop_
_atom_site_type_symbol
_atom_site_label
_atom_site_fract_x
_atom_site_fract_y
_atom_site_fract_z
Si Si1 0.709164 0.113386 0.222109
Si Si2 0.480755 0.263407 0.543261
Si Si3 0.464328 0.355605 0.706336
Si Si4 0.377862 0.198280 0.272502
Si Si5 0.138166 0.122964 0.965921
Si Si6 0.500000 0.000000 0.500000
Si Si7 0.865544 0.181341 0.422047
Si Si8 0.944646 0.447982 0.795730
O O1 0.821659 0.173141 0.329543
O O2 0.923231 0.293061 0.222822
O O3 0.645551 0.866056 0.246162
O O4 0.430808 0.129911 0.087901
O O5 0.500000 0.500000 0.500000
O O6 0.784694 0.326748 0.690365
O O7 0.441214 0.164597 0.480844
O O8 0.258048 0.064544 0.540569
O O9 0.599391 0.573634 0.754485
O O10 0.702477 0.367072 0.761739
O O11 0.189394 0.327238 0.553867
O O12 0.655092 0.255497 0.339000
O O13 0.414397 0.088742 0.378373
O O14 0.088284 0.030943 0.149498
O O15 0.158718 0.360539 0.922298
O O16 0.000000 0.000000 0.000000
#
# Coordination Sequence:
#
# PCOD9021654 Si02
#       8
#     2   2   2   2   2   1   2   2
#     4  12  26  43  74 101 136 187 243 288 339 435
#     4  11  21  40  67 100 144 182 226 293 358 424
#     4  12  25  43  69 105 146 175 235 297 359 422
#     4  11  24  44  73 102 143 188 225 297 362 415
#     4  12  22  51  73  96 139 189 243 281 347 428
#     4  10  22  38  64 106 138 176 232 286 354 426
#     4  11  23  44  66 106 139 181 235 285 360 426
#     4  12  25  44  70 104 136 189 232 288 357 418
#
# _framework density 21.462025000000001
#
# number of rings (size 3 to 8) (size 9 to 14) (size 15 to 20)
#    0.000    0.533    6.667    2.800    3.733    1.600 
#    0.000    2.000    0.000    0.000    0.000    0.000 
#    0.000    0.000    0.000    0.000    0.000    0.000 
#
# Total GULP energy -83592.498270 kJ/mol
# GULP energy per Si atom -5572.833218 kJ/mol
# Density = 2.141318 g / cm^3
# Si number density = 21.462025 Si / 1000 Ang^3
#
#
#
# Elastic Constant Matrix: (Units=GPa)
#
#
# Indices 1 2 3 4 5 6 
#
# 1 34.4715 28.5379 21.7502 -1.4829 0.6958 -18.4211
# 2 28.5379 140.5928 32.8223 -15.3083 -10.6738 -8.1237
# 3 21.7502 32.8223 88.5825 -15.8126 16.6439 -6.3100
# 4 -1.4829 -15.3083 -15.8126 23.8246 5.7056 2.2503
# 5 0.6958 -10.6738 16.6439 5.7056 40.0139 -4.3199
# 6 -18.4211 -8.1237 -6.3100 2.2503 -4.3199 43.9539
#
#
#
# Elastic Compliance Matrix: (Units=1/GPa)
#
#
# Indices 1 2 3 4 5 6 
#
# 1 0.053477 -0.007763 -0.012336 -0.013277 0.006237 0.020499
# 2 -0.007763 0.009593 -0.001483 0.004249 0.002525 -0.001663
# 3 -0.012336 -0.001483 0.018999 0.013834 -0.010538 -0.004460
# 4 -0.013277 0.004249 0.013834 0.056897 -0.013260 -0.007009
# 5 0.006237 0.002525 -0.010538 -0.013260 0.032417 0.005433
# 6 0.020499 -0.001663 -0.004460 -0.007009 0.005433 0.031287
#
#
# Mechanical properties :
#
#
# Convention : Reuss Voigt Hill
#
# Bulk Modulus (GPa) = 25.70295 47.76308 36.73301
# Shear Modulus (GPa) = 19.31983 33.59423 26.45703
#
# Velocity S-wave (km/s) = 3.00357 3.96066 3.51484
# Velocity P-wave (km/s) = 4.90210 6.57410 5.79868
#
# Compressibility (1/GPa) = 0.03890605
#
# Stress axis : x y z
#
# Youngs Moduli (GPa) = 18.69966 104.24361 52.63420
#
# Poissons Ratio (x) = 0.80921 0.64929
# Poissons Ratio (y) = 0.14516 0.07805
# Poissons Ratio (z) = 0.23068 0.15459
#
# Static dielectric constant tensor:
#      x y z
#    x 1.983240 -0.075050 0.213120 
#    y -0.075050 1.873130 -0.078590 
#    z 0.213120 -0.078590 1.940760 
# 
# From -- ./inp_files/594066.got.cif
#   From: 2010.05.17/outbox.cif.g08.bks.cpg/sg2_298_cif.got.tgz:594066.got - 2010.06.03 11:33:40.
