data_PCOD9021737
_publ_section_title
;
Structure prediction by ZEFSAII (Michael W. Deem and Ramdas Pophale) SiO2 
 PCOD9021737
Probable space group: P -1
;
_chemical_formula_sum "Si O2"
_cell_formula_units_Z 16
_cell_length_a 13.733458
_cell_length_b 5.311805
_cell_length_c 14.120002
_cell_angle_alpha 75.108299
_cell_angle_beta 139.232573
_cell_angle_gamma 93.383473
_cell_volume 634.831279
_symmetry_space_group_name_H-M "P -1"
_symmetry_group_IT_number 2
_symmetry_cell_setting 'triclinic'
loop_
_space_group_symop_operation_xyz
x,y,z
-x,-y,-z
loop_
_atom_site_type_symbol
_atom_site_label
_atom_site_fract_x
_atom_site_fract_y
_atom_site_fract_z
Si Si1 0.129227 0.715810 0.512538
Si Si2 0.617123 0.824038 0.233424
Si Si3 0.172793 0.924529 0.736548
Si Si4 0.385748 0.590890 0.169458
Si Si5 0.064702 0.945440 0.160175
Si Si6 0.404941 0.778291 0.365182
Si Si7 0.913150 0.448629 0.127050
Si Si8 0.627485 0.090222 0.417235
O O1 0.234579 0.419844 0.614379
O O2 0.149014 0.819523 0.623296
O O3 0.198384 0.892573 0.469562
O O4 0.949041 0.799101 0.356759
O O5 0.459256 0.722896 0.124012
O O6 0.593890 0.997915 0.295200
O O7 0.666866 0.987256 0.167993
O O8 0.133736 0.703582 0.800172
O O9 0.339086 0.768047 0.210304
O O10 0.533982 0.386273 0.333746
O O11 0.251389 0.450836 0.054044
O O12 0.249611 0.878287 0.299599
O O13 0.001479 0.689116 0.177197
O O14 0.003922 0.215757 0.148129
O O15 0.000000 0.000000 0.000000
O O16 0.500000 0.500000 0.500000
O O17 0.542164 0.931948 0.439823
#
# Coordination Sequence:
#
# PCOD9021737 Si02
#       8
#     2   2   2   2   2   2   2   2
#     4   9  19  39  64  92 138 176 217 280 351 415
#     4   9  19  38  64  94 128 176 215 279 342 412
#     4  10  22  38  64  98 133 177 226 281 341 418
#     4  10  22  43  66  93 132 177 228 283 347 416
#     4  12  27  50  72 101 141 188 233 289 355 412
#     4  11  25  41  69  98 132 178 231 297 346 412
#     4  12  28  44  74 102 135 186 237 285 341 423
#     4   9  20  38  63  92 127 170 221 274 351 404
#
# _framework density 25.203548000000001
#
# number of rings (size 3 to 8) (size 9 to 14) (size 15 to 20)
#    0.000    1.750    1.250    1.500    7.000    4.000 
#    0.000    5.625    0.000    0.000    0.000    0.000 
#    0.000    0.000    0.000    0.000    0.000    0.000 
#
# Total GULP energy -89317.097914 kJ/mol
# GULP energy per Si atom -5582.318620 kJ/mol
# Density = 2.514618 g / cm^3
# Si number density = 25.203548 Si / 1000 Ang^3
#
#
#
# Elastic Constant Matrix: (Units=GPa)
#
#
# Indices 1 2 3 4 5 6 
#
# 1 199.8485 57.1121 39.2287 -1.9126 11.3114 35.7910
# 2 57.1121 95.5081 10.6845 4.0154 6.3971 26.9966
# 3 39.2287 10.6845 55.3078 10.9153 1.4680 8.5173
# 4 -1.9126 4.0154 10.9153 30.5881 16.7476 10.1008
# 5 11.3114 6.3971 1.4680 16.7476 42.7578 -2.6886
# 6 35.7910 26.9966 8.5173 10.1008 -2.6886 61.8090
#
#
#
# Elastic Compliance Matrix: (Units=1/GPa)
#
#
# Indices 1 2 3 4 5 6 
#
# 1 0.007952 -0.003060 -0.005636 0.006448 -0.004212 -0.003729
# 2 -0.003060 0.013590 0.000201 0.000249 -0.001599 -0.004302
# 3 -0.005636 0.000201 0.024088 -0.012896 0.005824 0.002217
# 4 0.006448 0.000249 -0.012896 0.054412 -0.023365 -0.011974
# 5 -0.004212 -0.001599 0.005824 -0.023365 0.034173 0.007640
# 6 -0.003729 -0.004302 0.002217 -0.011974 0.007640 0.022201
#
#
# Mechanical properties :
#
#
# Convention : Reuss Voigt Hill
#
# Bulk Modulus (GPa) = 34.91518 62.74611 48.83065
# Shear Modulus (GPa) = 27.32934 43.27359 35.30146
#
# Velocity S-wave (km/s) = 3.29651 4.14812 3.74659
# Velocity P-wave (km/s) = 5.32660 6.92043 6.17515
#
# Compressibility (1/GPa) = 0.02864084
#
# Stress axis : x y z
#
# Youngs Moduli (GPa) = 125.74795 73.58244 41.51403
#
# Poissons Ratio (x) = 0.22515 0.23397
# Poissons Ratio (y) = 0.38477 -0.00833
# Poissons Ratio (z) = 0.70870 -0.01477
#
# Static dielectric constant tensor:
#      x y z
#    x 2.130890 0.119530 -0.094130 
#    y 0.119530 2.122130 -0.022630 
#    z -0.094130 -0.022630 2.003010 
# 
# From -- ./inp_files/459323.got.cif
#   From: 2010.05.17/outbox.cif.g08.bks.cpg/sg2_230_cif.got.tgz:459323.got - 2010.06.03 11:33:40.
