data_PCOD9021342
_publ_section_title
;
Structure prediction by ZEFSAII (Michael W. Deem and Ramdas Pophale) SiO2 
 PCOD9021342
Probable space group: P -1
;
_chemical_formula_sum "Si O2"
_cell_formula_units_Z 14
_cell_length_a 17.804582
_cell_length_b 7.432564
_cell_length_c 10.508665
_cell_angle_alpha 73.987986
_cell_angle_beta 43.939841
_cell_angle_gamma 109.288338
_cell_volume 565.024973
_symmetry_space_group_name_H-M "P -1"
_symmetry_group_IT_number 2
_symmetry_cell_setting 'triclinic'
loop_
_space_group_symop_operation_xyz
x,y,z
-x,-y,-z
loop_
_atom_site_type_symbol
_atom_site_label
_atom_site_fract_x
_atom_site_fract_y
_atom_site_fract_z
Si Si1 0.839356 0.611833 0.567864
Si Si2 0.122980 0.770287 0.469195
Si Si3 0.221706 0.244653 0.887798
Si Si4 0.879158 0.239885 0.027701
Si Si5 0.650119 0.936190 0.616637
Si Si6 0.303971 0.360443 0.034327
Si Si7 0.266014 0.564742 0.529558
O O1 0.857133 0.409497 0.581608
O O2 0.785733 0.610824 0.770496
O O3 0.706261 0.475120 0.638644
O O4 0.016697 0.967415 0.239391
O O5 0.258081 0.994403 0.377856
O O6 0.176170 0.003684 0.261772
O O7 0.936646 0.499154 0.825291
O O8 0.331497 0.451649 0.836816
O O9 0.257622 0.412860 0.685558
O O10 0.241101 0.057057 0.855499
O O11 0.789604 0.143181 0.290511
O O12 0.066825 0.385963 0.795993
O O13 0.597658 0.081339 0.677095
O O14 0.493516 0.593506 0.824160
#
# Coordination Sequence:
#
# PCOD9021342 Si02
#       7
#     2   2   2   2   2   2   2
#     4   9  21  40  62  88 114 160 206 243 288 348
#     4   9  21  40  62  88 114 160 206 243 288 348
#     4  10  22  38  60  93 115 159 200 241 302 349
#     4   9  19  39  65  85 113 155 211 244 280 351
#     4  10  22  38  60  93 115 159 200 241 302 349
#     4  12  24  38  60  92 132 150 188 250 312 356
#     4   9  19  39  65  85 113 155 211 244 280 351
#
# _framework density 24.777666
#
# number of rings (size 3 to 8) (size 9 to 14) (size 15 to 20)
#    0.000    2.857    0.000    4.286    6.000    5.714 
#    5.143    0.000    0.000    0.000    0.000    0.000 
#    0.000    0.000    0.000    0.000    0.000    0.000 
#
# Total GULP energy -78205.918553 kJ/mol
# GULP energy per Si atom -5586.137039 kJ/mol
# Density = 2.472127 g / cm^3
# Si number density = 24.777666 Si / 1000 Ang^3
#
#
#
# Elastic Constant Matrix: (Units=GPa)
#
#
# Indices 1 2 3 4 5 6 
#
# 1 52.9137 32.8574 29.5936 1.1682 28.7420 8.8667
# 2 32.8574 132.5394 25.9306 13.6688 16.3833 18.8328
# 3 29.5936 25.9306 81.2195 -9.3613 22.1661 -2.5724
# 4 1.1682 13.6688 -9.3613 25.2524 -0.2478 8.6467
# 5 28.7420 16.3833 22.1661 -0.2478 34.8055 6.1596
# 6 8.8667 18.8328 -2.5724 8.6467 6.1596 21.5128
#
#
#
# Elastic Compliance Matrix: (Units=1/GPa)
#
#
# Indices 1 2 3 4 5 6 
#
# 1 0.040616 -0.004778 -0.006278 0.000121 -0.026259 -0.005839
# 2 -0.004778 0.010367 -0.002782 -0.004253 0.001918 -0.006279
# 3 -0.006278 -0.002782 0.018079 0.006237 -0.006113 0.006428
# 4 0.000121 -0.004253 0.006237 0.049645 0.001087 -0.015847
# 5 -0.026259 0.001918 -0.006113 0.001087 0.054777 -0.007708
# 6 -0.005839 -0.006279 0.006428 -0.015847 -0.007708 0.063732
#
#
# Mechanical properties :
#
#
# Convention : Reuss Voigt Hill
#
# Bulk Modulus (GPa) = 24.16214 49.27064 36.71639
# Shear Modulus (GPa) = 17.94126 28.20020 23.07073
#
# Velocity S-wave (km/s) = 2.69381 3.37728 3.05472
# Velocity P-wave (km/s) = 4.41002 5.92759 5.22420
#
# Compressibility (1/GPa) = 0.04138706
#
# Stress axis : x y z
#
# Youngs Moduli (GPa) = 24.62094 96.45732 55.31374
#
# Poissons Ratio (x) = 0.46084 0.34727
# Poissons Ratio (y) = 0.11763 0.15386
# Poissons Ratio (z) = 0.15457 0.26830
#
# Static dielectric constant tensor:
#      x y z
#    x 2.050210 -0.025450 -0.026400 
#    y -0.025450 1.997430 -0.010070 
#    z -0.026400 -0.010070 1.989080 
# 
# From -- ./inp_files/343538.got.cif
#   From: 2010.05.17/outbox.cif.g08.bks.cpg/sg2_172_cif.got.tgz:343538.got - 2010.06.03 11:33:40.
