data_PCOD9021185
_publ_section_title
;
Structure prediction by ZEFSAII (Michael W. Deem and Ramdas Pophale) SiO2 
 PCOD9021185
Probable space group: P -1
;
_chemical_formula_sum "Si O2"
_cell_formula_units_Z 14
_cell_length_a 10.973102
_cell_length_b 7.949988
_cell_length_c 19.507747
_cell_angle_alpha 53.696821
_cell_angle_beta 27.626936
_cell_angle_gamma 56.766430
_cell_volume 634.702659
_symmetry_space_group_name_H-M "P -1"
_symmetry_group_IT_number 2
_symmetry_cell_setting 'triclinic'
loop_
_space_group_symop_operation_xyz
x,y,z
-x,-y,-z
loop_
_atom_site_type_symbol
_atom_site_label
_atom_site_fract_x
_atom_site_fract_y
_atom_site_fract_z
Si Si1 0.229977 0.893577 0.315473
Si Si2 0.406827 0.428441 0.857532
Si Si3 0.315938 0.532695 0.149728
Si Si4 0.333304 0.988232 0.016041
Si Si5 0.289380 0.891619 0.541753
Si Si6 0.759880 0.363955 0.494820
Si Si7 0.604321 0.281327 0.332796
O O1 0.773450 0.772139 0.999980
O O2 0.234939 0.824727 0.407518
O O3 0.462677 0.039207 0.142663
O O4 0.960229 0.988036 0.397717
O O5 0.489314 0.503058 0.873146
O O6 0.316575 0.590907 0.804653
O O7 0.683178 0.318142 0.718431
O O8 0.059958 0.403254 0.316432
O O9 0.500000 0.500000 0.000000
O O10 0.194138 0.775698 0.146209
O O11 0.500000 0.000000 0.000000
O O12 0.382836 0.716603 0.482256
O O13 0.212662 0.787973 0.677005
O O14 0.492917 0.066297 0.413542
O O15 0.616662 0.564935 0.555007
#
# Coordination Sequence:
#
# PCOD9021185 Si02
#       7
#     2   2   2   2   2   2   2
#     4   9  18  35  61  88 110 142 191 243 277 327
#     4   8  18  37  57  80 114 147 190 227 289 335
#     4  11  20  32  56  91 116 143 186 243 291 330
#     4   8  17  33  54  81 109 147 176 228 280 337
#     4  11  21  34  57  90 117 145 192 238 287 336
#     4  11  22  37  59  90 115 145 192 245 282 336
#     4  10  22  38  57  85 115 157 184 239 288 337
#
# _framework density 22.057573000000001
#
# number of rings (size 3 to 8) (size 9 to 14) (size 15 to 20)
#    0.857    1.429    0.000    3.429    0.000    3.429 
#    0.000    0.000    0.000    8.571    3.714    0.000 
#    0.000    0.000    0.000    0.000    0.000    0.000 
#
# Total GULP energy -77994.640295 kJ/mol
# GULP energy per Si atom -5571.045735 kJ/mol
# Density = 2.200737 g / cm^3
# Si number density = 22.057573 Si / 1000 Ang^3
#
#
#
# Elastic Constant Matrix: (Units=GPa)
#
#
# Indices 1 2 3 4 5 6 
#
# 1 96.0377 46.4699 45.5396 -5.3721 44.9154 4.9005
# 2 46.4699 80.1529 36.9008 -7.2426 16.6733 5.3006
# 3 45.5396 36.9008 120.3360 -23.0783 42.0429 5.6590
# 4 -5.3721 -7.2426 -23.0783 41.3681 -9.1477 8.3174
# 5 44.9154 16.6733 42.0429 -9.1477 37.9291 -1.8830
# 6 4.9005 5.3006 5.6590 8.3174 -1.8830 32.9432
#
#
#
# Elastic Compliance Matrix: (Units=1/GPa)
#
#
# Indices 1 2 3 4 5 6 
#
# 1 0.033401 -0.013277 0.005284 -0.002936 -0.040547 -0.005316
# 2 -0.013277 0.020064 -0.005484 0.001684 0.013390 0.000029
# 3 0.005284 -0.005484 0.016754 0.005426 -0.021375 -0.005373
# 4 -0.002936 0.001684 0.005426 0.029485 0.003436 -0.008014
# 5 -0.040547 0.013390 -0.021375 0.003436 0.093614 0.012032
# 6 -0.005316 0.000029 -0.005373 -0.008014 0.012032 0.034776
#
#
# Mechanical properties :
#
#
# Convention : Reuss Voigt Hill
#
# Bulk Modulus (GPa) = 23.11399 61.59410 42.35405
# Shear Modulus (GPa) = 18.55504 33.62249 26.08876
#
# Velocity S-wave (km/s) = 2.90351 3.90847 3.44286
# Velocity P-wave (km/s) = 4.66285 6.95364 5.92010
#
# Compressibility (1/GPa) = 0.04326384
#
# Stress axis : x y z
#
# Youngs Moduli (GPa) = 29.93886 49.84163 59.68892
#
# Poissons Ratio (x) = 0.66174 -0.31540
# Poissons Ratio (y) = 0.39750 0.32736
# Poissons Ratio (z) = -0.15820 0.27335
#
# Static dielectric constant tensor:
#      x y z
#    x 1.800730 -0.000430 -0.021490 
#    y -0.000430 1.928280 0.026660 
#    z -0.021490 0.026660 1.867400 
# 
# From -- ./inp_files/490524.got.cif
#   From: 2010.05.17/outbox.cif.g08.bks.cpg/sg2_246_cif.got.tgz:490524.got - 2010.06.03 11:33:40.
