data_PCOD9021098
_publ_section_title
;
Structure prediction by ZEFSAII (Michael W. Deem and Ramdas Pophale) SiO2 
 PCOD9021098
Probable space group: P -1
;
_chemical_formula_sum "Si O2"
_cell_formula_units_Z 14
_cell_length_a 8.069834
_cell_length_b 9.095896
_cell_length_c 9.127071
_cell_angle_alpha 61.650579
_cell_angle_beta 104.235437
_cell_angle_gamma 93.634809
_cell_volume 570.376181
_symmetry_space_group_name_H-M "P -1"
_symmetry_group_IT_number 2
_symmetry_cell_setting 'triclinic'
loop_
_space_group_symop_operation_xyz
x,y,z
-x,-y,-z
loop_
_atom_site_type_symbol
_atom_site_label
_atom_site_fract_x
_atom_site_fract_y
_atom_site_fract_z
Si Si1 0.187808 0.983516 0.124128
Si Si2 0.175074 0.522367 0.107069
Si Si3 0.732640 0.244523 0.486270
Si Si4 0.392472 0.401138 0.643032
Si Si5 0.578301 0.789607 0.761606
Si Si6 0.370813 0.829468 0.991286
Si Si7 0.067151 0.362968 0.458869
O O1 0.227710 0.814359 0.309952
O O2 0.311815 0.984026 0.008895
O O3 0.252970 0.112780 0.199883
O O4 0.000000 0.000000 0.000000
O O5 0.336319 0.399551 0.146677
O O6 0.209476 0.714916 0.001785
O O7 0.130634 0.465555 0.287107
O O8 0.000000 0.500000 0.000000
O O9 0.691711 0.442294 0.360586
O O10 0.555843 0.174409 0.420354
O O11 0.923556 0.230553 0.462460
O O12 0.500000 0.500000 0.500000
O O13 0.505656 0.287230 0.826109
O O14 0.248188 0.290045 0.596173
O O15 0.451009 0.834154 0.847492
O O16 0.000000 0.500000 0.500000
#
# Coordination Sequence:
#
# PCOD9021098 Si02
#       7
#     2   2   2   2   2   2   2
#     4  12  28  49  69  98 142 190 234 282 344 426
#     4  12  24  41  68 106 143 172 225 294 346 402
#     4  11  23  45  69 101 137 179 232 287 346 408
#     4  11  19  39  72 104 131 178 228 288 341 402
#     4  12  27  45  70 104 142 185 229 288 354 407
#     4  12  24  44  73 100 140 179 238 276 349 421
#     4  10  22  37  67 103 137 172 226 278 345 403
#
# _framework density 24.545206
#
# number of rings (size 3 to 8) (size 9 to 14) (size 15 to 20)
#    0.000    0.571    4.286    3.857    6.000    0.000 
#    0.000    1.429    0.000    0.000    0.000    0.000 
#    0.000    0.000    0.000    0.000    0.000    0.000 
#
# Total GULP energy -78027.711864 kJ/mol
# GULP energy per Si atom -5573.407990 kJ/mol
# Density = 2.448934 g / cm^3
# Si number density = 24.545206 Si / 1000 Ang^3
#
#
#
# Elastic Constant Matrix: (Units=GPa)
#
#
# Indices 1 2 3 4 5 6 
#
# 1 105.3070 20.3673 38.9596 17.6811 30.6609 14.9643
# 2 20.3673 74.8418 6.6849 9.6047 12.9445 15.1616
# 3 38.9596 6.6849 100.5762 18.0497 38.0348 2.2212
# 4 17.6811 9.6047 18.0497 24.7543 9.3405 0.7951
# 5 30.6609 12.9445 38.0348 9.3405 57.7830 19.6625
# 6 14.9643 15.1616 2.2212 0.7951 19.6625 46.2468
#
#
#
# Elastic Compliance Matrix: (Units=1/GPa)
#
#
# Indices 1 2 3 4 5 6 
#
# 1 0.012922 -0.001618 -0.002701 -0.005383 -0.003133 -0.002097
# 2 -0.001618 0.015352 0.000992 -0.004996 -0.001057 -0.004022
# 3 -0.002701 0.000992 0.015485 -0.006375 -0.009262 0.003853
# 4 -0.005383 -0.004996 -0.006375 0.051188 -0.001236 0.003331
# 5 -0.003133 -0.001057 -0.009262 -0.001236 0.029089 -0.010541
# 6 -0.002097 -0.004022 0.003853 0.003331 -0.010541 0.027859
#
#
# Mechanical properties :
#
#
# Convention : Reuss Voigt Hill
#
# Bulk Modulus (GPa) = 26.95115 45.86095 36.40605
# Shear Modulus (GPa) = 29.25385 40.07104 34.66244
#
# Velocity S-wave (km/s) = 3.45604 4.04485 3.76199
# Velocity P-wave (km/s) = 5.18938 6.36705 5.80814
#
# Compressibility (1/GPa) = 0.03710417
#
# Stress axis : x y z
#
# Youngs Moduli (GPa) = 77.38667 65.13824 64.58011
#
# Poissons Ratio (x) = 0.10539 0.17442
# Poissons Ratio (y) = 0.12520 -0.06403
# Poissons Ratio (z) = 0.20901 -0.06459
#
# Static dielectric constant tensor:
#      x y z
#    x 2.096130 0.082380 0.040200 
#    y 0.082380 2.210370 0.170030 
#    z 0.040200 0.170030 2.270480 
# 
# From -- ./inp_files/157590.got.cif
#   From: 2010.05.17/outbox.cif.g08.bks.cpg/sg2_79_cif.got.tgz:157590.got - 2010.06.03 11:33:40.
