data_PCOD9021936
_publ_section_title
;
Structure prediction by ZEFSAII (Michael W. Deem and Ramdas Pophale) SiO2 
 PCOD9021936
Probable space group: P -1
;
_chemical_formula_sum "Si O2"
_cell_formula_units_Z 14
_cell_length_a 5.236268
_cell_length_b 11.577619
_cell_length_c 13.010069
_cell_angle_alpha 57.069019
_cell_angle_beta 71.047145
_cell_angle_gamma 59.259678
_cell_volume 567.771084
_symmetry_space_group_name_H-M "P -1"
_symmetry_group_IT_number 2
_symmetry_cell_setting 'triclinic'
loop_
_space_group_symop_operation_xyz
x,y,z
-x,-y,-z
loop_
_atom_site_type_symbol
_atom_site_label
_atom_site_fract_x
_atom_site_fract_y
_atom_site_fract_z
Si Si1 0.328377 0.600357 0.070108
Si Si2 0.905210 0.148281 0.749427
Si Si3 0.642930 0.095062 0.094935
Si Si4 0.698304 0.254692 0.424401
Si Si5 0.041256 0.364102 0.483295
Si Si6 0.333352 0.316475 0.856571
Si Si7 0.176692 0.048864 0.312023
O O1 0.250666 0.772975 0.965007
O O2 0.500000 0.500000 0.000000
O O3 0.555511 0.574391 0.146942
O O4 0.018711 0.601908 0.147030
O O5 0.559069 0.256816 0.760783
O O6 0.058377 0.234656 0.623921
O O7 0.928951 0.006488 0.748773
O O8 0.091203 0.073680 0.863961
O O9 0.443668 0.086120 0.220285
O O10 0.434719 0.165048 0.988604
O O11 0.353451 0.326886 0.404997
O O12 0.796898 0.359475 0.436004
O O13 0.927129 0.191304 0.332032
O O14 0.737154 0.099899 0.555216
O O15 0.000000 0.500000 0.500000
#
# Coordination Sequence:
#
# PCOD9021936 Si02
#       7
#     2   2   2   2   2   2   2
#     4  10  23  44  61  89 136 171 215 260 317 383
#     4  11  23  41  66  97 133 166 223 264 331 382
#     4  10  22  38  67  94 131 168 216 266 320 373
#     4  10  23  42  66  92 129 166 218 263 328 377
#     4  11  24  45  65  94 133 168 214 270 320 387
#     4  10  24  40  66  94 128 174 212 266 318 385
#     4  10  22  38  67  95 128 168 211 275 317 382
#
# _framework density 24.657827000000001
#
# number of rings (size 3 to 8) (size 9 to 14) (size 15 to 20)
#    0.857    0.857    1.429    2.143    4.000    2.857 
#    5.143    0.000    0.000    0.000    0.000    0.000 
#    0.000    0.000    0.000    0.000    0.000    0.000 
#
# Total GULP energy -78231.183359 kJ/mol
# GULP energy per Si atom -5587.941669 kJ/mol
# Density = 2.460170 g / cm^3
# Si number density = 24.657827 Si / 1000 Ang^3
#
#
#
# Elastic Constant Matrix: (Units=GPa)
#
#
# Indices 1 2 3 4 5 6 
#
# 1 129.0560 46.4568 43.0626 8.3178 -38.1399 -2.4113
# 2 46.4568 100.3643 35.7099 26.2101 -13.7042 11.3129
# 3 43.0626 35.7099 82.2244 20.1020 -26.2617 -2.5469
# 4 8.3178 26.2101 20.1020 38.0940 -9.6892 1.4761
# 5 -38.1399 -13.7042 -26.2617 -9.6892 46.3130 6.8552
# 6 -2.4113 11.3129 -2.5469 1.4761 6.8552 33.6974
#
#
#
# Elastic Compliance Matrix: (Units=1/GPa)
#
#
# Indices 1 2 3 4 5 6 
#
# 1 0.012587 -0.004821 -0.002915 0.004145 0.008083 0.000473
# 2 -0.004821 0.015808 -0.003072 -0.008531 -0.002066 -0.005090
# 3 -0.002915 -0.003072 0.018215 -0.005465 0.005685 0.001282
# 4 0.004145 -0.008531 -0.005465 0.035410 0.005177 0.000143
# 5 0.008083 -0.002066 0.005685 0.005177 0.032711 -0.005180
# 6 0.000473 -0.005090 0.001282 0.000143 -0.005180 0.032563
#
#
# Mechanical properties :
#
#
# Convention : Reuss Voigt Hill
#
# Bulk Modulus (GPa) = 40.01260 62.45590 51.23425
# Shear Modulus (GPa) = 28.20977 36.04859 32.12918
#
# Velocity S-wave (km/s) = 3.38605 3.82770 3.61363
# Velocity P-wave (km/s) = 5.61689 6.70217 6.18339
#
# Compressibility (1/GPa) = 0.02499213
#
# Stress axis : x y z
#
# Youngs Moduli (GPa) = 79.44417 63.25932 54.90081
#
# Poissons Ratio (x) = 0.30498 0.16006
# Poissons Ratio (y) = 0.38301 0.16868
# Poissons Ratio (z) = 0.23161 0.19436
#
# Static dielectric constant tensor:
#      x y z
#    x 2.263840 0.208060 -0.103780 
#    y 0.208060 2.179490 -0.188600 
#    z -0.103780 -0.188600 2.043720 
# 
# From -- ./inp_files/549478.got.cif
#   From: 2010.05.17/outbox.cif.g08.bks.cpg/sg2_275_cif.got.tgz:549478.got - 2010.06.03 11:33:40.
