data_PCOD9021604
_publ_section_title
;
Structure prediction by ZEFSAII (Michael W. Deem and Ramdas Pophale) SiO2 
 PCOD9021604
Probable space group: P -1
;
_chemical_formula_sum "Si O2"
_cell_formula_units_Z 14
_cell_length_a 5.059425
_cell_length_b 10.034910
_cell_length_c 15.833600
_cell_angle_alpha 117.438351
_cell_angle_beta 64.383323
_cell_angle_gamma 104.159239
_cell_volume 642.290755
_symmetry_space_group_name_H-M "P -1"
_symmetry_group_IT_number 2
_symmetry_cell_setting 'triclinic'
loop_
_space_group_symop_operation_xyz
x,y,z
-x,-y,-z
loop_
_atom_site_type_symbol
_atom_site_label
_atom_site_fract_x
_atom_site_fract_y
_atom_site_fract_z
Si Si1 0.731647 0.905744 0.391213
Si Si2 0.611714 0.334622 0.918705
Si Si3 0.230683 0.711523 0.312174
Si Si4 0.992791 0.845145 0.065805
Si Si5 0.613267 0.231288 0.156154
Si Si6 0.055875 0.383940 0.257999
Si Si7 0.070390 0.102734 0.264519
O O1 0.532817 0.786476 0.328303
O O2 0.964060 0.820680 0.389865
O O3 0.500000 0.000000 0.500000
O O4 0.929719 0.016900 0.337070
O O5 0.728418 0.322471 0.803072
O O6 0.331804 0.216977 0.930038
O O7 0.500000 0.500000 0.000000
O O8 0.358632 0.313321 0.165555
O O9 0.132563 0.553284 0.321657
O O10 0.805230 0.139395 0.040221
O O11 0.001972 0.997712 0.162221
O O12 0.140077 0.719741 0.067939
O O13 0.423177 0.132590 0.221763
O O14 0.817247 0.358412 0.210942
O O15 0.960168 0.269083 0.312825
#
# Coordination Sequence:
#
# PCOD9021604 Si02
#       7
#     2   2   2   2   2   2   2
#     4  12  27  48  75  97 126 173 231 286 337 387
#     4  12  24  37  64  97 142 175 222 256 332 395
#     4  12  23  48  67 101 136 174 219 283 332 390
#     4  12  22  38  61  95 132 186 221 263 312 399
#     4  10  22  38  63  93 140 180 221 251 331 386
#     4  10  24  40  68  93 138 174 216 266 332 395
#     4  10  25  42  67  94 135 170 228 272 334 386
#
# _framework density 21.796983000000001
#
# number of rings (size 3 to 8) (size 9 to 14) (size 15 to 20)
#    0.857    0.000    2.857    4.714    4.000    0.571 
#    0.000    1.429    0.000    0.000    0.000    0.000 
#    0.000    0.000    0.000    0.000    0.000    0.000 
#
# Total GULP energy -78279.013898 kJ/mol
# GULP energy per Si atom -5591.358136 kJ/mol
# Density = 2.174737 g / cm^3
# Si number density = 21.796983 Si / 1000 Ang^3
#
#
#
# Elastic Constant Matrix: (Units=GPa)
#
#
# Indices 1 2 3 4 5 6 
#
# 1 69.5952 12.2311 -9.3191 1.7237 -10.2322 8.7159
# 2 12.2311 142.2985 32.9269 0.9853 -9.6189 0.2328
# 3 -9.3191 32.9269 41.4406 8.0087 -14.2505 3.3283
# 4 1.7237 0.9853 8.0087 10.0410 -0.4482 -5.3449
# 5 -10.2322 -9.6189 -14.2505 -0.4482 24.9988 0.5334
# 6 8.7159 0.2328 3.3283 -5.3449 0.5334 29.6304
#
#
#
# Elastic Compliance Matrix: (Units=1/GPa)
#
#
# Indices 1 2 3 4 5 6 
#
# 1 0.025132 -0.006411 0.025996 -0.032188 0.022414 -0.016472
# 2 -0.006411 0.010696 -0.016228 0.016214 -0.007611 0.006686
# 3 0.025996 -0.016228 0.076927 -0.078724 0.047504 -0.031216
# 4 -0.032188 0.016214 -0.078724 0.192771 -0.049506 0.053848
# 5 0.022414 -0.007611 0.047504 -0.049506 0.072911 -0.022112
# 6 -0.016472 0.006686 -0.031216 0.053848 -0.022112 0.052160
#
#
# Mechanical properties :
#
#
# Convention : Reuss Voigt Hill
#
# Bulk Modulus (GPa) = 8.37022 36.11244 22.24133
# Shear Modulus (GPa) = 10.78271 27.43373 19.10822
#
# Velocity S-wave (km/s) = 2.22657 3.55153 2.96403
# Velocity P-wave (km/s) = 3.23397 5.78112 4.68401
#
# Compressibility (1/GPa) = 0.11947112
#
# Stress axis : x y z
#
# Youngs Moduli (GPa) = 39.78996 93.49465 12.99927
#
# Poissons Ratio (x) = 0.59936 -0.33793
# Poissons Ratio (y) = 0.25508 0.21095
# Poissons Ratio (z) = -1.03439 1.51720
#
# Static dielectric constant tensor:
#      x y z
#    x 1.795170 -0.042610 -0.004030 
#    y -0.042610 1.828010 0.000770 
#    z -0.004030 0.000770 1.768550 
# 
# From -- ./inp_files/549522.got.cif
#   From: 2010.05.17/outbox.cif.g08.bks.cpg/sg2_275_cif.got.tgz:549522.got - 2010.06.03 11:33:40.
