data_PCOD9021638
_publ_section_title
;
Structure prediction by ZEFSAII (Michael W. Deem and Ramdas Pophale) SiO2 
 PCOD9021638
Probable space group: P -1
;
_chemical_formula_sum "Si O2"
_cell_formula_units_Z 15
_cell_length_a 9.817501
_cell_length_b 13.600978
_cell_length_c 7.321410
_cell_angle_alpha 119.653489
_cell_angle_beta 95.052000
_cell_angle_gamma 51.641268
_cell_volume 630.855052
_symmetry_space_group_name_H-M "P -1"
_symmetry_group_IT_number 2
_symmetry_cell_setting 'triclinic'
loop_
_space_group_symop_operation_xyz
x,y,z
-x,-y,-z
loop_
_atom_site_type_symbol
_atom_site_label
_atom_site_fract_x
_atom_site_fract_y
_atom_site_fract_z
Si Si1 0.167648 0.978946 0.909888
Si Si2 0.254725 0.698443 0.526854
Si Si3 0.646296 0.962956 0.726423
Si Si4 0.186422 0.373419 0.513529
Si Si5 0.339371 0.523261 0.706530
Si Si6 0.146011 0.611884 0.137729
Si Si7 0.764846 0.868741 0.235598
Si Si8 0.000000 0.500000 0.000000
O O1 0.266016 0.824230 0.670077
O O2 0.150379 0.084412 0.847792
O O3 0.275722 0.979663 0.087595
O O4 0.000000 0.000000 0.000000
O O5 0.212700 0.664171 0.683482
O O6 0.454603 0.545325 0.347631
O O7 0.122402 0.726154 0.380024
O O8 0.709391 0.939030 0.498794
O O9 0.729061 0.797804 0.657373
O O10 0.425344 0.075189 0.810648
O O11 0.323422 0.403008 0.528093
O O12 0.000000 0.500000 0.500000
O O13 0.136501 0.413988 0.756340
O O14 0.271219 0.574113 0.950707
O O15 0.176841 0.476925 0.113396
O O16 0.940523 0.686066 0.105171
#
# Coordination Sequence:
#
# PCOD9021638 Si02
#       8
#     2   2   2   2   2   2   2   1
#     4  12  27  44  72 102 145 195 237 287 357 436
#     4  11  24  46  64 101 143 180 234 284 355 423
#     4  11  26  47  70 110 144 188 239 295 361 427
#     4  11  23  41  73  97 133 174 233 292 344 412
#     4  10  24  42  68 102 134 183 229 296 354 409
#     4  11  22  42  69  97 135 178 232 286 348 416
#     4  11  25  46  71 103 148 187 238 296 350 430
#     4  10  22  38  64 100 124 170 224 286 338 400
#
# _framework density 23.777252000000001
#
# number of rings (size 3 to 8) (size 9 to 14) (size 15 to 20)
#    0.000    1.067    1.333    4.000    5.600    3.200 
#    4.800    0.000    0.000    0.000    0.000    0.000 
#    0.000    0.000    0.000    0.000    0.000    0.000 
#
# Total GULP energy -83629.240067 kJ/mol
# GULP energy per Si atom -5575.282671 kJ/mol
# Density = 2.372313 g / cm^3
# Si number density = 23.777252 Si / 1000 Ang^3
#
#
#
# Elastic Constant Matrix: (Units=GPa)
#
#
# Indices 1 2 3 4 5 6 
#
# 1 125.8234 55.2506 35.6679 3.0609 14.9045 4.9912
# 2 55.2506 87.8651 29.7341 -3.5802 5.9568 8.3261
# 3 35.6679 29.7341 88.6431 3.1411 27.3334 -1.9303
# 4 3.0609 -3.5802 3.1411 28.3677 0.5468 -8.6460
# 5 14.9045 5.9568 27.3334 0.5468 57.0413 -3.4046
# 6 4.9912 8.3261 -1.9303 -8.6460 -3.4046 42.8833
#
#
#
# Elastic Compliance Matrix: (Units=1/GPa)
#
#
# Indices 1 2 3 4 5 6 
#
# 1 0.011641 -0.006570 -0.001983 -0.002050 -0.001427 -0.000695
# 2 -0.006570 0.016943 -0.003655 0.002600 0.001552 -0.002042
# 3 -0.001983 -0.003655 0.015350 -0.001578 -0.006392 0.000806
# 4 -0.002050 0.002600 -0.001578 0.038227 0.001099 0.007457
# 5 -0.001427 0.001552 -0.006392 0.001099 0.020882 0.001457
# 6 -0.000695 -0.002042 0.000806 0.007457 0.001457 0.025452
#
#
# Mechanical properties :
#
#
# Convention : Reuss Voigt Hill
#
# Bulk Modulus (GPa) = 51.23234 60.40409 55.81822
# Shear Modulus (GPa) = 31.36440 37.77040 34.56740
#
# Velocity S-wave (km/s) = 3.63587 3.98994 3.81701
# Velocity P-wave (km/s) = 6.26256 6.83267 6.55382
#
# Compressibility (1/GPa) = 0.01951892
#
# Stress axis : x y z
#
# Youngs Moduli (GPa) = 85.90157 59.01969 65.14867
#
# Poissons Ratio (x) = 0.38776 0.12917
# Poissons Ratio (y) = 0.56438 0.23811
# Poissons Ratio (z) = 0.17031 0.21571
#
# Static dielectric constant tensor:
#      x y z
#    x 2.017520 -0.011310 0.069960 
#    y -0.011310 2.054530 0.055190 
#    z 0.069960 0.055190 1.984890 
# 
# From -- ./inp_files/204225.got.cif
#   From: 2010.05.17/outbox.cif.g08.bks.cpg/sg2_103_cif.got.tgz:204225.got - 2010.06.03 11:33:40.
