data_PCOD9021585
_publ_section_title
;
Structure prediction by ZEFSAII (Michael W. Deem and Ramdas Pophale) SiO2 
 PCOD9021585
Probable space group: P -1
;
_chemical_formula_sum "Si O2"
_cell_formula_units_Z 16
_cell_length_a 19.378820
_cell_length_b 9.147417
_cell_length_c 19.053122
_cell_angle_alpha 43.674714
_cell_angle_beta 157.698837
_cell_angle_gamma 125.306772
_cell_volume 829.719064
_symmetry_space_group_name_H-M "P -1"
_symmetry_group_IT_number 2
_symmetry_cell_setting 'triclinic'
loop_
_space_group_symop_operation_xyz
x,y,z
-x,-y,-z
loop_
_atom_site_type_symbol
_atom_site_label
_atom_site_fract_x
_atom_site_fract_y
_atom_site_fract_z
Si Si1 0.579730 0.562786 0.757772
Si Si2 0.336547 0.291845 0.959541
Si Si3 0.024876 0.733093 0.961382
Si Si4 0.834618 0.092071 0.109484
Si Si5 0.772148 0.257700 0.385323
Si Si6 0.392211 0.697917 0.384243
Si Si7 0.226764 0.217229 0.031708
Si Si8 0.193399 0.778804 0.404259
O O1 0.503675 0.648815 0.579004
O O2 0.387880 0.629213 0.601632
O O3 0.698077 0.297794 0.954620
O O4 0.718170 0.682706 0.880803
O O5 0.239353 0.517617 0.744779
O O6 0.278530 0.335706 0.971306
O O7 0.264471 0.091971 0.936333
O O8 0.567806 0.223421 0.194041
O O9 0.121659 0.807501 0.958398
O O10 0.172383 0.696798 0.177750
O O11 0.836246 0.953473 0.720954
O O12 0.000000 0.500000 0.000000
O O13 0.042472 0.957281 0.386258
O O14 0.798273 0.284425 0.484002
O O15 0.500000 0.500000 0.500000
O O16 0.360341 0.953297 0.243187
O O17 0.002894 0.237924 0.807797
#
# Coordination Sequence:
#
# PCOD9021585 Si02
#       8
#     2   2   2   2   2   2   2   2
#     4  12  25  39  63  91 135 168 207 258 327 371
#     4  11  20  42  75  93 122 166 217 262 319 378
#     4  10  22  38  63  92 126 165 219 260 302 376
#     4  11  23  42  62  98 127 167 211 262 310 384
#     4  10  22  40  74  98 116 166 221 262 313 383
#     4  11  22  40  60  90 122 170 216 252 310 376
#     4  11  23  40  62  93 130 166 209 263 319 373
#     4  10  23  41  61  95 129 165 211 263 316 375
#
# _framework density 19.283636000000001
#
# number of rings (size 3 to 8) (size 9 to 14) (size 15 to 20)
#    0.000    1.250    6.250    0.750    1.750    7.000 
#    0.000    1.250    0.000    0.000    0.000    0.000 
#    0.000    0.000    0.000    0.000    0.000    0.000 
#
# Total GULP energy -89374.807261 kJ/mol
# GULP energy per Si atom -5585.925454 kJ/mol
# Density = 1.923975 g / cm^3
# Si number density = 19.283636 Si / 1000 Ang^3
#
#
#
# Elastic Constant Matrix: (Units=GPa)
#
#
# Indices 1 2 3 4 5 6 
#
# 1 66.6759 33.7821 52.8204 -10.8078 -3.0375 -6.1470
# 2 33.7821 96.8731 55.6476 0.6686 -7.0903 9.8939
# 3 52.8204 55.6476 159.9724 -9.7560 1.6616 -2.9786
# 4 -10.8078 0.6686 -9.7560 26.9556 -9.0730 1.7054
# 5 -3.0375 -7.0903 1.6616 -9.0730 41.3316 -0.9022
# 6 -6.1470 9.8939 -2.9786 1.7054 -0.9022 28.5010
#
#
#
# Elastic Compliance Matrix: (Units=1/GPa)
#
#
# Indices 1 2 3 4 5 6 
#
# 1 0.024355 -0.005883 -0.005386 0.008578 0.003018 0.006314
# 2 -0.005883 0.015336 -0.003726 -0.003153 0.001509 -0.006745
# 3 -0.005386 -0.003726 0.009410 0.000870 -0.001200 0.001025
# 4 0.008578 -0.003153 0.000870 0.044174 0.009767 0.000702
# 5 0.003018 0.001509 -0.001200 0.009767 0.026873 0.000268
# 6 0.006314 -0.006745 0.001025 0.000702 0.000268 0.038864
#
#
# Mechanical properties :
#
#
# Convention : Reuss Voigt Hill
#
# Bulk Modulus (GPa) = 52.32284 67.55797 59.94041
# Shear Modulus (GPa) = 25.59232 31.44238 28.51735
#
# Velocity S-wave (km/s) = 3.64696 4.04235 3.84974
# Velocity P-wave (km/s) = 6.70268 7.54303 7.13524
#
# Compressibility (1/GPa) = 0.01911211
#
# Stress axis : x y z
#
# Youngs Moduli (GPa) = 41.05872 65.20796 106.26839
#
# Poissons Ratio (x) = 0.38359 0.57237
# Poissons Ratio (y) = 0.24153 0.39593
# Poissons Ratio (z) = 0.22115 0.24295
#
# Static dielectric constant tensor:
#      x y z
#    x 1.680920 0.004060 0.012170 
#    y 0.004060 1.668230 0.021280 
#    z 0.012170 0.021280 1.704240 
# 
# From -- ./inp_files/208525.got.cif
#   From: 2010.05.17/outbox.cif.g08.bks.cpg/sg2_105_cif.got.tgz:208525.got - 2010.06.03 11:33:40.
