data_PCOD9021817
_publ_section_title
;
Structure prediction by ZEFSAII (Michael W. Deem and Ramdas Pophale) SiO2 
 PCOD9021817
Probable space group: P -1
;
_chemical_formula_sum "Si O2"
_cell_formula_units_Z 16
_cell_length_a 9.181070
_cell_length_b 12.213221
_cell_length_c 9.712872
_cell_angle_alpha 96.617874
_cell_angle_beta 44.433164
_cell_angle_gamma 88.476219
_cell_volume 748.037462
_symmetry_space_group_name_H-M "P -1"
_symmetry_group_IT_number 2
_symmetry_cell_setting 'triclinic'
loop_
_space_group_symop_operation_xyz
x,y,z
-x,-y,-z
loop_
_atom_site_type_symbol
_atom_site_label
_atom_site_fract_x
_atom_site_fract_y
_atom_site_fract_z
Si Si1 0.777101 0.458034 0.111534
Si Si2 0.105175 0.076347 0.548537
Si Si3 0.214233 0.974710 0.761151
Si Si4 0.589980 0.342350 0.694241
Si Si5 0.599439 0.874116 0.874612
Si Si6 0.806430 0.271933 0.269797
Si Si7 0.274630 0.170578 0.919197
Si Si8 0.253714 0.715372 0.127660
O O1 0.584697 0.555436 0.220662
O O2 0.710589 0.381024 0.267217
O O3 0.804190 0.372823 0.954019
O O4 0.000000 0.500000 0.000000
O O5 0.291753 0.117339 0.343202
O O6 0.937918 0.185168 0.708314
O O7 0.167430 0.013090 0.641019
O O8 0.000000 0.000000 0.500000
O O9 0.290219 0.842536 0.699671
O O10 0.339091 0.059065 0.769548
O O11 0.000000 0.000000 0.000000
O O12 0.774627 0.308271 0.454680
O O13 0.458965 0.240684 0.781020
O O14 0.683137 0.351074 0.783759
O O15 0.747778 0.846495 0.904213
O O16 0.442425 0.782999 0.965243
O O17 0.500000 0.000000 0.000000
O O18 0.045553 0.238278 0.047722
#
# Coordination Sequence:
#
# PCOD9021817 Si02
#       8
#     2   2   2   2   2   2   2   2
#     4  12  26  49  70  92 134 180 234 292 332 383
#     4  12  22  41  69 103 144 180 216 270 349 415
#     4  10  22  38  65  99 138 176 215 268 340 408
#     4  11  24  45  70  96 129 177 228 277 337 399
#     4  11  24  39  66 101 144 178 217 270 335 418
#     4  11  23  42  68  93 133 176 222 280 336 399
#     4  10  22  42  63  99 140 171 216 277 338 402
#     4  11  25  45  70  99 137 179 227 279 340 404
#
# _framework density 21.389302000000001
#
# number of rings (size 3 to 8) (size 9 to 14) (size 15 to 20)
#    0.000    1.000    2.500    5.250    3.500    1.500 
#    2.250    0.625    0.000    0.000    0.000    0.000 
#    0.000    0.000    0.000    0.000    0.000    0.000 
#
# Total GULP energy -89397.358903 kJ/mol
# GULP energy per Si atom -5587.334931 kJ/mol
# Density = 2.134062 g / cm^3
# Si number density = 21.389302 Si / 1000 Ang^3
#
#
#
# Elastic Constant Matrix: (Units=GPa)
#
#
# Indices 1 2 3 4 5 6 
#
# 1 98.3008 62.6865 45.4279 -3.4026 24.1128 6.4149
# 2 62.6865 106.8514 34.1408 -2.9542 25.0979 -4.9394
# 3 45.4279 34.1408 108.4553 -12.0537 26.3716 2.8723
# 4 -3.4026 -2.9542 -12.0537 32.6305 -9.8460 16.6877
# 5 24.1128 25.0979 26.3716 -9.8460 31.5247 8.5205
# 6 6.4149 -4.9394 2.8723 16.6877 8.5205 36.8616
#
#
#
# Elastic Compliance Matrix: (Units=1/GPa)
#
#
# Indices 1 2 3 4 5 6 
#
# 1 0.018987 -0.009525 -0.004263 0.001252 -0.001793 -0.004401
# 2 -0.009525 0.018283 0.000158 -0.009038 -0.013266 0.011253
# 3 -0.004263 0.000158 0.012908 0.001846 -0.007248 0.000597
# 4 0.001252 -0.009038 0.001846 0.058801 0.032723 -0.035756
# 5 -0.001793 -0.013266 -0.007248 0.032723 0.068462 -0.031540
# 6 -0.004401 0.011253 0.000597 -0.035756 -0.031540 0.052834
#
#
# Mechanical properties :
#
#
# Convention : Reuss Voigt Hill
#
# Bulk Modulus (GPa) = 43.63416 66.45753 55.04585
# Shear Modulus (GPa) = 18.85555 31.62684 25.24120
#
# Velocity S-wave (km/s) = 2.97230 3.84947 3.43896
# Velocity P-wave (km/s) = 5.67659 7.13413 6.44668
#
# Compressibility (1/GPa) = 0.02291782
#
# Stress axis : x y z
#
# Youngs Moduli (GPa) = 52.66675 54.69653 77.47131
#
# Poissons Ratio (x) = 0.52097 0.33026
# Poissons Ratio (y) = 0.50164 -0.01221
# Poissons Ratio (z) = 0.22452 -0.00862
#
# Static dielectric constant tensor:
#      x y z
#    x 1.912010 0.028260 0.040780 
#    y 0.028260 1.803340 0.016740 
#    z 0.040780 0.016740 1.828520 
# 
# From -- ./inp_files/188153.got.cif
#   From: 2010.05.17/outbox.cif.g08.bks.cpg/sg2_95_cif.got.tgz:188153.got - 2010.06.03 11:33:40.
