data_PCOD9021117
_publ_section_title
;
Structure prediction by ZEFSAII (Michael W. Deem and Ramdas Pophale) SiO2 
 PCOD9021117
Probable space group: P -1
;
_chemical_formula_sum "Si O2"
_cell_formula_units_Z 14
_cell_length_a 14.180036
_cell_length_b 9.399708
_cell_length_c 11.720572
_cell_angle_alpha 65.681848
_cell_angle_beta 29.734462
_cell_angle_gamma 53.925424
_cell_volume 606.657132
_symmetry_space_group_name_H-M "P -1"
_symmetry_group_IT_number 2
_symmetry_cell_setting 'triclinic'
loop_
_space_group_symop_operation_xyz
x,y,z
-x,-y,-z
loop_
_atom_site_type_symbol
_atom_site_label
_atom_site_fract_x
_atom_site_fract_y
_atom_site_fract_z
Si Si1 0.465353 0.375146 0.321462
Si Si2 0.228483 0.029661 0.366441
Si Si3 0.713602 0.968087 0.209510
Si Si4 0.047839 0.412408 0.857092
Si Si5 0.650453 0.631596 0.038609
Si Si6 0.822776 0.977465 0.837188
Si Si7 0.647373 0.691543 0.777407
O O1 0.675063 0.170224 0.177934
O O2 0.283909 0.387105 0.592004
O O3 0.524089 0.525885 0.234121
O O4 0.344470 0.403280 0.316759
O O5 0.469925 0.845622 0.169790
O O6 0.159747 0.103410 0.282817
O O7 0.253700 0.174657 0.368073
O O8 0.047332 0.982002 0.616425
O O9 0.500000 0.000000 0.500000
O O10 0.915891 0.790256 0.112659
O O11 0.748737 0.919162 0.051118
O O12 0.000000 0.500000 0.000000
O O13 0.861662 0.549536 0.922918
O O14 0.734184 0.577937 0.838163
O O15 0.616991 0.180841 0.968178
#
# Coordination Sequence:
#
# PCOD9021117 Si02
#       7
#     2   2   2   2   2   2   2
#     4  10  24  44  67  95 133 170 221 277 330 391
#     4  10  22  37  68 104 130 173 217 273 340 395
#     4   9  21  44  65  91 129 182 218 265 325 391
#     4  11  27  42  67  94 134 178 223 273 324 385
#     4  11  24  40  65 103 133 169 222 273 331 392
#     4   9  19  38  67  95 134 171 220 268 329 394
#     4  10  22  41  68  98 135 172 213 275 338 397
#
# _framework density 23.077285
#
# number of rings (size 3 to 8) (size 9 to 14) (size 15 to 20)
#    0.000    2.000    0.000    2.143    8.000    6.286 
#    0.000    0.000    0.000    0.000    0.000    0.000 
#    0.000    0.000    0.000    0.000    0.000    0.000 
#
# Total GULP energy -78072.804386 kJ/mol
# GULP energy per Si atom -5576.628885 kJ/mol
# Density = 2.302476 g / cm^3
# Si number density = 23.077285 Si / 1000 Ang^3
#
#
#
# Elastic Constant Matrix: (Units=GPa)
#
#
# Indices 1 2 3 4 5 6 
#
# 1 1911.5792 -812.5446 278.1811 -126.2592 -208.1292 -285.3567
# 2 -812.5446 438.9501 -90.1303 56.6937 67.6147 87.9772
# 3 278.1811 -90.1303 109.6924 -15.6449 -19.3509 -34.7505
# 4 -126.2592 56.6937 -15.6449 36.0499 16.4291 18.4724
# 5 -208.1292 67.6147 -19.3509 16.4291 58.6699 14.6668
# 6 -285.3567 87.9772 -34.7505 18.4724 14.6668 66.7867
#
#
#
# Elastic Compliance Matrix: (Units=1/GPa)
#
#
# Indices 1 2 3 4 5 6 
#
# 1 -0.012695 -0.013236 0.009199 0.004552 -0.020849 -0.028702
# 2 -0.013236 -0.009850 0.010994 0.001891 -0.024241 -0.033055
# 3 0.009199 0.010994 0.005105 -0.002945 0.016294 0.024715
# 4 0.004552 0.001891 -0.002945 0.036083 0.001620 0.005089
# 5 -0.020849 -0.024241 0.016294 0.001620 -0.012463 -0.046379
# 6 -0.028702 -0.033055 0.024715 0.005089 -0.046379 -0.042482
#
#
# Mechanical properties :
#
#
# Convention : Reuss Voigt Hill
#
# Bulk Modulus (GPa) = -283.53587 134.58159 -74.47714
# Shear Modulus (GPa) = -97.28878 237.94901 70.33012
#
# Velocity S-wave (km/s) = -6.49995 10.16531 5.52649
# Velocity P-wave (km/s) = 13.39637 14.00794 2.89478
#
# Compressibility (1/GPa) = -0.00352689
#
# Stress axis : x y z
#
# Youngs Moduli (GPa) = -78.76813 -101.52079 195.90469
#
# Poissons Ratio (x) = -1.34369 -1.80215
# Poissons Ratio (y) = -1.04254 -2.15371
# Poissons Ratio (z) = 0.72460 1.11608
#
# Static dielectric constant tensor:
#      x y z
#    x 1.879560 0.018400 0.036140 
#    y 0.018400 1.961110 -0.028280 
#    z 0.036140 -0.028280 1.880310 
# 
# From -- ./inp_files/446888.got.cif
#   From: 2010.05.17/outbox.cif.g08.bks.cpg/sg2_224_cif.got.tgz:446888.got - 2010.06.03 11:33:40.
