data_PCOD9021100
_publ_section_title
;
Structure prediction by ZEFSAII (Michael W. Deem and Ramdas Pophale) SiO2 
 PCOD9021100
Probable space group: P -1
;
_chemical_formula_sum "Si O2"
_cell_formula_units_Z 16
_cell_length_a 10.739671
_cell_length_b 20.307713
_cell_length_c 9.234931
_cell_angle_alpha 101.703053
_cell_angle_beta 136.821697
_cell_angle_gamma 42.363818
_cell_volume 636.037507
_symmetry_space_group_name_H-M "P -1"
_symmetry_group_IT_number 2
_symmetry_cell_setting 'triclinic'
loop_
_space_group_symop_operation_xyz
x,y,z
-x,-y,-z
loop_
_atom_site_type_symbol
_atom_site_label
_atom_site_fract_x
_atom_site_fract_y
_atom_site_fract_z
Si Si1 0.451342 0.306178 0.286980
Si Si2 0.031492 0.049395 0.161170
Si Si3 0.340747 0.979860 0.910520
Si Si4 0.435393 0.587392 0.074877
Si Si5 0.331727 0.110180 0.550732
Si Si6 0.569275 0.284700 0.042454
Si Si7 0.622160 0.815345 0.804786
Si Si8 0.452705 0.587520 0.419771
O O1 0.425739 0.323010 0.099178
O O2 0.233245 0.308713 0.146673
O O3 0.391910 0.396549 0.358638
O O4 0.889298 0.140191 0.615514
O O5 0.268947 0.028824 0.261046
O O6 0.306459 0.934559 0.470962
O O7 0.614789 0.207957 0.937984
O O8 0.000000 0.000000 0.000000
O O9 0.432560 0.891729 0.834150
O O10 0.535370 0.898995 0.191507
O O11 0.500000 0.000000 0.000000
O O12 0.607371 0.594102 0.134549
O O13 0.969632 0.750445 0.741997
O O14 0.500000 0.500000 0.000000
O O15 0.587137 0.537850 0.345053
O O16 0.034806 0.150790 0.380467
O O17 0.988272 0.745484 0.083450
O O18 0.500000 0.500000 0.500000
#
# Coordination Sequence:
#
# PCOD9021100 Si02
#       8
#     2   2   2   2   2   2   2   2
#     4  12  25  42  69 101 136 174 223 273 334 400
#     4  12  24  39  62 102 141 170 210 268 339 400
#     4  12  20  38  67 102 137 176 216 264 339 401
#     4  10  23  43  68  92 124 169 227 276 325 388
#     4  10  22  37  67  91 131 169 218 265 336 387
#     4  10  22  40  62  96 133 171 214 269 326 395
#     4  12  25  43  68 102 139 175 221 276 328 403
#     4  12  27  47  73  94 129 179 231 278 332 392
#
# _framework density 25.155749
#
# number of rings (size 3 to 8) (size 9 to 14) (size 15 to 20)
#    0.750    0.000    5.000    2.250    7.000    0.500 
#    0.000    0.000    0.000    2.250    0.000    0.000 
#    0.000    0.000    0.000    0.000    0.000    0.000 
#
# Total GULP energy -89427.690128 kJ/mol
# GULP energy per Si atom -5589.230633 kJ/mol
# Density = 2.509849 g / cm^3
# Si number density = 25.155749 Si / 1000 Ang^3
#
#
#
# Elastic Constant Matrix: (Units=GPa)
#
#
# Indices 1 2 3 4 5 6 
#
# 1 92.3834 39.5293 27.0005 21.8216 -21.1439 17.1291
# 2 39.5293 167.9066 33.1595 29.7014 -21.4730 18.3174
# 3 27.0005 33.1595 81.1918 20.0471 -21.2905 1.4124
# 4 21.8216 29.7014 20.0471 42.2219 -9.6074 0.0124
# 5 -21.1439 -21.4730 -21.2905 -9.6074 54.6007 2.6071
# 6 17.1291 18.3174 1.4124 0.0124 2.6071 44.2582
#
#
#
# Elastic Compliance Matrix: (Units=1/GPa)
#
#
# Indices 1 2 3 4 5 6 
#
# 1 0.015056 -0.001114 -0.002177 -0.005072 0.003915 -0.005526
# 2 -0.001114 0.007661 -0.001372 -0.003818 0.001508 -0.002783
# 3 -0.002177 -0.001372 0.015726 -0.004483 0.003928 0.000678
# 4 -0.005072 -0.003818 -0.004483 0.031139 0.000090 0.003672
# 5 0.003915 0.001508 0.003928 0.000090 0.022142 -0.003569
# 6 -0.005526 -0.002783 0.000678 0.003672 -0.003569 0.026073
#
#
# Mechanical properties :
#
#
# Convention : Reuss Voigt Hill
#
# Bulk Modulus (GPa) = 34.34426 60.09561 47.21993
# Shear Modulus (GPa) = 36.54237 44.33567 40.43902
#
# Velocity S-wave (km/s) = 3.81549 4.20271 4.01377
# Velocity P-wave (km/s) = 5.75265 6.89141 6.34762
#
# Compressibility (1/GPa) = 0.02911695
#
# Stress axis : x y z
#
# Youngs Moduli (GPa) = 66.41940 130.53651 63.58935
#
# Poissons Ratio (x) = 0.14542 0.13843
# Poissons Ratio (y) = 0.07399 0.08723
# Poissons Ratio (z) = 0.14459 0.17907
#
# Static dielectric constant tensor:
#      x y z
#    x 2.065920 0.043240 0.097150 
#    y 0.043240 2.137650 0.072470 
#    z 0.097150 0.072470 2.049610 
# 
# From -- ./inp_files/283149.got.cif
#   From: 2010.05.17/outbox.cif.g08.bks.cpg/sg2_142_cif.got.tgz:283149.got - 2010.06.03 11:33:40.
