data_PCOD9021459
_publ_section_title
;
Structure prediction by ZEFSAII (Michael W. Deem and Ramdas Pophale) SiO2 
 PCOD9021459
Probable space group: P -1
;
_chemical_formula_sum "Si O2"
_cell_formula_units_Z 14
_cell_length_a 10.240522
_cell_length_b 7.539620
_cell_length_c 6.819617
_cell_angle_alpha 103.222963
_cell_angle_beta 92.220992
_cell_angle_gamma 75.440001
_cell_volume 496.020406
_symmetry_space_group_name_H-M "P -1"
_symmetry_group_IT_number 2
_symmetry_cell_setting 'triclinic'
loop_
_space_group_symop_operation_xyz
x,y,z
-x,-y,-z
loop_
_atom_site_type_symbol
_atom_site_label
_atom_site_fract_x
_atom_site_fract_y
_atom_site_fract_z
Si Si1 0.737311 0.595674 0.442835
Si Si2 0.459826 0.804194 0.432381
Si Si3 0.249317 0.250433 0.116209
Si Si4 0.027819 0.803144 0.838802
Si Si5 0.278823 0.891004 0.786251
Si Si6 0.059299 0.206916 0.622616
Si Si7 0.765115 0.352559 0.759234
O O1 0.593885 0.647055 0.346391
O O2 0.719369 0.758401 0.653411
O O3 0.867291 0.620529 0.339461
O O4 0.237347 0.577143 0.451446
O O5 0.339721 0.775956 0.276620
O O6 0.500000 0.000000 0.500000
O O7 0.407815 0.783832 0.646225
O O8 0.281119 0.442588 0.090721
O O9 0.085894 0.291158 0.105792
O O10 0.310058 0.051725 0.968816
O O11 0.983721 0.823166 0.610908
O O12 0.192290 0.756324 0.845184
O O13 0.000000 0.000000 0.000000
O O14 0.174612 0.030001 0.663643
O O15 0.923576 0.254711 0.757019
#
# Coordination Sequence:
#
# PCOD9021459 Si02
#       7
#     2   2   2   2   2   2   2
#     4   9  21  40  60  84 120 153 201 238 293 353
#     4  12  23  38  61  90 116 157 204 245 290 352
#     4   8  21  38  57  87 122 155 194 245 294 356
#     4   9  18  34  56  89 122 146 192 245 294 344
#     4  11  21  35  60  92 122 153 195 249 301 338
#     4  11  19  35  65  88 117 153 200 241 298 345
#     4  10  22  38  62  84 120 158 199 237 301 350
#
# _framework density 28.224647000000001
#
# number of rings (size 3 to 8) (size 9 to 14) (size 15 to 20)
#    0.857    1.143    2.857    1.286    0.000    1.143 
#    0.000    0.714    0.000    0.000    0.000    0.000 
#    0.000    0.000    0.000    0.000    0.000    0.000 
#
# Total GULP energy -78206.981763 kJ/mol
# GULP energy per Si atom -5586.212983 kJ/mol
# Density = 2.816041 g / cm^3
# Si number density = 28.224647 Si / 1000 Ang^3
#
#
#
# Elastic Constant Matrix: (Units=GPa)
#
#
# Indices 1 2 3 4 5 6 
#
# 1 158.7985 39.0398 21.0097 -0.1592 3.5133 12.0706
# 2 39.0398 115.5367 -11.0687 -3.8581 14.9823 24.6899
# 3 21.0097 -11.0687 92.8808 14.1978 -0.0745 4.2346
# 4 -0.1592 -3.8581 14.1978 28.4916 1.8758 11.2143
# 5 3.5133 14.9823 -0.0745 1.8758 46.4728 5.9583
# 6 12.0706 24.6899 4.2346 11.2143 5.9583 53.4399
#
#
#
# Elastic Compliance Matrix: (Units=1/GPa)
#
#
# Indices 1 2 3 4 5 6 
#
# 1 0.007226 -0.002535 -0.002051 0.000905 0.000298 -0.000521
# 2 -0.002535 0.011216 0.001705 0.002818 -0.002892 -0.005013
# 3 -0.002051 0.001705 0.012338 -0.005901 -0.000130 -0.000050
# 4 0.000905 0.002818 -0.005901 0.042365 -0.001444 -0.009768
# 5 0.000298 -0.002892 -0.000130 -0.001444 0.022606 -0.000938
# 6 -0.000521 -0.005013 -0.000050 -0.009768 -0.000938 0.023305
#
#
# Mechanical properties :
#
#
# Convention : Reuss Voigt Hill
#
# Bulk Modulus (GPa) = 39.97069 51.68640 45.82854
# Shear Modulus (GPa) = 37.54996 46.89655 42.22325
#
# Velocity S-wave (km/s) = 3.65142 4.08063 3.87197
# Velocity P-wave (km/s) = 5.65416 6.36823 6.02179
#
# Compressibility (1/GPa) = 0.02501833
#
# Stress axis : x y z
#
# Youngs Moduli (GPa) = 138.39274 89.16006 81.05206
#
# Poissons Ratio (x) = 0.22603 0.16623
# Poissons Ratio (y) = 0.35084 -0.13823
# Poissons Ratio (z) = 0.28383 -0.15206
#
# Static dielectric constant tensor:
#      x y z
#    x 2.244460 0.035290 -0.025690 
#    y 0.035290 2.252330 0.006050 
#    z -0.025690 0.006050 2.332590 
# 
# From -- ./inp_files/172912.got.cif
#   From: 2010.05.17/outbox.cif.g08.bks.cpg/sg2_87_cif.got.tgz:172912.got - 2010.06.03 11:33:40.
