data_PCOD9021472
_publ_section_title
;
Structure prediction by ZEFSAII (Michael W. Deem and Ramdas Pophale) SiO2 
 PCOD9021472
Probable space group: P -1
;
_chemical_formula_sum "Si O2"
_cell_formula_units_Z 16
_cell_length_a 12.013321
_cell_length_b 23.690480
_cell_length_c 14.842467
_cell_angle_alpha 149.403908
_cell_angle_beta 49.103244
_cell_angle_gamma 152.577331
_cell_volume 875.848867
_symmetry_space_group_name_H-M "P -1"
_symmetry_group_IT_number 2
_symmetry_cell_setting 'triclinic'
loop_
_space_group_symop_operation_xyz
x,y,z
-x,-y,-z
loop_
_atom_site_type_symbol
_atom_site_label
_atom_site_fract_x
_atom_site_fract_y
_atom_site_fract_z
Si Si1 0.833941 0.292859 0.759312
Si Si2 0.692085 0.774508 0.703843
Si Si3 0.729288 0.903341 0.508174
Si Si4 0.988009 0.731794 0.210268
Si Si5 0.707604 0.525167 0.350844
Si Si6 0.507725 0.258546 0.788681
Si Si7 0.763395 0.762520 0.948155
Si Si8 0.444058 0.358193 0.608496
O O1 0.575052 0.186378 0.704666
O O2 0.818351 0.196981 0.717989
O O3 0.026963 0.362022 0.676478
O O4 0.000000 0.500000 0.000000
O O5 0.768245 0.693060 0.568851
O O6 0.416887 0.613132 0.685883
O O7 0.638543 0.746295 0.586837
O O8 0.934259 0.010002 0.928034
O O9 0.607060 0.822791 0.362159
O O10 0.542165 0.727761 0.441269
O O11 0.000000 0.000000 0.500000
O O12 0.841082 0.099423 0.726263
O O13 0.789066 0.698620 0.316688
O O14 0.785155 0.507102 0.976945
O O15 0.464241 0.365924 0.185974
O O16 0.311252 0.203685 0.883006
O O17 0.712093 0.604162 0.790426
#
# Coordination Sequence:
#
# PCOD9021472 Si02
#       8
#     2   2   2   2   2   2   2   2
#     4  10  17  35  52  73 112 136 159 210 254 312
#     4  10  19  31  52  74 100 138 169 205 259 289
#     4  10  20  31  48  74 102 136 175 208 248 301
#     4   9  17  32  48  72 106 132 164 207 254 304
#     4  10  19  33  49  75 106 131 168 211 245 308
#     4  10  20  30  51  74 103 140 162 203 262 304
#     4  10  17  31  49  76 102 131 165 208 260 300
#     4   9  18  32  47  71 105 126 172 217 242 291
#
# _framework density 18.267990999999999
#
# number of rings (size 3 to 8) (size 9 to 14) (size 15 to 20)
#    0.000    2.250    5.000    1.875    0.000    6.000 
#    0.000    0.000    0.000    0.750    0.000    4.375 
#    0.000    0.000    0.000    0.000    0.000    0.000 
#
# Total GULP energy -89148.456998 kJ/mol
# GULP energy per Si atom -5571.778562 kJ/mol
# Density = 1.822641 g / cm^3
# Si number density = 18.267991 Si / 1000 Ang^3
#
#
#
# Elastic Constant Matrix: (Units=GPa)
#
#
# Indices 1 2 3 4 5 6 
#
# 1 91.3362 14.3366 12.6626 14.4909 -6.2042 -19.3085
# 2 14.3366 34.4131 11.2928 11.0033 -10.2968 -14.4224
# 3 12.6626 11.2928 43.9105 24.4970 -3.8643 -5.1630
# 4 14.4909 11.0033 24.4970 28.7789 -4.9548 -5.2869
# 5 -6.2042 -10.2968 -3.8643 -4.9548 25.4824 4.3420
# 6 -19.3085 -14.4224 -5.1630 -5.2869 4.3420 20.2535
#
#
#
# Elastic Compliance Matrix: (Units=1/GPa)
#
#
# Indices 1 2 3 4 5 6 
#
# 1 0.014403 0.001464 0.000041 -0.005274 0.000825 0.013230
# 2 0.001464 0.048886 -0.003429 -0.008749 0.012722 0.030322
# 3 0.000041 -0.003429 0.043670 -0.036248 -0.001740 -0.000360
# 4 -0.005274 -0.008749 -0.036248 0.071826 0.004097 -0.002627
# 5 0.000825 0.012722 -0.001740 0.004097 0.044976 0.000830
# 6 0.013230 0.030322 -0.000360 -0.002627 0.000830 0.082624
#
#
# Mechanical properties :
#
#
# Convention : Reuss Voigt Hill
#
# Bulk Modulus (GPa) = 9.69828 27.36042 18.52935
# Shear Modulus (GPa) = 14.50944 23.66081 19.08513
#
# Velocity S-wave (km/s) = 2.82131 3.60280 3.23574
# Velocity P-wave (km/s) = 3.99168 5.68477 4.91173
#
# Compressibility (1/GPa) = 0.10311107
#
# Stress axis : x y z
#
# Youngs Moduli (GPa) = 69.43109 20.45586 22.89877
#
# Poissons Ratio (x) = -0.02996 -0.00093
# Poissons Ratio (y) = -0.10167 0.07852
# Poissons Ratio (z) = -0.00281 0.07014
#
# Static dielectric constant tensor:
#      x y z
#    x 1.642290 -0.019720 -0.006290 
#    y -0.019720 1.663020 0.039610 
#    z -0.006290 0.039610 1.666010 
# 
# From -- ./inp_files/421306.got.cif
#   From: 2010.05.17/outbox.cif.g08.bks.cpg/sg2_211_cif.got.tgz:421306.got - 2010.06.03 11:33:40.
