data_PCOD9021639
_publ_section_title
;
Structure prediction by ZEFSAII (Michael W. Deem and Ramdas Pophale) SiO2 
 PCOD9021639
Probable space group: P -1
;
_chemical_formula_sum "Si O2"
_cell_formula_units_Z 12
_cell_length_a 10.878949
_cell_length_b 4.893060
_cell_length_c 10.772059
_cell_angle_alpha 122.572643
_cell_angle_beta 62.569495
_cell_angle_gamma 101.496165
_cell_volume 427.980509
_symmetry_space_group_name_H-M "P -1"
_symmetry_group_IT_number 2
_symmetry_cell_setting 'triclinic'
loop_
_space_group_symop_operation_xyz
x,y,z
-x,-y,-z
loop_
_atom_site_type_symbol
_atom_site_label
_atom_site_fract_x
_atom_site_fract_y
_atom_site_fract_z
Si Si1 0.621739 0.791553 0.287103
Si Si2 0.439423 0.284034 0.322893
Si Si3 0.814236 0.658304 0.366882
Si Si4 0.871885 0.410714 0.821828
Si Si5 0.590987 0.237184 0.973944
Si Si6 0.132832 0.866047 0.981039
O O1 0.500318 0.636433 0.385033
O O2 0.744725 0.890390 0.345251
O O3 0.660453 0.459058 0.105261
O O4 0.542990 0.034855 0.288209
O O5 0.291001 0.314405 0.463901
O O6 0.454057 0.142263 0.137151
O O7 0.797474 0.332956 0.214426
O O8 0.976330 0.665246 0.330638
O O9 0.738816 0.204006 0.812974
O O10 0.915881 0.317817 0.919862
O O11 0.813054 0.785565 0.917964
O O12 0.500000 0.500000 0.000000
O O13 0.000000 0.000000 0.000000
#
# Coordination Sequence:
#
# PCOD9021639 Si02
#       6
#     2   2   2   2   2   2
#     4  11  24  41  68  92 132 175 218 263 319 389
#     4  11  26  42  63  99 134 174 212 265 332 381
#     4  11  23  42  69 100 134 163 219 280 323 380
#     4  11  24  41  69  98 127 172 219 267 325 382
#     4  10  24  46  68  93 133 176 222 260 322 398
#     4  10  22  38  64 100 127 163 212 267 324 379
#
# _framework density 28.038661000000001
#
# number of rings (size 3 to 8) (size 9 to 14) (size 15 to 20)
#    0.000    1.333    1.667    3.500    2.333    8.667 
#    0.000    0.000    0.000   10.000    0.000    0.000 
#    0.000    0.000    0.000    0.000    0.000    0.000 
#
# Total GULP energy -66903.996138 kJ/mol
# GULP energy per Si atom -5575.333012 kJ/mol
# Density = 2.797484 g / cm^3
# Si number density = 28.038661 Si / 1000 Ang^3
#
#
#
# Elastic Constant Matrix: (Units=GPa)
#
#
# Indices 1 2 3 4 5 6 
#
# 1 85.8191 -9.8280 43.6116 10.7207 -17.9614 3.4239
# 2 -9.8280 135.3772 24.2170 -17.0485 3.8789 6.1624
# 3 43.6116 24.2170 175.5179 9.7094 -8.6295 -8.0432
# 4 10.7207 -17.0485 9.7094 41.4155 1.3365 -2.7617
# 5 -17.9614 3.8789 -8.6295 1.3365 65.9830 3.0377
# 6 3.4239 6.1624 -8.0432 -2.7617 3.0377 20.2545
#
#
#
# Elastic Compliance Matrix: (Units=1/GPa)
#
#
# Indices 1 2 3 4 5 6 
#
# 1 0.015203 0.001585 -0.003904 -0.002864 0.003849 -0.005570
# 2 0.001585 0.008402 -0.001888 0.003292 -0.000234 -0.003090
# 3 -0.003904 -0.001888 0.007165 -0.001178 -0.000172 0.003945
# 4 -0.002864 0.003292 -0.001178 0.026772 -0.001805 0.002936
# 5 0.003849 -0.000234 -0.000172 -0.001805 0.016385 -0.003351
# 6 -0.005570 -0.003090 0.003945 0.002936 -0.003351 0.053723
#
#
# Mechanical properties :
#
#
# Convention : Reuss Voigt Hill
#
# Bulk Modulus (GPa) = 44.73146 56.96836 50.84991
# Shear Modulus (GPa) = 34.83895 48.11151 41.47523
#
# Velocity S-wave (km/s) = 3.52878 4.14684 3.85023
# Velocity P-wave (km/s) = 5.70887 6.57953 6.15960
#
# Compressibility (1/GPa) = 0.02235563
#
# Stress axis : x y z
#
# Youngs Moduli (GPa) = 65.77499 119.02547 139.55888
#
# Poissons Ratio (x) = -0.18862 0.54482
# Poissons Ratio (y) = -0.10423 0.26351
# Poissons Ratio (z) = 0.25678 0.22474
#
# Static dielectric constant tensor:
#      x y z
#    x 3.009520 -0.274660 -0.393800 
#    y -0.274660 2.571340 0.212110 
#    z -0.393800 0.212110 2.592970 
# 
# From -- ./inp_files/410407.got.cif
#   From: 2010.05.17/outbox.cif.g08.bks.cpg/sg2_206_cif.got.tgz:410407.got - 2010.06.03 11:33:40.
