data_PCOD9021364
_publ_section_title
;
Structure prediction by ZEFSAII (Michael W. Deem and Ramdas Pophale) SiO2 
 PCOD9021364
Probable space group: P -1
;
_chemical_formula_sum "Si O2"
_cell_formula_units_Z 14
_cell_length_a 9.135574
_cell_length_b 15.656635
_cell_length_c 7.798006
_cell_angle_alpha 115.734092
_cell_angle_beta 130.343824
_cell_angle_gamma 44.981765
_cell_volume 600.340051
_symmetry_space_group_name_H-M "P -1"
_symmetry_group_IT_number 2
_symmetry_cell_setting 'triclinic'
loop_
_space_group_symop_operation_xyz
x,y,z
-x,-y,-z
loop_
_atom_site_type_symbol
_atom_site_label
_atom_site_fract_x
_atom_site_fract_y
_atom_site_fract_z
Si Si1 0.901366 0.510250 0.244313
Si Si2 0.007488 0.780090 0.695325
Si Si3 0.426392 0.361692 0.383307
Si Si4 0.094073 0.896951 0.129757
Si Si5 0.503868 0.478236 0.219687
Si Si6 0.414285 0.210513 0.756363
Si Si7 0.238750 0.882064 0.748403
O O1 0.766625 0.648582 0.211067
O O2 0.000000 0.500000 0.500000
O O3 0.147421 0.414882 0.242759
O O4 0.693734 0.494878 0.045819
O O5 0.217589 0.637438 0.708334
O O6 0.095617 0.836845 0.685307
O O7 0.746836 0.822279 0.475679
O O8 0.010371 0.821909 0.925349
O O9 0.436309 0.429829 0.287255
O O10 0.508170 0.408323 0.637581
O O11 0.601959 0.217902 0.363790
O O12 0.385370 0.815678 0.253553
O O13 0.962976 0.971867 0.269701
O O14 0.000000 0.000000 0.000000
O O15 0.559430 0.143374 0.981717
#
# Coordination Sequence:
#
# PCOD9021364 Si02
#       7
#     2   2   2   2   2   2   2
#     4  12  23  34  51  78 108 140 173 212 257 309
#     4   9  15  28  49  74 101 131 167 206 260 293
#     4  10  20  34  54  76 106 134 171 211 268 302
#     4   8  16  29  46  74 105 128 168 210 253 302
#     4  10  19  34  54  77 102 137 173 213 259 309
#     4  10  17  31  49  74 103 136 168 211 254 302
#     4   9  19  30  50  77 104 131 168 211 256 304
#
# _framework density 23.320115999999999
#
# number of rings (size 3 to 8) (size 9 to 14) (size 15 to 20)
#    0.000    2.571    5.714    0.429    0.000    5.714 
#    0.000    0.000    0.000    0.857    0.000    2.000 
#    0.000    0.000    0.000    0.000    0.000    0.000 
#
# Total GULP energy -78158.247728 kJ/mol
# GULP energy per Si atom -5582.731981 kJ/mol
# Density = 2.326704 g / cm^3
# Si number density = 23.320116 Si / 1000 Ang^3
#
#
#
# Elastic Constant Matrix: (Units=GPa)
#
#
# Indices 1 2 3 4 5 6 
#
# 1 23.4536 15.9606 25.9374 -4.8474 14.1661 1.9280
# 2 15.9606 166.6245 52.4032 17.7058 11.2807 -41.4441
# 3 25.9374 52.4032 151.0553 7.5219 47.9948 -11.9204
# 4 -4.8474 17.7058 7.5219 44.1822 -3.0232 -10.5648
# 5 14.1661 11.2807 47.9948 -3.0232 42.4632 -6.7024
# 6 1.9280 -41.4441 -11.9204 -10.5648 -6.7024 5.2862
#
#
#
# Elastic Compliance Matrix: (Units=1/GPa)
#
#
# Indices 1 2 3 4 5 6 
#
# 1 0.047039 0.006255 -0.007103 0.013108 -0.002192 0.039287
# 2 0.006255 -0.000624 -0.000998 -0.006444 -0.005966 -0.029868
# 3 -0.007103 -0.000998 0.011901 -0.001989 -0.010221 0.004668
# 4 0.013108 -0.006444 -0.001989 0.023712 -0.000852 -0.013476
# 5 -0.002192 -0.005966 -0.010221 -0.000852 0.032749 -0.029205
# 6 0.039287 -0.029868 0.004668 -0.013476 -0.029205 -0.112756
#
#
# Mechanical properties :
#
#
# Convention : Reuss Voigt Hill
#
# Bulk Modulus (GPa) = 18.30677 58.85952 38.58315
# Shear Modulus (GPa) = 209.02634 34.84179 121.93407
#
# Velocity S-wave (km/s) = 9.47777 3.86951 7.23882
# Velocity P-wave (km/s) = 11.29770 6.72746 9.29776
#
# Compressibility (1/GPa) = 0.05462460
#
# Stress axis : x y z
#
# Youngs Moduli (GPa) = 21.25884 -1602.48134 84.02635
#
# Poissons Ratio (x) = 10.02418 0.59685
# Poissons Ratio (y) = -0.13298 0.08387
# Poissons Ratio (z) = 0.15100 -1.59951
#
# Static dielectric constant tensor:
#      x y z
#    x 1.912230 -0.006710 -0.066630 
#    y -0.006710 1.924540 0.028240 
#    z -0.066630 0.028240 1.935580 
# 
# From -- ./inp_files/284436.got.cif
#   From: 2010.05.17/outbox.cif.g08.bks.cpg/sg2_143_cif.got.tgz:284436.got - 2010.06.03 11:33:40.
