data_PCOD9021085
_publ_section_title
;
Structure prediction by ZEFSAII (Michael W. Deem and Ramdas Pophale) SiO2 
 PCOD9021085
Probable space group: P -1
;
_chemical_formula_sum "Si O2"
_cell_formula_units_Z 12
_cell_length_a 7.200506
_cell_length_b 8.847572
_cell_length_c 14.237766
_cell_angle_alpha 39.229095
_cell_angle_beta 87.616039
_cell_angle_gamma 70.526958
_cell_volume 503.863409
_symmetry_space_group_name_H-M "P -1"
_symmetry_group_IT_number 2
_symmetry_cell_setting 'triclinic'
loop_
_space_group_symop_operation_xyz
x,y,z
-x,-y,-z
loop_
_atom_site_type_symbol
_atom_site_label
_atom_site_fract_x
_atom_site_fract_y
_atom_site_fract_z
Si Si1 0.031373 0.257475 0.482931
Si Si2 0.112803 0.168945 0.729534
Si Si3 0.751580 0.654373 0.944956
Si Si4 0.405164 0.598618 0.088386
Si Si5 0.518000 0.209086 0.628138
Si Si6 0.645609 0.226816 0.415353
O O1 0.016440 0.151244 0.639438
O O2 0.031250 0.545218 0.354247
O O3 0.822745 0.308427 0.405937
O O4 0.230038 0.022591 0.538443
O O5 0.307318 0.208603 0.666933
O O6 0.218969 0.900886 0.920882
O O7 0.642821 0.595457 0.885113
O O8 0.690289 0.968405 0.802829
O O9 0.631233 0.581505 0.063777
O O10 0.000000 0.500000 0.000000
O O11 0.448829 0.476670 0.249624
O O12 0.500000 0.500000 0.500000
O O13 0.574929 0.135427 0.554151
#
# Coordination Sequence:
#
# PCOD9021085 Si02
#       6
#     2   2   2   2   2   2
#     4  10  22  37  66  95 121 173 208 260 315 390
#     4  10  22  44  67  89 131 173 212 255 328 388
#     4  10  23  40  66  91 131 173 212 257 330 387
#     4  10  23  42  63  96 129 168 214 269 318 385
#     4  11  23  41  63  94 129 171 212 264 322 387
#     4  11  23  40  65  97 131 159 218 271 318 372
#
# _framework density 23.815978000000001
#
# number of rings (size 3 to 8) (size 9 to 14) (size 15 to 20)
#    0.000    1.667    1.667    3.000    7.000    3.333 
#    0.000    0.000    0.000    6.000    0.000    0.000 
#    0.000    0.000    0.000    0.000    0.000    0.000 
#
# Total GULP energy -67097.047016 kJ/mol
# GULP energy per Si atom -5591.420585 kJ/mol
# Density = 2.376177 g / cm^3
# Si number density = 23.815978 Si / 1000 Ang^3
#
#
#
# Elastic Constant Matrix: (Units=GPa)
#
#
# Indices 1 2 3 4 5 6 
#
# 1 61.4680 11.4844 10.0245 -2.7915 0.3859 -7.7046
# 2 11.4844 106.7618 39.2358 -15.0767 0.8261 -0.6565
# 3 10.0245 39.2358 123.6190 -16.1438 4.8326 -10.6323
# 4 -2.7915 -15.0767 -16.1438 37.0058 1.9350 2.2566
# 5 0.3859 0.8261 4.8326 1.9350 37.8581 -2.3244
# 6 -7.7046 -0.6565 -10.6323 2.2566 -2.3244 25.3017
#
#
#
# Elastic Compliance Matrix: (Units=1/GPa)
#
#
# Indices 1 2 3 4 5 6 
#
# 1 0.017285 -0.001653 -0.000436 0.000121 0.000219 0.005047
# 2 -0.001653 0.011134 -0.003141 0.003158 -0.000099 -0.001825
# 3 -0.000436 -0.003141 0.009840 0.002821 -0.001108 0.003567
# 4 0.000121 0.003158 0.002821 0.029750 -0.002045 -0.001537
# 5 0.000219 -0.000099 -0.001108 -0.002045 0.026798 0.002243
# 6 0.005047 -0.001825 0.003567 -0.001537 0.002243 0.042855
#
#
# Mechanical properties :
#
#
# Convention : Reuss Voigt Hill
#
# Bulk Modulus (GPa) = 35.96975 45.92645 40.94810
# Shear Modulus (GPa) = 31.76882 35.44006 33.60444
#
# Velocity S-wave (km/s) = 3.65626 3.86175 3.76041
# Velocity P-wave (km/s) = 5.74111 6.26178 6.00709
#
# Compressibility (1/GPa) = 0.02780114
#
# Stress axis : x y z
#
# Youngs Moduli (GPa) = 57.85288 89.81414 101.62586
#
# Poissons Ratio (x) = 0.14844 0.04429
# Poissons Ratio (y) = 0.09562 0.31916
# Poissons Ratio (z) = 0.02521 0.28207
#
# Static dielectric constant tensor:
#      x y z
#    x 1.960490 0.007390 0.047260 
#    y 0.007390 1.940030 -0.039570 
#    z 0.047260 -0.039570 1.903620 
# 
# From -- ./inp_files/490296.got.cif
#   From: 2010.05.17/outbox.cif.g08.bks.cpg/sg2_246_cif.got.tgz:490296.got - 2010.06.03 11:33:40.
