data_PCOD9021080
_publ_section_title
;
Structure prediction by ZEFSAII (Michael W. Deem and Ramdas Pophale) SiO2 
 PCOD9021080
Probable space group: P -1
;
_chemical_formula_sum "Si O2"
_cell_formula_units_Z 12
_cell_length_a 11.384189
_cell_length_b 6.794115
_cell_length_c 9.926743
_cell_angle_alpha 73.486706
_cell_angle_beta 126.622523
_cell_angle_gamma 135.099221
_cell_volume 421.812211
_symmetry_space_group_name_H-M "P -1"
_symmetry_group_IT_number 2
_symmetry_cell_setting 'triclinic'
loop_
_space_group_symop_operation_xyz
x,y,z
-x,-y,-z
loop_
_atom_site_type_symbol
_atom_site_label
_atom_site_fract_x
_atom_site_fract_y
_atom_site_fract_z
Si Si1 0.292919 0.206060 0.800472
Si Si2 0.089124 0.282027 0.221237
Si Si3 0.328619 0.634340 0.880310
Si Si4 0.360884 0.182483 0.397685
Si Si5 0.021659 0.646178 0.620416
Si Si6 0.413699 0.917797 0.249803
O O1 0.261416 0.413959 0.757037
O O2 0.177187 0.989676 0.639616
O O3 0.529749 0.375946 0.931666
O O4 0.156495 0.975694 0.875892
O O5 0.154572 0.115273 0.264450
O O6 0.148150 0.420207 0.387111
O O7 0.213030 0.574135 0.166243
O O8 0.139199 0.586273 0.802404
O O9 0.489689 0.940737 0.856400
O O10 0.500000 0.500000 0.500000
O O11 0.379440 0.089066 0.282882
O O12 0.414433 0.045599 0.558847
O O13 0.000000 0.500000 0.500000
#
# Coordination Sequence:
#
# PCOD9021080 Si02
#       6
#     2   2   2   2   2   2
#     4   9  24  44  64  90 135 167 210 266 316 380
#     4   9  22  41  63  91 129 167 206 269 309 376
#     4  11  23  43  66  96 126 172 213 257 326 381
#     4   9  20  39  60  90 139 156 207 265 322 367
#     4  10  24  41  68  93 127 169 215 263 320 376
#     4  10  22  37  66  93 125 168 211 260 318 376
#
# _framework density 28.448677
#
# number of rings (size 3 to 8) (size 9 to 14) (size 15 to 20)
#    1.000    1.333    0.000    0.500    9.333    4.000 
#    0.000    0.833    0.000    0.000    0.000    0.000 
#    0.000    0.000    0.000    0.000    0.000    0.000 
#
# Total GULP energy -66963.423511 kJ/mol
# GULP energy per Si atom -5580.285293 kJ/mol
# Density = 2.838393 g / cm^3
# Si number density = 28.448677 Si / 1000 Ang^3
#
#
#
# Elastic Constant Matrix: (Units=GPa)
#
#
# Indices 1 2 3 4 5 6 
#
# 1 171.0623 56.0290 15.5662 -5.6122 -9.5621 -58.6294
# 2 56.0290 135.2295 7.0287 10.0274 -4.6772 -29.9798
# 3 15.5662 7.0287 60.7564 0.9619 -10.6293 -11.2085
# 4 -5.6122 10.0274 0.9619 34.0975 0.6731 -2.0203
# 5 -9.5621 -4.6772 -10.6293 0.6731 27.3696 -3.7887
# 6 -58.6294 -29.9798 -11.2085 -2.0203 -3.7887 78.4306
#
#
#
# Elastic Compliance Matrix: (Units=1/GPa)
#
#
# Indices 1 2 3 4 5 6 
#
# 1 0.008995 -0.002457 -0.000377 0.002501 0.003340 0.005957
# 2 -0.002457 0.009018 0.000106 -0.002985 0.001019 0.001598
# 3 -0.000377 0.000106 0.018351 -0.000596 0.007405 0.002724
# 4 0.002501 -0.002985 -0.000596 0.030726 -0.000428 0.001414
# 5 0.003340 0.001019 0.007405 -0.000428 0.041587 0.005942
# 6 0.005957 0.001598 0.002724 0.001414 0.005942 0.018527
#
#
# Mechanical properties :
#
#
# Convention : Reuss Voigt Hill
#
# Bulk Modulus (GPa) = 32.35176 58.25510 45.30343
# Shear Modulus (GPa) = 34.97462 47.20784 41.09123
#
# Velocity S-wave (km/s) = 3.51007 4.07800 3.80465
# Velocity P-wave (km/s) = 5.27486 6.53415 5.93798
#
# Compressibility (1/GPa) = 0.03091022
#
# Stress axis : x y z
#
# Youngs Moduli (GPa) = 111.17104 110.88904 54.49340
#
# Poissons Ratio (x) = 0.27241 0.02053
# Poissons Ratio (y) = 0.27310 -0.00580
# Poissons Ratio (z) = 0.04189 -0.01181
#
# Static dielectric constant tensor:
#      x y z
#    x 2.191690 0.081750 0.048340 
#    y 0.081750 2.255600 0.085910 
#    z 0.048340 0.085910 2.377460 
# 
# From -- ./inp_files/407862.got.cif
#   From: 2010.05.17/outbox.cif.g08.bks.cpg/sg2_204_cif.got.tgz:407862.got - 2010.06.03 11:33:40.
