data_PCOD9021123
_publ_section_title
;
Structure prediction by ZEFSAII (Michael W. Deem and Ramdas Pophale) SiO2 
 PCOD9021123
Probable space group: P -1
;
_chemical_formula_sum "Si O2"
_cell_formula_units_Z 16
_cell_length_a 8.914365
_cell_length_b 20.202531
_cell_length_c 8.854945
_cell_angle_alpha 74.517064
_cell_angle_beta 108.553281
_cell_angle_gamma 147.826468
_cell_volume 805.019019
_symmetry_space_group_name_H-M "P -1"
_symmetry_group_IT_number 2
_symmetry_cell_setting 'triclinic'
loop_
_space_group_symop_operation_xyz
x,y,z
-x,-y,-z
loop_
_atom_site_type_symbol
_atom_site_label
_atom_site_fract_x
_atom_site_fract_y
_atom_site_fract_z
Si Si1 0.114720 0.123203 0.638562
Si Si2 0.397707 0.113920 0.556991
Si Si3 0.243951 0.940129 0.859193
Si Si4 0.769221 0.468406 0.370278
Si Si5 0.994336 0.345378 0.447265
Si Si6 0.186190 0.597401 0.863394
Si Si7 0.173486 0.134181 0.996523
Si Si8 0.128743 0.257824 0.379332
O O1 0.372070 0.176419 0.602627
O O2 0.179551 0.160389 0.809302
O O3 0.019711 0.161402 0.519127
O O4 0.851334 0.978407 0.594407
O O5 0.685870 0.212360 0.494713
O O6 0.349542 0.036952 0.714485
O O7 0.080725 0.822948 0.781300
O O8 0.017599 0.891936 0.931466
O O9 0.500000 0.000000 0.000000
O O10 0.779198 0.454804 0.206154
O O11 0.439540 0.341333 0.386268
O O12 0.000000 0.500000 0.500000
O O13 0.847764 0.570041 0.404285
O O14 0.965347 0.397244 0.286299
O O15 0.136897 0.333790 0.414633
O O16 0.496679 0.741486 0.919389
O O17 0.000000 0.500000 0.000000
O O18 0.000000 0.000000 0.000000
#
# Coordination Sequence:
#
# PCOD9021123 Si02
#       8
#     2   2   2   2   2   2   2   2
#     4  10  22  37  68  89 134 170 230 268 338 389
#     4  10  22  42  64  99 127 183 227 277 324 413
#     4  11  26  42  65 100 146 174 218 287 355 394
#     4  10  22  45  69  90 127 175 228 272 328 404
#     4  11  25  41  70  93 134 174 232 272 341 405
#     4  11  26  45  69 101 136 179 230 285 339 407
#     4  12  24  42  70 101 136 179 231 283 337 409
#     4  11  24  44  64  98 134 177 221 281 337 410
#
# _framework density 19.875305999999998
#
# number of rings (size 3 to 8) (size 9 to 14) (size 15 to 20)
#    0.000    1.250    2.500    2.625   12.250    1.000 
#    0.000    0.625    0.000    0.000    0.000    0.000 
#    0.000    0.000    0.000    0.000    0.000    0.000 
#
# Total GULP energy -89208.012409 kJ/mol
# GULP energy per Si atom -5575.500776 kJ/mol
# Density = 1.983007 g / cm^3
# Si number density = 19.875306 Si / 1000 Ang^3
#
#
#
# Elastic Constant Matrix: (Units=GPa)
#
#
# Indices 1 2 3 4 5 6 
#
# 1 92.8592 36.7370 49.2221 -6.0009 -16.2672 -15.9306
# 2 36.7370 81.4645 31.9399 13.0657 -9.7355 2.2981
# 3 49.2221 31.9399 95.4917 13.8472 -20.4088 -6.8703
# 4 -6.0009 13.0657 13.8472 34.5086 2.1052 -9.6334
# 5 -16.2672 -9.7355 -20.4088 2.1052 33.9668 8.2317
# 6 -15.9306 2.2981 -6.8703 -9.6334 8.2317 32.4808
#
#
#
# Elastic Compliance Matrix: (Units=1/GPa)
#
#
# Indices 1 2 3 4 5 6 
#
# 1 0.023722 -0.009936 -0.010815 0.016798 -0.002844 0.015753
# 2 -0.009936 0.019400 0.000682 -0.012720 0.004680 -0.011060
# 3 -0.010815 0.000682 0.018999 -0.012336 0.008956 -0.007262
# 4 0.016798 -0.012720 -0.012336 0.049124 -0.011902 0.024115
# 5 -0.002844 0.004680 0.008956 -0.011902 0.038733 -0.013178
# 6 0.015753 -0.011060 -0.007262 0.024115 -0.013178 0.048252
#
#
# Mechanical properties :
#
#
# Convention : Reuss Voigt Hill
#
# Bulk Modulus (GPa) = 45.48845 56.17924 50.83385
# Shear Modulus (GPa) = 20.35034 30.31901 25.33468
#
# Velocity S-wave (km/s) = 3.20332 3.90995 3.57414
# Velocity P-wave (km/s) = 6.05130 6.97932 6.53181
#
# Compressibility (1/GPa) = 0.02198360
#
# Stress axis : x y z
#
# Youngs Moduli (GPa) = 42.15412 51.54606 52.63371
#
# Poissons Ratio (x) = 0.51216 0.56922
# Poissons Ratio (y) = 0.41884 -0.03588
# Poissons Ratio (z) = 0.45589 -0.03514
#
# Static dielectric constant tensor:
#      x y z
#    x 1.710000 0.020880 0.019500 
#    y 0.020880 1.835580 0.049660 
#    z 0.019500 0.049660 1.772840 
# 
# From -- ./inp_files/221574.got.cif
#   From: 2010.05.17/outbox.cif.g08.bks.cpg/sg2_111_cif.got.tgz:221574.got - 2010.06.03 11:33:40.
