data_PCOD9021815
_publ_section_title
;
Structure prediction by ZEFSAII (Michael W. Deem and Ramdas Pophale) SiO2 
 PCOD9021815
Probable space group: P -1
;
_chemical_formula_sum "Si O2"
_cell_formula_units_Z 12
_cell_length_a 5.046921
_cell_length_b 23.720086
_cell_length_c 10.893779
_cell_angle_alpha 155.180026
_cell_angle_beta 111.687640
_cell_angle_gamma 72.097057
_cell_volume 507.368821
_symmetry_space_group_name_H-M "P -1"
_symmetry_group_IT_number 2
_symmetry_cell_setting 'triclinic'
loop_
_space_group_symop_operation_xyz
x,y,z
-x,-y,-z
loop_
_atom_site_type_symbol
_atom_site_label
_atom_site_fract_x
_atom_site_fract_y
_atom_site_fract_z
Si Si1 0.081857 0.809029 0.546285
Si Si2 0.238736 0.711535 0.798052
Si Si3 0.715277 0.073380 0.583932
Si Si4 0.299550 0.961215 0.118094
Si Si5 0.475013 0.380469 0.862116
Si Si6 0.263281 0.458684 0.550911
O O1 0.831744 0.705460 0.356605
O O2 0.285370 0.719982 0.329311
O O3 0.923105 0.925225 0.680405
O O4 0.268407 0.893747 0.847373
O O5 0.505297 0.622039 0.643246
O O6 0.928640 0.637093 0.579232
O O7 0.249745 0.774828 0.062010
O O8 0.257899 0.835463 0.953234
O O9 0.500000 0.000000 0.500000
O O10 0.591691 0.042030 0.367283
O O11 0.000000 0.000000 0.500000
O O12 0.500000 0.500000 0.000000
O O13 0.553462 0.439283 0.127327
O O14 0.000000 0.500000 0.500000
#
# Coordination Sequence:
#
# PCOD9021815 Si02
#       6
#     2   2   2   2   2   2
#     4  11  26  43  72 101 137 177 228 291 330 418
#     4  11  23  44  69  98 138 176 224 282 345 409
#     4  10  22  38  65  99 132 173 214 270 340 406
#     4  10  24  44  70 104 136 176 228 281 358 398
#     4  12  26  47  70  98 139 186 232 276 343 407
#     4  12  27  43  70  99 136 183 234 281 335 402
#
# _framework density 23.651433000000001
#
# number of rings (size 3 to 8) (size 9 to 14) (size 15 to 20)
#    0.000    1.000    0.000    6.000    4.667    9.333 
#    0.000    0.000    0.000    0.000    0.000    0.000 
#    0.000    0.000    0.000    0.000    0.000    0.000 
#
# Total GULP energy -67108.013478 kJ/mol
# GULP energy per Si atom -5592.334457 kJ/mol
# Density = 2.359760 g / cm^3
# Si number density = 23.651433 Si / 1000 Ang^3
#
#
#
# Elastic Constant Matrix: (Units=GPa)
#
#
# Indices 1 2 3 4 5 6 
#
# 1 136.4973 22.1688 70.5871 -3.8874 -24.2056 -18.4094
# 2 22.1688 120.2812 68.2987 -3.6456 -6.8039 -19.7929
# 3 70.5871 68.2987 164.5528 -7.2821 -30.3167 -35.2625
# 4 -3.8874 -3.6456 -7.2821 39.3660 -7.9275 19.6773
# 5 -24.2056 -6.8039 -30.3167 -7.9275 34.0193 10.4528
# 6 -18.4094 -19.7929 -35.2625 19.6773 10.4528 28.3877
#
#
#
# Elastic Compliance Matrix: (Units=1/GPa)
#
#
# Indices 1 2 3 4 5 6 
#
# 1 0.009900 0.000489 -0.003668 0.001373 0.004294 -0.000329
# 2 0.000489 0.011621 -0.004433 -0.004560 -0.004744 0.007821
# 3 -0.003668 -0.004433 0.012277 -0.003179 0.003406 0.010729
# 4 0.001373 -0.004560 -0.003179 0.059337 0.028881 -0.058002
# 5 0.004294 -0.004744 0.003406 0.028881 0.052183 -0.035526
# 6 -0.000329 0.007821 0.010729 -0.058002 -0.035526 0.107080
#
#
# Mechanical properties :
#
#
# Convention : Reuss Voigt Hill
#
# Bulk Modulus (GPa) = 53.84148 82.60448 68.22298
# Shear Modulus (GPa) = 18.26062 37.70640 27.98351
#
# Velocity S-wave (km/s) = 2.78163 3.99714 3.44345
# Velocity P-wave (km/s) = 5.75592 7.50363 6.68712
#
# Compressibility (1/GPa) = 0.01857304
#
# Stress axis : x y z
#
# Youngs Moduli (GPa) = 101.01103 86.04819 81.45564
#
# Poissons Ratio (x) = -0.04204 0.29878
# Poissons Ratio (y) = -0.04936 0.36109
# Poissons Ratio (z) = 0.37051 0.38145
#
# Static dielectric constant tensor:
#      x y z
#    x 1.840630 0.068010 0.076510 
#    y 0.068010 1.982580 0.012520 
#    z 0.076510 0.012520 2.015450 
# 
# From -- ./inp_files/371379.got.cif
#   From: 2010.05.17/outbox.cif.g08.bks.cpg/sg2_186_cif.got.tgz:371379.got - 2010.06.03 11:33:40.
