data_PCOD9021318
_publ_section_title
;
Structure prediction by ZEFSAII (Michael W. Deem and Ramdas Pophale) SiO2 
 PCOD9021318
Probable space group: P -1
;
_chemical_formula_sum "Si O2"
_cell_formula_units_Z 14
_cell_length_a 7.066433
_cell_length_b 22.833623
_cell_length_c 10.678762
_cell_angle_alpha 26.448848
_cell_angle_beta 117.682230
_cell_angle_gamma 125.449781
_cell_volume 618.026382
_symmetry_space_group_name_H-M "P -1"
_symmetry_group_IT_number 2
_symmetry_cell_setting 'triclinic'
loop_
_space_group_symop_operation_xyz
x,y,z
-x,-y,-z
loop_
_atom_site_type_symbol
_atom_site_label
_atom_site_fract_x
_atom_site_fract_y
_atom_site_fract_z
Si Si1 0.273260 0.542274 0.991613
Si Si2 0.973768 0.809592 0.043750
Si Si3 0.309556 0.688529 0.329997
Si Si4 0.157887 0.971114 0.336977
Si Si5 0.344865 0.268760 0.434161
Si Si6 0.405400 0.436888 0.727944
Si Si7 0.654287 0.047869 0.294463
O O1 0.298763 0.408501 0.187294
O O2 0.383628 0.557532 0.133272
O O3 0.449205 0.681960 0.701094
O O4 0.000000 0.500000 0.000000
O O5 0.784921 0.724760 0.042721
O O6 0.093027 0.699083 0.320593
O O7 0.858994 0.875004 0.984370
O O8 0.762843 0.024997 0.500346
O O9 0.536504 0.763209 0.344618
O O10 0.292051 0.534107 0.577200
O O11 0.322796 0.786300 0.025489
O O12 0.906005 0.850367 0.455732
O O13 0.377754 0.954681 0.370986
O O14 0.815041 0.052335 0.217771
O O15 0.500000 0.500000 0.500000
#
# Coordination Sequence:
#
# PCOD9021318 Si02
#       7
#     2   2   2   2   2   2   2
#     4  10  24  42  62  92 121 161 204 245 307 360
#     4  10  22  38  60  89 124 156 203 248 300 358
#     4   9  22  41  59  91 123 159 202 253 302 350
#     4  11  21  39  62  88 122 164 199 245 302 364
#     4  10  23  42  62  88 128 159 198 252 299 366
#     4  11  22  39  67  90 120 161 205 256 300 355
#     4   9  22  37  58  89 120 157 207 245 293 357
#
# _framework density 22.652753000000001
#
# number of rings (size 3 to 8) (size 9 to 14) (size 15 to 20)
#    0.857    1.143    0.000    2.571    2.000    5.714 
#    0.000    0.000    0.000    0.000    0.000    0.000 
#    0.000    0.000    0.000    0.000    0.000    0.000 
#
# Total GULP energy -78049.654073 kJ/mol
# GULP energy per Si atom -5574.975291 kJ/mol
# Density = 2.260119 g / cm^3
# Si number density = 22.652753 Si / 1000 Ang^3
#
#
#
# Elastic Constant Matrix: (Units=GPa)
#
#
# Indices 1 2 3 4 5 6 
#
# 1 142.9240 70.8692 28.0570 4.2834 -6.7487 34.3080
# 2 70.8692 133.2498 40.0581 -18.1487 4.4484 30.0403
# 3 28.0570 40.0581 49.3013 3.4812 1.9789 8.6486
# 4 4.2834 -18.1487 3.4812 26.4765 1.5382 -12.7744
# 5 -6.7487 4.4484 1.9789 1.5382 28.7870 5.2463
# 6 34.3080 30.0403 8.6486 -12.7744 5.2463 31.7130
#
#
#
# Elastic Compliance Matrix: (Units=1/GPa)
#
#
# Indices 1 2 3 4 5 6 
#
# 1 0.015900 -0.007062 0.000930 -0.017375 0.009198 -0.019286
# 2 -0.007062 0.016055 -0.010207 0.014659 -0.004560 0.001874
# 3 0.000930 -0.010207 0.029874 -0.013682 0.001426 -0.005232
# 4 -0.017375 0.014659 -0.013682 0.073118 -0.016753 0.040866
# 5 0.009198 -0.004560 0.001426 -0.016753 0.041989 -0.019715
# 6 -0.019286 0.001874 -0.005232 0.040866 -0.019715 0.071772
#
#
# Mechanical properties :
#
#
# Convention : Reuss Voigt Hill
#
# Bulk Modulus (GPa) = 34.30306 67.04929 50.67617
# Shear Modulus (GPa) = 17.17596 29.82803 23.50200
#
# Velocity S-wave (km/s) = 2.75658 3.63264 3.22450
# Velocity P-wave (km/s) = 5.03066 6.87443 6.02351
#
# Compressibility (1/GPa) = 0.02915192
#
# Stress axis : x y z
#
# Youngs Moduli (GPa) = 62.89172 62.28440 33.47355
#
# Poissons Ratio (x) = 0.43984 -0.03113
# Poissons Ratio (y) = 0.44413 0.34167
# Poissons Ratio (z) = -0.05848 0.63575
#
# Static dielectric constant tensor:
#      x y z
#    x 1.892620 0.015740 -0.032220 
#    y 0.015740 1.787090 0.007160 
#    z -0.032220 0.007160 1.896200 
# 
# From -- ./inp_files/370827.got.cif
#   From: 2010.05.17/outbox.cif.g08.bks.cpg/sg2_186_cif.got.tgz:370827.got - 2010.06.03 11:33:40.
