data_PCOD9021208
_publ_section_title
;
Structure prediction by ZEFSAII (Michael W. Deem and Ramdas Pophale) SiO2 
 PCOD9021208
Probable space group: P -1
;
_chemical_formula_sum "Si O2"
_cell_formula_units_Z 16
_cell_length_a 19.261079
_cell_length_b 14.091993
_cell_length_c 7.334765
_cell_angle_alpha 130.769394
_cell_angle_beta 48.072033
_cell_angle_gamma 148.865977
_cell_volume 748.625115
_symmetry_space_group_name_H-M "P -1"
_symmetry_group_IT_number 2
_symmetry_cell_setting 'triclinic'
loop_
_space_group_symop_operation_xyz
x,y,z
-x,-y,-z
loop_
_atom_site_type_symbol
_atom_site_label
_atom_site_fract_x
_atom_site_fract_y
_atom_site_fract_z
Si Si1 0.027929 0.559335 0.237350
Si Si2 0.110823 0.386625 0.942495
Si Si3 0.326511 0.942614 0.329266
Si Si4 0.326529 0.210352 0.844239
Si Si5 0.110811 0.334972 0.446509
Si Si6 0.972085 0.003488 0.765274
Si Si7 0.409664 0.552690 0.056425
Si Si8 0.409662 0.766516 0.033589
O O1 0.931276 0.581204 0.479932
O O2 0.186917 0.762999 0.242182
O O3 0.016683 0.415999 0.183297
O O4 0.000000 0.500000 0.000000
O O5 0.093964 0.343938 0.702925
O O6 0.271142 0.580080 0.939498
O O7 0.068730 0.218658 0.911153
O O8 0.302378 0.052320 0.598875
O O9 0.368449 0.867319 0.292387
O O10 0.457189 0.088308 0.147659
O O11 0.457192 0.326090 0.895321
O O12 0.186914 0.110837 0.070936
O O13 0.368495 0.369473 0.838931
O O14 0.016643 0.117308 0.299952
O O15 0.271119 0.462110 0.289054
O O16 0.000000 0.000000 0.500000
O O17 0.440539 0.690444 0.029473
#
# Coordination Sequence:
#
# PCOD9021208 Si02
#       8
#     2   2   2   2   2   2   2   2
#     4   9  19  35  58  83 111 149 189 236 291 344
#     4   9  18  35  57  81 112 149 191 238 287 343
#     4  10  22  40  59  86 120 152 195 246 289 342
#     4  10  22  40  59  86 120 152 195 246 289 342
#     4   9  18  35  57  81 112 149 191 238 287 343
#     4   9  19  35  58  83 111 149 189 236 291 344
#     4  10  22  38  58  84 116 156 195 237 293 346
#     4  10  22  38  58  84 116 156 195 237 293 346
#
# _framework density 21.372513999999999
#
# number of rings (size 3 to 8) (size 9 to 14) (size 15 to 20)
#    0.000    2.500    0.000    0.750    0.000    9.000 
#    0.000    5.000    0.000    0.000    0.000    0.000 
#    0.000    0.000    0.000    0.000    0.000    0.000 
#
# Total GULP energy -89269.020884 kJ/mol
# GULP energy per Si atom -5579.313805 kJ/mol
# Density = 2.132387 g / cm^3
# Si number density = 21.372514 Si / 1000 Ang^3
#
#
#
# Elastic Constant Matrix: (Units=GPa)
#
#
# Indices 1 2 3 4 5 6 
#
# 1 79.9020 22.0566 49.0031 20.4212 -20.6353 -16.8251
# 2 22.0566 98.4474 51.7610 22.8965 -13.5900 -5.6462
# 3 49.0031 51.7610 107.9197 23.7292 -34.0239 -14.8069
# 4 20.4212 22.8965 23.7292 33.8642 -4.0774 -10.5874
# 5 -20.6353 -13.5900 -34.0239 -4.0774 26.8740 0.1846
# 6 -16.8251 -5.6462 -14.8069 -10.5874 0.1846 38.8798
#
#
#
# Elastic Compliance Matrix: (Units=1/GPa)
#
#
# Indices 1 2 3 4 5 6 
#
# 1 0.020302 0.001048 -0.004531 -0.007015 0.009282 0.005258
# 2 0.001048 0.014712 -0.006723 -0.006567 -0.001252 -0.001753
# 3 -0.004531 -0.006723 0.022985 -0.004873 0.021451 0.004387
# 4 -0.007015 -0.006567 -0.004873 0.042387 -0.008485 0.005737
# 5 0.009282 -0.001252 0.021451 -0.008485 0.069511 0.009364
# 6 0.005258 -0.001753 0.004387 0.005737 0.009364 0.030930
#
#
# Mechanical properties :
#
#
# Convention : Reuss Voigt Hill
#
# Bulk Modulus (GPa) = 26.60581 59.10115 42.85348
# Shear Modulus (GPa) = 21.38880 30.82017 26.10449
#
# Velocity S-wave (km/s) = 3.16691 3.80155 3.49865
# Velocity P-wave (km/s) = 5.08410 6.85434 6.03449
#
# Compressibility (1/GPa) = 0.03758578
#
# Stress axis : x y z
#
# Youngs Moduli (GPa) = 49.25617 67.97299 43.50743
#
# Poissons Ratio (x) = -0.07125 0.19714
# Poissons Ratio (y) = -0.05163 0.29252
# Poissons Ratio (z) = 0.22318 0.45701
#
# Static dielectric constant tensor:
#      x y z
#    x 1.787090 -0.040590 -0.027840 
#    y -0.040590 1.769550 0.042250 
#    z -0.027840 0.042250 1.807390 
# 
# From -- ./inp_files/305722.got.cif
#   From: 2010.05.17/outbox.cif.g08.bks.cpg/sg2_153_cif.got.tgz:305722.got - 2010.06.03 11:33:40.
