data_PCOD9021965
_publ_section_title
;
Structure prediction by ZEFSAII (Michael W. Deem and Ramdas Pophale) SiO2 
 PCOD9021965
Probable space group: P -1
;
_chemical_formula_sum "Si O2"
_cell_formula_units_Z 14
_cell_length_a 14.916167
_cell_length_b 25.614083
_cell_length_c 13.365475
_cell_angle_alpha 158.409794
_cell_angle_beta 161.133149
_cell_angle_gamma 21.975087
_cell_volume 557.177360
_symmetry_space_group_name_H-M "P -1"
_symmetry_group_IT_number 2
_symmetry_cell_setting 'triclinic'
loop_
_space_group_symop_operation_xyz
x,y,z
-x,-y,-z
loop_
_atom_site_type_symbol
_atom_site_label
_atom_site_fract_x
_atom_site_fract_y
_atom_site_fract_z
Si Si1 0.346611 0.320801 0.353960
Si Si2 0.000000 0.500000 0.500000
Si Si3 0.368516 0.965001 0.194815
Si Si4 0.645705 0.410144 0.287882
Si Si5 0.783008 0.631905 0.078012
Si Si6 0.297591 0.875673 0.284937
Si Si7 0.057319 0.811434 0.116849
Si Si8 0.500000 0.000000 0.000000
O O1 0.362525 0.428559 0.473768
O O2 0.663142 0.263347 0.645571
O O3 0.103364 0.425244 0.363745
O O4 0.315599 0.160097 0.021426
O O5 0.010168 0.331629 0.248871
O O6 0.542367 0.781655 0.036654
O O7 0.500000 0.000000 0.500000
O O8 0.455368 0.060140 0.370556
O O9 0.009740 0.019360 0.910704
O O10 0.982764 0.320514 0.526640
O O11 0.402950 0.429023 0.151019
O O12 0.600507 0.301236 0.960340
O O13 0.000000 0.500000 0.000000
O O14 0.206559 0.879413 0.310668
O O15 0.772691 0.936357 0.092428
#
# Coordination Sequence:
#
# PCOD9021965 Si02
#       8
#     2   1   2   2   2   2   2   1
#     4  11  25  43  72  99 148 184 231 295 348 429
#     4  10  22  38  68 100 142 176 232 282 352 396
#     4  12  24  46  73 101 145 180 237 302 349 410
#     4  12  25  45  77 104 138 188 238 287 361 419
#     4  12  28  48  71 105 145 183 235 297 358 420
#     4  12  25  42  78 108 133 190 241 288 355 416
#     4  11  25  43  69 103 145 181 237 287 352 426
#     4  10  26  46  64  94 150 186 234 280 358 408
#
# _framework density 25.126647999999999
#
# number of rings (size 3 to 8) (size 9 to 14) (size 15 to 20)
#    0.000    0.571    4.286    2.571    8.000    2.286 
#    0.000    0.000    0.000    0.000    0.000    0.000 
#    0.000    0.000    0.000    0.000    0.000    0.000 
#
# Total GULP energy -77992.211275 kJ/mol
# GULP energy per Si atom -5570.872234 kJ/mol
# Density = 2.506946 g / cm^3
# Si number density = 25.126648 Si / 1000 Ang^3
#
#
#
# Elastic Constant Matrix: (Units=GPa)
#
#
# Indices 1 2 3 4 5 6 
#
# 1 80.9419 129.5274 73.6653 12.4717 96.3469 -56.4692
# 2 129.5274 -229.3450 -98.1610 26.1332 -144.4401 167.9382
# 3 73.6653 -98.1610 35.5816 15.4533 -26.2573 54.1840
# 4 12.4717 26.1332 15.4533 53.0773 10.3174 -6.0620
# 5 96.3469 -144.4401 -26.2573 10.3174 -16.5138 69.7485
# 6 -56.4692 167.9382 54.1840 -6.0620 69.7485 -64.8001
#
#
#
# Elastic Compliance Matrix: (Units=1/GPa)
#
#
# Indices 1 2 3 4 5 6 
#
# 1 0.010720 0.002621 -0.001682 -0.003236 -0.007005 -0.011193
# 2 0.002621 0.006357 -0.002357 -0.001352 -0.004156 0.007872
# 3 -0.001682 -0.002357 0.017045 -0.001809 -0.006732 0.002532
# 4 -0.003236 -0.001352 -0.001809 0.020149 0.002490 -0.001402
# 5 -0.007005 -0.004156 -0.006732 0.002490 0.027434 0.019000
# 6 -0.011193 0.007872 0.002532 -0.001402 0.019000 0.037424
#
#
# Mechanical properties :
#
#
# Convention : Reuss Voigt Hill
#
# Bulk Modulus (GPa) = 31.96441 10.80463 21.38452
# Shear Modulus (GPa) = 37.76656 -20.17086 8.79785
#
# Velocity S-wave (km/s) = 3.88112 -2.83639 1.87323
# Velocity P-wave (km/s) = 5.73002 2.53326 3.63426
#
# Compressibility (1/GPa) = 0.03128479
#
# Stress axis : x y z
#
# Youngs Moduli (GPa) = 93.28765 157.31753 58.66807
#
# Poissons Ratio (x) = -0.41227 0.09867
# Poissons Ratio (y) = -0.24447 0.13828
# Poissons Ratio (z) = 0.15689 0.37081
#
# Static dielectric constant tensor:
#      x y z
#    x 1.980550 0.036310 -0.086360 
#    y 0.036310 1.949970 0.018770 
#    z -0.086360 0.018770 2.146860 
# 
# From -- ./inp_files/27692.got.cif
#   From: 2010.05.17/outbox.cif.g08.bks.cpg/sg2_14_cif.got.tgz:27692.got - 2010.06.03 11:33:40.
