data_PCOD9021892
_publ_section_title
;
Structure prediction by ZEFSAII (Michael W. Deem and Ramdas Pophale) SiO2 
 PCOD9021892
Probable space group: P -1
;
_chemical_formula_sum "Si O2"
_cell_formula_units_Z 15
_cell_length_a 14.443992
_cell_length_b 14.440993
_cell_length_c 8.282960
_cell_angle_alpha 72.704068
_cell_angle_beta 127.242092
_cell_angle_gamma 150.090624
_cell_volume 562.278755
_symmetry_space_group_name_H-M "P -1"
_symmetry_group_IT_number 2
_symmetry_cell_setting 'triclinic'
loop_
_space_group_symop_operation_xyz
x,y,z
-x,-y,-z
loop_
_atom_site_type_symbol
_atom_site_label
_atom_site_fract_x
_atom_site_fract_y
_atom_site_fract_z
Si Si1 0.986842 0.473413 0.195035
Si Si2 0.618281 0.692452 0.460356
Si Si3 0.000000 0.000000 0.000000
Si Si4 0.824023 0.197117 0.635753
Si Si5 0.449412 0.148672 0.718689
Si Si6 0.166777 0.942278 0.027402
Si Si7 0.729645 0.468982 0.330220
Si Si8 0.123553 0.242365 0.513285
O O1 0.173982 0.687018 0.388494
O O2 0.078499 0.439583 0.381451
O O3 0.671859 0.263415 0.005338
O O4 0.000000 0.500000 0.000000
O O5 0.500000 0.500000 0.500000
O O6 0.446345 0.662371 0.303693
O O7 0.726588 0.746719 0.367294
O O8 0.868387 0.904417 0.731135
O O9 0.063097 0.931421 0.070780
O O10 0.099534 0.389362 0.724739
O O11 0.605344 0.969259 0.422532
O O12 0.819195 0.151930 0.833213
O O13 0.152503 0.949437 0.579836
O O14 0.456686 0.205133 0.152918
O O15 0.980125 0.804501 0.747201
O O16 0.656570 0.518077 0.305139
#
# Coordination Sequence:
#
# PCOD9021892 Si02
#       8
#     2   2   1   2   2   2   2   2
#     4  12  27  43  72 102 136 183 234 282 341 409
#     4  11  23  40  72 100 137 178 222 281 340 407
#     4  10  22  38  66  98 132 178 222 278 334 408
#     4  11  25  44  71  97 140 180 225 287 339 402
#     4  11  25  45  67 103 139 178 230 280 343 410
#     4  11  22  43  67  97 138 175 228 277 340 401
#     4  11  25  46  67 102 138 179 234 278 341 405
#     4  10  24  42  70 101 138 180 225 282 340 407
#
# _framework density 26.677157000000001
#
# number of rings (size 3 to 8) (size 9 to 14) (size 15 to 20)
#    0.000    1.067    1.333    4.000    5.600    5.333 
#    0.000    0.667    0.000    0.000    0.000    0.000 
#    0.000    0.000    0.000    0.000    0.000    0.000 
#
# Total GULP energy -83636.499615 kJ/mol
# GULP energy per Si atom -5575.766641 kJ/mol
# Density = 2.661644 g / cm^3
# Si number density = 26.677157 Si / 1000 Ang^3
#
#
#
# Elastic Constant Matrix: (Units=GPa)
#
#
# Indices 1 2 3 4 5 6 
#
# 1 132.1608 18.9327 18.0682 17.0590 -28.0107 -18.2019
# 2 18.9327 94.7586 20.2222 15.3680 -7.8958 3.3496
# 3 18.0682 20.2222 91.2494 14.5878 -4.0262 1.1054
# 4 17.0590 15.3680 14.5878 20.0922 0.7450 -2.2904
# 5 -28.0107 -7.8958 -4.0262 0.7450 45.3465 1.3268
# 6 -18.2019 3.3496 1.1054 -2.2904 1.3268 42.5777
#
#
#
# Elastic Compliance Matrix: (Units=1/GPa)
#
#
# Indices 1 2 3 4 5 6 
#
# 1 0.010667 -0.000281 -0.000486 -0.008280 0.006517 0.003946
# 2 -0.000281 0.012512 -0.001213 -0.008711 0.002087 -0.001607
# 3 -0.000486 -0.001213 0.012643 -0.007969 0.000768 -0.000893
# 4 -0.008280 -0.008711 -0.007969 0.069722 -0.008525 0.001369
# 5 0.006517 0.002087 0.000768 -0.008525 0.026612 0.001314
# 6 0.003946 -0.001607 -0.000893 0.001369 0.001314 0.025356
#
#
# Mechanical properties :
#
#
# Convention : Reuss Voigt Hill
#
# Bulk Modulus (GPa) = 31.38652 48.06833 39.72742
# Shear Modulus (GPa) = 29.05440 38.99965 34.02703
#
# Velocity S-wave (km/s) = 3.30375 3.82764 3.57531
# Velocity P-wave (km/s) = 5.13263 6.13124 5.65402
#
# Compressibility (1/GPa) = 0.03186081
#
# Stress axis : x y z
#
# Youngs Moduli (GPa) = 93.74767 79.92569 79.09676
#
# Poissons Ratio (x) = 0.02246 0.03847
# Poissons Ratio (y) = 0.02634 0.09594
# Poissons Ratio (z) = 0.04559 0.09694
#
# Static dielectric constant tensor:
#      x y z
#    x 2.160730 0.063910 0.077190 
#    y 0.063910 2.497310 0.079730 
#    z 0.077190 0.079730 2.053770 
# 
# From -- ./inp_files/313222.got.cif
#   From: 2010.05.17/outbox.cif.g08.bks.cpg/sg2_157_cif.got.tgz:313222.got - 2010.06.03 11:33:40.
