data_PCOD9021521
_publ_section_title
;
Structure prediction by ZEFSAII (Michael W. Deem and Ramdas Pophale) SiO2 
 PCOD9021521
Probable space group: P -1
;
_chemical_formula_sum "Si O2"
_cell_formula_units_Z 16
_cell_length_a 12.107421
_cell_length_b 8.875750
_cell_length_c 19.952745
_cell_angle_alpha 150.278892
_cell_angle_beta 51.294054
_cell_angle_gamma 130.697478
_cell_volume 795.949600
_symmetry_space_group_name_H-M "P -1"
_symmetry_group_IT_number 2
_symmetry_cell_setting 'triclinic'
loop_
_space_group_symop_operation_xyz
x,y,z
-x,-y,-z
loop_
_atom_site_type_symbol
_atom_site_label
_atom_site_fract_x
_atom_site_fract_y
_atom_site_fract_z
Si Si1 0.633660 0.697457 0.100327
Si Si2 0.185306 0.265120 0.692473
Si Si3 0.360684 0.847385 0.201788
Si Si4 0.120092 0.810693 0.876834
Si Si5 0.295988 0.931597 0.646403
Si Si6 0.932490 0.289936 0.652321
Si Si7 0.984586 0.633399 0.484708
Si Si8 0.521490 0.559746 0.434717
O O1 0.467622 0.709908 0.155666
O O2 0.728024 0.942994 0.105203
O O3 0.691408 0.845522 0.207226
O O4 0.655053 0.361322 0.940484
O O5 0.144328 0.593455 0.844993
O O6 0.310347 0.338053 0.615032
O O7 0.252454 0.118053 0.672265
O O8 0.035422 0.006944 0.626283
O O9 0.210148 0.800636 0.281855
O O10 0.437243 0.217908 0.303593
O O11 0.056993 0.565235 0.746502
O O12 0.000000 0.000000 0.000000
O O13 0.446394 0.829851 0.545648
O O14 0.173352 0.587107 0.565186
O O15 0.905522 0.400470 0.629928
O O16 0.000000 0.000000 0.500000
O O17 0.000000 0.500000 0.500000
O O18 0.500000 0.500000 0.500000
#
# Coordination Sequence:
#
# PCOD9021521 Si02
#       8
#     2   2   2   2   2   2   2   2
#     4  11  23  43  64  95 132 173 213 264 316 389
#     4  11  24  42  62  96 133 162 214 270 319 382
#     4  11  24  39  68  97 131 164 222 265 313 375
#     4  12  23  41  67  92 124 170 222 266 315 375
#     4  11  23  41  67  92 133 169 207 262 330 380
#     4  12  22  37  67  96 124 164 219 270 316 375
#     4  10  22  38  62  94 129 162 203 266 325 375
#     4  12  22  40  68  99 122 170 216 264 315 379
#
# _framework density 20.101775
#
# number of rings (size 3 to 8) (size 9 to 14) (size 15 to 20)
#    0.000    0.750    6.250    1.875    0.000    0.000 
#    0.000    1.250    8.250    0.000    0.000    0.000 
#    0.000    0.000    0.000    0.000    0.000    0.000 
#
# Total GULP energy -89221.768774 kJ/mol
# GULP energy per Si atom -5576.360548 kJ/mol
# Density = 2.005602 g / cm^3
# Si number density = 20.101775 Si / 1000 Ang^3
#
#
#
# Elastic Constant Matrix: (Units=GPa)
#
#
# Indices 1 2 3 4 5 6 
#
# 1 92.4962 35.3770 52.8399 -5.1073 -6.6816 -3.9202
# 2 35.3770 87.3891 40.6622 4.6960 -8.7145 8.1573
# 3 52.8399 40.6622 144.5096 11.6089 -2.0305 1.5171
# 4 -5.1073 4.6960 11.6089 32.0287 7.6220 -4.3694
# 5 -6.6816 -8.7145 -2.0305 7.6220 43.0131 4.2605
# 6 -3.9202 8.1573 1.5171 -4.3694 4.2605 40.0470
#
#
#
# Elastic Compliance Matrix: (Units=1/GPa)
#
#
# Indices 1 2 3 4 5 6 
#
# 1 0.015894 -0.004734 -0.004955 0.005481 -0.000023 0.003308
# 2 -0.004734 0.015299 -0.002196 -0.003569 0.003313 -0.004238
# 3 -0.004955 -0.002196 0.009690 -0.004111 0.000056 -0.000859
# 4 0.005481 -0.003569 -0.004111 0.036660 -0.007174 0.006182
# 5 -0.000023 0.003313 0.000056 -0.007174 0.025605 -0.004186
# 6 0.003308 -0.004238 -0.000859 0.006182 -0.004186 0.027310
#
#
# Mechanical properties :
#
#
# Convention : Reuss Voigt Hill
#
# Bulk Modulus (GPa) = 58.43781 64.68369 61.56075
# Shear Modulus (GPa) = 31.26329 36.05214 33.65772
#
# Velocity S-wave (km/s) = 3.94794 4.23954 4.09634
# Velocity P-wave (km/s) = 7.06511 7.49753 7.28453
#
# Compressibility (1/GPa) = 0.01711221
#
# Stress axis : x y z
#
# Youngs Moduli (GPa) = 62.91805 65.36285 103.20296
#
# Poissons Ratio (x) = 0.30945 0.51135
# Poissons Ratio (y) = 0.29788 0.22664
# Poissons Ratio (z) = 0.31174 0.14354
#
# Static dielectric constant tensor:
#      x y z
#    x 1.783910 -0.023030 -0.020710 
#    y -0.023030 1.781110 0.030320 
#    z -0.020710 0.030320 1.747500 
# 
# From -- ./inp_files/594307.got.cif
#   From: 2010.05.17/outbox.cif.g08.bks.cpg/sg2_298_cif.got.tgz:594307.got - 2010.06.03 11:33:40.
