data_PCOD9021671
_publ_section_title
;
Structure prediction by ZEFSAII (Michael W. Deem and Ramdas Pophale) SiO2 
 PCOD9021671
Probable space group: P -1
;
_chemical_formula_sum "Si O2"
_cell_formula_units_Z 16
_cell_length_a 11.633427
_cell_length_b 12.435978
_cell_length_c 12.704218
_cell_angle_alpha 41.977521
_cell_angle_beta 35.451070
_cell_angle_gamma 54.144119
_cell_volume 712.068971
_symmetry_space_group_name_H-M "P -1"
_symmetry_group_IT_number 2
_symmetry_cell_setting 'triclinic'
loop_
_space_group_symop_operation_xyz
x,y,z
-x,-y,-z
loop_
_atom_site_type_symbol
_atom_site_label
_atom_site_fract_x
_atom_site_fract_y
_atom_site_fract_z
Si Si1 0.470976 0.315591 0.194364
Si Si2 0.926479 0.819104 0.314997
Si Si3 0.500546 0.494921 0.657356
Si Si4 0.757188 0.689470 0.189039
Si Si5 0.115560 0.717316 0.457919
Si Si6 0.722579 0.949256 0.859587
Si Si7 0.704836 0.687424 0.881498
Si Si8 0.884180 0.196058 0.044511
O O1 0.279217 0.280656 0.435332
O O2 0.417612 0.236424 0.177543
O O3 0.662809 0.247011 0.153501
O O4 0.500000 0.500000 0.000000
O O5 0.079767 0.757811 0.332679
O O6 0.889365 0.009645 0.213232
O O7 0.008474 0.791936 0.157780
O O8 0.600537 0.663468 0.420654
O O9 0.331240 0.436910 0.740781
O O10 0.690454 0.381373 0.594632
O O11 0.408302 0.460398 0.865361
O O12 0.757148 0.859189 0.008189
O O13 0.980971 0.689075 0.063263
O O14 0.910520 0.639507 0.711634
O O15 0.144224 0.889131 0.368711
O O16 0.740664 0.822187 0.845772
O O17 0.500000 0.000000 0.000000
#
# Coordination Sequence:
#
# PCOD9021671 Si02
#       8
#     2   2   2   2   2   2   2   2
#     4  11  26  43  63  95 127 168 215 261 309 375
#     4  10  24  41  65  97 122 168 213 259 318 369
#     4  10  22  42  61  91 131 157 203 261 310 373
#     4  10  22  38  64  91 123 166 200 254 314 368
#     4  11  20  40  67  89 122 162 207 257 310 374
#     4  11  20  40  67  90 124 163 206 258 313 369
#     4  10  23  39  64  91 122 161 214 250 312 369
#     4  11  23  42  66  88 131 167 210 261 316 370
#
# _framework density 22.469733000000002
#
# number of rings (size 3 to 8) (size 9 to 14) (size 15 to 20)
#    0.000    1.500    3.750    1.500    5.250    0.500 
#    0.000    8.125    0.000    0.000    0.000    0.000 
#    0.000    0.000    0.000    0.000    0.000    0.000 
#
# Total GULP energy -89388.889340 kJ/mol
# GULP energy per Si atom -5586.805584 kJ/mol
# Density = 2.241859 g / cm^3
# Si number density = 22.469733 Si / 1000 Ang^3
#
#
#
# Elastic Constant Matrix: (Units=GPa)
#
#
# Indices 1 2 3 4 5 6 
#
# 1 111.9733 39.4304 24.8524 1.6892 -13.5267 -28.1339
# 2 39.4304 62.4524 18.8081 -3.5363 -0.1061 -20.0195
# 3 24.8524 18.8081 87.7995 10.5695 -1.4572 2.7734
# 4 1.6892 -3.5363 10.5695 13.2589 0.0688 -2.5844
# 5 -13.5267 -0.1061 -1.4572 0.0688 42.7413 6.5544
# 6 -28.1339 -20.0195 2.7734 -2.5844 6.5544 18.4556
#
#
#
# Elastic Compliance Matrix: (Units=1/GPa)
#
#
# Indices 1 2 3 4 5 6 
#
# 1 0.017845 0.001731 -0.007664 0.010435 0.000543 0.031502
# 2 0.001731 0.038208 -0.014341 0.031889 -0.008115 0.053587
# 3 -0.007664 -0.014341 0.021005 -0.026519 0.003732 -0.035435
# 4 0.010435 0.031889 -0.026519 0.118262 -0.009103 0.074278
# 5 0.000543 -0.008115 0.003732 -0.009103 0.026646 -0.019273
# 6 0.031502 0.053587 -0.035435 0.074278 -0.019273 0.182905
#
#
# Mechanical properties :
#
#
# Convention : Reuss Voigt Hill
#
# Bulk Modulus (GPa) = 27.39024 47.60078 37.49551
# Shear Modulus (GPa) = 10.92684 26.83344 18.88014
#
# Velocity S-wave (km/s) = 2.20759 3.45947 2.90185
# Velocity P-wave (km/s) = 4.32600 6.09817 5.28687
#
# Compressibility (1/GPa) = 0.03650935
#
# Stress axis : x y z
#
# Youngs Moduli (GPa) = 56.03693 26.17274 47.60829
#
# Poissons Ratio (x) = -0.04531 0.36489
# Poissons Ratio (y) = -0.09701 0.68275
# Poissons Ratio (z) = 0.42949 0.37534
#
# Static dielectric constant tensor:
#      x y z
#    x 1.880670 0.019590 -0.027980 
#    y 0.019590 1.846790 -0.037990 
#    z -0.027980 -0.037990 1.852890 
# 
# From -- ./inp_files/521442.got.cif
#   From: 2010.05.17/outbox.cif.g08.bks.cpg/sg2_261_cif.got.tgz:521442.got - 2010.06.03 11:33:40.
