data_PCOD9021709
_publ_section_title
;
Structure prediction by ZEFSAII (Michael W. Deem and Ramdas Pophale) SiO2 
 PCOD9021709
Probable space group: P -1
;
_chemical_formula_sum "Si O2"
_cell_formula_units_Z 10
_cell_length_a 16.405066
_cell_length_b 9.587440
_cell_length_c 11.673172
_cell_angle_alpha 143.106118
_cell_angle_beta 156.907824
_cell_angle_gamma 31.572606
_cell_volume 375.875085
_symmetry_space_group_name_H-M "P -1"
_symmetry_group_IT_number 2
_symmetry_cell_setting 'triclinic'
loop_
_space_group_symop_operation_xyz
x,y,z
-x,-y,-z
loop_
_atom_site_type_symbol
_atom_site_label
_atom_site_fract_x
_atom_site_fract_y
_atom_site_fract_z
Si Si1 0.809844 0.191539 0.255177
Si Si2 0.602067 0.760585 0.385391
Si Si3 0.417739 0.121559 0.812939
Si Si4 0.840212 0.370556 0.749169
Si Si5 0.640265 0.553590 0.847043
O O1 0.804601 0.454768 0.468522
O O2 0.673435 0.106179 0.113823
O O3 0.632584 0.267967 0.966398
O O4 0.039346 0.928388 0.339041
O O5 0.500000 0.000000 0.500000
O O6 0.675790 0.839013 0.411549
O O7 0.275246 0.370190 0.877426
O O8 0.486119 0.842886 0.775547
O O9 0.825368 0.374886 0.871676
O O10 0.564883 0.527888 0.453104
O O11 0.000000 0.500000 0.000000
#
# Coordination Sequence:
#
# PCOD9021709 Si02
#       5
#     2   2   2   2   2
#     4   9  20  38  64  94 119 168 225 244 318 385
#     4   9  19  40  67  89 123 174 213 263 312 371
#     4   9  19  41  59  94 129 163 208 266 317 368
#     4  11  21  40  62  97 128 173 208 253 326 384
#     4  10  22  38  64  94 138 158 203 275 315 374
#
# _framework density 26.604585
#
# number of rings (size 3 to 8) (size 9 to 14) (size 15 to 20)
#    1.200    1.200    2.000    0.000    0.000    5.600 
#    7.200    2.000    0.000    0.000    0.000    0.000 
#    0.000    0.000    0.000    0.000    0.000    0.000 
#
# Total GULP energy -55868.182585 kJ/mol
# GULP energy per Si atom -5586.818258 kJ/mol
# Density = 2.654403 g / cm^3
# Si number density = 26.604585 Si / 1000 Ang^3
#
#
#
# Elastic Constant Matrix: (Units=GPa)
#
#
# Indices 1 2 3 4 5 6 
#
# 1 169.2033 74.4419 44.8095 16.1230 1.4611 -45.7001
# 2 74.4419 160.3024 44.2804 20.6651 1.4688 -36.8056
# 3 44.8095 44.2804 67.8441 19.4590 -1.5622 -18.2607
# 4 16.1230 20.6651 19.4590 29.1461 -10.4349 -5.1355
# 5 1.4611 1.4688 -1.5622 -10.4349 52.1180 13.2258
# 6 -45.7001 -36.8056 -18.2607 -5.1355 13.2258 62.8177
#
#
#
# Elastic Compliance Matrix: (Units=1/GPa)
#
#
# Indices 1 2 3 4 5 6 
#
# 1 0.009048 -0.002101 -0.002993 -0.001307 -0.001749 0.004742
# 2 -0.002101 0.009176 -0.002773 -0.003583 -0.001794 0.003126
# 3 -0.002993 -0.002773 0.022427 -0.011704 -0.002066 0.002195
# 4 -0.001307 -0.003583 -0.011704 0.048374 0.010677 -0.004746
# 5 -0.001749 -0.001794 -0.002066 0.010677 0.023118 -0.006919
# 6 0.004742 0.003126 0.002195 -0.004746 -0.006919 0.022908
#
#
# Mechanical properties :
#
#
# Convention : Reuss Voigt Hill
#
# Bulk Modulus (GPa) = 40.13619 80.49036 60.31327
# Shear Modulus (GPa) = 31.42846 44.40423 37.91635
#
# Velocity S-wave (km/s) = 3.44076 4.08983 3.77925
# Velocity P-wave (km/s) = 5.55914 7.25412 6.46244
#
# Compressibility (1/GPa) = 0.02491517
#
# Stress axis : x y z
#
# Youngs Moduli (GPa) = 110.52384 108.97625 44.58961
#
# Poissons Ratio (x) = 0.22900 0.13346
# Poissons Ratio (y) = 0.23226 0.12366
# Poissons Ratio (z) = 0.33081 0.30222
#
# Static dielectric constant tensor:
#      x y z
#    x 2.159850 0.035120 -0.044550 
#    y 0.035120 2.135520 -0.035720 
#    z -0.044550 -0.035720 2.216460 
# 
# From -- ./inp_files/448261.got.cif
#   From: 2010.05.17/outbox.cif.g08.bks.cpg/sg2_225_cif.got.tgz:448261.got - 2010.06.03 11:33:40.
