data_PCOD9021366
_publ_section_title
;
Structure prediction by ZEFSAII (Michael W. Deem and Ramdas Pophale) SiO2 
 PCOD9021366
Probable space group: P -1
;
_chemical_formula_sum "Si O2"
_cell_formula_units_Z 12
_cell_length_a 11.033621
_cell_length_b 9.094923
_cell_length_c 14.145249
_cell_angle_alpha 88.443837
_cell_angle_beta 147.698877
_cell_angle_gamma 68.521571
_cell_volume 519.490241
_symmetry_space_group_name_H-M "P -1"
_symmetry_group_IT_number 2
_symmetry_cell_setting 'triclinic'
loop_
_space_group_symop_operation_xyz
x,y,z
-x,-y,-z
loop_
_atom_site_type_symbol
_atom_site_label
_atom_site_fract_x
_atom_site_fract_y
_atom_site_fract_z
Si Si1 0.280948 0.441211 0.962000
Si Si2 0.538443 0.808707 0.547330
Si Si3 0.705154 0.729084 0.855222
Si Si4 0.582590 0.566773 0.255546
Si Si5 0.164257 0.784291 0.160923
Si Si6 0.330830 0.213655 0.821042
O O1 0.284748 0.365157 0.865198
O O2 0.908240 0.610281 0.754122
O O3 0.460465 0.254416 0.161210
O O4 0.427753 0.531376 0.076025
O O5 0.452897 0.848044 0.600883
O O6 0.341794 0.770112 0.368386
O O7 0.500000 0.000000 0.500000
O O8 0.000000 0.500000 0.000000
O O9 0.890155 0.792284 0.000126
O O10 0.405952 0.616534 0.238929
O O11 0.516110 0.764291 0.167769
O O12 0.967341 0.351361 0.535483
O O13 0.000000 0.000000 0.000000
O O14 0.500000 0.000000 0.000000
#
# Coordination Sequence:
#
# PCOD9021366 Si02
#       6
#     2   2   2   2   2   2
#     4  11  23  45  65  93 137 172 219 278 334 396
#     4  11  21  38  63  99 133 172 214 266 338 402
#     4  10  22  38  60  98 131 164 214 261 334 405
#     4  11  24  48  68  96 138 172 227 282 327 401
#     4  12  22  39  68 100 133 176 211 275 346 397
#     4  11  27  46  70  97 128 183 233 274 330 389
#
# _framework density 23.099567
#
# number of rings (size 3 to 8) (size 9 to 14) (size 15 to 20)
#    0.000    1.000    6.667    0.500    2.333    4.667 
#    3.000    0.000    0.000    0.000    0.000    0.000 
#    0.000    0.000    0.000    0.000    0.000    0.000 
#
# Total GULP energy -66828.910452 kJ/mol
# GULP energy per Si atom -5569.075871 kJ/mol
# Density = 2.304699 g / cm^3
# Si number density = 23.099567 Si / 1000 Ang^3
#
#
#
# Elastic Constant Matrix: (Units=GPa)
#
#
# Indices 1 2 3 4 5 6 
#
# 1 75.7334 5.2719 1.4133 7.5879 -8.0279 9.5035
# 2 5.2719 99.9236 35.7054 35.1159 9.1122 9.3214
# 3 1.4133 35.7054 75.5987 30.6068 -5.8686 -0.8070
# 4 7.5879 35.1159 30.6068 46.2644 2.0530 -10.0051
# 5 -8.0279 9.1122 -5.8686 2.0530 24.5045 6.7752
# 6 9.5035 9.3214 -0.8070 -10.0051 6.7752 42.9089
#
#
#
# Elastic Compliance Matrix: (Units=1/GPa)
#
#
# Indices 1 2 3 4 5 6 
#
# 1 0.015321 0.000260 0.002581 -0.006065 0.007717 -0.006034
# 2 0.000260 0.015953 -0.003570 -0.010771 -0.004300 -0.005423
# 3 0.002581 -0.003570 0.020643 -0.012602 0.009224 -0.003803
# 4 -0.006065 -0.010771 -0.012602 0.042701 -0.008661 0.014770
# 5 0.007717 -0.004300 0.009224 -0.008661 0.050814 -0.010644
# 6 -0.006034 -0.005423 -0.003803 0.014770 -0.010644 0.030873
#
#
# Mechanical properties :
#
#
# Convention : Reuss Voigt Hill
#
# Bulk Modulus (GPa) = 19.81850 37.33744 28.57797
# Shear Modulus (GPa) = 25.69600 36.65990 31.17795
#
# Velocity S-wave (km/s) = 3.33889 3.98809 3.67784
# Velocity P-wave (km/s) = 4.84381 6.11598 5.51669
#
# Compressibility (1/GPa) = 0.05045790
#
# Stress axis : x y z
#
# Youngs Moduli (GPa) = 65.27082 62.68372 48.44228
#
# Poissons Ratio (x) = -0.01630 -0.12502
# Poissons Ratio (y) = -0.01697 0.17296
# Poissons Ratio (z) = -0.16845 0.22380
#
# Static dielectric constant tensor:
#      x y z
#    x 1.909060 0.026620 -0.089990 
#    y 0.026620 1.880630 -0.109790 
#    z -0.089990 -0.109790 2.072130 
# 
# From -- ./inp_files/190468.got.cif
#   From: 2010.05.17/outbox.cif.g08.bks.cpg/sg2_96_cif.got.tgz:190468.got - 2010.06.03 11:33:40.
