data_PCOD9021942
_publ_section_title
;
Structure prediction by ZEFSAII (Michael W. Deem and Ramdas Pophale) SiO2 
 PCOD9021942
Probable space group: P -1
;
_chemical_formula_sum "Si O2"
_cell_formula_units_Z 15
_cell_length_a 7.772075
_cell_length_b 8.363289
_cell_length_c 13.883759
_cell_angle_alpha 126.115563
_cell_angle_beta 82.386256
_cell_angle_gamma 127.027810
_cell_volume 546.291663
_symmetry_space_group_name_H-M "P -1"
_symmetry_group_IT_number 2
_symmetry_cell_setting 'triclinic'
loop_
_space_group_symop_operation_xyz
x,y,z
-x,-y,-z
loop_
_atom_site_type_symbol
_atom_site_label
_atom_site_fract_x
_atom_site_fract_y
_atom_site_fract_z
Si Si1 0.268209 0.970009 0.841026
Si Si2 0.657215 0.989621 0.354313
Si Si3 0.709907 0.344321 0.143542
Si Si4 0.000000 0.500000 0.000000
Si Si5 0.015396 0.926266 0.365898
Si Si6 0.670611 0.802654 0.724400
Si Si7 0.238359 0.563093 0.367224
Si Si8 0.079628 0.202329 0.977582
O O1 0.316976 0.905789 0.915391
O O2 0.007171 0.698599 0.743561
O O3 0.393636 0.987604 0.743454
O O4 0.283578 0.216211 0.931845
O O5 0.840296 0.943632 0.327222
O O6 0.425933 0.754662 0.341043
O O7 0.771478 0.257203 0.497832
O O8 0.918817 0.634047 0.271136
O O9 0.517319 0.287772 0.212137
O O10 0.769616 0.395915 0.044286
O O11 0.102431 0.452260 0.071255
O O12 0.000000 0.000000 0.500000
O O13 0.262101 0.098141 0.355952
O O14 0.667101 0.563476 0.634622
O O15 0.892275 0.067489 0.856124
O O16 0.000000 0.000000 0.000000
#
# Coordination Sequence:
#
# PCOD9021942 Si02
#       8
#     2   2   2   1   2   2   2   2
#     4  11  23  42  69  95 136 179 228 285 354 419
#     4  11  21  41  64  96 135 179 238 281 337 417
#     4  12  26  45  71 106 142 184 238 299 357 426
#     4  12  24  48  76  98 142 178 236 308 360 414
#     4  12  25  42  69 103 147 190 230 292 353 421
#     4  11  25  45  70 102 146 182 238 293 359 423
#     4  10  22  38  67  95 132 184 227 283 340 413
#     4  11  23  48  72 100 133 184 236 299 362 426
#
# _framework density 27.457861000000001
#
# number of rings (size 3 to 8) (size 9 to 14) (size 15 to 20)
#    0.000    0.800    6.667    1.200    1.867    4.267 
#    0.000    0.667    0.000    0.000    0.000    0.000 
#    0.000    0.000    0.000    0.000    0.000    0.000 
#
# Total GULP energy -83541.596262 kJ/mol
# GULP energy per Si atom -5569.439751 kJ/mol
# Density = 2.739537 g / cm^3
# Si number density = 27.457861 Si / 1000 Ang^3
#
#
#
# Elastic Constant Matrix: (Units=GPa)
#
#
# Indices 1 2 3 4 5 6 
#
# 1 77.7772 48.8443 28.6134 -6.2488 -35.3224 4.8614
# 2 48.8443 189.0959 50.4438 -35.9399 -6.5868 45.4930
# 3 28.6134 50.4438 102.9935 -21.0709 -17.4362 16.6298
# 4 -6.2488 -35.9399 -21.0709 60.7171 0.1796 0.4026
# 5 -35.3224 -6.5868 -17.4362 0.1796 48.9324 -4.2478
# 6 4.8614 45.4930 16.6298 0.4026 -4.2478 34.1941
#
#
#
# Elastic Compliance Matrix: (Units=1/GPa)
#
#
# Indices 1 2 3 4 5 6 
#
# 1 0.026819 -0.009196 -0.002544 -0.003699 0.018268 0.011972
# 2 -0.009196 0.012786 -0.000910 0.006433 -0.006668 -0.016165
# 3 -0.002544 -0.000910 0.012674 0.003620 0.002165 -0.004365
# 4 -0.003699 0.006433 0.003620 0.021225 -0.001480 -0.010227
# 5 0.018268 -0.006668 0.002165 -0.001480 0.034328 0.009503
# 6 0.011972 -0.016165 -0.004365 -0.010227 0.009503 0.052472
#
#
# Mechanical properties :
#
#
# Convention : Reuss Voigt Hill
#
# Bulk Modulus (GPa) = 37.06657 69.51882 53.29270
# Shear Modulus (GPa) = 25.69415 44.89975 35.29695
#
# Velocity S-wave (km/s) = 3.06235 4.04818 3.58927
# Velocity P-wave (km/s) = 5.10223 6.87195 6.05212
#
# Compressibility (1/GPa) = 0.02697849
#
# Stress axis : x y z
#
# Youngs Moduli (GPa) = 37.28691 78.21239 78.90267
#
# Poissons Ratio (x) = 0.71922 0.20074
# Poissons Ratio (y) = 0.34288 0.07182
# Poissons Ratio (z) = 0.09486 0.07119
#
# Static dielectric constant tensor:
#      x y z
#    x 2.265730 0.299790 0.305800 
#    y 0.299790 1.745630 -0.454390 
#    z 0.305800 -0.454390 1.671830 
# 
# From -- ./inp_files/197403.got.cif
#   From: 2010.05.17/outbox.cif.g08.bks.cpg/sg2_99_cif.got.tgz:197403.got - 2010.06.03 11:33:40.
