data_PCOD9021689
_publ_section_title
;
Structure prediction by ZEFSAII (Michael W. Deem and Ramdas Pophale) SiO2 
 PCOD9021689
Probable space group: P -1
;
_chemical_formula_sum "Si O2"
_cell_formula_units_Z 16
_cell_length_a 12.698536
_cell_length_b 5.176194
_cell_length_c 11.408178
_cell_angle_alpha 90.668153
_cell_angle_beta 97.814331
_cell_angle_gamma 53.052013
_cell_volume 591.380488
_symmetry_space_group_name_H-M "P -1"
_symmetry_group_IT_number 2
_symmetry_cell_setting 'triclinic'
loop_
_space_group_symop_operation_xyz
x,y,z
-x,-y,-z
loop_
_atom_site_type_symbol
_atom_site_label
_atom_site_fract_x
_atom_site_fract_y
_atom_site_fract_z
Si Si1 0.166963 0.332771 0.077116
Si Si2 0.898560 0.607066 0.659633
Si Si3 0.644027 0.085081 0.069516
Si Si4 0.393580 0.411793 0.636210
Si Si5 0.256532 0.665908 0.389628
Si Si6 0.143717 0.868718 0.933250
Si Si7 0.845597 0.470606 0.267785
Si Si8 0.533862 0.710153 0.758644
O O1 0.132048 0.340846 0.205183
O O2 0.103532 0.201355 0.983754
O O3 0.139695 0.660640 0.030756
O O4 0.322406 0.053861 0.058348
O O5 0.854168 0.391470 0.610928
O O6 0.049386 0.482205 0.664011
O O7 0.802691 0.966367 0.593089
O O8 0.705773 0.281501 0.087039
O O9 0.502352 0.261357 0.109250
O O10 0.743884 0.772987 0.167743
O O11 0.379243 0.433564 0.494455
O O12 0.244924 0.554660 0.657462
O O13 0.442510 0.616376 0.689283
O O14 0.488280 0.051286 0.701028
O O15 0.317764 0.559560 0.267259
O O16 0.077641 0.843644 0.808271
#
# Coordination Sequence:
#
# PCOD9021689 Si02
#       8
#     2   2   2   2   2   2   2   2
#     4   9  19  37  57  85 123 160 194 245 289 348
#     4  12  27  41  56  86 137 165 194 229 298 383
#     4   8  19  36  65  94 111 148 206 257 293 330
#     4  11  22  42  70  90 112 150 208 262 301 332
#     4  12  27  42  59  90 123 167 197 236 303 369
#     4   9  17  35  60  91 113 146 208 246 294 332
#     4  10  22  38  64  93 122 155 197 254 302 346
#     4  11  21  42  70  91 116 144 205 267 296 342
#
# _framework density 27.055337000000002
#
# number of rings (size 3 to 8) (size 9 to 14) (size 15 to 20)
#    0.750    1.000    1.250    3.000    1.750    3.500 
#    0.000    1.250    0.000    0.000    0.000    0.000 
#    0.000    0.000    0.000    0.000    0.000    0.000 
#
# Total GULP energy -89623.278017 kJ/mol
# GULP energy per Si atom -5601.454876 kJ/mol
# Density = 2.699376 g / cm^3
# Si number density = 27.055337 Si / 1000 Ang^3
#
#
#
# Elastic Constant Matrix: (Units=GPa)
#
#
# Indices 1 2 3 4 5 6 
#
# 1 154.8516 25.0620 23.6501 -5.7222 -12.9980 19.7525
# 2 25.0620 100.0356 20.2747 -11.7183 -2.5224 20.9671
# 3 23.6501 20.2747 69.6931 -2.9611 -3.6421 2.5050
# 4 -5.7222 -11.7183 -2.9611 33.8754 -3.6236 -8.0873
# 5 -12.9980 -2.5224 -3.6421 -3.6236 39.2669 1.3515
# 6 19.7525 20.9671 2.5050 -8.0873 1.3515 45.1522
#
#
#
# Elastic Compliance Matrix: (Units=1/GPa)
#
#
# Indices 1 2 3 4 5 6 
#
# 1 0.007467 -0.000757 -0.002072 0.000403 0.002364 -0.002799
# 2 -0.000757 0.012097 -0.002943 0.002761 0.000668 -0.004648
# 3 -0.002072 -0.002943 0.015905 0.000432 0.000590 0.001450
# 4 0.000403 0.002761 0.000432 0.031906 0.003153 0.004138
# 5 0.002364 0.000668 0.000590 0.003153 0.026694 -0.001612
# 6 -0.002799 -0.004648 0.001450 0.004138 -0.001612 0.026239
#
#
# Mechanical properties :
#
#
# Convention : Reuss Voigt Hill
#
# Bulk Modulus (GPa) = 41.79871 51.39488 46.59680
# Shear Modulus (GPa) = 35.75816 40.69844 38.22830
#
# Velocity S-wave (km/s) = 3.63942 3.88270 3.76302
# Velocity P-wave (km/s) = 5.75703 6.25603 6.01171
#
# Compressibility (1/GPa) = 0.02392418
#
# Stress axis : x y z
#
# Youngs Moduli (GPa) = 133.91877 82.66353 62.87306
#
# Poissons Ratio (x) = 0.06261 0.13030
# Poissons Ratio (y) = 0.10142 0.18503
# Poissons Ratio (z) = 0.27753 0.24327
#
# Static dielectric constant tensor:
#      x y z
#    x 2.162590 -0.108020 -0.000970 
#    y -0.108020 2.171900 0.054420 
#    z -0.000970 0.054420 2.076280 
# 
# From -- ./inp_files/80424.got.cif
#   From: 2010.05.17/outbox.cif.g08.bks.cpg/sg2_41_cif.got.tgz:80424.got - 2010.06.03 11:33:40.
