data_PCOD9021678
_publ_section_title
;
Structure prediction by ZEFSAII (Michael W. Deem and Ramdas Pophale) SiO2 
 PCOD9021678
Probable space group: P -1
;
_chemical_formula_sum "Si O2"
_cell_formula_units_Z 15
_cell_length_a 5.533495
_cell_length_b 7.172335
_cell_length_c 21.826852
_cell_angle_alpha 129.647224
_cell_angle_beta 85.955577
_cell_angle_gamma 74.597845
_cell_volume 608.524870
_symmetry_space_group_name_H-M "P -1"
_symmetry_group_IT_number 2
_symmetry_cell_setting 'triclinic'
loop_
_space_group_symop_operation_xyz
x,y,z
-x,-y,-z
loop_
_atom_site_type_symbol
_atom_site_label
_atom_site_fract_x
_atom_site_fract_y
_atom_site_fract_z
Si Si1 0.500000 0.000000 0.000000
Si Si2 0.392031 0.432149 0.590026
Si Si3 0.865976 0.887444 0.853705
Si Si4 0.606231 0.795030 0.724184
Si Si5 0.197043 0.697755 0.916226
Si Si6 0.957630 0.762162 0.148361
Si Si7 0.073155 0.008643 0.317095
Si Si8 0.845298 0.958130 0.435500
O O1 0.625326 0.951746 0.918541
O O2 0.467744 0.709249 0.934028
O O3 0.570619 0.535789 0.650340
O O4 0.164433 0.701267 0.626110
O O5 0.579121 0.231133 0.494118
O O6 0.257981 0.267953 0.595187
O O7 0.821419 0.762081 0.765510
O O8 0.132012 0.698497 0.845555
O O9 0.884080 0.161081 0.890656
O O10 0.670610 0.935480 0.693069
O O11 0.334502 0.003333 0.800360
O O12 0.086344 0.505505 0.910125
O O13 0.000000 0.000000 0.000000
O O14 0.057673 0.810909 0.223301
O O15 0.027714 0.914116 0.363879
O O16 0.000000 0.000000 0.500000
#
# Coordination Sequence:
#
# PCOD9021678 Si02
#       8
#     1   2   2   2   2   2   2   2
#     4  10  22  38  64  92 122 162 202 254 314 376
#     4  10  23  42  63  92 129 169 212 265 320 376
#     4  10  22  43  65  92 125 161 209 263 318 379
#     4  10  22  42  67  91 125 169 213 266 319 376
#     4  10  23  42  63  92 126 164 208 259 318 382
#     4  10  23  42  64  90 125 167 211 262 321 382
#     4  10  23  42  63  91 127 168 214 263 317 378
#     4  11  24  40  64  96 130 171 215 262 317 377
#
# _framework density 24.64977
#
# number of rings (size 3 to 8) (size 9 to 14) (size 15 to 20)
#    0.000    1.867    0.000    2.000    0.000   18.133 
#    0.000    8.667    0.000    0.000    0.000    0.000 
#    0.000    0.000    0.000    0.000    0.000    0.000 
#
# Total GULP energy -83635.280521 kJ/mol
# GULP energy per Si atom -5575.685368 kJ/mol
# Density = 2.459367 g / cm^3
# Si number density = 24.649770 Si / 1000 Ang^3
#
#
#
# Elastic Constant Matrix: (Units=GPa)
#
#
# Indices 1 2 3 4 5 6 
#
# 1 53.4210 37.8705 25.6882 -0.3168 14.8130 46.6831
# 2 37.8705 122.2166 40.8406 4.5322 -0.2215 64.4524
# 3 25.6882 40.8406 70.5563 0.4948 -6.6808 33.8713
# 4 -0.3168 4.5322 0.4948 56.1191 13.9363 -4.7421
# 5 14.8130 -0.2215 -6.6808 13.9363 49.3012 6.5337
# 6 46.6831 64.4524 33.8713 -4.7421 6.5337 60.9164
#
#
#
# Elastic Compliance Matrix: (Units=1/GPa)
#
#
# Indices 1 2 3 4 5 6 
#
# 1 0.074024 0.015102 -0.003321 -0.003605 -0.012352 -0.069816
# 2 0.015102 0.022986 -0.001528 -0.005147 0.001533 -0.035609
# 3 -0.003321 -0.001528 0.020682 -0.002118 0.005464 -0.008090
# 4 -0.003605 -0.005147 -0.002118 0.020885 -0.006685 0.011729
# 5 -0.012352 0.001533 0.005464 -0.006685 0.026440 0.001449
# 6 -0.069816 -0.035609 -0.008090 0.011729 0.001449 0.112851
#
#
# Mechanical properties :
#
#
# Convention : Reuss Voigt Hill
#
# Bulk Modulus (GPa) = 7.23592 50.55472 28.89532
# Shear Modulus (GPa) = 16.47848 42.72030 29.59939
#
# Velocity S-wave (km/s) = 2.58835 4.16756 3.46901
# Velocity P-wave (km/s) = 3.44595 6.61149 5.27192
#
# Compressibility (1/GPa) = 0.13819944
#
# Stress axis : x y z
#
# Youngs Moduli (GPa) = 13.50912 43.50567 48.35073
#
# Poissons Ratio (x) = -0.65702 0.16055
# Poissons Ratio (y) = -0.20401 0.07386
# Poissons Ratio (z) = 0.04486 0.06646
#
# Static dielectric constant tensor:
#      x y z
#    x 2.068660 -0.076660 -0.003000 
#    y -0.076660 1.947860 0.019110 
#    z -0.003000 0.019110 1.924660 
# 
# From -- ./inp_files/581246.got.cif
#   From: 2010.05.17/outbox.cif.g08.bks.cpg/sg2_291_cif.got.tgz:581246.got - 2010.06.03 11:33:40.
