data_PCOD9021757
_publ_section_title
;
Structure prediction by ZEFSAII (Michael W. Deem and Ramdas Pophale) SiO2 
 PCOD9021757
Probable space group: P -1
;
_chemical_formula_sum "Si O2"
_cell_formula_units_Z 16
_cell_length_a 12.079235
_cell_length_b 15.805024
_cell_length_c 18.413116
_cell_angle_alpha 27.169483
_cell_angle_beta 149.522365
_cell_angle_gamma 131.432490
_cell_volume 725.674468
_symmetry_space_group_name_H-M "P -1"
_symmetry_group_IT_number 2
_symmetry_cell_setting 'triclinic'
loop_
_space_group_symop_operation_xyz
x,y,z
-x,-y,-z
loop_
_atom_site_type_symbol
_atom_site_label
_atom_site_fract_x
_atom_site_fract_y
_atom_site_fract_z
Si Si1 0.741095 0.329737 0.732519
Si Si2 0.271407 0.971498 0.150626
Si Si3 0.873890 0.251205 0.226813
Si Si4 0.299431 0.564102 0.667497
Si Si5 0.571005 0.274154 0.247083
Si Si6 0.755162 0.845167 0.611271
Si Si7 0.128851 0.359573 0.013521
Si Si8 0.946828 0.412463 0.637270
O O1 0.500000 0.500000 0.500000
O O2 0.696819 0.142576 0.820199
O O3 0.830969 0.415620 0.647564
O O4 0.930623 0.284677 0.938345
O O5 0.518177 0.861480 0.420775
O O6 0.000000 0.000000 0.000000
O O7 0.207895 0.209722 0.930547
O O8 0.995582 0.270993 0.204664
O O9 0.576195 0.367168 0.974286
O O10 0.948044 0.393373 0.214390
O O11 0.000000 0.000000 0.500000
O O12 0.331078 0.725129 0.616789
O O13 0.230767 0.598331 0.517584
O O14 0.047019 0.575368 0.550228
O O15 0.319083 0.267223 0.126151
O O16 0.724153 0.076255 0.435783
O O17 0.500000 0.500000 0.000000
O O18 0.765387 0.733337 0.777896
#
# Coordination Sequence:
#
# PCOD9021757 Si02
#       8
#     2   2   2   2   2   2   2   2
#     4  11  24  39  65  93 135 170 210 271 333 380
#     4  10  22  38  65  90 133 174 211 257 332 388
#     4  11  24  42  68  93 131 170 218 269 347 386
#     4  10  23  40  67  92 124 176 215 273 313 403
#     4  11  22  39  66  94 132 166 223 264 330 378
#     4  12  24  40  68 100 132 167 225 278 321 392
#     4  11  25  40  64  98 130 169 222 272 320 393
#     4  10  22  42  63  90 132 168 224 254 328 394
#
# _framework density 22.048455000000001
#
# number of rings (size 3 to 8) (size 9 to 14) (size 15 to 20)
#    0.000    1.250    0.000    6.750   10.500    0.000 
#    0.000    0.000    0.000    3.750    0.000    0.000 
#    0.000    0.000    0.000    0.000    0.000    0.000 
#
# Total GULP energy -89145.318377 kJ/mol
# GULP energy per Si atom -5571.582399 kJ/mol
# Density = 2.199827 g / cm^3
# Si number density = 22.048455 Si / 1000 Ang^3
#
#
#
# Elastic Constant Matrix: (Units=GPa)
#
#
# Indices 1 2 3 4 5 6 
#
# 1 85.6760 19.1230 23.5087 -2.6175 23.8151 -5.1735
# 2 19.1230 99.6535 38.0155 16.6926 3.9401 -22.1914
# 3 23.5087 38.0155 76.0343 11.1489 7.9433 -13.7204
# 4 -2.6175 16.6926 11.1489 42.2405 -6.7049 5.2633
# 5 23.8151 3.9401 7.9433 -6.7049 37.3139 -8.5782
# 6 -5.1735 -22.1914 -13.7204 5.2633 -8.5782 34.8871
#
#
#
# Elastic Compliance Matrix: (Units=1/GPa)
#
#
# Indices 1 2 3 4 5 6 
#
# 1 0.015613 -0.002242 -0.003523 0.001675 -0.009379 -0.003056
# 2 -0.002242 0.015045 -0.004613 -0.005666 0.001812 0.008724
# 3 -0.003523 -0.004613 0.017895 -0.003743 -0.000841 0.003939
# 4 0.001675 -0.005666 -0.003743 0.028601 0.003565 -0.008266
# 5 -0.009379 0.001812 -0.000841 0.003565 0.035146 0.007535
# 6 -0.003056 0.008724 0.003939 -0.008266 0.007535 0.038409
#
#
# Mechanical properties :
#
#
# Convention : Reuss Voigt Hill
#
# Bulk Modulus (GPa) = 35.97703 46.96199 41.46951
# Shear Modulus (GPa) = 27.66531 34.93606 31.30069
#
# Velocity S-wave (km/s) = 3.54609 3.98491 3.77189
# Velocity P-wave (km/s) = 5.75491 6.52061 6.14969
#
# Compressibility (1/GPa) = 0.02779552
#
# Stress axis : x y z
#
# Youngs Moduli (GPa) = 64.04935 66.46743 55.88078
#
# Poissons Ratio (x) = 0.14903 0.19689
# Poissons Ratio (y) = 0.14361 0.25779
# Poissons Ratio (z) = 0.22568 0.30663
#
# Static dielectric constant tensor:
#      x y z
#    x 1.837340 0.055620 -0.076910 
#    y 0.055620 1.870220 -0.062970 
#    z -0.076910 -0.062970 1.892050 
# 
# From -- ./inp_files/569948.got.cif
#   From: 2010.05.17/outbox.cif.g08.bks.cpg/sg2_285_cif.got.tgz:569948.got - 2010.06.03 11:33:40.
