data_PCOD9021201
_publ_section_title
;
Structure prediction by ZEFSAII (Michael W. Deem and Ramdas Pophale) SiO2 
 PCOD9021201
Probable space group: P -1
;
_chemical_formula_sum "Si O2"
_cell_formula_units_Z 16
_cell_length_a 13.609045
_cell_length_b 18.790378
_cell_length_c 21.506676
_cell_angle_alpha 160.322049
_cell_angle_beta 140.164322
_cell_angle_gamma 28.368398
_cell_volume 814.271174
_symmetry_space_group_name_H-M "P -1"
_symmetry_group_IT_number 2
_symmetry_cell_setting 'triclinic'
loop_
_space_group_symop_operation_xyz
x,y,z
-x,-y,-z
loop_
_atom_site_type_symbol
_atom_site_label
_atom_site_fract_x
_atom_site_fract_y
_atom_site_fract_z
Si Si1 0.209573 0.288449 0.774288
Si Si2 0.452287 0.909793 0.706853
Si Si3 0.322938 0.655945 0.096676
Si Si4 0.336605 0.750984 0.318805
Si Si5 0.825251 0.190513 0.282027
Si Si6 0.553094 0.228064 0.087626
Si Si7 0.830587 0.118093 0.369050
Si Si8 0.708450 0.638366 0.816208
O O1 0.943009 0.522327 0.840500
O O2 0.316459 0.132159 0.764768
O O3 0.299470 0.020674 0.550114
O O4 0.272636 0.459651 0.924671
O O5 0.646552 0.556713 0.488665
O O6 0.285365 0.950088 0.704476
O O7 0.560186 0.995073 0.866859
O O8 0.399831 0.681217 0.219893
O O9 0.500000 0.500000 0.000000
O O10 0.082851 0.996450 0.242680
O O11 0.506751 0.451348 0.197567
O O12 0.096602 0.870171 0.304850
O O13 0.764150 0.076477 0.107585
O O14 0.791251 0.144098 0.297886
O O15 0.347971 0.426181 0.200156
O O16 0.732336 0.438378 0.609908
O O17 0.500000 0.000000 0.000000
#
# Coordination Sequence:
#
# PCOD9021201 Si02
#       8
#     2   2   2   2   2   2   2   2
#     4  11  23  41  67  93 128 169 211 259 314 376
#     4  12  23  37  64  96 136 172 207 246 310 376
#     4  11  26  48  70  91 116 161 218 273 327 372
#     4  10  22  43  64  92 129 164 211 255 312 378
#     4  11  24  42  62  94 135 164 209 265 304 371
#     4  12  23  35  63  95 135 171 204 246 310 375
#     4  10  22  38  57  94 139 176 203 245 299 377
#     4  11  22  35  59  96 135 177 209 240 305 378
#
# _framework density 19.649474000000001
#
# number of rings (size 3 to 8) (size 9 to 14) (size 15 to 20)
#    0.000    1.000    3.750    2.625    5.250    5.500 
#    0.000    1.250    0.000    0.000    0.000    0.000 
#    0.000    0.000    0.000    0.000    0.000    0.000 
#
# Total GULP energy -89549.396975 kJ/mol
# GULP energy per Si atom -5596.837311 kJ/mol
# Density = 1.960475 g / cm^3
# Si number density = 19.649474 Si / 1000 Ang^3
#
#
#
# Elastic Constant Matrix: (Units=GPa)
#
#
# Indices 1 2 3 4 5 6 
#
# 1 84.0598 44.3805 26.9172 7.0641 -24.4980 4.0311
# 2 44.3805 98.5840 31.3900 -11.5113 -10.0315 24.5871
# 3 26.9172 31.3900 89.9440 -15.9492 -9.3243 10.7610
# 4 7.0641 -11.5113 -15.9492 34.3086 5.6484 -7.9578
# 5 -24.4980 -10.0315 -9.3243 5.6484 29.0993 -0.6576
# 6 4.0311 24.5871 10.7610 -7.9578 -0.6576 23.3535
#
#
#
# Elastic Compliance Matrix: (Units=1/GPa)
#
#
# Indices 1 2 3 4 5 6 
#
# 1 0.025517 -0.010896 -0.004834 -0.013005 0.018823 0.005393
# 2 -0.010896 0.019784 -0.001151 0.005128 -0.004097 -0.016786
# 3 -0.004834 -0.001151 0.014335 0.006968 -0.001275 -0.002221
# 4 -0.013005 0.005128 0.006968 0.040865 -0.014719 0.007146
# 5 0.018823 -0.004097 -0.001275 -0.014719 0.051205 -0.001922
# 6 0.005393 -0.016786 -0.002221 0.007146 -0.001922 0.062966
#
#
# Mechanical properties :
#
#
# Convention : Reuss Voigt Hill
#
# Bulk Modulus (GPa) = 38.64798 53.10702 45.87750
# Shear Modulus (GPa) = 19.45088 28.67897 24.06492
#
# Velocity S-wave (km/s) = 3.14967 3.82452 3.50338
# Velocity P-wave (km/s) = 5.73922 6.82558 6.30584
#
# Compressibility (1/GPa) = 0.02587457
#
# Stress axis : x y z
#
# Youngs Moduli (GPa) = 39.18963 50.54689 69.75807
#
# Poissons Ratio (x) = 0.55078 0.33718
# Poissons Ratio (y) = 0.42703 0.08027
# Poissons Ratio (z) = 0.18943 0.05816
#
# Static dielectric constant tensor:
#      x y z
#    x 1.659290 0.014040 0.000360 
#    y 0.014040 1.703470 -0.011640 
#    z 0.000360 -0.011640 1.721070 
# 
# From -- ./inp_files/222534.got.cif
#   From: 2010.05.17/outbox.cif.g08.bks.cpg/sg2_112_cif.got.tgz:222534.got - 2010.06.03 11:33:40.
