data_PCOD9021665
_publ_section_title
;
Structure prediction by ZEFSAII (Michael W. Deem and Ramdas Pophale) SiO2 
 PCOD9021665
Probable space group: P -1
;
_chemical_formula_sum "Si O2"
_cell_formula_units_Z 16
_cell_length_a 7.862010
_cell_length_b 11.814482
_cell_length_c 18.262102
_cell_angle_alpha 152.965833
_cell_angle_beta 75.407535
_cell_angle_gamma 98.163829
_cell_volume 732.916009
_symmetry_space_group_name_H-M "P -1"
_symmetry_group_IT_number 2
_symmetry_cell_setting 'triclinic'
loop_
_space_group_symop_operation_xyz
x,y,z
-x,-y,-z
loop_
_atom_site_type_symbol
_atom_site_label
_atom_site_fract_x
_atom_site_fract_y
_atom_site_fract_z
Si Si1 0.899585 0.027159 0.950198
Si Si2 0.940161 0.761712 0.408669
Si Si3 0.750310 0.658295 0.648917
Si Si4 0.028497 0.400993 0.061198
Si Si5 0.997010 0.816506 0.601869
Si Si6 0.209834 0.248663 0.819093
Si Si7 0.470632 0.715680 0.816328
Si Si8 0.484794 0.152840 0.514263
O O1 0.010791 0.122463 0.928202
O O2 0.732537 0.247490 0.114612
O O3 0.830832 0.788325 0.785285
O O4 0.000000 0.000000 0.000000
O O5 0.034577 0.538274 0.216847
O O6 0.724493 0.799814 0.455804
O O7 0.999246 0.730823 0.468172
O O8 0.000000 0.000000 0.500000
O O9 0.851922 0.369584 0.475184
O O10 0.541434 0.692498 0.711354
O O11 0.811815 0.790852 0.646997
O O12 0.852105 0.552230 0.124905
O O13 0.192407 0.387739 0.979504
O O14 0.047905 0.091021 0.749809
O O15 0.386133 0.041998 0.665261
O O16 0.546954 0.427699 0.671006
O O17 0.500000 0.000000 0.000000
O O18 0.500000 0.000000 0.500000
#
# Coordination Sequence:
#
# PCOD9021665 Si02
#       8
#     2   2   2   2   2   2   2   2
#     4  11  21  39  63  96 132 170 217 273 332 396
#     4  12  24  41  67  98 134 169 224 282 334 397
#     4  10  22  38  64  89 131 174 219 263 331 399
#     4  11  22  41  67  96 128 171 223 268 336 395
#     4  11  21  41  63  94 126 175 216 270 327 396
#     4  11  22  41  71  93 129 177 222 272 332 403
#     4  10  22  40  64 100 133 177 223 273 333 399
#     4  12  22  43  69 101 134 178 226 278 338 401
#
# _framework density 21.830604999999998
#
# number of rings (size 3 to 8) (size 9 to 14) (size 15 to 20)
#    0.000    1.000    6.250    0.750    0.000    0.000 
#    2.250    1.250    0.000    0.000    0.000    0.000 
#    0.000    0.000    0.000    0.000    0.000    0.000 
#
# Total GULP energy -89103.933413 kJ/mol
# GULP energy per Si atom -5568.995838 kJ/mol
# Density = 2.178092 g / cm^3
# Si number density = 21.830605 Si / 1000 Ang^3
#
#
#
# Elastic Constant Matrix: (Units=GPa)
#
#
# Indices 1 2 3 4 5 6 
#
# 1 16.9682 19.1924 19.0520 -3.3362 -2.3263 5.0780
# 2 19.1924 124.6599 31.7772 -12.2868 1.3091 12.2275
# 3 19.0520 31.7772 119.2163 -9.0516 -17.6289 4.7581
# 4 -3.3362 -12.2868 -9.0516 54.5199 6.9203 -0.3772
# 5 -2.3263 1.3091 -17.6289 6.9203 26.7472 -5.6645
# 6 5.0780 12.2275 4.7581 -0.3772 -5.6645 27.3136
#
#
#
# Elastic Compliance Matrix: (Units=1/GPa)
#
#
# Indices 1 2 3 4 5 6 
#
# 1 0.084428 -0.009078 -0.010834 0.001491 -0.001881 -0.010115
# 2 -0.009078 0.010379 -0.001557 0.001952 -0.003548 -0.003396
# 3 -0.010834 -0.001557 0.011509 0.000000 0.007185 0.002196
# 4 0.001491 0.001952 0.000000 0.019551 -0.005450 -0.002011
# 5 -0.001881 -0.003548 0.007185 -0.005450 0.045678 0.010084
# 6 -0.010115 -0.003396 0.002196 -0.002011 0.010084 0.041694
#
#
# Mechanical properties :
#
#
# Convention : Reuss Voigt Hill
#
# Bulk Modulus (GPa) = 15.77803 44.54309 30.16056
# Shear Modulus (GPa) = 18.03080 34.43766 26.23423
#
# Velocity S-wave (km/s) = 2.87704 3.97608 3.47034
# Velocity P-wave (km/s) = 4.27547 6.44416 5.46840
#
# Compressibility (1/GPa) = 0.06337927
#
# Stress axis : x y z
#
# Youngs Moduli (GPa) = 11.84436 96.34815 86.88675
#
# Poissons Ratio (x) = 0.87463 0.94134
# Poissons Ratio (y) = 0.10752 0.13525
# Poissons Ratio (z) = 0.12832 0.14998
#
# Static dielectric constant tensor:
#      x y z
#    x 1.864730 0.033110 0.044640 
#    y 0.033110 1.898010 0.078000 
#    z 0.044640 0.078000 1.989760 
# 
# From -- ./inp_files/560155.got.cif
#   From: 2010.05.17/outbox.cif.g08.bks.cpg/sg2_281_cif.got.tgz:560155.got - 2010.06.03 11:33:40.
