data_PCOD9021193
_publ_section_title
;
Structure prediction by ZEFSAII (Michael W. Deem and Ramdas Pophale) SiO2 
 PCOD9021193
Probable space group: P -1
;
_chemical_formula_sum "Si O2"
_cell_formula_units_Z 16
_cell_length_a 11.805223
_cell_length_b 9.447724
_cell_length_c 11.947899
_cell_angle_alpha 83.812904
_cell_angle_beta 91.541006
_cell_angle_gamma 141.685672
_cell_volume 817.750568
_symmetry_space_group_name_H-M "P -1"
_symmetry_group_IT_number 2
_symmetry_cell_setting 'triclinic'
loop_
_space_group_symop_operation_xyz
x,y,z
-x,-y,-z
loop_
_atom_site_type_symbol
_atom_site_label
_atom_site_fract_x
_atom_site_fract_y
_atom_site_fract_z
Si Si1 0.017664 0.150340 0.350730
Si Si2 0.418044 0.859558 0.850016
Si Si3 0.615415 0.455598 0.255191
Si Si4 0.800512 0.852695 0.048065
Si Si5 0.093820 0.762219 0.848183
Si Si6 0.288807 0.299326 0.185055
Si Si7 0.327183 0.663147 0.101128
Si Si8 0.292850 0.351603 0.523809
O O1 0.090505 0.119821 0.253891
O O2 0.194964 0.337287 0.419956
O O3 0.948307 0.220863 0.278822
O O4 0.847686 0.916628 0.432415
O O5 0.408589 0.728879 0.768885
O O6 0.234199 0.772233 0.851124
O O7 0.586564 0.136914 0.829269
O O8 0.426180 0.786665 0.975498
O O9 0.718499 0.653420 0.146771
O O10 0.417628 0.336039 0.264886
O O11 0.706956 0.558542 0.369413
O O12 0.818774 0.021591 0.096259
O O13 0.700266 0.757689 0.933253
O O14 0.000000 0.000000 0.000000
O O15 0.889814 0.528359 0.907453
O O16 0.352451 0.526184 0.153391
O O17 0.500000 0.500000 0.500000
#
# Coordination Sequence:
#
# PCOD9021193 Si02
#       8
#     2   2   2   2   2   2   2   2
#     4  10  22  40  65  95 117 156 208 256 313 358
#     4  11  24  38  54  88 134 168 201 237 305 377
#     4  12  23  39  61  93 123 164 202 261 308 360
#     4  12  20  35  61  96 122 156 208 254 306 365
#     4  11  22  40  61  87 128 169 197 249 308 369
#     4  11  21  38  62  94 124 157 208 255 302 367
#     4  10  22  38  57  87 127 172 202 237 299 376
#     4  11  22  41  66  95 118 151 208 270 312 348
#
# _framework density 19.565867999999998
#
# number of rings (size 3 to 8) (size 9 to 14) (size 15 to 20)
#    0.000    1.000    6.250    1.500    3.500    0.000 
#    2.250    0.625    0.000    5.250    0.000    0.000 
#    0.000    0.000    0.000    0.000    0.000    0.000 
#
# Total GULP energy -89327.709303 kJ/mol
# GULP energy per Si atom -5582.981831 kJ/mol
# Density = 1.952133 g / cm^3
# Si number density = 19.565868 Si / 1000 Ang^3
#
#
#
# Elastic Constant Matrix: (Units=GPa)
#
#
# Indices 1 2 3 4 5 6 
#
# 1 106.7154 41.1817 18.9895 10.6345 2.9148 -11.3137
# 2 41.1817 102.9603 24.1906 17.0763 -3.7379 -0.4653
# 3 18.9895 24.1906 98.2507 22.3683 13.5003 -3.0104
# 4 10.6345 17.0763 22.3683 37.2114 4.8760 -5.1611
# 5 2.9148 -3.7379 13.5003 4.8760 23.8781 0.7241
# 6 -11.3137 -0.4653 -3.0104 -5.1611 0.7241 24.1714
#
#
#
# Elastic Compliance Matrix: (Units=1/GPa)
#
#
# Indices 1 2 3 4 5 6 
#
# 1 0.011925 -0.004673 -0.000765 0.000217 -0.001966 0.005502
# 2 -0.004673 0.012956 -0.002023 -0.004474 0.004755 -0.003287
# 3 -0.000765 -0.002023 0.013036 -0.005825 -0.006409 0.000175
# 4 0.000217 -0.004474 -0.005825 0.033887 -0.004555 0.006662
# 5 -0.001966 0.004755 -0.006409 -0.004555 0.047540 -0.004023
# 6 0.005502 -0.003287 0.000175 0.006662 -0.004023 0.045448
#
#
# Mechanical properties :
#
#
# Convention : Reuss Voigt Hill
#
# Bulk Modulus (GPa) = 43.48317 52.96113 48.22215
# Shear Modulus (GPa) = 26.68396 31.95650 29.32023
#
# Velocity S-wave (km/s) = 3.69697 4.04577 3.87530
# Velocity P-wave (km/s) = 6.36363 6.99651 6.68756
#
# Compressibility (1/GPa) = 0.02299740
#
# Stress axis : x y z
#
# Youngs Moduli (GPa) = 83.85479 77.18238 76.70955
#
# Poissons Ratio (x) = 0.36064 0.05869
# Poissons Ratio (y) = 0.39181 0.15515
# Poissons Ratio (z) = 0.06416 0.15611
#
# Static dielectric constant tensor:
#      x y z
#    x 1.680050 0.047680 0.016220 
#    y 0.047680 1.735360 0.022450 
#    z 0.016220 0.022450 1.745670 
# 
# From -- ./inp_files/261046.got.cif
#   From: 2010.05.17/outbox.cif.g08.bks.cpg/sg2_131_cif.got.tgz:261046.got - 2010.06.03 11:33:40.
