data_PCOD9021197
_publ_section_title
;
Structure prediction by ZEFSAII (Michael W. Deem and Ramdas Pophale) SiO2 
 PCOD9021197
Probable space group: P -1
;
_chemical_formula_sum "Si O2"
_cell_formula_units_Z 16
_cell_length_a 7.249137
_cell_length_b 20.521500
_cell_length_c 7.746632
_cell_angle_alpha 131.899865
_cell_angle_beta 52.417900
_cell_angle_gamma 115.933661
_cell_volume 678.874022
_symmetry_space_group_name_H-M "P -1"
_symmetry_group_IT_number 2
_symmetry_cell_setting 'triclinic'
loop_
_space_group_symop_operation_xyz
x,y,z
-x,-y,-z
loop_
_atom_site_type_symbol
_atom_site_label
_atom_site_fract_x
_atom_site_fract_y
_atom_site_fract_z
Si Si1 0.373830 0.175860 0.806737
Si Si2 0.882534 0.156899 0.530967
Si Si3 0.699475 0.528052 0.698116
Si Si4 0.801512 0.703106 0.581081
Si Si5 0.876435 0.185899 0.977072
Si Si6 0.973084 0.975009 0.266139
Si Si7 0.749774 0.509827 0.235009
Si Si8 0.871834 0.362063 0.431984
O O1 0.642273 0.172679 0.595266
O O2 0.274047 0.076256 0.725049
O O3 0.162124 0.201771 0.845752
O O4 0.342677 0.241395 0.102034
O O5 0.805102 0.162015 0.783719
O O6 0.081058 0.230629 0.505236
O O7 0.989619 0.061166 0.292730
O O8 0.749490 0.494821 0.413891
O O9 0.438350 0.554300 0.866131
O O10 0.724278 0.447382 0.668524
O O11 0.898724 0.602417 0.746128
O O12 0.683144 0.611182 0.423749
O O13 0.018120 0.667921 0.506067
O O14 0.849177 0.104481 0.982813
O O15 0.762848 0.274077 0.255347
O O16 0.000000 0.000000 0.500000
O O17 0.000000 0.500000 0.000000
#
# Coordination Sequence:
#
# PCOD9021197 Si02
#       8
#     2   2   2   2   2   2   2   2
#     4   9  20  39  58  83 119 157 190 241 285 351
#     4  11  20  36  64  83 118 161 189 241 299 331
#     4   9  20  38  64  75 117 161 185 238 306 342
#     4  10  23  37  55  95 116 143 203 242 280 353
#     4   8  19  34  59  84 117 150 197 237 279 353
#     4   8  17  37  60  85 115 155 197 235 286 353
#     4  10  22  38  57  90 116 146 202 241 284 357
#     4   9  18  40  56  86 115 154 196 237 295 351
#
# _framework density 23.568439000000001
#
# number of rings (size 3 to 8) (size 9 to 14) (size 15 to 20)
#    0.750    2.000    0.000    0.375    3.500    3.500 
#    2.250    5.625    0.000    3.000    0.000    0.000 
#    0.000    0.000    0.000    0.000    0.000    0.000 
#
# Total GULP energy -89085.045595 kJ/mol
# GULP energy per Si atom -5567.815350 kJ/mol
# Density = 2.351480 g / cm^3
# Si number density = 23.568439 Si / 1000 Ang^3
#
#
#
# Elastic Constant Matrix: (Units=GPa)
#
#
# Indices 1 2 3 4 5 6 
#
# 1 48.1148 -0.1295 9.9668 -0.8781 -14.9052 -4.1472
# 2 -0.1295 99.7194 14.1483 18.8930 -3.1254 -14.5109
# 3 9.9668 14.1483 57.6479 2.5684 -2.9487 -6.5982
# 4 -0.8781 18.8930 2.5684 32.4870 3.2734 -1.8667
# 5 -14.9052 -3.1254 -2.9487 3.2734 18.4522 7.9636
# 6 -4.1472 -14.5109 -6.5982 -1.8667 7.9636 32.4689
#
#
#
# Elastic Compliance Matrix: (Units=1/GPa)
#
#
# Indices 1 2 3 4 5 6 
#
# 1 0.029024 0.001481 -0.004325 -0.002365 0.024578 -0.002674
# 2 0.001481 0.012380 -0.002377 -0.006958 0.002303 0.004274
# 3 -0.004325 -0.002377 0.018879 0.000141 -0.002088 0.002742
# 4 -0.002365 -0.006958 0.000141 0.035813 -0.009895 0.001103
# 5 0.024578 0.002303 -0.002088 -0.009895 0.083307 -0.017257
# 6 -0.002674 0.004274 0.002742 0.001103 -0.017257 0.037220
#
#
# Mechanical properties :
#
#
# Convention : Reuss Voigt Hill
#
# Bulk Modulus (GPa) = 20.06472 28.16148 24.11310
# Shear Modulus (GPa) = 20.51875 28.78139 24.65007
#
# Velocity S-wave (km/s) = 2.95380 3.49833 3.23754
# Velocity P-wave (km/s) = 4.49056 5.31907 4.92228
#
# Compressibility (1/GPa) = 0.04983873
#
# Stress axis : x y z
#
# Youngs Moduli (GPa) = 34.45457 80.77716 52.97002
#
# Poissons Ratio (x) = -0.11959 0.22909
# Poissons Ratio (y) = -0.05101 0.12593
# Poissons Ratio (z) = 0.14901 0.19203
#
# Static dielectric constant tensor:
#      x y z
#    x 1.931370 0.025780 0.012810 
#    y 0.025780 1.921100 0.058480 
#    z 0.012810 0.058480 1.933000 
# 
# From -- ./inp_files/223995.got.cif
#   From: 2010.05.17/outbox.cif.g08.bks.cpg/sg2_112_cif.got.tgz:223995.got - 2010.06.03 11:33:40.
