data_PCOD9021071
_publ_section_title
;
Structure prediction by ZEFSAII (Michael W. Deem and Ramdas Pophale) SiO2 
 PCOD9021071
Probable space group: P -1
;
_chemical_formula_sum "Si O2"
_cell_formula_units_Z 14
_cell_length_a 8.869049
_cell_length_b 16.260851
_cell_length_c 9.975626
_cell_angle_alpha 33.417515
_cell_angle_beta 44.319615
_cell_angle_gamma 45.069871
_cell_volume 530.861394
_symmetry_space_group_name_H-M "P -1"
_symmetry_group_IT_number 2
_symmetry_cell_setting 'triclinic'
loop_
_space_group_symop_operation_xyz
x,y,z
-x,-y,-z
loop_
_atom_site_type_symbol
_atom_site_label
_atom_site_fract_x
_atom_site_fract_y
_atom_site_fract_z
Si Si1 0.505677 0.965229 0.274717
Si Si2 0.304935 0.788055 0.851073
Si Si3 0.794848 0.344574 0.437534
Si Si4 0.735714 0.645235 0.932228
Si Si5 0.874992 0.471285 0.801892
Si Si6 0.958325 0.791202 0.272205
Si Si7 0.629953 0.765192 0.198324
O O1 0.341576 0.891073 0.563867
O O2 0.597753 0.873894 0.202342
O O3 0.735620 0.925911 0.268311
O O4 0.391708 0.136432 0.060004
O O5 0.511964 0.762484 0.857479
O O6 0.075524 0.848401 0.996099
O O7 0.285237 0.620920 0.036985
O O8 0.856581 0.271661 0.644573
O O9 0.591272 0.293714 0.575191
O O10 0.043862 0.294345 0.280227
O O11 0.713902 0.532702 0.220041
O O12 0.802503 0.523175 0.928961
O O13 0.876800 0.635557 0.511357
O O14 0.127733 0.359172 0.785875
#
# Coordination Sequence:
#
# PCOD9021071 Si02
#       7
#     2   2   2   2   2   2   2
#     4  11  25  47  63  97 129 175 218 263 318 385
#     4  12  22  40  69  95 135 167 215 272 312 385
#     4  10  22  42  64  96 137 167 207 273 324 379
#     4  10  22  37  66 104 128 165 215 269 325 378
#     4  11  22  39  69 101 124 169 220 267 325 374
#     4  11  24  42  68  99 130 168 217 264 327 382
#     4  11  25  44  67  92 135 171 215 267 323 380
#
# _framework density 26.372233999999999
#
# number of rings (size 3 to 8) (size 9 to 14) (size 15 to 20)
#    0.000    1.143    4.286    2.571    2.000    7.429 
#    2.571    0.714    0.000    0.000    0.000    0.000 
#    0.000    0.000    0.000    0.000    0.000    0.000 
#
# Total GULP energy -78410.769743 kJ/mol
# GULP energy per Si atom -5600.769267 kJ/mol
# Density = 2.631221 g / cm^3
# Si number density = 26.372234 Si / 1000 Ang^3
#
#
#
# Elastic Constant Matrix: (Units=GPa)
#
#
# Indices 1 2 3 4 5 6 
#
# 1 74.9280 24.1730 33.3545 -2.4134 1.5743 -23.8344
# 2 24.1730 105.2834 53.0363 -10.5553 -4.5482 -22.8316
# 3 33.3545 53.0363 155.8534 6.0609 12.1059 -23.4354
# 4 -2.4134 -10.5553 6.0609 44.3351 -6.9450 5.5889
# 5 1.5743 -4.5482 12.1059 -6.9450 46.8185 2.0667
# 6 -23.8344 -22.8316 -23.4354 5.5889 2.0667 40.2303
#
#
#
# Elastic Compliance Matrix: (Units=1/GPa)
#
#
# Indices 1 2 3 4 5 6 
#
# 1 0.017315 -0.001191 -0.001966 -0.000238 -0.000600 0.008501
# 2 -0.001191 0.013058 -0.003969 0.003534 0.002693 0.003763
# 3 -0.001966 -0.003969 0.008909 -0.003066 -0.003182 0.002362
# 4 -0.000238 0.003534 -0.003066 0.025051 0.005022 -0.003660
# 5 -0.000600 0.002693 -0.003182 0.005022 0.023322 -0.002577
# 6 0.008501 0.003763 0.002362 -0.003660 -0.002577 0.034046
#
#
# Mechanical properties :
#
#
# Convention : Reuss Voigt Hill
#
# Bulk Modulus (GPa) = 39.95451 61.91029 50.93240
# Shear Modulus (GPa) = 34.65061 41.31016 37.98038
#
# Velocity S-wave (km/s) = 3.62872 3.96210 3.79907
# Velocity P-wave (km/s) = 5.72188 6.66765 6.21279
#
# Compressibility (1/GPa) = 0.02502846
#
# Stress axis : x y z
#
# Youngs Moduli (GPa) = 57.75455 76.58117 112.24101
#
# Poissons Ratio (x) = 0.09124 0.22067
# Poissons Ratio (y) = 0.06881 0.44553
# Poissons Ratio (z) = 0.11355 0.30398
#
# Static dielectric constant tensor:
#      x y z
#    x 2.150530 0.085380 0.027900 
#    y 0.085380 2.070450 -0.015140 
#    z 0.027900 -0.015140 2.025150 
# 
# From -- ./inp_files/404429.got.cif
#   From: 2010.05.17/outbox.cif.g08.bks.cpg/sg2_203_cif.got.tgz:404429.got - 2010.06.03 11:33:40.
