data_PCOD9021587
_publ_section_title
;
Structure prediction by ZEFSAII (Michael W. Deem and Ramdas Pophale) SiO2 
 PCOD9021587
Probable space group: P -1
;
_chemical_formula_sum "Si O2"
_cell_formula_units_Z 16
_cell_length_a 11.889547
_cell_length_b 12.643497
_cell_length_c 12.166999
_cell_angle_alpha 111.732049
_cell_angle_beta 42.299671
_cell_angle_gamma 79.732223
_cell_volume 789.740604
_symmetry_space_group_name_H-M "P -1"
_symmetry_group_IT_number 2
_symmetry_cell_setting 'triclinic'
loop_
_space_group_symop_operation_xyz
x,y,z
-x,-y,-z
loop_
_atom_site_type_symbol
_atom_site_label
_atom_site_fract_x
_atom_site_fract_y
_atom_site_fract_z
Si Si1 0.184053 0.342862 0.112256
Si Si2 0.740220 0.429926 0.506972
Si Si3 0.753451 0.433948 0.763131
Si Si4 0.900813 0.875475 0.449830
Si Si5 0.072102 0.057915 0.059282
Si Si6 0.514698 0.871216 0.997497
Si Si7 0.478223 0.025824 0.655613
Si Si8 0.692878 0.212323 0.027187
O O1 0.234697 0.446135 0.148388
O O2 0.910045 0.440506 0.329078
O O3 0.256782 0.239794 0.131400
O O4 0.356806 0.208136 0.841377
O O5 0.765538 0.425164 0.619268
O O6 0.463720 0.602429 0.746541
O O7 0.851552 0.252930 0.322775
O O8 0.967341 0.264662 0.607329
O O9 0.500000 0.500000 0.000000
O O10 0.708256 0.040768 0.724217
O O11 0.731015 0.896270 0.490090
O O12 0.106315 0.841687 0.223446
O O13 0.290478 0.027657 0.842753
O O14 0.170071 0.936270 0.043733
O O15 0.000000 0.000000 0.000000
O O16 0.502273 0.774631 0.884789
O O17 0.500000 0.000000 0.000000
O O18 0.500000 0.000000 0.500000
#
# Coordination Sequence:
#
# PCOD9021587 Si02
#       8
#     2   2   2   2   2   2   2   2
#     4  10  22  38  63  92 129 169 204 272 326 386
#     4  11  24  41  66  97 132 172 218 264 330 403
#     4  12  22  38  59  99 136 165 209 266 327 383
#     4  11  23  38  63  94 133 168 220 264 327 394
#     4  11  26  46  70  94 127 173 222 279 329 389
#     4  11  21  37  62  95 128 172 217 264 331 392
#     4  10  23  46  68  92 122 170 224 269 330 390
#     4  12  23  41  65  93 133 174 215 271 330 388
#
# _framework density 20.259817999999999
#
# number of rings (size 3 to 8) (size 9 to 14) (size 15 to 20)
#    0.000    1.000    2.500    5.250    3.500    4.500 
#    0.000    0.625    0.000    0.000    0.000    0.000 
#    0.000    0.000    0.000    0.000    0.000    0.000 
#
# Total GULP energy -89331.813729 kJ/mol
# GULP energy per Si atom -5583.238358 kJ/mol
# Density = 2.021371 g / cm^3
# Si number density = 20.259818 Si / 1000 Ang^3
#
#
#
# Elastic Constant Matrix: (Units=GPa)
#
#
# Indices 1 2 3 4 5 6 
#
# 1 67.6992 8.5535 7.3441 11.3013 14.0974 23.4812
# 2 8.5535 84.3010 32.2703 7.5240 10.1677 10.6869
# 3 7.3441 32.2703 97.0466 8.3941 -0.8384 19.8003
# 4 11.3013 7.5240 8.3941 25.3645 1.8564 -0.5591
# 5 14.0974 10.1677 -0.8384 1.8564 32.7905 4.3474
# 6 23.4812 10.6869 19.8003 -0.5591 4.3474 29.3034
#
#
#
# Elastic Compliance Matrix: (Units=1/GPa)
#
#
# Indices 1 2 3 4 5 6 
#
# 1 0.025771 0.001013 0.003322 -0.012818 -0.007616 -0.022379
# 2 0.001013 0.014499 -0.004114 -0.003122 -0.004500 -0.002712
# 3 0.003322 -0.004114 0.014172 -0.005341 0.001988 -0.011134
# 4 -0.012818 -0.003122 -0.005341 0.048063 0.001539 0.015707
# 5 -0.007616 -0.004500 0.001988 0.001539 0.034965 0.001243
# 6 -0.022379 -0.002712 -0.011134 0.015707 0.001243 0.060686
#
#
# Mechanical properties :
#
#
# Convention : Reuss Voigt Hill
#
# Bulk Modulus (GPa) = 18.22010 38.37583 28.29797
# Shear Modulus (GPa) = 23.14723 30.88360 27.01541
#
# Velocity S-wave (km/s) = 3.38378 3.90856 3.65560
# Velocity P-wave (km/s) = 4.92741 6.27313 5.64055
#
# Compressibility (1/GPa) = 0.05488443
#
# Stress axis : x y z
#
# Youngs Moduli (GPa) = 38.80391 68.96858 70.56345
#
# Poissons Ratio (x) = -0.06988 -0.23439
# Poissons Ratio (y) = -0.03932 0.29027
# Poissons Ratio (z) = -0.12890 0.28371
#
# Static dielectric constant tensor:
#      x y z
#    x 1.741680 0.013530 0.007780 
#    y 0.013530 1.757460 0.050220 
#    z 0.007780 0.050220 1.826440 
# 
# From -- ./inp_files/170675.got.cif
#   From: 2010.05.17/outbox.cif.g08.bks.cpg/sg2_86_cif.got.tgz:170675.got - 2010.06.03 11:33:40.
