data_PCOD9021361
_publ_section_title
;
Structure prediction by ZEFSAII (Michael W. Deem and Ramdas Pophale) SiO2 
 PCOD9021361
Probable space group: P -1
;
_chemical_formula_sum "Si O2"
_cell_formula_units_Z 16
_cell_length_a 7.702871
_cell_length_b 9.179384
_cell_length_c 15.474030
_cell_angle_alpha 115.332311
_cell_angle_beta 119.618022
_cell_angle_gamma 47.962091
_cell_volume 698.431133
_symmetry_space_group_name_H-M "P -1"
_symmetry_group_IT_number 2
_symmetry_cell_setting 'triclinic'
loop_
_space_group_symop_operation_xyz
x,y,z
-x,-y,-z
loop_
_atom_site_type_symbol
_atom_site_label
_atom_site_fract_x
_atom_site_fract_y
_atom_site_fract_z
Si Si1 0.272345 0.430952 0.447304
Si Si2 0.749348 0.744800 0.080498
Si Si3 0.606833 0.127033 0.575607
Si Si4 0.616394 0.568345 0.247762
Si Si5 0.729813 0.381247 0.964667
Si Si6 0.766065 0.882967 0.931869
Si Si7 0.079399 0.490240 0.234880
Si Si8 0.057851 0.729208 0.622829
O O1 0.539175 0.261632 0.508214
O O2 0.162625 0.621249 0.529491
O O3 0.241076 0.478357 0.350698
O O4 0.109362 0.344969 0.404250
O O5 0.964870 0.669581 0.184106
O O6 0.476559 0.900492 0.092838
O O7 0.787222 0.543211 0.008161
O O8 0.758825 0.847933 0.023855
O O9 0.452716 0.274409 0.653958
O O10 0.500000 0.000000 0.500000
O O11 0.887628 0.964142 0.628851
O O12 0.372099 0.647519 0.154505
O O13 0.830008 0.532654 0.227699
O O14 0.730313 0.362671 0.275818
O O15 0.500000 0.500000 0.000000
O O16 0.951910 0.191724 0.021419
O O17 0.773438 0.719112 0.832593
#
# Coordination Sequence:
#
# PCOD9021361 Si02
#       8
#     2   2   2   2   2   2   2   2
#     4   8  15  25  42  67  96 129 171 206 248 311
#     4  10  22  38  54  72 104 144 184 220 259 313
#     4   9  16  28  43  67 104 144 167 202 256 314
#     4  10  19  29  46  77 106 136 173 203 265 322
#     4  11  20  37  52  79 111 139 171 223 268 312
#     4  10  22  38  54  74 102 144 186 219 259 313
#     4  10  17  31  49  74 103 134 172 219 260 306
#     4   8  15  27  40  61 103 137 161 201 251 310
#
# _framework density 22.908487999999998
#
# number of rings (size 3 to 8) (size 9 to 14) (size 15 to 20)
#    0.000    2.500    2.500    3.750    0.000    5.500 
#    0.000    0.000    0.000    0.000    0.000   14.000 
#    0.000   36.000    0.000    0.000    0.000    0.000 
#
# Total GULP energy -89261.814584 kJ/mol
# GULP energy per Si atom -5578.863412 kJ/mol
# Density = 2.285635 g / cm^3
# Si number density = 22.908488 Si / 1000 Ang^3
#
#
#
# Elastic Constant Matrix: (Units=GPa)
#
#
# Indices 1 2 3 4 5 6 
#
# 1 36.9963 7.2951 5.7630 3.1830 -5.7860 -4.4374
# 2 7.2951 149.5613 30.5881 -3.5074 -8.2685 -11.3318
# 3 5.7630 30.5881 109.6590 -8.3209 -18.2583 6.1118
# 4 3.1830 -3.5074 -8.3209 17.8027 3.3186 -9.3621
# 5 -5.7860 -8.2685 -18.2583 3.3186 17.6297 1.8212
# 6 -4.4374 -11.3318 6.1118 -9.3621 1.8212 15.5863
#
#
#
# Elastic Compliance Matrix: (Units=1/GPa)
#
#
# Indices 1 2 3 4 5 6 
#
# 1 0.029648 -0.000685 -0.000377 -0.005489 0.009673 0.003663
# 2 -0.000685 0.008136 -0.002578 0.006444 -0.001404 0.010766
# 3 -0.000377 -0.002578 0.012377 -0.002106 0.012874 -0.009605
# 4 -0.005489 0.006444 -0.002106 0.096337 -0.025792 0.064828
# 5 0.009673 -0.001404 0.012874 -0.025792 0.080340 -0.028195
# 6 0.003663 0.010766 -0.009605 0.064828 -0.028195 0.119029
#
#
# Mechanical properties :
#
#
# Convention : Reuss Voigt Hill
#
# Bulk Modulus (GPa) = 23.32093 42.61214 32.96653
# Shear Modulus (GPa) = 13.60760 27.04177 20.32468
#
# Velocity S-wave (km/s) = 2.43985 3.43946 2.98184
# Velocity P-wave (km/s) = 4.25903 5.86639 5.12610
#
# Compressibility (1/GPa) = 0.04287994
#
# Stress axis : x y z
#
# Youngs Moduli (GPa) = 33.72901 122.90847 80.79334
#
# Poissons Ratio (x) = 0.08425 0.03045
# Poissons Ratio (y) = 0.02312 0.20832
# Poissons Ratio (z) = 0.01271 0.31690
#
# Static dielectric constant tensor:
#      x y z
#    x 1.998770 -0.049310 0.018010 
#    y -0.049310 1.898730 -0.079010 
#    z 0.018010 -0.079010 1.887400 
# 
# From -- ./inp_files/499249.got.cif
#   From: 2010.05.17/outbox.cif.g08.bks.cpg/sg2_250_cif.got.tgz:499249.got - 2010.06.03 11:33:40.
