data_PCOD9021630
_publ_section_title
;
Structure prediction by ZEFSAII (Michael W. Deem and Ramdas Pophale) SiO2 
 PCOD9021630
Probable space group: P -1
;
_chemical_formula_sum "Si O2"
_cell_formula_units_Z 16
_cell_length_a 12.014320
_cell_length_b 5.811489
_cell_length_c 18.893515
_cell_angle_alpha 105.308132
_cell_angle_beta 33.974072
_cell_angle_gamma 99.958527
_cell_volume 708.423431
_symmetry_space_group_name_H-M "P -1"
_symmetry_group_IT_number 2
_symmetry_cell_setting 'triclinic'
loop_
_space_group_symop_operation_xyz
x,y,z
-x,-y,-z
loop_
_atom_site_type_symbol
_atom_site_label
_atom_site_fract_x
_atom_site_fract_y
_atom_site_fract_z
Si Si1 0.317187 0.356032 0.506766
Si Si2 0.919067 0.830797 0.852022
Si Si3 0.674133 0.179739 0.926782
Si Si4 0.579048 0.749324 0.402995
Si Si5 0.277728 0.967746 0.762954
Si Si6 0.556266 0.558864 0.805292
Si Si7 0.595937 0.950323 0.150143
Si Si8 0.116092 0.576337 0.278689
O O1 0.391087 0.611234 0.467109
O O2 0.311200 0.371443 0.596820
O O3 0.501630 0.170203 0.372542
O O4 0.105722 0.303085 0.582743
O O5 0.911907 0.614085 0.784338
O O6 0.112286 0.831284 0.798970
O O7 0.882418 0.061026 0.838842
O O8 0.728185 0.864646 0.006228
O O9 0.726492 0.260150 0.827150
O O10 0.587104 0.372103 0.045586
O O11 0.500000 0.000000 0.000000
O O12 0.500000 0.000000 0.500000
O O13 0.713054 0.790888 0.268146
O O14 0.254031 0.004093 0.861037
O O15 0.517222 0.282848 0.784018
O O16 0.780011 0.545509 0.717646
O O17 0.514577 0.787327 0.792518
#
# Coordination Sequence:
#
# PCOD9021630 Si02
#       8
#     2   2   2   2   2   2   2   2
#     4  10  22  38  63  97 129 169 219 283 334 390
#     4  11  22  38  67 101 128 171 222 279 342 397
#     4  11  21  39  64 102 137 163 213 286 349 392
#     4   9  18  38  60  88 126 165 215 271 335 378
#     4  11  24  43  64  92 138 178 223 269 331 409
#     4  11  24  44  67  99 134 177 226 277 336 398
#     4  11  26  46  66  97 138 186 222 271 334 409
#     4  12  21  38  68  99 130 166 226 284 341 390
#
# _framework density 22.585363999999998
#
# number of rings (size 3 to 8) (size 9 to 14) (size 15 to 20)
#    0.000    1.250    2.500    5.250    1.750    1.000 
#    0.000    3.125    0.000    0.000    0.000    0.000 
#    0.000    0.000    0.000    0.000    0.000    0.000 
#
# Total GULP energy -89251.676133 kJ/mol
# GULP energy per Si atom -5578.229758 kJ/mol
# Density = 2.253396 g / cm^3
# Si number density = 22.585364 Si / 1000 Ang^3
#
#
#
# Elastic Constant Matrix: (Units=GPa)
#
#
# Indices 1 2 3 4 5 6 
#
# 1 105.6847 32.9629 14.9287 -1.9621 -21.0364 -2.4340
# 2 32.9629 104.4092 15.9100 -12.8601 -15.1012 -3.1083
# 3 14.9287 15.9100 38.5224 0.4806 -28.9234 -5.4505
# 4 -1.9621 -12.8601 0.4806 28.9340 -3.5670 -3.1762
# 5 -21.0364 -15.1012 -28.9234 -3.5670 35.5913 -3.0497
# 6 -2.4340 -3.1083 -5.4505 -3.1762 -3.0497 21.0522
#
#
#
# Elastic Compliance Matrix: (Units=1/GPa)
#
#
# Indices 1 2 3 4 5 6 
#
# 1 0.011747 -0.002713 0.004505 0.001144 0.009887 0.003729
# 2 -0.002713 0.011874 -0.000979 0.005815 0.003441 0.002562
# 3 0.004505 -0.000979 0.088740 0.012116 0.078711 0.036582
# 4 0.001144 0.005815 0.012116 0.040678 0.018171 0.012897
# 5 0.009887 0.003441 0.078711 0.018171 0.104608 0.039925
# 6 0.003729 0.002562 0.036582 0.012897 0.039925 0.065511
#
#
# Mechanical properties :
#
#
# Convention : Reuss Voigt Hill
#
# Bulk Modulus (GPa) = 8.77296 41.80216 25.28756
# Shear Modulus (GPa) = 13.90715 29.43647 21.67181
#
# Velocity S-wave (km/s) = 2.48414 3.61410 3.10102
# Velocity P-wave (km/s) = 3.48148 5.99703 4.90332
#
# Compressibility (1/GPa) = 0.11398655
#
# Stress axis : x y z
#
# Youngs Moduli (GPa) = 85.12701 84.21997 11.26891
#
# Poissons Ratio (x) = 0.22851 -0.05077
# Poissons Ratio (y) = 0.23097 0.01103
# Poissons Ratio (z) = -0.38350 0.08244
#
# Static dielectric constant tensor:
#      x y z
#    x 1.857250 -0.038810 -0.012050 
#    y -0.038810 1.939490 -0.017180 
#    z -0.012050 -0.017180 1.855820 
# 
# From -- ./inp_files/109592.got.cif
#   From: 2010.05.17/outbox.cif.g08.bks.cpg/sg2_55_cif.got.tgz:109592.got - 2010.06.03 11:33:40.
