data_PCOD9021241
_publ_section_title
;
Structure prediction by ZEFSAII (Michael W. Deem and Ramdas Pophale) SiO2 
 PCOD9021241
Probable space group: P -1
;
_chemical_formula_sum "Si O2"
_cell_formula_units_Z 16
_cell_length_a 9.416996
_cell_length_b 13.813482
_cell_length_c 9.129337
_cell_angle_alpha 109.347625
_cell_angle_beta 59.264244
_cell_angle_gamma 135.810342
_cell_volume 710.269727
_symmetry_space_group_name_H-M "P -1"
_symmetry_group_IT_number 2
_symmetry_cell_setting 'triclinic'
loop_
_space_group_symop_operation_xyz
x,y,z
-x,-y,-z
loop_
_atom_site_type_symbol
_atom_site_label
_atom_site_fract_x
_atom_site_fract_y
_atom_site_fract_z
Si Si1 0.050313 0.467184 0.611770
Si Si2 0.441921 0.580045 0.653905
Si Si3 0.290982 0.923092 0.682728
Si Si4 0.197955 0.943501 0.213151
Si Si5 0.057510 0.220286 0.450508
Si Si6 0.237504 0.089074 0.996564
Si Si7 0.284011 0.801910 0.894598
Si Si8 0.679603 0.374638 0.995305
O O1 0.872137 0.438014 0.807187
O O2 0.033622 0.335259 0.539924
O O3 0.000000 0.500000 0.500000
O O4 0.297047 0.582948 0.613404
O O5 0.500000 0.500000 0.500000
O O6 0.312902 0.523167 0.850321
O O7 0.075197 0.858907 0.666907
O O8 0.224972 0.796032 0.752901
O O9 0.500000 0.000000 0.500000
O O10 0.343401 0.036478 0.826108
O O11 0.061616 0.881275 0.400293
O O12 0.458311 0.053244 0.170575
O O13 0.147638 0.824056 0.078446
O O14 0.171563 0.027937 0.163795
O O15 0.310118 0.285451 0.358691
O O16 0.438515 0.255800 0.984294
O O17 0.000000 0.000000 0.000000
O O18 0.289173 0.700525 0.934709
#
# Coordination Sequence:
#
# PCOD9021241 Si02
#       8
#     2   2   2   2   2   2   2   2
#     4  11  25  44  68  95 115 163 239 282 305 373
#     4  10  25  45  63  88 127 168 219 271 331 373
#     4  11  20  34  61  96 133 159 208 250 302 390
#     4   9  17  35  59  87 127 167 199 244 311 391
#     4  11  21  41  62  92 134 169 197 273 335 363
#     4  10  22  38  58  96 134 164 203 243 317 407
#     4   9  18  33  59  94 118 165 209 243 305 390
#     4  11  21  43  68  86 128 172 212 267 322 374
#
# _framework density 22.526654000000001
#
# number of rings (size 3 to 8) (size 9 to 14) (size 15 to 20)
#    0.000    1.750    2.500    2.625    1.750    1.000 
#    2.250    4.375    0.000    0.000    0.000    0.000 
#    0.000    0.000    0.000    0.000    0.000    0.000 
#
# Total GULP energy -89243.452303 kJ/mol
# GULP energy per Si atom -5577.715769 kJ/mol
# Density = 2.247538 g / cm^3
# Si number density = 22.526654 Si / 1000 Ang^3
#
#
#
# Elastic Constant Matrix: (Units=GPa)
#
#
# Indices 1 2 3 4 5 6 
#
# 1 165.6257 36.1714 57.5252 -15.7564 27.6425 29.7725
# 2 36.1714 50.1587 43.3597 -2.0121 2.2913 12.1594
# 3 57.5252 43.3597 156.6509 -10.3396 14.1196 -3.4103
# 4 -15.7564 -2.0121 -10.3396 40.6731 -5.3190 -0.0776
# 5 27.6425 2.2913 14.1196 -5.3190 36.3952 6.8169
# 6 29.7725 12.1594 -3.4103 -0.0776 6.8169 25.4112
#
#
#
# Elastic Compliance Matrix: (Units=1/GPa)
#
#
# Indices 1 2 3 4 5 6 
#
# 1 0.010309 -0.002189 -0.002846 0.002581 -0.004290 -0.010254
# 2 -0.002189 0.033220 -0.009350 -0.000812 0.006120 -0.016231
# 3 -0.002846 -0.009350 0.010566 0.000731 -0.003128 0.010068
# 4 0.002581 -0.000812 0.000731 0.026011 0.002178 -0.003042
# 5 -0.004290 0.006120 -0.003128 0.002178 0.033235 -0.007231
# 6 -0.010254 -0.016231 0.010068 -0.003042 -0.007231 0.062415
#
#
# Mechanical properties :
#
#
# Convention : Reuss Voigt Hill
#
# Bulk Modulus (GPa) = 39.48504 71.83866 55.66185
# Shear Modulus (GPa) = 23.47778 36.18784 29.83281
#
# Velocity S-wave (km/s) = 3.23185 4.01240 3.64309
# Velocity P-wave (km/s) = 5.61183 7.30928 6.51606
#
# Compressibility (1/GPa) = 0.02532604
#
# Stress axis : x y z
#
# Youngs Moduli (GPa) = 97.00237 30.10234 94.64265
#
# Poissons Ratio (x) = 0.06588 0.26936
# Poissons Ratio (y) = 0.21230 0.88489
# Poissons Ratio (z) = 0.27608 0.28145
#
# Static dielectric constant tensor:
#      x y z
#    x 1.917540 -0.009390 -0.040570 
#    y -0.009390 1.940090 0.105270 
#    z -0.040570 0.105270 1.901230 
# 
# From -- ./inp_files/202964.got.cif
#   From: 2010.05.17/outbox.cif.g08.bks.cpg/sg2_102_cif.got.tgz:202964.got - 2010.06.03 11:33:40.
