data_PCOD9021043
_publ_section_title
;
Structure prediction by ZEFSAII (Michael W. Deem and Ramdas Pophale) SiO2 
 PCOD9021043
Probable space group: P -1
;
_chemical_formula_sum "Si O2"
_cell_formula_units_Z 16
_cell_length_a 5.524621
_cell_length_b 23.566798
_cell_length_c 15.079959
_cell_angle_alpha 22.636445
_cell_angle_beta 100.334029
_cell_angle_gamma 107.349300
_cell_volume 696.312662
_symmetry_space_group_name_H-M "P -1"
_symmetry_group_IT_number 2
_symmetry_cell_setting 'triclinic'
loop_
_space_group_symop_operation_xyz
x,y,z
-x,-y,-z
loop_
_atom_site_type_symbol
_atom_site_label
_atom_site_fract_x
_atom_site_fract_y
_atom_site_fract_z
Si Si1 0.021451 0.015512 0.873315
Si Si2 0.203281 0.338319 0.630836
Si Si3 0.220366 0.518048 0.590315
Si Si4 0.805668 0.102812 0.570269
Si Si5 0.381659 0.084123 0.445519
Si Si6 0.222781 0.423204 0.139094
Si Si7 0.619034 0.667862 0.539872
Si Si8 0.140298 0.171910 0.145044
O O1 0.303955 0.151628 0.683031
O O2 0.825255 0.077728 0.713023
O O3 0.000000 0.000000 0.000000
O O4 0.953768 0.837915 0.092140
O O5 0.521147 0.399710 0.573281
O O6 0.197464 0.332968 0.530942
O O7 0.039686 0.443346 0.501054
O O8 0.333747 0.595990 0.581563
O O9 0.163940 0.333639 0.866015
O O10 0.583692 0.156332 0.433591
O O11 0.078263 0.240143 0.365785
O O12 0.768995 0.937640 0.758207
O O13 0.292534 0.199736 0.209744
O O14 0.500000 0.000000 0.500000
O O15 0.145227 0.944045 0.676532
O O16 0.302349 0.424523 0.244747
O O17 0.500000 0.500000 0.000000
O O18 0.000000 0.500000 0.000000
#
# Coordination Sequence:
#
# PCOD9021043 Si02
#       8
#     2   2   2   2   2   2   2   2
#     4   9  18  45  66  92 124 169 220 275 323 395
#     4   9  21  39  62  94 119 167 213 267 324 374
#     4  10  22  37  65  91 127 162 215 264 324 380
#     4  10  23  42  65  96 127 175 217 264 327 389
#     4   9  21  39  64  90 127 174 217 257 320 388
#     4  11  26  40  60  92 133 165 208 268 324 387
#     4   8  21  39  61  92 121 168 212 262 325 384
#     4  10  22  40  62  95 131 173 214 265 319 398
#
# _framework density 22.978185
#
# number of rings (size 3 to 8) (size 9 to 14) (size 15 to 20)
#    0.750    1.750    0.000    0.000    8.750    2.500 
#    2.250    1.250    0.000    0.000    0.000    0.000 
#    0.000    0.000    0.000    0.000    0.000    0.000 
#
# Total GULP energy -89115.912346 kJ/mol
# GULP energy per Si atom -5569.744522 kJ/mol
# Density = 2.292589 g / cm^3
# Si number density = 22.978185 Si / 1000 Ang^3
#
#
#
# Elastic Constant Matrix: (Units=GPa)
#
#
# Indices 1 2 3 4 5 6 
#
# 1 100.8281 28.9565 32.7217 -9.7586 6.1069 12.3476
# 2 28.9565 128.4862 30.3862 7.1454 -3.0312 26.4384
# 3 32.7217 30.3862 90.8953 -21.7082 13.8248 -2.9787
# 4 -9.7586 7.1454 -21.7082 27.3169 -3.3697 -4.5180
# 5 6.1069 -3.0312 13.8248 -3.3697 13.1030 0.6275
# 6 12.3476 26.4384 -2.9787 -4.5180 0.6275 25.2643
#
#
#
# Elastic Compliance Matrix: (Units=1/GPa)
#
#
# Indices 1 2 3 4 5 6 
#
# 1 0.012242 -0.000600 -0.004208 0.000090 -0.001104 -0.005808
# 2 -0.000600 0.016196 -0.011628 -0.015545 0.013309 -0.021136
# 3 -0.004208 -0.011628 0.026223 0.023122 -0.023505 0.022035
# 4 0.000090 -0.015545 0.023122 0.062460 -0.013429 0.030453
# 5 -0.001104 0.013309 -0.023505 -0.013429 0.102269 -0.021101
# 6 -0.005808 -0.021136 0.022035 0.030453 -0.021101 0.073107
#
#
# Mechanical properties :
#
#
# Convention : Reuss Voigt Hill
#
# Bulk Modulus (GPa) = 45.89155 56.03760 50.96458
# Shear Modulus (GPa) = 15.03169 28.34653 21.68911
#
# Velocity S-wave (km/s) = 2.56045 3.51611 3.07563
# Velocity P-wave (km/s) = 5.36250 6.39721 5.90257
#
# Compressibility (1/GPa) = 0.02179050
#
# Stress axis : x y z
#
# Youngs Moduli (GPa) = 81.68277 61.74474 38.13479
#
# Poissons Ratio (x) = 0.03704 0.16046
# Poissons Ratio (y) = 0.04900 0.44342
# Poissons Ratio (z) = 0.34369 0.71795
#
# Static dielectric constant tensor:
#      x y z
#    x 1.459870 0.260260 0.103340 
#    y 0.260260 1.800390 -0.100100 
#    z 0.103340 -0.100100 1.863450 
# 
# From -- ./inp_files/551506.got.cif
#   From: 2010.05.17/outbox.cif.g08.bks.cpg/sg2_276_cif.got.tgz:551506.got - 2010.06.03 11:33:40.
