data_PCOD9021027
_publ_section_title
;
Structure prediction by ZEFSAII (Michael W. Deem and Ramdas Pophale) SiO2 
 PCOD9021027
Probable space group: P -1
;
_chemical_formula_sum "Si O2"
_cell_formula_units_Z 15
_cell_length_a 12.794302
_cell_length_b 12.923158
_cell_length_c 4.910123
_cell_angle_alpha 98.734721
_cell_angle_beta 81.778901
_cell_angle_gamma 119.248326
_cell_volume 697.903756
_symmetry_space_group_name_H-M "P -1"
_symmetry_group_IT_number 2
_symmetry_cell_setting 'triclinic'
loop_
_space_group_symop_operation_xyz
x,y,z
-x,-y,-z
loop_
_atom_site_type_symbol
_atom_site_label
_atom_site_fract_x
_atom_site_fract_y
_atom_site_fract_z
Si Si1 0.999902 0.878917 0.540542
Si Si2 0.622339 0.301015 0.864437
Si Si3 0.354610 0.122826 0.757501
Si Si4 0.692297 0.209074 0.284173
Si Si5 0.262543 0.292934 0.622597
Si Si6 0.146384 0.897489 0.998324
Si Si7 0.366435 0.455575 0.146034
Si Si8 0.500000 0.000000 0.500000
O O1 0.870929 0.771490 0.472336
O O2 0.036246 0.880603 0.839846
O O3 0.000000 0.000000 0.500000
O O4 0.102513 0.874629 0.314024
O O5 0.478084 0.219770 0.892423
O O6 0.671334 0.233849 0.614935
O O7 0.652478 0.429039 0.792152
O O8 0.678656 0.302861 0.135517
O O9 0.304708 0.195055 0.629287
O O10 0.399509 0.046712 0.530558
O O11 0.250505 0.032046 0.957798
O O12 0.804585 0.191356 0.157659
O O13 0.575337 0.081386 0.239529
O O14 0.348169 0.390444 0.413097
O O15 0.275408 0.360644 0.927428
O O16 0.500000 0.500000 0.000000
#
# Coordination Sequence:
#
# PCOD9021027 Si02
#       8
#     2   2   2   2   2   2   2   1
#     4  12  25  42  67  93 132 171 214 261 320 375
#     4  11  23  40  65  93 132 167 213 260 318 385
#     4  10  22  37  64  95 136 168 205 258 318 393
#     4  10  22  40  63  93 128 171 209 262 319 377
#     4  12  26  42  65  95 133 167 211 268 318 372
#     4  11  24  42  66  97 130 170 214 259 319 387
#     4  12  26  42  66  95 129 173 213 260 322 378
#     4   8  20  34  56  92 128 162 202 244 318 382
#
# _framework density 21.492937000000001
#
# number of rings (size 3 to 8) (size 9 to 14) (size 15 to 20)
#    0.000    1.067    2.667    3.200    5.600    8.000 
#    0.000    0.000    0.000   16.000    0.000    0.000 
#    0.000    0.000    0.000    0.000    0.000    0.000 
#
# Total GULP energy -83662.138671 kJ/mol
# GULP energy per Si atom -5577.475911 kJ/mol
# Density = 2.144402 g / cm^3
# Si number density = 21.492937 Si / 1000 Ang^3
#
#
#
# Elastic Constant Matrix: (Units=GPa)
#
#
# Indices 1 2 3 4 5 6 
#
# 1 68.9884 34.5034 5.0948 -2.6233 -9.1141 -8.4787
# 2 34.5034 78.9985 5.3395 -6.6490 2.3102 -9.3864
# 3 5.0948 5.3395 53.7871 -5.2025 6.9971 -0.8910
# 4 -2.6233 -6.6490 -5.2025 38.0171 -0.7197 8.7705
# 5 -9.1141 2.3102 6.9971 -0.7197 25.3772 -4.7945
# 6 -8.4787 -9.3864 -0.8910 8.7705 -4.7945 27.6814
#
#
#
# Elastic Compliance Matrix: (Units=1/GPa)
#
#
# Indices 1 2 3 4 5 6 
#
# 1 0.021024 -0.008771 -0.002483 -0.001527 0.010050 0.005610
# 2 -0.008771 0.016984 -0.000087 0.001872 -0.004291 0.001733
# 3 -0.002483 -0.000087 0.019957 0.002935 -0.006727 -0.002243
# 4 -0.001527 0.001872 0.002935 0.029042 -0.002474 -0.009369
# 5 0.010050 -0.004291 -0.006727 -0.002474 0.047147 0.010357
# 6 0.005610 0.001733 -0.002243 -0.009369 0.010357 0.043121
#
#
# Mechanical properties :
#
#
# Convention : Reuss Voigt Hill
#
# Bulk Modulus (GPa) = 28.34127 32.40547 30.37337
# Shear Modulus (GPa) = 23.61621 28.67092 26.14356
#
# Velocity S-wave (km/s) = 3.31840 3.65632 3.49145
# Velocity P-wave (km/s) = 5.28179 5.73889 5.51508
#
# Compressibility (1/GPa) = 0.03528423
#
# Stress axis : x y z
#
# Youngs Moduli (GPa) = 47.56422 58.87892 50.10658
#
# Poissons Ratio (x) = 0.51640 0.12441
# Poissons Ratio (y) = 0.41716 0.00437
# Poissons Ratio (z) = 0.11810 0.00513
#
# Static dielectric constant tensor:
#      x y z
#    x 1.781500 0.013030 0.017060 
#    y 0.013030 1.856250 0.042830 
#    z 0.017060 0.042830 1.787080 
# 
# From -- ./inp_files/66784.got.cif
#   From: 2010.05.17/outbox.cif.g08.bks.cpg/sg2_34_cif.got.tgz:66784.got - 2010.06.03 11:33:40.
