data_PCOD9021072
_publ_section_title
;
Structure prediction by ZEFSAII (Michael W. Deem and Ramdas Pophale) SiO2 
 PCOD9021072
Probable space group: P -1
;
_chemical_formula_sum "Si O2"
_cell_formula_units_Z 11
_cell_length_a 13.250836
_cell_length_b 8.953878
_cell_length_c 17.098154
_cell_angle_alpha 35.275001
_cell_angle_beta 155.715771
_cell_angle_gamma 149.962353
_cell_volume 413.939725
_symmetry_space_group_name_H-M "P -1"
_symmetry_group_IT_number 2
_symmetry_cell_setting 'triclinic'
loop_
_space_group_symop_operation_xyz
x,y,z
-x,-y,-z
loop_
_atom_site_type_symbol
_atom_site_label
_atom_site_fract_x
_atom_site_fract_y
_atom_site_fract_z
Si Si1 0.358495 0.799180 0.272373
Si Si2 0.139825 0.158683 0.311331
Si Si3 0.500000 0.000000 0.000000
Si Si4 0.799363 0.674359 0.891619
Si Si5 0.190836 0.461322 0.586977
Si Si6 0.170275 0.820826 0.685145
O O1 0.227033 0.462861 0.288670
O O2 0.572425 0.852692 0.470427
O O3 0.571574 0.014232 0.264261
O O4 0.081422 0.818411 0.081165
O O5 0.090042 0.165430 0.182647
O O6 0.872561 0.879599 0.287438
O O7 0.303839 0.801235 0.868498
O O8 0.653903 0.316593 0.921767
O O9 0.526677 0.676062 0.732080
O O10 0.000000 0.500000 0.500000
O O11 0.063337 0.457604 0.413343
O O12 0.000000 0.000000 0.500000
#
# Coordination Sequence:
#
# PCOD9021072 Si02
#       6
#     2   2   1   2   2   2
#     4  10  22  37  66 104 130 166 218 284 334 381
#     4  10  22  41  65  96 136 169 217 275 335 389
#     4  12  24  36  74 108 130 164 226 280 338 384
#     4  12  24  38  67 100 132 170 220 277 332 390
#     4  11  26  47  68  94 138 185 219 269 335 399
#     4  11  23  43  68 101 137 171 219 279 333 389
#
# _framework density 26.573916000000001
#
# number of rings (size 3 to 8) (size 9 to 14) (size 15 to 20)
#    0.000    1.091    3.636    1.636   10.182    0.727 
#    0.000    4.545    0.000    0.000    0.000    0.000 
#    0.000    0.000    0.000    0.000    0.000    0.000 
#
# Total GULP energy -61392.904248 kJ/mol
# GULP energy per Si atom -5581.173113 kJ/mol
# Density = 2.651343 g / cm^3
# Si number density = 26.573916 Si / 1000 Ang^3
#
#
#
# Elastic Constant Matrix: (Units=GPa)
#
#
# Indices 1 2 3 4 5 6 
#
# 1 80.7030 24.9247 46.3674 11.9562 16.1546 15.2888
# 2 24.9247 55.6482 23.0305 17.7377 10.1061 17.8203
# 3 46.3674 23.0305 183.6143 54.4693 1.7185 8.7276
# 4 11.9562 17.7377 54.4693 38.9858 18.1487 7.9968
# 5 16.1546 10.1061 1.7185 18.1487 56.8536 7.7088
# 6 15.2888 17.8203 8.7276 7.9968 7.7088 52.7034
#
#
#
# Elastic Compliance Matrix: (Units=1/GPa)
#
#
# Indices 1 2 3 4 5 6 
#
# 1 0.018770 -0.006898 -0.006887 0.010790 -0.006993 -0.002587
# 2 -0.006898 0.025459 0.002701 -0.013207 0.002299 -0.005387
# 3 -0.006887 0.002701 0.012949 -0.020973 0.007644 0.001005
# 4 0.010790 -0.013207 -0.020973 0.068159 -0.021519 -0.002386
# 5 -0.006993 0.002299 0.007644 -0.021519 0.025878 -0.000535
# 6 -0.002587 -0.005387 0.001005 -0.002386 -0.000535 0.021820
#
#
# Mechanical properties :
#
#
# Convention : Reuss Voigt Hill
#
# Bulk Modulus (GPa) = 28.56375 56.51230 42.53803
# Shear Modulus (GPa) = 24.16946 44.75140 34.46043
#
# Velocity S-wave (km/s) = 3.01909 4.10815 3.60499
# Velocity P-wave (km/s) = 4.78804 6.61927 5.77668
#
# Compressibility (1/GPa) = 0.03500940
#
# Stress axis : x y z
#
# Youngs Moduli (GPa) = 53.27756 39.27900 77.22581
#
# Poissons Ratio (x) = 0.27094 0.53187
# Poissons Ratio (y) = 0.36749 -0.20858
# Poissons Ratio (z) = 0.36694 -0.10609
#
# Static dielectric constant tensor:
#      x y z
#    x 1.919720 0.036820 -0.062770 
#    y 0.036820 2.176690 -0.064760 
#    z -0.062770 -0.064760 1.927660 
# 
# From -- ./inp_files/306388.got.cif
#   From: 2010.05.17/outbox.cif.g08.bks.cpg/sg2_154_cif.got.tgz:306388.got - 2010.06.03 11:33:40.
