data_PCOD9021316
_publ_section_title
;
Structure prediction by ZEFSAII (Michael W. Deem and Ramdas Pophale) SiO2 
 PCOD9021316
Probable space group: P -1
;
_chemical_formula_sum "Si O2"
_cell_formula_units_Z 12
_cell_length_a 9.340662
_cell_length_b 13.685182
_cell_length_c 20.576773
_cell_angle_alpha 24.005956
_cell_angle_beta 43.322575
_cell_angle_gamma 27.601333
_cell_volume 446.369472
_symmetry_space_group_name_H-M "P -1"
_symmetry_group_IT_number 2
_symmetry_cell_setting 'triclinic'
loop_
_space_group_symop_operation_xyz
x,y,z
-x,-y,-z
loop_
_atom_site_type_symbol
_atom_site_label
_atom_site_fract_x
_atom_site_fract_y
_atom_site_fract_z
Si Si1 0.562655 0.243660 0.977695
Si Si2 0.309688 0.536193 0.098975
Si Si3 0.083596 0.403093 0.638851
Si Si4 0.877431 0.793869 0.600492
Si Si5 0.612488 0.002043 0.893463
Si Si6 0.722949 0.404569 0.646835
O O1 0.295499 0.324660 0.978139
O O2 0.904732 0.955184 0.994662
O O3 0.667974 0.989055 0.160769
O O4 0.505739 0.552499 0.840857
O O5 0.304711 0.253194 0.268885
O O6 0.500000 0.500000 0.000000
O O7 0.853075 0.732420 0.571537
O O8 0.916678 0.381524 0.652706
O O9 0.244395 0.477497 0.501941
O O10 0.278351 0.417579 0.714707
O O11 0.669875 0.223122 0.423717
O O12 0.835479 0.029678 0.821633
O O13 0.500000 0.000000 0.000000
#
# Coordination Sequence:
#
# PCOD9021316 Si02
#       6
#     2   2   2   2   2   2
#     4   9  20  36  57  86 115 157 193 237 292 348
#     4   9  17  32  59  83 112 145 195 237 284 342
#     4   9  21  37  62  91 112 157 200 243 299 336
#     4  10  22  38  60  89 116 158 198 248 291 344
#     4  10  23  38  61  86 122 164 191 240 304 351
#     4  11  21  38  64  87 120 152 200 245 291 361
#
# _framework density 26.883559000000002
#
# number of rings (size 3 to 8) (size 9 to 14) (size 15 to 20)
#    0.000    2.667    0.000    2.000    9.333    2.667 
#    0.000    3.333    0.000   17.000    0.000    0.000 
#    0.000    0.000    0.000    0.000    0.000    0.000 
#
# Total GULP energy -67046.487094 kJ/mol
# GULP energy per Si atom -5587.207258 kJ/mol
# Density = 2.682237 g / cm^3
# Si number density = 26.883559 Si / 1000 Ang^3
#
#
#
# Elastic Constant Matrix: (Units=GPa)
#
#
# Indices 1 2 3 4 5 6 
#
# 1 134.3585 27.3325 -0.8018 11.1457 -20.9805 21.8914
# 2 27.3325 91.9332 8.1828 29.3683 -8.4810 -1.7815
# 3 -0.8018 8.1828 77.2002 36.7463 -10.5091 5.9746
# 4 11.1457 29.3683 36.7463 46.6344 3.0817 6.7922
# 5 -20.9805 -8.4810 -10.5091 3.0817 53.6388 -3.7746
# 6 21.8914 -1.7815 5.9746 6.7922 -3.7746 41.7463
#
#
#
# Elastic Compliance Matrix: (Units=1/GPa)
#
#
# Indices 1 2 3 4 5 6 
#
# 1 0.009372 -0.002000 0.002267 -0.002332 0.003603 -0.004619
# 2 -0.002000 0.016198 0.005652 -0.014985 0.004010 0.003732
# 3 0.002267 0.005652 0.025104 -0.024443 0.008115 0.000170
# 4 -0.002332 -0.014985 -0.024443 0.052250 -0.011456 -0.005455
# 5 0.003603 0.004010 0.008115 -0.011456 0.023009 0.001065
# 6 -0.004619 0.003732 0.000170 -0.005455 0.001065 0.027495
#
#
# Mechanical properties :
#
#
# Convention : Reuss Voigt Hill
#
# Bulk Modulus (GPa) = 15.99696 41.43544 28.71620
# Shear Modulus (GPa) = 30.78277 46.32245 38.55261
#
# Velocity S-wave (km/s) = 3.38752 4.15550 3.79101
# Velocity P-wave (km/s) = 4.61126 6.20247 5.46509
#
# Compressibility (1/GPa) = 0.06251187
#
# Stress axis : x y z
#
# Youngs Moduli (GPa) = 106.70240 61.73476 39.83415
#
# Poissons Ratio (x) = 0.12349 -0.09031
# Poissons Ratio (y) = 0.21344 -0.22514
# Poissons Ratio (z) = -0.24192 -0.34892
#
# Static dielectric constant tensor:
#      x y z
#    x 2.176460 -0.039620 0.007780 
#    y -0.039620 2.155700 -0.096690 
#    z 0.007780 -0.096690 2.135690 
# 
# From -- ./inp_files/559485.got.cif
#   From: 2010.05.17/outbox.cif.g08.bks.cpg/sg2_280_cif.got.tgz:559485.got - 2010.06.03 11:33:40.
