data_PCOD9021065
_publ_section_title
;
Structure prediction by ZEFSAII (Michael W. Deem and Ramdas Pophale) SiO2 
 PCOD9021065
Probable space group: P -1
;
_chemical_formula_sum "Si O2"
_cell_formula_units_Z 16
_cell_length_a 13.233462
_cell_length_b 14.611384
_cell_length_c 14.603607
_cell_angle_alpha 19.986273
_cell_angle_beta 127.153895
_cell_angle_gamma 126.501226
_cell_volume 765.373002
_symmetry_space_group_name_H-M "P -1"
_symmetry_group_IT_number 2
_symmetry_cell_setting 'triclinic'
loop_
_space_group_symop_operation_xyz
x,y,z
-x,-y,-z
loop_
_atom_site_type_symbol
_atom_site_label
_atom_site_fract_x
_atom_site_fract_y
_atom_site_fract_z
Si Si1 0.425056 0.209881 0.208427
Si Si2 0.220764 0.610573 0.925748
Si Si3 0.513028 0.178245 0.085840
Si Si4 0.176507 0.058351 0.329267
Si Si5 0.574593 0.727544 0.418685
Si Si6 0.351888 0.310442 0.700068
Si Si7 0.818348 0.417600 0.863170
Si Si8 0.900383 0.868960 0.345890
O O1 0.436498 0.140731 0.172970
O O2 0.283188 0.156784 0.220826
O O3 0.500000 0.000000 0.500000
O O4 0.500000 0.500000 0.000000
O O5 0.372225 0.592904 0.043239
O O6 0.216760 0.846168 0.626930
O O7 0.155195 0.331979 0.113110
O O8 0.160529 0.646031 0.959103
O O9 0.587800 0.938677 0.309664
O O10 0.414112 0.222825 0.909461
O O11 0.044986 0.924657 0.341166
O O12 0.428480 0.603524 0.453853
O O13 0.609244 0.837149 0.233368
O O14 0.672465 0.499770 0.699138
O O15 0.200238 0.283546 0.636063
O O16 0.893929 0.681251 0.610181
O O17 0.850949 0.156743 0.071309
#
# Coordination Sequence:
#
# PCOD9021065 Si02
#       8
#     2   2   2   2   2   2   2   2
#     4  12  26  46  70  99 127 170 227 283 332 378
#     4  12  23  39  69  94 133 166 223 271 333 387
#     4  12  23  39  70 100 130 167 220 287 333 377
#     4  12  25  46  63  93 132 178 216 278 325 390
#     4  10  22  37  65  99 138 165 217 273 330 387
#     4  10  23  38  64  99 132 175 213 268 332 394
#     4  11  23  40  64 100 131 179 219 264 328 400
#     4  11  26  42  63  91 142 179 215 258 332 403
#
# _framework density 20.904838999999999
#
# number of rings (size 3 to 8) (size 9 to 14) (size 15 to 20)
#    0.000    0.750    3.750    4.125    7.000    3.000 
#    0.000    0.625    0.000    0.750    0.000    0.000 
#    0.000    0.000    0.000    0.000    0.000    0.000 
#
# Total GULP energy -89321.509376 kJ/mol
# GULP energy per Si atom -5582.594336 kJ/mol
# Density = 2.085726 g / cm^3
# Si number density = 20.904839 Si / 1000 Ang^3
#
#
#
# Elastic Constant Matrix: (Units=GPa)
#
#
# Indices 1 2 3 4 5 6 
#
# 1 92.7417 66.4820 27.0763 8.3607 -24.9421 21.1828
# 2 66.4820 100.0777 33.6049 9.0540 -12.6642 13.9365
# 3 27.0763 33.6049 104.4017 6.7477 -22.3969 -6.6825
# 4 8.3607 9.0540 6.7477 34.0341 0.4706 -10.8848
# 5 -24.9421 -12.6642 -22.3969 0.4706 21.9321 -4.0467
# 6 21.1828 13.9365 -6.6825 -10.8848 -4.0467 50.4405
#
#
#
# Elastic Compliance Matrix: (Units=1/GPa)
#
#
# Indices 1 2 3 4 5 6 
#
# 1 0.032266 -0.017240 0.003345 -0.006799 0.028919 -0.007491
# 2 -0.017240 0.021742 -0.005202 -0.000528 -0.012457 -0.000570
# 3 0.003345 -0.005202 0.014028 -0.001535 0.015679 0.002818
# 4 -0.006799 -0.000528 -0.001535 0.034684 -0.008578 0.009594
# 5 0.028919 -0.012457 0.015679 -0.008578 0.087211 -0.001480
# 6 -0.007491 -0.000570 0.002818 0.009594 -0.001480 0.025454
#
#
# Mechanical properties :
#
#
# Convention : Reuss Voigt Hill
#
# Bulk Modulus (GPa) = 33.50944 61.28306 47.39625
# Shear Modulus (GPa) = 18.97343 32.61856 25.79600
#
# Velocity S-wave (km/s) = 3.01592 3.95439 3.51661
# Velocity P-wave (km/s) = 5.30962 7.08721 6.26181
#
# Compressibility (1/GPa) = 0.02984234
#
# Stress axis : x y z
#
# Youngs Moduli (GPa) = 30.99263 45.99376 71.28422
#
# Poissons Ratio (x) = 0.79292 -0.23843
# Poissons Ratio (y) = 0.53430 0.37083
# Poissons Ratio (z) = -0.10367 0.23926
#
# Static dielectric constant tensor:
#      x y z
#    x 1.808260 0.034420 -0.000510 
#    y 0.034420 1.773940 0.011060 
#    z -0.000510 0.011060 1.808330 
# 
# From -- ./inp_files/534016.got.cif
#   From: 2010.05.17/outbox.cif.g08.bks.cpg/sg2_268_cif.got.tgz:534016.got - 2010.06.03 11:33:40.
