data_PCOD9021136
_publ_section_title
;
Structure prediction by ZEFSAII (Michael W. Deem and Ramdas Pophale) SiO2 
 PCOD9021136
Probable space group: P -1
;
_chemical_formula_sum "Si O2"
_cell_formula_units_Z 16
_cell_length_a 8.526545
_cell_length_b 9.174465
_cell_length_c 14.596371
_cell_angle_alpha 140.195795
_cell_angle_beta 70.764736
_cell_angle_gamma 97.193375
_cell_volume 674.527578
_symmetry_space_group_name_H-M "P -1"
_symmetry_group_IT_number 2
_symmetry_cell_setting 'triclinic'
loop_
_space_group_symop_operation_xyz
x,y,z
-x,-y,-z
loop_
_atom_site_type_symbol
_atom_site_label
_atom_site_fract_x
_atom_site_fract_y
_atom_site_fract_z
Si Si1 0.086467 0.543072 0.148253
Si Si2 0.827608 0.319285 0.196558
Si Si3 0.789167 0.280061 0.614430
Si Si4 0.077386 0.343201 0.324000
Si Si5 0.303830 0.066360 0.875208
Si Si6 0.613534 0.059001 0.919648
Si Si7 0.848812 0.892491 0.267326
Si Si8 0.594864 0.579851 0.235545
O O1 0.103699 0.715279 0.311782
O O2 0.952962 0.381631 0.124387
O O3 0.024235 0.700394 0.148631
O O4 0.256488 0.347129 0.018059
O O5 0.653414 0.498004 0.288888
O O6 0.924523 0.356085 0.288021
O O7 0.786678 0.063530 0.091870
O O8 0.789118 0.528746 0.689265
O O9 0.595455 0.276475 0.668441
O O10 0.860659 0.090198 0.433322
O O11 0.000000 0.500000 0.500000
O O12 0.193886 0.089494 0.196372
O O13 0.503310 0.002078 0.826667
O O14 0.224061 0.004249 0.765233
O O15 0.613398 0.332379 0.060983
O O16 0.500000 0.000000 0.000000
O O17 0.714039 0.745499 0.257322
#
# Coordination Sequence:
#
# PCOD9021136 Si02
#       8
#     2   2   2   2   2   2   2   2
#     4  10  22  41  65  91 130 174 223 258 322 397
#     4  10  22  37  69  94 122 168 220 265 317 390
#     4  11  21  45  66  90 134 178 216 257 326 401
#     4  11  24  40  64 104 134 161 210 283 339 371
#     4  12  22  41  64  99 130 166 215 281 325 374
#     4  12  22  43  71  94 127 176 221 269 320 394
#     4  11  26  39  62  97 134 168 214 272 329 377
#     4  11  23  43  68  94 124 174 229 256 314 400
#
# _framework density 23.720305
#
# number of rings (size 3 to 8) (size 9 to 14) (size 15 to 20)
#    0.000    1.000    3.750    3.000    3.500    1.500 
#    2.250    3.750    0.000    0.000    0.000    0.000 
#    0.000    0.000    0.000    0.000    0.000    0.000 
#
# Total GULP energy -89356.813326 kJ/mol
# GULP energy per Si atom -5584.800833 kJ/mol
# Density = 2.366632 g / cm^3
# Si number density = 23.720305 Si / 1000 Ang^3
#
#
#
# Elastic Constant Matrix: (Units=GPa)
#
#
# Indices 1 2 3 4 5 6 
#
# 1 82.3205 35.2847 11.8027 -2.8782 15.8796 -22.7452
# 2 35.2847 85.7807 9.0648 12.5655 4.4183 -11.2809
# 3 11.8027 9.0648 90.6025 -6.8700 8.4683 -15.3580
# 4 -2.8782 12.5655 -6.8700 29.3837 -3.3579 12.7956
# 5 15.8796 4.4183 8.4683 -3.3579 26.9935 4.1859
# 6 -22.7452 -11.2809 -15.3580 12.7956 4.1859 36.1397
#
#
#
# Elastic Compliance Matrix: (Units=1/GPa)
#
#
# Indices 1 2 3 4 5 6 
#
# 1 0.021314 -0.005642 0.001500 -0.003491 -0.014885 0.015250
# 2 -0.005642 0.016187 -0.000715 -0.009862 -0.001080 0.004815
# 3 0.001500 -0.000715 0.012596 -0.000240 -0.005806 0.006831
# 4 -0.003491 -0.009862 -0.000240 0.050213 0.013829 -0.024758
# 5 -0.014885 -0.001080 -0.005806 0.013829 0.053121 -0.023221
# 6 0.015250 0.004815 0.006831 -0.024758 -0.023221 0.053130
#
#
# Mechanical properties :
#
#
# Convention : Reuss Voigt Hill
#
# Bulk Modulus (GPa) = 24.76390 41.22315 32.99353
# Shear Modulus (GPa) = 21.76395 32.00683 26.88539
#
# Velocity S-wave (km/s) = 3.03235 3.67733 3.37030
# Velocity P-wave (km/s) = 4.76685 5.95373 5.39304
#
# Compressibility (1/GPa) = 0.04038136
#
# Stress axis : x y z
#
# Youngs Moduli (GPa) = 46.91792 61.77618 79.39205
#
# Poissons Ratio (x) = 0.34854 -0.11905
# Poissons Ratio (y) = 0.26471 0.05679
# Poissons Ratio (z) = -0.07035 0.04419
#
# Static dielectric constant tensor:
#      x y z
#    x 1.918480 -0.031870 0.001990 
#    y -0.031870 1.935160 -0.015250 
#    z 0.001990 -0.015250 1.905860 
# 
# From -- ./inp_files/244206.got.cif
#   From: 2010.05.17/outbox.cif.g08.bks.cpg/sg2_123_cif.got.tgz:244206.got - 2010.06.03 11:33:40.
