data_PCOD9021636
_publ_section_title
;
Structure prediction by ZEFSAII (Michael W. Deem and Ramdas Pophale) SiO2 
 PCOD9021636
Probable space group: P -1
;
_chemical_formula_sum "Si O2"
_cell_formula_units_Z 16
_cell_length_a 8.779065
_cell_length_b 20.946115
_cell_length_c 11.779409
_cell_angle_alpha 39.351438
_cell_angle_beta 50.556233
_cell_angle_gamma 78.451282
_cell_volume 852.915778
_symmetry_space_group_name_H-M "P -1"
_symmetry_group_IT_number 2
_symmetry_cell_setting 'triclinic'
loop_
_space_group_symop_operation_xyz
x,y,z
-x,-y,-z
loop_
_atom_site_type_symbol
_atom_site_label
_atom_site_fract_x
_atom_site_fract_y
_atom_site_fract_z
Si Si1 0.512395 0.938508 0.376515
Si Si2 0.184762 0.277327 0.258863
Si Si3 0.268167 0.534593 0.845235
Si Si4 0.021273 0.127492 0.307738
Si Si5 0.378973 0.224207 0.806630
Si Si6 0.432119 0.282309 0.357536
Si Si7 0.982371 0.907870 0.039324
Si Si8 0.334735 0.887120 0.147242
O O1 0.490754 0.812191 0.538771
O O2 0.243003 0.904435 0.555555
O O3 0.645613 0.040981 0.072623
O O4 0.743119 0.021476 0.239693
O O5 0.121111 0.195909 0.287809
O O6 0.374951 0.289280 0.244175
O O7 0.930494 0.205729 0.546471
O O8 0.261913 0.413169 0.001878
O O9 0.453657 0.644649 0.518365
O O10 0.363599 0.590842 0.849321
O O11 0.000000 0.500000 0.000000
O O12 0.214124 0.215291 0.998340
O O13 0.000000 0.000000 0.500000
O O14 0.193961 0.120330 0.943686
O O15 0.547810 0.186145 0.825217
O O16 0.182467 0.222694 0.632935
O O17 0.000000 0.000000 0.000000
O O18 0.500000 0.000000 0.000000
#
# Coordination Sequence:
#
# PCOD9021636 Si02
#       8
#     2   2   2   2   2   2   2   2
#     4  11  21  35  62  92 128 164 199 252 327 369
#     4  12  24  39  66  92 127 167 207 261 305 368
#     4  11  22  42  69  92 117 164 220 261 306 358
#     4  12  26  40  60  95 132 167 203 246 326 385
#     4  11  24  41  59  92 129 162 209 258 308 379
#     4  10  22  38  63  99 123 155 213 268 308 356
#     4   9  19  33  60  90 122 157 199 258 311 352
#     4  12  19  35  64  93 120 159 209 260 305 362
#
# _framework density 18.759180000000001
#
# number of rings (size 3 to 8) (size 9 to 14) (size 15 to 20)
#    0.000    1.000    5.000    3.375    5.250    1.000 
#    0.000    0.000    0.000    1.500    0.000    0.000 
#    0.000    0.000    0.000    0.000    0.000    0.000 
#
# Total GULP energy -89187.347359 kJ/mol
# GULP energy per Si atom -5574.209210 kJ/mol
# Density = 1.871648 g / cm^3
# Si number density = 18.759180 Si / 1000 Ang^3
#
#
#
# Elastic Constant Matrix: (Units=GPa)
#
#
# Indices 1 2 3 4 5 6 
#
# 1 110.9846 63.3029 50.3887 -3.4839 -8.4098 -3.7358
# 2 63.3029 91.1144 49.5099 -5.0145 -7.8918 -6.9941
# 3 50.3887 49.5099 104.0363 1.0268 -7.2852 -7.5377
# 4 -3.4839 -5.0145 1.0268 39.4481 -2.9078 2.2116
# 5 -8.4098 -7.8918 -7.2852 -2.9078 33.8753 -8.4721
# 6 -3.7358 -6.9941 -7.5377 2.2116 -8.4721 30.3223
#
#
#
# Elastic Compliance Matrix: (Units=1/GPa)
#
#
# Indices 1 2 3 4 5 6 
#
# 1 0.015763 -0.009117 -0.003289 0.000429 0.000931 -0.000750
# 2 -0.009117 0.020568 -0.005019 0.001951 0.002338 0.002884
# 3 -0.003289 -0.005019 0.013884 -0.001315 0.001488 0.002400
# 4 0.000429 0.001951 -0.001315 0.025895 0.002228 -0.001090
# 5 0.000931 0.002338 0.001488 0.002228 0.033353 0.010180
# 6 -0.000750 0.002884 0.002400 -0.001090 0.010180 0.037072
#
#
# Mechanical properties :
#
#
# Convention : Reuss Voigt Hill
#
# Bulk Modulus (GPa) = 65.08378 70.28203 67.68290
# Shear Modulus (GPa) = 26.80857 30.25805 28.53331
#
# Velocity S-wave (km/s) = 3.78443 4.02054 3.90427
# Velocity P-wave (km/s) = 7.33932 7.68764 7.51549
#
# Compressibility (1/GPa) = 0.01536481
#
# Stress axis : x y z
#
# Youngs Moduli (GPa) = 63.44122 48.61928 72.02321
#
# Poissons Ratio (x) = 0.44328 0.23688
# Poissons Ratio (y) = 0.57842 0.36147
# Poissons Ratio (z) = 0.20865 0.24401
#
# Static dielectric constant tensor:
#      x y z
#    x 1.585690 0.008080 -0.020130 
#    y 0.008080 1.645910 0.011170 
#    z -0.020130 0.011170 1.668930 
# 
# From -- ./inp_files/354355.got.cif
#   From: 2010.05.17/outbox.cif.g08.bks.cpg/sg2_178_cif.got.tgz:354355.got - 2010.06.03 11:33:40.
