data_PCOD9021886
_publ_section_title
;
Structure prediction by ZEFSAII (Michael W. Deem and Ramdas Pophale) SiO2 
 PCOD9021886
Probable space group: P -1
;
_chemical_formula_sum "Si O2"
_cell_formula_units_Z 16
_cell_length_a 9.980818
_cell_length_b 11.637904
_cell_length_c 9.197637
_cell_angle_alpha 53.422922
_cell_angle_beta 118.531899
_cell_angle_gamma 103.060996
_cell_volume 751.146438
_symmetry_space_group_name_H-M "P -1"
_symmetry_group_IT_number 2
_symmetry_cell_setting 'triclinic'
loop_
_space_group_symop_operation_xyz
x,y,z
-x,-y,-z
loop_
_atom_site_type_symbol
_atom_site_label
_atom_site_fract_x
_atom_site_fract_y
_atom_site_fract_z
Si Si1 0.837894 0.307755 0.902602
Si Si2 0.574415 0.235949 0.596880
Si Si3 0.973520 0.172158 0.357699
Si Si4 0.595794 0.039245 0.195220
Si Si5 0.755444 0.636635 0.612942
Si Si6 0.101551 0.118384 0.031876
Si Si7 0.759457 0.123584 0.508691
Si Si8 0.690844 0.817692 0.177524
O O1 0.693273 0.277525 0.749928
O O2 0.856656 0.227749 0.127953
O O3 0.826638 0.477146 0.794380
O O4 0.988703 0.245782 0.940792
O O5 0.415914 0.336105 0.432828
O O6 0.518110 0.080977 0.726004
O O7 0.661720 0.218893 0.502246
O O8 0.126900 0.251731 0.353853
O O9 0.903508 0.200681 0.461179
O O10 0.191768 0.027527 0.273428
O O11 0.000000 0.000000 0.500000
O O12 0.486544 0.166257 0.972684
O O13 0.670188 0.087791 0.344043
O O14 0.700597 0.952903 0.192744
O O15 0.733382 0.677503 0.400487
O O16 0.208552 0.168888 0.922309
O O17 0.000000 0.000000 0.000000
#
# Coordination Sequence:
#
# PCOD9021886 Si02
#       8
#     2   2   2   2   2   2   2   2
#     4  12  27  46  73  98 143 186 227 287 348 418
#     4  11  24  45  71  99 139 183 235 281 343 412
#     4  12  26  45  74 106 138 181 236 283 347 410
#     4  10  22  39  69 104 139 177 232 289 346 399
#     4  11  27  48  71 100 142 188 230 275 357 417
#     4  12  23  40  67 105 139 173 236 289 345 399
#     4  12  24  39  71 109 139 172 234 301 339 398
#     4  10  22  38  66  97 138 177 232 275 346 409
#
# _framework density 21.300773
#
# number of rings (size 3 to 8) (size 9 to 14) (size 15 to 20)
#    0.000    0.750    3.750    3.375    8.750    0.500 
#    0.000    0.625    0.000    0.000    0.000    0.000 
#    0.000    0.000    0.000    0.000    0.000    0.000 
#
# Total GULP energy -89484.380049 kJ/mol
# GULP energy per Si atom -5592.773753 kJ/mol
# Density = 2.125229 g / cm^3
# Si number density = 21.300773 Si / 1000 Ang^3
#
#
#
# Elastic Constant Matrix: (Units=GPa)
#
#
# Indices 1 2 3 4 5 6 
#
# 1 180.4770 36.8676 54.8116 -5.9815 4.1233 -30.1838
# 2 36.8676 90.9774 64.0167 12.7804 6.2155 -1.9097
# 3 54.8116 64.0167 156.7315 -3.3819 4.3979 -14.0375
# 4 -5.9815 12.7804 -3.3819 38.5031 -5.5284 1.7443
# 5 4.1233 6.2155 4.3979 -5.5284 33.0904 5.9204
# 6 -30.1838 -1.9097 -14.0375 1.7443 5.9204 24.9360
#
#
#
# Elastic Compliance Matrix: (Units=1/GPa)
#
#
# Indices 1 2 3 4 5 6 
#
# 1 0.007947 -0.002480 -0.000853 0.001295 -0.001859 0.009300
# 2 -0.002480 0.017970 -0.006953 -0.007124 -0.002539 -0.004438
# 3 -0.000853 -0.006953 0.009929 0.002856 -0.000119 0.003852
# 4 0.001295 -0.007124 0.002856 0.029675 0.005907 -0.000849
# 5 -0.001859 -0.002539 -0.000119 0.005907 0.033894 -0.010972
# 6 0.009300 -0.004438 0.003852 -0.000849 -0.010972 0.055853
#
#
# Mechanical properties :
#
#
# Convention : Reuss Voigt Hill
#
# Bulk Modulus (GPa) = 65.46895 82.17530 73.82213
# Shear Modulus (GPa) = 27.63472 37.47192 32.55332
#
# Velocity S-wave (km/s) = 3.60579 4.19881 3.91355
# Velocity P-wave (km/s) = 6.93815 7.88473 7.42653
#
# Compressibility (1/GPa) = 0.01527442
#
# Stress axis : x y z
#
# Youngs Moduli (GPa) = 125.82692 55.64875 100.71970
#
# Poissons Ratio (x) = 0.13799 0.08596
# Poissons Ratio (y) = 0.31201 0.70026
# Poissons Ratio (z) = 0.10739 0.38690
#
# Static dielectric constant tensor:
#      x y z
#    x 1.839910 0.039340 0.031650 
#    y 0.039340 1.788600 0.039240 
#    z 0.031650 0.039240 1.790880 
# 
# From -- ./inp_files/502697.got.cif
#   From: 2010.05.17/outbox.cif.g08.bks.cpg/sg2_252_cif.got.tgz:502697.got - 2010.06.03 11:33:40.
