data_PCOD9021858
_publ_section_title
;
Structure prediction by ZEFSAII (Michael W. Deem and Ramdas Pophale) SiO2 
 PCOD9021858
Probable space group: P -1
;
_chemical_formula_sum "Si O2"
_cell_formula_units_Z 16
_cell_length_a 12.015610
_cell_length_b 11.709622
_cell_length_c 9.301415
_cell_angle_alpha 56.645411
_cell_angle_beta 101.515840
_cell_angle_gamma 134.281997
_cell_volume 744.515962
_symmetry_space_group_name_H-M "P -1"
_symmetry_group_IT_number 2
_symmetry_cell_setting 'triclinic'
loop_
_space_group_symop_operation_xyz
x,y,z
-x,-y,-z
loop_
_atom_site_type_symbol
_atom_site_label
_atom_site_fract_x
_atom_site_fract_y
_atom_site_fract_z
Si Si1 0.164987 0.201236 0.974528
Si Si2 0.938579 0.102068 0.428985
Si Si3 0.543995 0.422918 0.366676
Si Si4 0.326991 0.113759 0.266063
Si Si5 0.487262 0.677465 0.248297
Si Si6 0.750022 0.058625 0.158645
Si Si7 0.901418 0.611053 0.959459
Si Si8 0.409457 0.810678 0.886825
O O1 0.271655 0.381007 0.766436
O O2 0.285606 0.194933 0.083355
O O3 0.122375 0.267855 0.046746
O O4 0.000000 0.000000 0.000000
O O5 0.797742 0.004755 0.341757
O O6 0.072277 0.322463 0.247130
O O7 0.848919 0.062150 0.581362
O O8 0.000000 0.000000 0.500000
O O9 0.450357 0.273289 0.312299
O O10 0.460193 0.498694 0.318143
O O11 0.549510 0.351714 0.570709
O O12 0.426896 0.080221 0.235747
O O13 0.677257 0.891568 0.141365
O O14 0.407781 0.715338 0.094226
O O15 0.618821 0.058793 0.166159
O O16 0.919870 0.283391 0.014440
O O17 0.752388 0.381244 0.106027
#
# Coordination Sequence:
#
# PCOD9021858 Si02
#       8
#     2   2   2   2   2   2   2   2
#     4  12  23  36  63  96 131 160 212 272 325 369
#     4  10  22  38  66  92 126 161 210 269 311 370
#     4  11  22  40  64  95 130 159 215 271 320 371
#     4  12  22  41  64  99 128 167 214 261 325 379
#     4  11  23  39  64  95 129 165 209 272 318 370
#     4  10  23  43  63  93 128 174 217 249 318 390
#     4  10  22  40  64  90 128 170 212 255 316 381
#     4  12  24  40  69  91 131 176 212 260 308 394
#
# _framework density 21.490473999999999
#
# number of rings (size 3 to 8) (size 9 to 14) (size 15 to 20)
#    0.750    0.250    5.000    2.625    0.000    1.500 
#    0.000    0.000    0.000    0.750    0.000    0.000 
#    0.000    0.000    0.000    0.000    0.000    0.000 
#
# Total GULP energy -89192.448320 kJ/mol
# GULP energy per Si atom -5574.528020 kJ/mol
# Density = 2.144156 g / cm^3
# Si number density = 21.490474 Si / 1000 Ang^3
#
#
#
# Elastic Constant Matrix: (Units=GPa)
#
#
# Indices 1 2 3 4 5 6 
#
# 1 120.6460 0.1199 35.4311 3.5207 -6.9533 -9.5011
# 2 0.1199 48.1860 23.2395 4.7115 -1.1876 4.3153
# 3 35.4311 23.2395 84.8259 4.4238 -22.3632 -0.3824
# 4 3.5207 4.7115 4.4238 29.5284 6.9928 -4.6124
# 5 -6.9533 -1.1876 -22.3632 6.9928 31.3834 -6.3050
# 6 -9.5011 4.3153 -0.3824 -4.6124 -6.3050 28.3598
#
#
#
# Elastic Compliance Matrix: (Units=1/GPa)
#
#
# Indices 1 2 3 4 5 6 
#
# 1 0.009895 0.002059 -0.004820 -0.000220 -0.000558 0.002777
# 2 0.002059 0.025786 -0.009320 -0.002401 -0.005681 -0.005013
# 3 -0.004820 -0.009320 0.020416 -0.004029 0.014560 0.002660
# 4 -0.000220 -0.002401 -0.004029 0.038039 -0.010673 0.004051
# 5 -0.000558 -0.005681 0.014560 -0.010673 0.046168 0.009402
# 6 0.002777 -0.005013 0.002660 0.004051 0.009402 0.039739
#
#
# Mechanical properties :
#
#
# Convention : Reuss Voigt Hill
#
# Bulk Modulus (GPa) = 31.31261 41.24877 36.28069
# Shear Modulus (GPa) = 23.27192 30.84548 27.05870
#
# Velocity S-wave (km/s) = 3.29431 3.79266 3.55223
# Velocity P-wave (km/s) = 5.39185 6.19796 5.80890
#
# Compressibility (1/GPa) = 0.03193601
#
# Stress axis : x y z
#
# Youngs Moduli (GPa) = 101.05834 38.78011 48.98064
#
# Poissons Ratio (x) = -0.07986 0.23610
# Poissons Ratio (y) = -0.20811 0.45650
# Poissons Ratio (z) = 0.48713 0.36143
#
# Static dielectric constant tensor:
#      x y z
#    x 1.828040 0.050970 -0.058660 
#    y 0.050970 1.806960 -0.034190 
#    z -0.058660 -0.034190 1.843750 
# 
# From -- ./inp_files/262107.got.cif
#   From: 2010.05.17/outbox.cif.g08.bks.cpg/sg2_132_cif.got.tgz:262107.got - 2010.06.03 11:33:40.
