data_PCOD9021894
_publ_section_title
;
Structure prediction by ZEFSAII (Michael W. Deem and Ramdas Pophale) SiO2 
 PCOD9021894
Probable space group: P -1
;
_chemical_formula_sum "Si O2"
_cell_formula_units_Z 16
_cell_length_a 11.316815
_cell_length_b 20.282079
_cell_length_c 9.004482
_cell_angle_alpha 152.783428
_cell_angle_beta 124.201104
_cell_angle_gamma 52.980650
_cell_volume 752.705753
_symmetry_space_group_name_H-M "P -1"
_symmetry_group_IT_number 2
_symmetry_cell_setting 'triclinic'
loop_
_space_group_symop_operation_xyz
x,y,z
-x,-y,-z
loop_
_atom_site_type_symbol
_atom_site_label
_atom_site_fract_x
_atom_site_fract_y
_atom_site_fract_z
Si Si1 0.635132 0.372444 0.405627
Si Si2 0.960412 0.383886 0.127913
Si Si3 0.935351 0.459881 0.721581
Si Si4 0.365319 0.949761 0.731913
Si Si5 0.054848 0.176836 0.040361
Si Si6 0.270636 0.699318 0.344260
Si Si7 0.637342 0.049312 0.625780
Si Si8 0.035707 0.057859 0.300995
O O1 0.500000 0.500000 0.500000
O O2 0.782988 0.418580 0.556747
O O3 0.637815 0.358543 0.559051
O O4 0.637059 0.211356 0.016837
O O5 0.069051 0.397601 0.098980
O O6 0.989887 0.236530 0.953962
O O7 0.000000 0.500000 0.500000
O O8 0.789617 0.423219 0.032984
O O9 0.039314 0.315053 0.419879
O O10 0.000000 0.500000 0.000000
O O11 0.346262 0.797309 0.489028
O O12 0.375309 0.940973 0.542733
O O13 0.500000 0.000000 0.000000
O O14 0.219897 0.078641 0.934067
O O15 0.967239 0.069280 0.835344
O O16 0.107528 0.804051 0.490758
O O17 0.794934 0.935645 0.558622
O O18 0.500000 0.000000 0.500000
O O19 0.000000 0.000000 0.000000
#
# Coordination Sequence:
#
# PCOD9021894 Si02
#       8
#     2   2   2   2   2   2   2   2
#     4  12  27  47  67 105 150 188 235 301 362 430
#     4  10  22  38  66  98 135 177 234 286 339 416
#     4  11  22  43  72 101 137 187 244 282 348 434
#     4  11  26  44  70 102 144 181 231 300 364 426
#     4  10  22  43  69 102 141 175 242 291 354 412
#     4  11  22  44  72 102 136 185 237 286 363 417
#     4  12  26  47  73 109 144 188 241 297 368 425
#     4  11  21  40  77 101 135 179 237 303 342 421
#
# _framework density 21.256647000000001
#
# number of rings (size 3 to 8) (size 9 to 14) (size 15 to 20)
#    0.000    1.000    3.750    2.250    3.500    6.000 
#    0.000    0.625    0.000    0.000    0.000    0.000 
#    0.000    0.000    0.000    0.000    0.000    0.000 
#
# Total GULP energy -89393.744018 kJ/mol
# GULP energy per Si atom -5587.109001 kJ/mol
# Density = 2.120827 g / cm^3
# Si number density = 21.256647 Si / 1000 Ang^3
#
#
#
# Elastic Constant Matrix: (Units=GPa)
#
#
# Indices 1 2 3 4 5 6 
#
# 1 148.3792 61.5274 52.9081 -19.6505 25.6609 18.8279
# 2 61.5274 133.1263 46.7163 -26.4923 1.3842 16.7676
# 3 52.9081 46.7163 129.4148 -28.2918 13.9468 1.5401
# 4 -19.6505 -26.4923 -28.2918 43.1478 -0.4807 -0.6982
# 5 25.6609 1.3842 13.9468 -0.4807 38.9355 -3.2681
# 6 18.8279 16.7676 1.5401 -0.6982 -3.2681 36.5778
#
#
#
# Elastic Compliance Matrix: (Units=1/GPa)
#
#
# Indices 1 2 3 4 5 6 
#
# 1 0.010764 -0.003326 -0.002154 0.001301 -0.006565 -0.004487
# 2 -0.003326 0.010830 -0.001920 0.003854 0.002300 -0.002893
# 3 -0.002154 -0.001920 0.010552 0.004758 -0.002111 0.001447
# 4 0.001301 0.003854 0.004758 0.029190 -0.002532 -0.002306
# 5 -0.006565 0.002300 -0.002111 -0.002532 0.031085 0.005143
# 6 -0.004487 -0.002893 0.001447 -0.002306 0.005143 0.031329
#
#
# Mechanical properties :
#
#
# Convention : Reuss Voigt Hill
#
# Bulk Modulus (GPa) = 57.65897 81.46932 69.56414
# Shear Modulus (GPa) = 34.64191 40.38344 37.51267
#
# Velocity S-wave (km/s) = 4.04133 4.36340 4.20545
# Velocity P-wave (km/s) = 6.99718 7.98720 7.50853
#
# Compressibility (1/GPa) = 0.01734336
#
# Stress axis : x y z
#
# Youngs Moduli (GPa) = 92.90161 92.33246 94.77185
#
# Poissons Ratio (x) = 0.30714 0.20418
# Poissons Ratio (y) = 0.30903 0.18200
# Poissons Ratio (z) = 0.20015 0.17732
#
# Static dielectric constant tensor:
#      x y z
#    x 1.774880 0.015890 0.002920 
#    y 0.015890 1.803300 0.016480 
#    z 0.002920 0.016480 1.913320 
# 
# From -- ./inp_files/283532.got.cif
#   From: 2010.05.17/outbox.cif.g08.bks.cpg/sg2_142_cif.got.tgz:283532.got - 2010.06.03 11:33:40.
