data_PCOD9021950
_publ_section_title
;
Structure prediction by ZEFSAII (Michael W. Deem and Ramdas Pophale) SiO2 
 PCOD9021950
Probable space group: P -1
;
_chemical_formula_sum "Si O2"
_cell_formula_units_Z 14
_cell_length_a 5.122852
_cell_length_b 22.166494
_cell_length_c 13.981027
_cell_angle_alpha 22.570290
_cell_angle_beta 78.706713
_cell_angle_gamma 89.755694
_cell_volume 527.725166
_symmetry_space_group_name_H-M "P -1"
_symmetry_group_IT_number 2
_symmetry_cell_setting 'triclinic'
loop_
_space_group_symop_operation_xyz
x,y,z
-x,-y,-z
loop_
_atom_site_type_symbol
_atom_site_label
_atom_site_fract_x
_atom_site_fract_y
_atom_site_fract_z
Si Si1 0.205232 0.283641 0.962929
Si Si2 0.204392 0.618151 0.398386
Si Si3 0.315748 0.500771 0.251043
Si Si4 0.247119 0.941528 0.830648
Si Si5 0.927682 0.660305 0.745111
Si Si6 0.448378 0.240829 0.507773
Si Si7 0.206353 0.769034 0.754730
O O1 0.328365 0.490779 0.618558
O O2 0.485763 0.325288 0.951348
O O3 0.055747 0.168468 0.048114
O O4 0.929812 0.207093 0.171191
O O5 0.000000 0.500000 0.500000
O O6 0.989146 0.620535 0.493711
O O7 0.365851 0.809088 0.058264
O O8 0.448881 0.367123 0.408644
O O9 0.240370 0.591980 0.032829
O O10 0.212926 0.042278 0.779563
O O11 0.493531 0.079781 0.536701
O O12 0.238819 0.769529 0.502549
O O13 0.960299 0.740011 0.732812
O O14 0.647004 0.661049 0.712612
O O15 0.000000 0.500000 0.000000
#
# Coordination Sequence:
#
# PCOD9021950 Si02
#       7
#     2   2   2   2   2   2   2
#     4  10  22  43  68  94 131 177 227 275 334 402
#     4   9  22  46  66  90 134 177 227 267 339 404
#     4  11  23  41  69  98 127 175 227 274 333 406
#     4  10  23  43  63  99 135 175 222 280 339 396
#     4  11  21  39  65  97 141 180 220 268 343 410
#     4  11  25  41  66 102 136 177 223 280 340 399
#     4  10  22  38  67  97 133 170 223 281 331 396
#
# _framework density 26.528960000000001
#
# number of rings (size 3 to 8) (size 9 to 14) (size 15 to 20)
#    0.000    1.714    1.429    1.714    8.000    3.429 
#   20.571    0.714    0.000    0.000    0.000    0.000 
#    0.000    0.000    0.000    0.000    0.000    0.000 
#
# Total GULP energy -77986.256263 kJ/mol
# GULP energy per Si atom -5570.446876 kJ/mol
# Density = 2.646858 g / cm^3
# Si number density = 26.528960 Si / 1000 Ang^3
#
#
#
# Elastic Constant Matrix: (Units=GPa)
#
#
# Indices 1 2 3 4 5 6 
#
# 1 89.4571 10.7317 13.6681 28.1955 -7.4776 0.9398
# 2 10.7317 78.3223 32.7137 10.1631 -26.1207 9.2811
# 3 13.6681 32.7137 124.2952 9.2468 6.2700 -12.9813
# 4 28.1955 10.1631 9.2468 35.5246 10.3175 -6.1925
# 5 -7.4776 -26.1207 6.2700 10.3175 13.1398 9.2867
# 6 0.9398 9.2811 -12.9813 -6.1925 9.2867 39.0007
#
#
#
# Elastic Compliance Matrix: (Units=1/GPa)
#
#
# Indices 1 2 3 4 5 6 
#
# 1 0.010650 -0.008631 0.002652 -0.000842 -0.016232 0.006411
# 2 -0.008631 -0.001503 0.002856 0.017790 -0.031620 0.011870
# 3 0.002652 0.002856 0.006676 -0.009088 0.013360 -0.003146
# 4 -0.000842 0.017790 -0.009088 0.011620 0.040770 -0.015101
# 5 -0.016232 -0.031620 0.013360 0.040770 -0.057342 0.032490
# 6 0.006411 0.011870 -0.003146 -0.015101 0.032490 0.011480
#
#
# Mechanical properties :
#
#
# Convention : Reuss Voigt Hill
#
# Bulk Modulus (GPa) = 104.42821 45.14464 74.78643
# Shear Modulus (GPa) = -556.76225 33.19707 -261.78259
#
# Velocity S-wave (km/s) = -14.50259 3.54128 -9.94446
# Velocity P-wave (km/s) = 15.52367 5.81162 10.17864
#
# Compressibility (1/GPa) = 0.00957596
#
# Stress axis : x y z
#
# Youngs Moduli (GPa) = 93.89787 -665.35453 149.79715
#
# Poissons Ratio (x) = -5.74258 -0.39719
# Poissons Ratio (y) = 0.81042 -0.42782
# Poissons Ratio (z) = -0.24897 1.90026
#
# Static dielectric constant tensor:
#      x y z
#    x 2.117890 -0.076710 -0.000510 
#    y -0.076710 2.229200 -0.009380 
#    z -0.000510 -0.009380 2.246550 
# 
# From -- ./inp_files/65985.got.cif
#   From: 2010.05.17/outbox.cif.g08.bks.cpg/sg2_33_cif.got.tgz:65985.got - 2010.06.03 11:33:40.
