data_PCOD9021827
_publ_section_title
;
Structure prediction by ZEFSAII (Michael W. Deem and Ramdas Pophale) SiO2 
 PCOD9021827
Probable space group: P -1
;
_chemical_formula_sum "Si O2"
_cell_formula_units_Z 12
_cell_length_a 14.307541
_cell_length_b 8.800261
_cell_length_c 5.972742
_cell_angle_alpha 82.069529
_cell_angle_beta 40.905970
_cell_angle_gamma 91.010511
_cell_volume 479.038947
_symmetry_space_group_name_H-M "P -1"
_symmetry_group_IT_number 2
_symmetry_cell_setting 'triclinic'
loop_
_space_group_symop_operation_xyz
x,y,z
-x,-y,-z
loop_
_atom_site_type_symbol
_atom_site_label
_atom_site_fract_x
_atom_site_fract_y
_atom_site_fract_z
Si Si1 0.355831 0.542602 0.653020
Si Si2 0.118107 0.626926 0.378286
Si Si3 0.718384 0.800399 0.273337
Si Si4 0.300503 0.103331 0.210431
Si Si5 0.957433 0.102173 0.792965
Si Si6 0.754437 0.236174 0.482643
O O1 0.500000 0.500000 0.500000
O O2 0.271344 0.380638 0.731618
O O3 0.366574 0.684492 0.431927
O O4 0.266459 0.602516 0.001204
O O5 0.149423 0.625311 0.580368
O O6 0.000000 0.500000 0.500000
O O7 0.076010 0.794014 0.375294
O O8 0.652964 0.826766 0.635872
O O9 0.868195 0.927011 0.974948
O O10 0.648804 0.836153 0.146833
O O11 0.127907 0.116025 0.518304
O O12 0.315260 0.921865 0.231585
O O13 0.871043 0.180078 0.121160
#
# Coordination Sequence:
#
# PCOD9021827 Si02
#       6
#     2   2   2   2   2   2
#     4  11  28  47  66  98 145 191 238 290 354 422
#     4  11  24  40  71 103 142 177 235 293 359 421
#     4  11  23  42  68  98 133 189 236 282 348 415
#     4  11  23  41  71 103 143 181 230 295 353 430
#     4  10  22  38  66 100 144 177 228 289 356 422
#     4  10  23  43  64 100 138 182 234 289 352 416
#
# _framework density 25.050153000000002
#
# number of rings (size 3 to 8) (size 9 to 14) (size 15 to 20)
#    0.000    1.333    1.667    3.500   11.667    2.000 
#    0.000    8.333    0.000    0.000    0.000    0.000 
#    0.000    0.000    0.000    0.000    0.000    0.000 
#
# Total GULP energy -66977.333460 kJ/mol
# GULP energy per Si atom -5581.444455 kJ/mol
# Density = 2.499314 g / cm^3
# Si number density = 25.050153 Si / 1000 Ang^3
#
#
#
# Elastic Constant Matrix: (Units=GPa)
#
#
# Indices 1 2 3 4 5 6 
#
# 1 138.6626 61.2967 61.7574 20.7485 20.2770 -23.5593
# 2 61.2967 149.5603 44.0386 17.5854 10.3104 -16.5230
# 3 61.7574 44.0386 92.7873 13.5588 17.2316 -1.5950
# 4 20.7485 17.5854 13.5588 24.5308 -0.5396 9.7342
# 5 20.2770 10.3104 17.2316 -0.5396 51.1736 11.6131
# 6 -23.5593 -16.5230 -1.5950 9.7342 11.6131 53.2945
#
#
#
# Elastic Compliance Matrix: (Units=1/GPa)
#
#
# Indices 1 2 3 4 5 6 
#
# 1 0.014822 -0.001410 -0.006226 -0.011924 -0.005742 0.009358
# 2 -0.001410 0.009028 -0.002252 -0.005408 -0.001328 0.003386
# 3 -0.006226 -0.002252 0.016566 -0.001443 -0.002169 -0.002219
# 4 -0.011924 -0.005408 -0.001443 0.064236 0.011811 -0.021297
# 5 -0.005742 -0.001328 -0.002169 0.011811 0.025367 -0.010700
# 6 0.009358 0.003386 -0.002219 -0.021297 -0.010700 0.030105
#
#
# Mechanical properties :
#
#
# Convention : Reuss Voigt Hill
#
# Bulk Modulus (GPa) = 48.44890 79.46617 63.95754
# Shear Modulus (GPa) = 26.76943 40.06094 33.41518
#
# Velocity S-wave (km/s) = 3.27254 4.00337 3.65626
# Velocity P-wave (km/s) = 5.80191 7.29116 6.58875
#
# Compressibility (1/GPa) = 0.02064030
#
# Stress axis : x y z
#
# Youngs Moduli (GPa) = 67.46811 110.76054 60.36495
#
# Poissons Ratio (x) = 0.15612 0.37586
# Poissons Ratio (y) = 0.09510 0.13594
# Poissons Ratio (z) = 0.42009 0.24942
#
# Static dielectric constant tensor:
#      x y z
#    x 2.190690 -0.027700 0.125470 
#    y -0.027700 1.974990 -0.074290 
#    z 0.125470 -0.074290 2.065160 
# 
# From -- ./inp_files/90241.got.cif
#   From: 2010.05.17/outbox.cif.g08.bks.cpg/sg2_46_cif.got.tgz:90241.got - 2010.06.03 11:33:40.
