data_PCOD9021363
_publ_section_title
;
Structure prediction by ZEFSAII (Michael W. Deem and Ramdas Pophale) SiO2 
 PCOD9021363
Probable space group: P -1
;
_chemical_formula_sum "Si O2"
_cell_formula_units_Z 16
_cell_length_a 13.676045
_cell_length_b 6.920803
_cell_length_c 22.814388
_cell_angle_alpha 116.496158
_cell_angle_beta 20.162789
_cell_angle_gamma 116.877212
_cell_volume 662.240792
_symmetry_space_group_name_H-M "P -1"
_symmetry_group_IT_number 2
_symmetry_cell_setting 'triclinic'
loop_
_space_group_symop_operation_xyz
x,y,z
-x,-y,-z
loop_
_atom_site_type_symbol
_atom_site_label
_atom_site_fract_x
_atom_site_fract_y
_atom_site_fract_z
Si Si1 0.916832 0.368610 0.718570
Si Si2 0.302340 0.407629 0.234158
Si Si3 0.716786 0.374362 0.599946
Si Si4 0.869058 0.361491 0.204270
Si Si5 0.206014 0.841104 0.655435
Si Si6 0.619775 0.777375 0.632657
Si Si7 0.707324 0.858805 0.130691
Si Si8 0.838706 0.199178 0.867828
O O1 0.137483 0.590482 0.636173
O O2 0.092480 0.197961 0.562990
O O3 0.697541 0.455331 0.807559
O O4 0.799382 0.256649 0.829158
O O5 0.278077 0.569640 0.325760
O O6 0.983177 0.283837 0.407172
O O7 0.549266 0.250081 0.070564
O O8 0.665358 0.596910 0.629321
O O9 0.429324 0.214709 0.739855
O O10 0.811723 0.208466 0.271890
O O11 0.629020 0.310468 0.284023
O O12 0.906040 0.614358 0.233390
O O13 0.178398 0.320622 0.998938
O O14 0.500000 0.000000 0.500000
O O15 0.951591 0.973393 0.791626
O O16 0.514185 0.987981 0.749866
O O17 0.000000 0.000000 0.000000
#
# Coordination Sequence:
#
# PCOD9021363 Si02
#       8
#     2   2   2   2   2   2   2   2
#     4  10  23  42  61  94 125 164 218 261 308 379
#     4  10  22  42  66  89 129 173 212 264 305 378
#     4  10  22  43  63  93 132 166 214 259 315 380
#     4  10  22  38  60  96 129 155 213 263 311 391
#     4  11  24  40  65  95 128 166 211 264 319 378
#     4  10  22  39  65  93 128 171 201 261 332 366
#     4  10  22  38  62  96 126 161 208 262 316 380
#     4  11  22  41  67  88 126 173 207 262 324 362
#
# _framework density 24.160397
#
# number of rings (size 3 to 8) (size 9 to 14) (size 15 to 20)
#    0.000    1.750    1.250    1.875    1.750   12.500 
#    0.000   11.875    0.000    0.000    0.000    0.000 
#    0.000    0.000    0.000    0.000    0.000    0.000 
#
# Total GULP energy -89297.464903 kJ/mol
# GULP energy per Si atom -5581.091556 kJ/mol
# Density = 2.410541 g / cm^3
# Si number density = 24.160397 Si / 1000 Ang^3
#
#
#
# Elastic Constant Matrix: (Units=GPa)
#
#
# Indices 1 2 3 4 5 6 
#
# 1 87.3290 12.3909 -2.7494 1.1144 -3.0964 -17.9535
# 2 12.3909 115.5047 38.7226 8.3976 -1.8242 -18.4110
# 3 -2.7494 38.7226 122.5510 8.0493 -6.2759 -20.0260
# 4 1.1144 8.3976 8.0493 34.9973 -23.0062 -0.0807
# 5 -3.0964 -1.8242 -6.2759 -23.0062 -1.2034 2.5020
# 6 -17.9535 -18.4110 -20.0260 -0.0807 2.5020 25.8192
#
#
#
# Elastic Compliance Matrix: (Units=1/GPa)
#
#
# Indices 1 2 3 4 5 6 
#
# 1 0.013883 -0.000400 0.002323 -0.001221 -0.000557 0.011221
# 2 -0.000400 0.010297 -0.002299 0.000233 0.003272 0.004965
# 3 0.002323 -0.002299 0.010375 -0.002071 -0.000276 0.008043
# 4 -0.001221 0.000233 -0.002071 0.002956 -0.039674 0.001564
# 5 -0.000557 0.003272 -0.000276 -0.039674 -0.059307 0.007355
# 6 0.011221 0.004965 0.008043 0.001564 0.007355 0.055604
#
#
# Mechanical properties :
#
#
# Convention : Reuss Voigt Hill
#
# Bulk Modulus (GPa) = 29.58206 46.90143 38.24174
# Shear Modulus (GPa) = 109.10232 30.39068 69.74650
#
# Velocity S-wave (km/s) = 6.72722 3.55050 5.37873
# Velocity P-wave (km/s) = 8.52123 6.02185 7.37814
#
# Compressibility (1/GPa) = 0.03380427
#
# Stress axis : x y z
#
# Youngs Moduli (GPa) = 72.02830 97.11137 96.38905
#
# Poissons Ratio (x) = 0.03881 -0.22391
# Poissons Ratio (y) = 0.02878 0.22160
# Poissons Ratio (z) = -0.16732 0.22326
#
# Static dielectric constant tensor:
#      x y z
#    x 2.215300 -0.083090 0.086020 
#    y -0.083090 2.557230 -0.487680 
#    z 0.086020 -0.487680 2.319680 
# 
# From -- ./inp_files/604687.got.cif
#   From: 2010.05.17/outbox.cif.g08.bks.cpg/sg2_303_cif.got.tgz:604687.got - 2010.06.03 11:33:40.
