data_PCOD9021220
_publ_section_title
;
Structure prediction by ZEFSAII (Michael W. Deem and Ramdas Pophale) SiO2 
 PCOD9021220
Probable space group: P -1
;
_chemical_formula_sum "Si O2"
_cell_formula_units_Z 14
_cell_length_a 8.099987
_cell_length_b 5.350406
_cell_length_c 16.347919
_cell_angle_alpha 116.868672
_cell_angle_beta 63.780876
_cell_angle_gamma 90.546569
_cell_volume 550.743278
_symmetry_space_group_name_H-M "P -1"
_symmetry_group_IT_number 2
_symmetry_cell_setting 'triclinic'
loop_
_space_group_symop_operation_xyz
x,y,z
-x,-y,-z
loop_
_atom_site_type_symbol
_atom_site_label
_atom_site_fract_x
_atom_site_fract_y
_atom_site_fract_z
Si Si1 0.256954 0.784866 0.382703
Si Si2 0.074298 0.889443 0.605872
Si Si3 0.196783 0.637109 0.895899
Si Si4 0.102371 0.107180 0.873969
Si Si5 0.211370 0.004557 0.185550
Si Si6 0.468821 0.845301 0.567682
Si Si7 0.421595 0.443116 0.151814
O O1 0.189295 0.719041 0.478398
O O2 0.397680 0.532826 0.266341
O O3 0.371300 0.043869 0.398430
O O4 0.068969 0.861834 0.378021
O O5 0.238704 0.947616 0.638440
O O6 0.921525 0.803507 0.686744
O O7 0.241216 0.293817 0.840034
O O8 0.359466 0.713030 0.926907
O O9 0.191553 0.779475 0.829825
O O10 0.990915 0.750841 0.999097
O O11 0.932702 0.134465 0.853195
O O12 0.358164 0.733302 0.155103
O O13 0.295261 0.213102 0.140150
O O14 0.500000 0.500000 0.500000
O O15 0.500000 0.000000 0.500000
#
# Coordination Sequence:
#
# PCOD9021220 Si02
#       7
#     2   2   2   2   2   2   2
#     4   9  21  41  63  87 129 170 212 263 316 372
#     4   9  21  40  61  86 127 167 208 262 309 373
#     4  10  22  42  67  92 127 166 208 256 325 388
#     4  10  22  42  66  94 125 168 206 258 325 383
#     4  11  24  40  62  95 126 165 214 261 321 377
#     4  10  22  38  58  88 113 160 219 254 306 370
#     4  11  24  40  63  95 126 166 215 259 323 375
#
# _framework density 25.420190999999999
#
# number of rings (size 3 to 8) (size 9 to 14) (size 15 to 20)
#    0.000    2.000    0.000    1.714    2.000   12.571 
#    5.143    0.000    0.000    0.000    0.000    0.000 
#    0.000    0.000    0.000    0.000    0.000    0.000 
#
# Total GULP energy -78012.588128 kJ/mol
# GULP energy per Si atom -5572.327723 kJ/mol
# Density = 2.536233 g / cm^3
# Si number density = 25.420191 Si / 1000 Ang^3
#
#
#
# Elastic Constant Matrix: (Units=GPa)
#
#
# Indices 1 2 3 4 5 6 
#
# 1 119.1324 21.8264 9.7659 -3.8345 -16.2463 -7.0840
# 2 21.8264 130.8935 12.4577 -6.1414 -5.1318 3.7432
# 3 9.7659 12.4577 66.8108 13.1595 -1.0520 1.8826
# 4 -3.8345 -6.1414 13.1595 -5.9147 9.6850 7.0324
# 5 -16.2463 -5.1318 -1.0520 9.6850 34.5015 0.2440
# 6 -7.0840 3.7432 1.8826 7.0324 0.2440 37.4899
#
#
#
# Elastic Compliance Matrix: (Units=1/GPa)
#
#
# Indices 1 2 3 4 5 6 
#
# 1 0.009410 -0.001300 -0.001300 0.000907 0.003931 0.001777
# 2 -0.001300 0.007733 -0.000268 -0.004827 0.001886 -0.000111
# 3 -0.001300 -0.000268 0.012114 0.015872 -0.004711 -0.003774
# 4 0.000907 -0.004827 0.015872 -0.076973 0.021700 0.014154
# 5 0.003931 0.001886 -0.004711 0.021700 0.024905 -0.003442
# 6 0.001777 -0.000111 -0.003774 0.014154 -0.003442 0.024578
#
#
# Mechanical properties :
#
#
# Convention : Reuss Voigt Hill
#
# Bulk Modulus (GPa) = 42.51600 44.99299 43.75449
# Shear Modulus (GPa) = 325.92236 31.40113 178.66175
#
# Velocity S-wave (km/s) = 11.33544 3.51847 8.39261
# Velocity P-wave (km/s) = 13.71440 5.85187 10.54346
#
# Compressibility (1/GPa) = 0.02352056
#
# Stress axis : x y z
#
# Youngs Moduli (GPa) = 106.27451 129.32185 82.55151
#
# Poissons Ratio (x) = 0.16805 0.10731
# Poissons Ratio (y) = 0.13810 0.02215
# Poissons Ratio (z) = 0.13814 0.03469
#
# Static dielectric constant tensor:
#      x y z
#    x 1.998990 0.109080 -0.050860 
#    y 0.109080 1.557650 0.210580 
#    z -0.050860 0.210580 2.004130 
# 
# From -- ./inp_files/553013.got.cif
#   From: 2010.05.17/outbox.cif.g08.bks.cpg/sg2_277_cif.got.tgz:553013.got - 2010.06.03 11:33:40.
