data_PCOD9021576
_publ_section_title
;
Structure prediction by ZEFSAII (Michael W. Deem and Ramdas Pophale) SiO2 
 PCOD9021576
Probable space group: P -1
;
_chemical_formula_sum "Si O2"
_cell_formula_units_Z 16
_cell_length_a 22.321513
_cell_length_b 8.879425
_cell_length_c 8.391812
_cell_angle_alpha 60.717666
_cell_angle_beta 107.706255
_cell_angle_gamma 148.462338
_cell_volume 735.292579
_symmetry_space_group_name_H-M "P -1"
_symmetry_group_IT_number 2
_symmetry_cell_setting 'triclinic'
loop_
_space_group_symop_operation_xyz
x,y,z
-x,-y,-z
loop_
_atom_site_type_symbol
_atom_site_label
_atom_site_fract_x
_atom_site_fract_y
_atom_site_fract_z
Si Si1 0.521647 0.209180 0.788963
Si Si2 0.080526 0.575381 0.147244
Si Si3 0.253514 0.179968 0.180775
Si Si4 0.307147 0.486894 0.517086
Si Si5 0.287704 0.596738 0.783800
Si Si6 0.123420 0.809925 0.600603
Si Si7 0.054648 0.259118 0.786009
Si Si8 0.105294 0.244102 0.333183
O O1 0.613365 0.542347 0.788335
O O2 0.589262 0.305720 0.633093
O O3 0.390867 0.955946 0.755957
O O4 0.500000 0.000000 0.000000
O O5 0.110444 0.454334 0.171661
O O6 0.994328 0.370466 0.337444
O O7 0.199465 0.939604 0.120047
O O8 0.000000 0.500000 0.000000
O O9 0.173072 0.959402 0.385976
O O10 0.253936 0.373633 0.004501
O O11 0.333069 0.603628 0.658085
O O12 0.224982 0.446550 0.395846
O O13 0.225910 0.125663 0.633642
O O14 0.173163 0.441029 0.725130
O O15 0.091884 0.534576 0.729684
O O16 0.945878 0.003135 0.710351
O O17 0.000000 0.000000 0.000000
O O18 0.000000 0.000000 0.500000
#
# Coordination Sequence:
#
# PCOD9021576 Si02
#       8
#     2   2   2   2   2   2   2   2
#     4   9  22  41  68  92 121 173 219 267 318 380
#     4  12  23  39  60  94 132 171 206 261 325 391
#     4  10  22  38  63  91 123 166 218 260 314 377
#     4  11  23  41  67  94 128 169 218 266 321 388
#     4  11  22  43  66  92 128 169 223 264 314 390
#     4  11  23  38  61  92 132 172 203 260 329 375
#     4  12  26  38  62 101 132 166 211 268 321 386
#     4  12  23  39  61  94 132 164 207 259 333 384
#
# _framework density 21.760045000000002
#
# number of rings (size 3 to 8) (size 9 to 14) (size 15 to 20)
#    0.000    1.000    2.500    4.500    8.750    0.000 
#    0.000    2.500    2.750    1.500    0.000    0.000 
#    0.000    0.000    0.000    0.000    0.000    0.000 
#
# Total GULP energy -89258.253743 kJ/mol
# GULP energy per Si atom -5578.640859 kJ/mol
# Density = 2.171052 g / cm^3
# Si number density = 21.760045 Si / 1000 Ang^3
#
#
#
# Elastic Constant Matrix: (Units=GPa)
#
#
# Indices 1 2 3 4 5 6 
#
# 1 50.4886 29.1969 18.6432 -18.3410 11.2246 -10.9453
# 2 29.1969 171.6434 36.2004 -2.4236 10.5639 -11.9217
# 3 18.6432 36.2004 93.6602 -5.2219 3.5278 -11.3083
# 4 -18.3410 -2.4236 -5.2219 34.7714 -3.3044 0.5541
# 5 11.2246 10.5639 3.5278 -3.3044 35.0307 -8.3837
# 6 -10.9453 -11.9217 -11.3083 0.5541 -8.3837 31.9293
#
#
#
# Elastic Compliance Matrix: (Units=1/GPa)
#
#
# Indices 1 2 3 4 5 6 
#
# 1 0.031162 -0.003668 -0.002943 0.015104 -0.005593 0.006540
# 2 -0.003668 0.006917 -0.001961 -0.001828 -0.000776 0.000459
# 3 -0.002943 -0.001961 0.012344 0.000214 0.001003 0.002891
# 4 0.015104 -0.001828 0.000214 0.036576 0.000088 0.003959
# 5 -0.005593 -0.000776 0.001003 0.000088 0.032050 0.006562
# 6 0.006540 0.000459 0.002891 0.003959 0.006562 0.036411
#
#
# Mechanical properties :
#
#
# Convention : Reuss Voigt Hill
#
# Bulk Modulus (GPa) = 30.04831 53.76369 41.90600
# Shear Modulus (GPa) = 27.21868 35.79638 31.50753
#
# Velocity S-wave (km/s) = 3.54058 4.06032 3.80933
# Velocity P-wave (km/s) = 5.52750 6.83687 6.21675
#
# Compressibility (1/GPa) = 0.03327974
#
# Stress axis : x y z
#
# Youngs Moduli (GPa) = 32.08989 144.56365 81.01350
#
# Poissons Ratio (x) = 0.53033 0.23840
# Poissons Ratio (y) = 0.11772 0.15885
# Poissons Ratio (z) = 0.09443 0.28345
#
# Static dielectric constant tensor:
#      x y z
#    x 1.789550 -0.012010 -0.004200 
#    y -0.012010 1.911330 0.090480 
#    z -0.004200 0.090480 1.978710 
# 
# From -- ./inp_files/272551.got.cif
#   From: 2010.05.17/outbox.cif.g08.bks.cpg/sg2_137_cif.got.tgz:272551.got - 2010.06.03 11:33:40.
