data_PCOD9021932
_publ_section_title
;
Structure prediction by ZEFSAII (Michael W. Deem and Ramdas Pophale) SiO2 
 PCOD9021932
Probable space group: P -1
;
_chemical_formula_sum "Si O2"
_cell_formula_units_Z 14
_cell_length_a 24.218925
_cell_length_b 5.178988
_cell_length_c 5.852517
_cell_angle_alpha 90.941744
_cell_angle_beta 53.322861
_cell_angle_gamma 102.937225
_cell_volume 567.299869
_symmetry_space_group_name_H-M "P -1"
_symmetry_group_IT_number 2
_symmetry_cell_setting 'triclinic'
loop_
_space_group_symop_operation_xyz
x,y,z
-x,-y,-z
loop_
_atom_site_type_symbol
_atom_site_label
_atom_site_fract_x
_atom_site_fract_y
_atom_site_fract_z
Si Si1 0.194930 0.612146 0.070746
Si Si2 0.368886 0.419467 0.973846
Si Si3 0.051986 0.656352 0.568126
Si Si4 0.317265 0.027944 0.713517
Si Si5 0.775165 0.727445 0.389391
Si Si6 0.901925 0.799213 0.375424
Si Si7 0.576736 0.030251 0.919132
O O1 0.130424 0.746205 0.258378
O O2 0.159073 0.336803 0.288599
O O3 0.268277 0.799348 0.993314
O O4 0.212803 0.530719 0.773793
O O5 0.288269 0.351328 0.270895
O O6 0.405372 0.730025 0.936737
O O7 0.411802 0.241147 0.004924
O O8 0.361477 0.291808 0.738612
O O9 0.062418 0.447914 0.735123
O O10 0.000000 0.500000 0.500000
O O11 0.040524 0.934559 0.682946
O O12 0.367190 0.907036 0.427942
O O13 0.258100 0.110403 0.707618
O O14 0.853249 0.867342 0.297389
O O15 0.500000 0.000000 0.000000
#
# Coordination Sequence:
#
# PCOD9021932 Si02
#       7
#     2   2   2   2   2   2   2
#     4  10  22  38  67  93 133 168 220 277 331 383
#     4  11  25  41  71  96 136 175 223 272 337 389
#     4  10  22  43  64  91 130 175 218 269 330 395
#     4  11  25  42  70 100 137 173 224 280 334 394
#     4  11  22  40  63 103 130 165 227 276 331 388
#     4  10  24  39  67  92 128 172 217 272 335 385
#     4  11  26  46  67 100 138 176 223 272 327 402
#
# _framework density 24.678311000000001
#
# number of rings (size 3 to 8) (size 9 to 14) (size 15 to 20)
#    0.857    0.571    1.429    3.429    6.000    1.143 
#    0.000    1.429    0.000    0.000    0.000    0.000 
#    0.000    0.000    0.000    0.000    0.000    0.000 
#
# Total GULP energy -78229.780377 kJ/mol
# GULP energy per Si atom -5587.841455 kJ/mol
# Density = 2.462214 g / cm^3
# Si number density = 24.678311 Si / 1000 Ang^3
#
#
#
# Elastic Constant Matrix: (Units=GPa)
#
#
# Indices 1 2 3 4 5 6 
#
# 1 118.2199 23.3789 16.7060 -0.8128 -5.5306 4.3334
# 2 23.3789 117.7340 0.4647 20.5515 -0.7099 8.4677
# 3 16.7060 0.4647 28.6198 7.1618 -8.5811 -4.7488
# 4 -0.8128 20.5515 7.1618 30.1289 -0.3458 3.3849
# 5 -5.5306 -0.7099 -8.5811 -0.3458 28.6206 3.8585
# 6 4.3334 8.4677 -4.7488 3.3849 3.8585 42.3703
#
#
#
# Elastic Compliance Matrix: (Units=1/GPa)
#
#
# Indices 1 2 3 4 5 6 
#
# 1 0.010040 -0.002520 -0.007042 0.003847 0.000031 -0.001623
# 2 -0.002520 0.010423 0.003364 -0.007868 0.000806 -0.000893
# 3 -0.007042 0.003364 0.046993 -0.014120 0.011919 0.005357
# 4 0.003847 -0.007868 -0.014120 0.042385 -0.002696 -0.003544
# 5 0.000031 0.000806 0.011919 -0.002696 0.038796 -0.002146
# 6 -0.001623 -0.000893 0.005357 -0.003544 -0.002146 0.025025
#
#
# Mechanical properties :
#
#
# Convention : Reuss Voigt Hill
#
# Bulk Modulus (GPa) = 18.16200 38.40809 28.28504
# Shear Modulus (GPa) = 24.46043 35.15891 29.80967
#
# Velocity S-wave (km/s) = 3.15170 3.77860 3.47930
# Velocity P-wave (km/s) = 4.54090 5.88510 5.25615
#
# Compressibility (1/GPa) = 0.05506003
#
# Stress axis : x y z
#
# Youngs Moduli (GPa) = 99.60430 95.93730 21.27984
#
# Poissons Ratio (x) = 0.24180 0.14985
# Poissons Ratio (y) = 0.25104 -0.07159
# Poissons Ratio (z) = 0.70139 -0.32275
#
# Static dielectric constant tensor:
#      x y z
#    x 1.970740 -0.003380 0.052050 
#    y -0.003380 2.027930 0.000100 
#    z 0.052050 0.000100 2.014210 
# 
# From -- ./inp_files/121219.got.cif
#   From: 2010.05.17/outbox.cif.g08.bks.cpg/sg2_61_cif.got.tgz:121219.got - 2010.06.03 11:33:40.
