data_PCOD9021655
_publ_section_title
;
Structure prediction by ZEFSAII (Michael W. Deem and Ramdas Pophale) SiO2 
 PCOD9021655
Probable space group: P -1
;
_chemical_formula_sum "Si O2"
_cell_formula_units_Z 15
_cell_length_a 12.123427
_cell_length_b 5.186664
_cell_length_c 20.885506
_cell_angle_alpha 67.929135
_cell_angle_beta 147.329775
_cell_angle_gamma 107.710114
_cell_volume 656.772618
_symmetry_space_group_name_H-M "P -1"
_symmetry_group_IT_number 2
_symmetry_cell_setting 'triclinic'
loop_
_space_group_symop_operation_xyz
x,y,z
-x,-y,-z
loop_
_atom_site_type_symbol
_atom_site_label
_atom_site_fract_x
_atom_site_fract_y
_atom_site_fract_z
Si Si1 0.510442 0.998817 0.642386
Si Si2 0.832577 0.347735 0.193033
Si Si3 0.091583 0.871283 0.388328
Si Si4 0.328347 0.026372 0.059842
Si Si5 0.931714 0.181141 0.771655
Si Si6 0.466523 0.368277 0.709114
Si Si7 0.512410 0.358791 0.929558
Si Si8 0.000000 0.500000 0.500000
O O1 0.321195 0.963583 0.505567
O O2 0.714902 0.102195 0.700233
O O3 0.441874 0.222101 0.641754
O O4 0.541207 0.685009 0.713904
O O5 0.703740 0.570657 0.151038
O O6 0.935025 0.118718 0.308606
O O7 0.009540 0.495023 0.225608
O O8 0.666719 0.252627 0.069858
O O9 0.068059 0.855525 0.301742
O O10 0.045194 0.620427 0.437343
O O11 0.360855 0.833464 0.155202
O O12 0.481137 0.865189 0.101215
O O13 0.399695 0.341080 0.076828
O O14 0.111256 0.034729 0.915974
O O15 0.243197 0.385907 0.631874
#
# Coordination Sequence:
#
# PCOD9021655 Si02
#       8
#     2   2   2   2   2   2   2   1
#     4  11  28  46  70  99 144 184 243 271 344 407
#     4  10  23  37  68  99 142 175 225 279 357 395
#     4  11  24  46  70 102 135 186 224 296 341 419
#     4  11  23  43  71 102 141 179 234 282 355 396
#     4  11  26  44  70 105 135 185 231 290 339 414
#     4  11  26  47  70 103 137 193 222 294 334 420
#     4  10  22  38  64 106 141 174 219 289 342 422
#     4  10  26  46  70 100 140 174 234 270 360 408
#
# _framework density 22.838954000000001
#
# number of rings (size 3 to 8) (size 9 to 14) (size 15 to 20)
#    0.000    1.333    1.333    2.000    9.333    5.333 
#    0.000    0.000    0.000    0.000    0.000    0.000 
#    0.000    0.000    0.000    0.000    0.000    0.000 
#
# Total GULP energy -83529.132052 kJ/mol
# GULP energy per Si atom -5568.608803 kJ/mol
# Density = 2.278697 g / cm^3
# Si number density = 22.838954 Si / 1000 Ang^3
#
#
#
# Elastic Constant Matrix: (Units=GPa)
#
#
# Indices 1 2 3 4 5 6 
#
# 1 82.7681 35.4425 58.4370 16.5790 18.7001 23.2476
# 2 35.4425 84.2753 30.3190 -6.0206 10.1218 11.2240
# 3 58.4370 30.3190 145.0191 -10.9674 5.8029 28.6204
# 4 16.5790 -6.0206 -10.9674 41.0521 10.0898 2.5134
# 5 18.7001 10.1218 5.8029 10.0898 23.7565 9.9307
# 6 23.2476 11.2240 28.6204 2.5134 9.9307 24.1321
#
#
#
# Elastic Compliance Matrix: (Units=1/GPa)
#
#
# Indices 1 2 3 4 5 6 
#
# 1 0.028093 -0.007458 -0.008630 -0.012254 -0.007938 -0.008816
# 2 -0.007458 0.015753 0.000247 0.006285 -0.003763 0.000458
# 3 -0.008630 0.000247 0.012403 0.006204 0.004850 -0.009153
# 4 -0.012254 0.006285 0.006204 0.034202 -0.009930 0.002048
# 5 -0.007938 -0.003763 0.004850 -0.009930 0.061622 -0.020679
# 6 -0.008816 0.000458 -0.009153 0.002048 -0.020679 0.068870
#
#
# Mechanical properties :
#
#
# Convention : Reuss Voigt Hill
#
# Bulk Modulus (GPa) = 40.70417 62.27326 51.48872
# Shear Modulus (GPa) = 19.17067 30.31241 24.74154
#
# Velocity S-wave (km/s) = 2.90036 3.64706 3.29493
# Velocity P-wave (km/s) = 5.39231 6.71269 6.08840
#
# Compressibility (1/GPa) = 0.02456751
#
# Stress axis : x y z
#
# Youngs Moduli (GPa) = 35.59594 63.47898 80.62477
#
# Poissons Ratio (x) = 0.47341 0.69582
# Poissons Ratio (y) = 0.26546 -0.01992
# Poissons Ratio (z) = 0.30721 -0.01569
#
# Static dielectric constant tensor:
#      x y z
#    x 1.871580 -0.006660 -0.059070 
#    y -0.006660 1.934680 -0.010330 
#    z -0.059070 -0.010330 1.867950 
# 
# From -- ./inp_files/409237.got.cif
#   From: 2010.05.17/outbox.cif.g08.bks.cpg/sg2_205_cif.got.tgz:409237.got - 2010.06.03 11:33:40.
