data_PCOD9021857
_publ_section_title
;
Structure prediction by ZEFSAII (Michael W. Deem and Ramdas Pophale) SiO2 
 PCOD9021857
Probable space group: P -1
;
_chemical_formula_sum "Si O2"
_cell_formula_units_Z 14
_cell_length_a 12.434749
_cell_length_b 8.414246
_cell_length_c 9.257706
_cell_angle_alpha 118.690040
_cell_angle_beta 111.762952
_cell_angle_gamma 108.238047
_cell_volume 629.757700
_symmetry_space_group_name_H-M "P -1"
_symmetry_group_IT_number 2
_symmetry_cell_setting 'triclinic'
loop_
_space_group_symop_operation_xyz
x,y,z
-x,-y,-z
loop_
_atom_site_type_symbol
_atom_site_label
_atom_site_fract_x
_atom_site_fract_y
_atom_site_fract_z
Si Si1 0.588505 0.913613 0.123653
Si Si2 0.908116 0.168553 0.740494
Si Si3 0.847252 0.705772 0.531059
Si Si4 0.991770 0.608296 0.818610
Si Si5 0.582897 0.900859 0.442859
Si Si6 0.511760 0.474643 0.325079
Si Si7 0.261898 0.723069 0.858491
O O1 0.625672 0.896354 0.296065
O O2 0.708842 0.165453 0.236463
O O3 0.569838 0.751898 0.912953
O O4 0.428254 0.849627 0.042574
O O5 0.936098 0.350531 0.713319
O O6 0.918981 0.962533 0.630182
O O7 0.741652 0.044583 0.655511
O O8 0.012748 0.305290 0.988375
O O9 0.681004 0.591577 0.438582
O O10 0.825754 0.544911 0.320208
O O11 0.917906 0.663570 0.682741
O O12 0.158678 0.750151 0.911932
O O13 0.477885 0.637135 0.313110
O O14 0.500000 0.000000 0.500000
O O15 0.500000 0.500000 0.500000
#
# Coordination Sequence:
#
# PCOD9021857 Si02
#       7
#     2   2   2   2   2   2   2
#     4  10  22  41  63  95 133 162 208 271 314 384
#     4  10  24  40  61  91 131 161 219 260 306 387
#     4  10  22  41  62  89 127 163 209 265 312 380
#     4  11  22  41  63  91 125 173 209 262 318 376
#     4  11  23  39  66  94 128 169 212 262 325 373
#     4  10  24  40  65  96 126 166 213 261 324 385
#     4  10  22  38  66  92 125 163 214 255 325 377
#
# _framework density 22.230772000000002
#
# number of rings (size 3 to 8) (size 9 to 14) (size 15 to 20)
#    0.000    1.714    0.000    3.000   12.000    0.571 
#    0.000    2.857    0.000    0.000    0.000    0.000 
#    0.000    0.000    0.000    0.000    0.000    0.000 
#
# Total GULP energy -77946.718041 kJ/mol
# GULP energy per Si atom -5567.622717 kJ/mol
# Density = 2.218017 g / cm^3
# Si number density = 22.230772 Si / 1000 Ang^3
#
#
#
# Elastic Constant Matrix: (Units=GPa)
#
#
# Indices 1 2 3 4 5 6 
#
# 1 63.0515 11.5591 24.2467 12.4372 -16.5224 -16.0617
# 2 11.5591 101.9249 29.8125 24.3220 -8.5747 -27.9581
# 3 24.2467 29.8125 76.5928 5.1362 -10.6504 -7.7362
# 4 12.4372 24.3220 5.1362 31.2151 -2.7231 -0.9957
# 5 -16.5224 -8.5747 -10.6504 -2.7231 20.4456 -2.0846
# 6 -16.0617 -27.9581 -7.7362 -0.9957 -2.0846 25.4598
#
#
#
# Elastic Compliance Matrix: (Units=1/GPa)
#
#
# Indices 1 2 3 4 5 6 
#
# 1 0.046761 0.023434 -0.010333 -0.029626 0.043847 0.054526
# 2 0.023434 0.032758 -0.009207 -0.029248 0.029000 0.049190
# 3 -0.010333 -0.009207 0.017845 0.007735 -0.003023 -0.011152
# 4 -0.029626 -0.029248 0.007735 0.061285 -0.028954 -0.048431
# 5 0.043847 0.029000 -0.003023 -0.028954 0.097750 0.065460
# 6 0.054526 0.049190 -0.011152 -0.048431 0.065460 0.127770
#
#
# Mechanical properties :
#
#
# Convention : Reuss Voigt Hill
#
# Bulk Modulus (GPa) = 9.50997 41.42285 25.46641
# Shear Modulus (GPa) = 12.15264 27.15415 19.65339
#
# Velocity S-wave (km/s) = 2.34061 3.49874 2.97654
# Velocity P-wave (km/s) = 3.40466 5.91567 4.82633
#
# Compressibility (1/GPa) = 0.10515285
#
# Stress axis : x y z
#
# Youngs Moduli (GPa) = 21.38516 30.52676 56.03666
#
# Poissons Ratio (x) = -0.71537 0.57904
# Poissons Ratio (y) = -0.50114 0.51592
# Poissons Ratio (z) = 0.22098 0.28106
#
# Static dielectric constant tensor:
#      x y z
#    x 1.866510 -0.044370 -0.057940 
#    y -0.044370 1.913870 -0.018570 
#    z -0.057940 -0.018570 1.878510 
# 
# From -- ./inp_files/158077.got.cif
#   From: 2010.05.17/outbox.cif.g08.bks.cpg/sg2_80_cif.got.tgz:158077.got - 2010.06.03 11:33:40.
