data_PCOD9021633
_publ_section_title
;
Structure prediction by ZEFSAII (Michael W. Deem and Ramdas Pophale) SiO2 
 PCOD9021633
Probable space group: P -1
;
_chemical_formula_sum "Si O2"
_cell_formula_units_Z 16
_cell_length_a 8.194040
_cell_length_b 19.953601
_cell_length_c 12.328330
_cell_angle_alpha 27.264606
_cell_angle_beta 59.437743
_cell_angle_gamma 49.553797
_cell_volume 689.141028
_symmetry_space_group_name_H-M "P -1"
_symmetry_group_IT_number 2
_symmetry_cell_setting 'triclinic'
loop_
_space_group_symop_operation_xyz
x,y,z
-x,-y,-z
loop_
_atom_site_type_symbol
_atom_site_label
_atom_site_fract_x
_atom_site_fract_y
_atom_site_fract_z
Si Si1 0.793571 0.026275 0.962418
Si Si2 0.257110 0.258772 0.500678
Si Si3 0.397473 0.475550 0.292264
Si Si4 0.853116 0.174903 0.524909
Si Si5 0.594834 0.613224 0.353149
Si Si6 0.726567 0.330966 0.131553
Si Si7 0.312574 0.165355 0.382820
Si Si8 0.879901 0.589445 0.092893
O O1 0.834598 0.041441 0.799991
O O2 0.593244 0.204402 0.809280
O O3 0.743951 0.881572 0.222139
O O4 0.000000 0.000000 0.000000
O O5 0.327119 0.365885 0.398338
O O6 0.383652 0.187257 0.447587
O O7 0.016247 0.388238 0.348816
O O8 0.662522 0.359891 0.367691
O O9 0.297052 0.482971 0.432866
O O10 0.309911 0.656580 0.003359
O O11 0.094937 0.148382 0.490392
O O12 0.785511 0.181712 0.411655
O O13 0.500000 0.500000 0.500000
O O14 0.731615 0.642963 0.172428
O O15 0.933703 0.357883 0.041449
O O16 0.500000 0.500000 0.000000
O O17 0.500000 0.000000 0.500000
O O18 0.248207 0.326223 0.095385
#
# Coordination Sequence:
#
# PCOD9021633 Si02
#       8
#     2   2   2   2   2   2   2   2
#     4  11  21  38  65  93 134 176 219 266 326 394
#     4  11  22  40  66  96 132 173 220 269 329 394
#     4   9  21  40  66  96 129 171 219 274 333 392
#     4   9  19  36  62  89 125 171 217 261 323 392
#     4  11  24  41  62  99 136 169 225 273 333 395
#     4   8  16  36  61  88 125 160 215 268 317 382
#     4  11  22  40  65  93 132 171 223 276 323 393
#     4  10  22  38  63  98 126 173 220 272 327 389
#
# _framework density 23.217309
#
# number of rings (size 3 to 8) (size 9 to 14) (size 15 to 20)
#    0.000    2.000    1.250    1.875    1.750    4.000 
#    6.750    0.625    0.000    9.000    0.000    0.000 
#    0.000    0.000    0.000    0.000    0.000    0.000 
#
# Total GULP energy -89327.477848 kJ/mol
# GULP energy per Si atom -5582.967365 kJ/mol
# Density = 2.316447 g / cm^3
# Si number density = 23.217309 Si / 1000 Ang^3
#
#
#
# Elastic Constant Matrix: (Units=GPa)
#
#
# Indices 1 2 3 4 5 6 
#
# 1 107.1966 39.0361 38.7268 18.9572 6.1136 5.0696
# 2 39.0361 88.0096 56.7936 32.8622 -3.7932 1.6025
# 3 38.7268 56.7936 196.4913 45.8683 23.0555 11.9002
# 4 18.9572 32.8622 45.8683 47.7952 7.0948 6.8058
# 5 6.1136 -3.7932 23.0555 7.0948 19.2518 5.4642
# 6 5.0696 1.6025 11.9002 6.8058 5.4642 30.2827
#
#
#
# Elastic Compliance Matrix: (Units=1/GPa)
#
#
# Indices 1 2 3 4 5 6 
#
# 1 0.011564 -0.005080 -0.000251 -0.000131 -0.004098 -0.000800
# 2 -0.005080 0.020982 -0.004383 -0.010535 0.014536 0.001207
# 3 -0.000251 -0.004383 0.008334 -0.003419 -0.009349 -0.000546
# 4 -0.000131 -0.010535 -0.003419 0.033416 -0.009136 -0.003939
# 5 -0.004098 0.014536 -0.009349 -0.009136 0.072798 -0.007492
# 6 -0.000800 0.001207 -0.000546 -0.003939 -0.007492 0.035543
#
#
# Mechanical properties :
#
#
# Convention : Reuss Voigt Hill
#
# Bulk Modulus (GPa) = 46.61673 73.42338 60.02005
# Shear Modulus (GPa) = 23.89860 36.60869 30.25365
#
# Velocity S-wave (km/s) = 3.21182 3.97518 3.61371
# Velocity P-wave (km/s) = 5.82034 7.26378 6.58175
#
# Compressibility (1/GPa) = 0.02145153
#
# Stress axis : x y z
#
# Youngs Moduli (GPa) = 86.47525 47.65910 119.99333
#
# Poissons Ratio (x) = 0.24213 0.03012
# Poissons Ratio (y) = 0.43933 0.52591
# Poissons Ratio (z) = 0.02171 0.20888
#
# Static dielectric constant tensor:
#      x y z
#    x 1.919220 0.008750 0.035310 
#    y 0.008750 1.951980 0.046600 
#    z 0.035310 0.046600 1.956810 
# 
# From -- ./inp_files/405282.got.cif
#   From: 2010.05.17/outbox.cif.g08.bks.cpg/sg2_203_cif.got.tgz:405282.got - 2010.06.03 11:33:40.
