data_PCOD9021893
_publ_section_title
;
Structure prediction by ZEFSAII (Michael W. Deem and Ramdas Pophale) SiO2 
 PCOD9021893
Probable space group: P -1
;
_chemical_formula_sum "Si O2"
_cell_formula_units_Z 16
_cell_length_a 8.690005
_cell_length_b 9.719158
_cell_length_c 18.516190
_cell_angle_alpha 141.405971
_cell_angle_beta 54.068125
_cell_angle_gamma 105.913301
_cell_volume 735.343984
_symmetry_space_group_name_H-M "P -1"
_symmetry_group_IT_number 2
_symmetry_cell_setting 'triclinic'
loop_
_space_group_symop_operation_xyz
x,y,z
-x,-y,-z
loop_
_atom_site_type_symbol
_atom_site_label
_atom_site_fract_x
_atom_site_fract_y
_atom_site_fract_z
Si Si1 0.231036 0.447984 0.435812
Si Si2 0.170124 0.848831 0.292893
Si Si3 0.929654 0.299982 0.285612
Si Si4 0.533648 0.630025 0.359154
Si Si5 0.705742 0.680964 0.907442
Si Si6 0.293874 0.006984 0.468692
Si Si7 0.764477 0.114636 0.131323
Si Si8 0.723689 0.016138 0.837792
O O1 0.329957 0.629680 0.455069
O O2 0.000000 0.500000 0.500000
O O3 0.210054 0.473929 0.537657
O O4 0.335375 0.204862 0.264858
O O5 0.254330 0.570136 0.171841
O O6 0.270824 0.965519 0.373344
O O7 0.221003 0.887309 0.212573
O O8 0.927655 0.951607 0.418118
O O9 0.105199 0.352181 0.212480
O O10 0.772636 0.217643 0.250376
O O11 0.075574 0.092110 0.212370
O O12 0.459802 0.773177 0.364028
O O13 0.668860 0.350183 0.204786
O O14 0.644646 0.772274 0.433761
O O15 0.472252 0.797923 0.991089
O O16 0.706298 0.883974 0.046462
O O17 0.000000 0.000000 0.000000
#
# Coordination Sequence:
#
# PCOD9021893 Si02
#       8
#     2   2   2   2   2   2   2   2
#     4  10  22  38  66  98 135 162 225 280 328 383
#     4  11  25  42  66  94 143 173 227 274 341 389
#     4  10  23  39  66  96 132 176 222 275 337 389
#     4  11  22  43  66 100 138 174 229 274 338 400
#     4  11  23  42  65  95 134 182 225 268 331 407
#     4  10  24  41  68  97 134 183 221 277 336 401
#     4  10  22  40  63  96 135 168 222 277 327 394
#     4  11  23  41  63  99 135 174 224 275 331 400
#
# _framework density 21.758523
#
# number of rings (size 3 to 8) (size 9 to 14) (size 15 to 20)
#    0.000    1.500    1.250    3.750    8.750    3.500 
#    0.000    0.625    0.000    0.000    0.000    0.000 
#    0.000    0.000    0.000    0.000    0.000    0.000 
#
# Total GULP energy -89215.627053 kJ/mol
# GULP energy per Si atom -5575.976691 kJ/mol
# Density = 2.170900 g / cm^3
# Si number density = 21.758523 Si / 1000 Ang^3
#
#
#
# Elastic Constant Matrix: (Units=GPa)
#
#
# Indices 1 2 3 4 5 6 
#
# 1 58.3348 17.4213 10.9895 11.5343 6.8210 2.2876
# 2 17.4213 95.5629 5.2351 17.1497 5.2522 -1.6229
# 3 10.9895 5.2351 45.1481 27.0511 -3.0602 -4.1249
# 4 11.5343 17.1497 27.0511 37.6930 -1.4633 -6.4997
# 5 6.8210 5.2522 -3.0602 -1.4633 33.1938 1.3687
# 6 2.2876 -1.6229 -4.1249 -6.4997 1.3687 28.2585
#
#
#
# Elastic Compliance Matrix: (Units=1/GPa)
#
#
# Indices 1 2 3 4 5 6 
#
# 1 0.019730 -0.002676 -0.003065 -0.003249 -0.003943 -0.002754
# 2 -0.002676 0.012144 0.003517 -0.007316 -0.001362 -0.000189
# 3 -0.003065 0.003517 0.040357 -0.029630 0.002512 -0.000596
# 4 -0.003249 -0.007316 -0.029630 0.053501 0.001132 0.007769
# 5 -0.003943 -0.001362 0.002512 0.001132 0.031460 -0.000656
# 6 -0.002754 -0.000189 -0.000596 0.007769 -0.000656 0.037331
#
#
# Mechanical properties :
#
#
# Convention : Reuss Voigt Hill
#
# Bulk Modulus (GPa) = 14.75271 29.59307 22.17289
# Shear Modulus (GPa) = 22.56661 30.85571 26.71116
#
# Velocity S-wave (km/s) = 3.22396 3.76985 3.50754
# Velocity P-wave (km/s) = 4.54461 5.70782 5.15910
#
# Compressibility (1/GPa) = 0.06778415
#
# Stress axis : x y z
#
# Youngs Moduli (GPa) = 50.68323 82.34458 24.77897
#
# Poissons Ratio (x) = 0.22036 0.07594
# Poissons Ratio (y) = 0.13563 -0.08715
# Poissons Ratio (z) = 0.15533 -0.28962
#
# Static dielectric constant tensor:
#      x y z
#    x 1.899400 -0.008610 0.108060 
#    y -0.008610 1.793150 0.012580 
#    z 0.108060 0.012580 1.941560 
# 
# From -- ./inp_files/357765.got.cif
#   From: 2010.05.17/outbox.cif.g08.bks.cpg/sg2_179_cif.got.tgz:357765.got - 2010.06.03 11:33:40.
