data_PCOD9021480
_publ_section_title
;
Structure prediction by ZEFSAII (Michael W. Deem and Ramdas Pophale) SiO2 
 PCOD9021480
Probable space group: P -1
;
_chemical_formula_sum "Si O2"
_cell_formula_units_Z 16
_cell_length_a 9.746056
_cell_length_b 8.259338
_cell_length_c 11.102161
_cell_angle_alpha 63.840685
_cell_angle_beta 58.808202
_cell_angle_gamma 88.905007
_cell_volume 660.217447
_symmetry_space_group_name_H-M "P -1"
_symmetry_group_IT_number 2
_symmetry_cell_setting 'triclinic'
loop_
_space_group_symop_operation_xyz
x,y,z
-x,-y,-z
loop_
_atom_site_type_symbol
_atom_site_label
_atom_site_fract_x
_atom_site_fract_y
_atom_site_fract_z
Si Si1 0.735457 0.088957 0.757622
Si Si2 0.699718 0.943949 0.184010
Si Si3 0.900044 0.192308 0.184592
Si Si4 0.688670 0.564942 0.355649
Si Si5 0.159660 0.514736 0.079513
Si Si6 0.666176 0.158785 0.499820
Si Si7 0.016045 0.361439 0.646221
Si Si8 0.426066 0.767091 0.013603
O O1 0.749958 0.142797 0.594304
O O2 0.912898 0.154923 0.718980
O O3 0.620842 0.875888 0.886394
O O4 0.636700 0.226236 0.823251
O O5 0.711728 0.742058 0.201177
O O6 0.531434 0.910226 0.357339
O O7 0.872084 0.038487 0.142232
O O8 0.658506 0.079516 0.058785
O O9 0.762852 0.079757 0.380529
O O10 0.065382 0.306624 0.143368
O O11 0.846723 0.351243 0.074958
O O12 0.500000 0.500000 0.500000
O O13 0.717365 0.373545 0.361108
O O14 0.797812 0.626864 0.404879
O O15 0.057788 0.571469 0.219844
O O16 0.345738 0.581652 0.032310
O O17 0.000000 0.500000 0.500000
#
# Coordination Sequence:
#
# PCOD9021480 Si02
#       8
#     2   2   2   2   2   2   2   2
#     4   9  16  28  51  76 104 126 180 216 254 294
#     4   9  19  31  49  77 110 134 169 217 272 304
#     4  10  17  31  49  76 107 141 172 216 257 310
#     4  10  20  33  50  82 112 133 168 219 269 306
#     4   9  18  29  50  75 106 134 182 216 254 301
#     4  10  17  31  53  79 102 139 180 214 253 314
#     4  11  18  32  55  83 101 138 180 217 252 312
#     4   8  16  30  46  77 102 134 164 225 258 299
#
# _framework density 24.234441
#
# number of rings (size 3 to 8) (size 9 to 14) (size 15 to 20)
#    0.000    2.500    2.500    0.375    0.000    0.000 
#    0.000    5.625    0.000    3.000    0.000    2.625 
#    0.000    0.000    0.000    0.000    0.000    0.000 
#
# Total GULP energy -89102.233019 kJ/mol
# GULP energy per Si atom -5568.889564 kJ/mol
# Density = 2.417928 g / cm^3
# Si number density = 24.234441 Si / 1000 Ang^3
#
#
#
# Elastic Constant Matrix: (Units=GPa)
#
#
# Indices 1 2 3 4 5 6 
#
# 1 136.5430 33.7983 25.8756 -0.1238 -20.8390 45.4597
# 2 33.7983 48.5442 17.8484 -2.9204 -14.3106 40.6220
# 3 25.8756 17.8484 116.2693 17.6561 7.8178 11.0842
# 4 -0.1238 -2.9204 17.6561 31.1962 17.2941 -2.3308
# 5 -20.8390 -14.3106 7.8178 17.2941 30.1581 -14.4906
# 6 45.4597 40.6220 11.0842 -2.3308 -14.4906 47.1766
#
#
#
# Elastic Compliance Matrix: (Units=1/GPa)
#
#
# Indices 1 2 3 4 5 6 
#
# 1 0.012106 0.006890 -0.002327 -0.002732 0.006507 -0.015188
# 2 0.006890 0.082964 -0.008209 0.001106 0.010630 -0.072828
# 3 -0.002327 -0.008209 0.010768 -0.004935 -0.002726 0.005699
# 4 -0.002732 0.001106 -0.004935 0.052562 -0.032394 -0.004513
# 5 0.006507 0.010630 -0.002726 -0.032394 0.063478 0.003115
# 6 -0.015188 -0.072828 0.005699 -0.004513 0.003115 0.097936
#
#
# Mechanical properties :
#
#
# Convention : Reuss Voigt Hill
#
# Bulk Modulus (GPa) = 10.14747 50.71124 30.42936
# Shear Modulus (GPa) = 13.89063 36.62844 25.25954
#
# Velocity S-wave (km/s) = 2.39671 3.89192 3.23197
# Velocity P-wave (km/s) = 3.44315 6.41613 5.14888
#
# Compressibility (1/GPa) = 0.09854668
#
# Stress axis : x y z
#
# Youngs Moduli (GPa) = 82.60101 12.05346 92.86738
#
# Poissons Ratio (x) = -0.08305 0.21607
# Poissons Ratio (y) = -0.56910 0.76233
# Poissons Ratio (z) = 0.19218 0.09895
#
# Static dielectric constant tensor:
#      x y z
#    x 2.014280 -0.009700 -0.081620 
#    y -0.009700 2.025710 -0.019410 
#    z -0.081620 -0.019410 1.964300 
# 
# From -- ./inp_files/414445.got.cif
#   From: 2010.05.17/outbox.cif.g08.bks.cpg/sg2_208_cif.got.tgz:414445.got - 2010.06.03 11:33:40.
