data_PCOD9021280
_publ_section_title
;
Structure prediction by ZEFSAII (Michael W. Deem and Ramdas Pophale) SiO2 
 PCOD9021280
Probable space group: P -1
;
_chemical_formula_sum "Si O2"
_cell_formula_units_Z 16
_cell_length_a 6.186442
_cell_length_b 22.064798
_cell_length_c 12.151962
_cell_angle_alpha 149.071128
_cell_angle_beta 90.167420
_cell_angle_gamma 86.670281
_cell_volume 847.563827
_symmetry_space_group_name_H-M "P -1"
_symmetry_group_IT_number 2
_symmetry_cell_setting 'triclinic'
loop_
_space_group_symop_operation_xyz
x,y,z
-x,-y,-z
loop_
_atom_site_type_symbol
_atom_site_label
_atom_site_fract_x
_atom_site_fract_y
_atom_site_fract_z
Si Si1 0.482681 0.334571 0.916023
Si Si2 0.827425 0.426245 0.444978
Si Si3 0.555332 0.605545 0.345702
Si Si4 0.224082 0.268430 0.265325
Si Si5 0.538341 0.660913 0.837608
Si Si6 0.259788 0.767221 0.451085
Si Si7 0.751185 0.992781 0.043800
Si Si8 0.880992 0.631608 0.192123
O O1 0.600246 0.258730 0.699817
O O2 0.237864 0.360884 0.913297
O O3 0.572358 0.463490 0.120823
O O4 0.498407 0.279758 0.951685
O O5 0.663112 0.529610 0.659536
O O6 0.685291 0.360716 0.256359
O O7 0.000000 0.500000 0.500000
O O8 0.978717 0.333526 0.373074
O O9 0.623459 0.659222 0.544308
O O10 0.332462 0.669974 0.395492
O O11 0.718558 0.643896 0.313322
O O12 0.316789 0.278488 0.157153
O O13 0.229059 0.135264 0.098540
O O14 0.270759 0.895534 0.700580
O O15 0.024890 0.738033 0.369441
O O16 0.500000 0.000000 0.000000
O O17 0.000000 0.000000 0.000000
O O18 0.000000 0.500000 0.000000
#
# Coordination Sequence:
#
# PCOD9021280 Si02
#       8
#     2   2   2   2   2   2   2   2
#     4  11  22  35  60  94 133 168 212 270 343 410
#     4   9  19  36  58  90 130 172 219 268 333 395
#     4  11  20  35  59  96 128 167 213 271 341 398
#     4  11  24  40  66  94 132 176 227 279 334 406
#     4  10  22  38  59  94 132 173 218 278 340 405
#     4  11  23  41  60  94 132 169 219 274 338 401
#     4  12  28  48  73 100 135 181 231 287 336 400
#     4  11  20  34  58  89 127 168 209 268 340 402
#
# _framework density 18.877632999999999
#
# number of rings (size 3 to 8) (size 9 to 14) (size 15 to 20)
#    0.000    1.250    3.750    3.750    5.250    4.000 
#    0.000    0.625    0.000    1.500    0.000    0.000 
#    0.000    0.000    0.000    0.000    0.000    0.000 
#
# Total GULP energy -89151.313280 kJ/mol
# GULP energy per Si atom -5571.957080 kJ/mol
# Density = 1.883467 g / cm^3
# Si number density = 18.877633 Si / 1000 Ang^3
#
#
#
# Elastic Constant Matrix: (Units=GPa)
#
#
# Indices 1 2 3 4 5 6 
#
# 1 86.6653 41.9030 31.7869 -4.8311 14.4590 0.9586
# 2 41.9030 97.9851 47.9877 -6.7663 -5.7819 3.1634
# 3 31.7869 47.9877 132.3432 -3.2623 9.1923 7.4031
# 4 -4.8311 -6.7663 -3.2623 38.9174 -0.2974 -2.7781
# 5 14.4590 -5.7819 9.1923 -0.2974 26.3896 -2.4416
# 6 0.9586 3.1634 7.4031 -2.7781 -2.4416 19.8008
#
#
#
# Elastic Compliance Matrix: (Units=1/GPa)
#
#
# Indices 1 2 3 4 5 6 
#
# 1 0.017380 -0.007758 -0.000537 0.000630 -0.011091 -0.000680
# 2 -0.007758 0.016535 -0.004816 0.001650 0.009658 0.000957
# 3 -0.000537 -0.004816 0.009936 -0.000358 -0.004553 -0.003531
# 4 0.000630 0.001650 -0.000358 0.026295 0.000773 0.003624
# 5 -0.011091 0.009658 -0.004553 0.000773 0.048307 0.006761
# 6 -0.000680 0.000957 -0.003531 0.003624 0.006761 0.053046
#
#
# Mechanical properties :
#
#
# Convention : Reuss Voigt Hill
#
# Bulk Modulus (GPa) = 56.72692 62.26096 59.49394
# Shear Modulus (GPa) = 24.55821 30.04262 27.30041
#
# Velocity S-wave (km/s) = 3.61073 3.99361 3.80699
# Velocity P-wave (km/s) = 6.89190 7.37009 7.13500
#
# Compressibility (1/GPa) = 0.01762832
#
# Stress axis : x y z
#
# Youngs Moduli (GPa) = 57.53747 60.47787 100.64091
#
# Poissons Ratio (x) = 0.46921 0.05407
# Poissons Ratio (y) = 0.44640 0.48467
# Poissons Ratio (z) = 0.03091 0.29125
#
# Static dielectric constant tensor:
#      x y z
#    x 1.785380 -0.041020 -0.043210 
#    y -0.041020 1.697780 0.001900 
#    z -0.043210 0.001900 1.634990 
# 
# From -- ./inp_files/70484.got.cif
#   From: 2010.05.17/outbox.cif.g08.bks.cpg/sg2_36_cif.got.tgz:70484.got - 2010.06.03 11:33:40.
