data_PCOD9021393
_publ_section_title
;
Structure prediction by ZEFSAII (Michael W. Deem and Ramdas Pophale) SiO2 
 PCOD9021393
Probable space group: P -1
;
_chemical_formula_sum "Si O2"
_cell_formula_units_Z 13
_cell_length_a 9.121504
_cell_length_b 12.605536
_cell_length_c 7.545683
_cell_angle_alpha 128.279222
_cell_angle_beta 68.034458
_cell_angle_gamma 137.723663
_cell_volume 452.287204
_symmetry_space_group_name_H-M "P -1"
_symmetry_group_IT_number 2
_symmetry_cell_setting 'triclinic'
loop_
_space_group_symop_operation_xyz
x,y,z
-x,-y,-z
loop_
_atom_site_type_symbol
_atom_site_label
_atom_site_fract_x
_atom_site_fract_y
_atom_site_fract_z
Si Si1 0.196505 0.135448 0.824619
Si Si2 0.701349 0.939704 0.621223
Si Si3 0.620002 0.608491 0.332454
Si Si4 0.897069 0.668068 0.743884
Si Si5 0.500000 0.000000 0.000000
Si Si6 0.380394 0.693684 0.970830
Si Si7 0.781852 0.318119 0.609442
O O1 0.143819 0.991078 0.548373
O O2 0.321872 0.316416 0.820226
O O3 0.382296 0.182735 0.913307
O O4 0.048638 0.150060 0.018293
O O5 0.705360 0.798439 0.574311
O O6 0.725732 0.073734 0.883825
O O7 0.459660 0.833780 0.534271
O O8 0.357316 0.457130 0.330779
O O9 0.704226 0.509053 0.225725
O O10 0.871667 0.520491 0.727833
O O11 0.071963 0.714109 0.571700
O O12 0.580900 0.199490 0.111396
O O13 0.245250 0.695615 0.182326
#
# Coordination Sequence:
#
# PCOD9021393 Si02
#       7
#     2   2   2   2   1   2   2
#     4   8  14  30  53  73  92 117 157 208 230 280
#     4   8  18  33  46  73  94 124 168 197 234 274
#     4   8  14  31  53  76  93 115 157 212 230 281
#     4   9  12  23  54  86  90 112 148 210 265 259
#     4  12  24  30  48  68  98 144 160 192 230 282
#     4  10  17  31  49  74  99 121 161 198 239 280
#     4   9  15  26  51  77 102 112 151 212 240 286
#
# _framework density 28.742799999999999
#
# number of rings (size 3 to 8) (size 9 to 14) (size 15 to 20)
#    0.923    2.154    3.077    0.923    0.000    3.077 
#    0.000    0.000    0.000   24.923    0.000    0.000 
#    0.000    0.000    0.000    0.000    0.000    0.000 
#
# Total GULP energy -72393.615073 kJ/mol
# GULP energy per Si atom -5568.739621 kJ/mol
# Density = 2.867738 g / cm^3
# Si number density = 28.742800 Si / 1000 Ang^3
#
#
#
# Elastic Constant Matrix: (Units=GPa)
#
#
# Indices 1 2 3 4 5 6 
#
# 1 101.7648 10.6404 65.5508 9.8041 -23.0616 23.6327
# 2 10.6404 111.8442 24.1258 6.6653 -13.1285 -31.7884
# 3 65.5508 24.1258 213.5562 -11.2468 -88.0487 -17.5714
# 4 9.8041 6.6653 -11.2468 21.8719 -18.2760 -15.0913
# 5 -23.0616 -13.1285 -88.0487 -18.2760 46.3615 -5.9092
# 6 23.6327 -31.7884 -17.5714 -15.0913 -5.9092 23.3319
#
#
#
# Elastic Compliance Matrix: (Units=1/GPa)
#
#
# Indices 1 2 3 4 5 6 
#
# 1 0.010438 -0.000628 0.002925 0.008184 0.013738 -0.000452
# 2 -0.000628 0.010982 -0.004217 -0.008042 -0.007710 0.005267
# 3 0.002925 -0.004217 0.002047 -0.009625 -0.001397 -0.013745
# 4 0.008184 -0.008042 -0.009625 0.009551 -0.015821 -0.024324
# 5 0.013738 -0.007710 -0.001397 -0.015821 0.013205 -0.032360
# 6 -0.000452 0.005267 -0.013745 -0.024324 -0.032360 0.016213
#
#
# Mechanical properties :
#
#
# Convention : Reuss Voigt Hill
#
# Bulk Modulus (GPa) = 50.94893 69.75548 60.35220
# Shear Modulus (GPa) = 68.66445 40.10295 54.38370
#
# Velocity S-wave (km/s) = 4.89297 3.73934 4.35452
# Velocity P-wave (km/s) = 7.04882 6.55477 6.80628
#
# Compressibility (1/GPa) = 0.01962750
#
# Stress axis : x y z
#
# Youngs Moduli (GPa) = 95.80493 91.06130 488.44077
#
# Poissons Ratio (x) = 0.05714 -1.42864
# Poissons Ratio (y) = 0.06012 2.05977
# Poissons Ratio (z) = -0.28022 0.38401
#
# Static dielectric constant tensor:
#      x y z
#    x 2.417730 0.065520 0.252720 
#    y 0.065520 2.199560 -0.008730 
#    z 0.252720 -0.008730 2.551000 
# 
# From -- ./inp_files/250163.got.cif
#   From: 2010.05.17/outbox.cif.g08.bks.cpg/sg2_126_cif.got.tgz:250163.got - 2010.06.03 11:33:40.
