data_PCOD9021159
_publ_section_title
;
Structure prediction by ZEFSAII (Michael W. Deem and Ramdas Pophale) SiO2 
 PCOD9021159
Probable space group: P -1
;
_chemical_formula_sum "Si O2"
_cell_formula_units_Z 12
_cell_length_a 9.839326
_cell_length_b 5.795009
_cell_length_c 10.841778
_cell_angle_alpha 72.517231
_cell_angle_beta 130.604750
_cell_angle_gamma 108.992472
_cell_volume 440.394796
_symmetry_space_group_name_H-M "P -1"
_symmetry_group_IT_number 2
_symmetry_cell_setting 'triclinic'
loop_
_space_group_symop_operation_xyz
x,y,z
-x,-y,-z
loop_
_atom_site_type_symbol
_atom_site_label
_atom_site_fract_x
_atom_site_fract_y
_atom_site_fract_z
Si Si1 0.955900 0.652443 0.831810
Si Si2 0.285155 0.968123 0.839915
Si Si3 0.287923 0.466816 0.846444
Si Si4 0.665938 0.564057 0.490562
Si Si5 0.800681 0.842671 0.916791
Si Si6 0.558004 0.065024 0.382320
O O1 0.788429 0.752477 0.782378
O O2 0.855641 0.528834 0.671680
O O3 0.000000 0.500000 0.000000
O O4 0.132641 0.851497 0.869895
O O5 0.251585 0.740987 0.760743
O O6 0.244298 0.243037 0.760950
O O7 0.500000 0.000000 0.000000
O O8 0.500000 0.500000 0.000000
O O9 0.203080 0.358313 0.945632
O O10 0.500000 0.500000 0.500000
O O11 0.630500 0.360149 0.393251
O O12 0.669091 0.858907 0.429005
O O13 0.624432 0.967713 0.803927
O O14 0.000000 0.000000 0.000000
O O15 0.500000 0.000000 0.500000
#
# Coordination Sequence:
#
# PCOD9021159 Si02
#       6
#     2   2   2   2   2   2
#     4  12  23  35  65  99 125 157 215 264 301 364
#     4  10  22  38  55  85 125 159 192 249 319 359
#     4  10  22  38  55  85 125 159 192 249 319 359
#     4  10  22  38  54  84 131 163 192 248 315 365
#     4  12  23  35  65  99 125 157 215 264 301 364
#     4  10  22  38  54  84 131 163 192 248 315 365
#
# _framework density 27.248277999999999
#
# number of rings (size 3 to 8) (size 9 to 14) (size 15 to 20)
#    0.000    1.333    6.667    0.000    4.667    2.667 
#    0.000    0.000    0.000    0.000    0.000   53.667 
#    0.000    0.000    0.000    0.000    0.000    0.000 
#
# Total GULP energy -66928.439112 kJ/mol
# GULP energy per Si atom -5577.369926 kJ/mol
# Density = 2.718626 g / cm^3
# Si number density = 27.248278 Si / 1000 Ang^3
#
#
#
# Elastic Constant Matrix: (Units=GPa)
#
#
# Indices 1 2 3 4 5 6 
#
# 1 150.1590 75.7435 26.3325 13.8710 -7.3050 -5.7205
# 2 75.7435 272.7440 54.7556 -5.0190 -13.3221 -18.5996
# 3 26.3325 54.7556 145.8953 13.6545 27.6702 5.5912
# 4 13.8710 -5.0190 13.6545 46.7775 -6.1085 -2.4784
# 5 -7.3050 -13.3221 27.6702 -6.1085 30.8760 17.1524
# 6 -5.7205 -18.5996 5.5912 -2.4784 17.1524 76.0648
#
#
#
# Elastic Compliance Matrix: (Units=1/GPa)
#
#
# Indices 1 2 3 4 5 6 
#
# 1 0.008109 -0.002103 -0.000704 -0.002264 0.001318 -0.000224
# 2 -0.002103 0.005047 -0.002571 0.002493 0.004264 0.000385
# 3 -0.000704 -0.002571 0.010713 -0.004761 -0.012480 0.001190
# 4 -0.002264 0.002493 -0.004761 0.024993 0.010129 -0.000681
# 5 0.001318 0.004264 -0.012480 0.010129 0.053045 -0.009572
# 6 -0.000224 0.000385 0.001190 -0.000681 -0.009572 0.015273
#
#
# Mechanical properties :
#
#
# Convention : Reuss Voigt Hill
#
# Bulk Modulus (GPa) = 76.26247 98.05127 87.15687
# Shear Modulus (GPa) = 37.79092 58.20811 47.99951
#
# Velocity S-wave (km/s) = 3.72816 4.62693 4.20165
# Velocity P-wave (km/s) = 6.82503 8.03786 7.45615
#
# Compressibility (1/GPa) = 0.01311261
#
# Stress axis : x y z
#
# Youngs Moduli (GPa) = 123.32523 198.13291 93.34303
#
# Poissons Ratio (x) = 0.41670 0.06568
# Poissons Ratio (y) = 0.25937 0.24002
# Poissons Ratio (z) = 0.08677 0.50948
#
# Static dielectric constant tensor:
#      x y z
#    x 2.324110 -0.024820 -0.126370 
#    y -0.024820 2.161290 -0.023130 
#    z -0.126370 -0.023130 2.092470 
# 
# From -- ./inp_files/61532.got.cif
#   From: 2010.05.17/outbox.cif.g08.bks.cpg/sg2_31_cif.got.tgz:61532.got - 2010.06.03 11:33:40.
