data_PCOD9021429
_publ_section_title
;
Structure prediction by ZEFSAII (Michael W. Deem and Ramdas Pophale) SiO2 
 PCOD9021429
Probable space group: P -1
;
_chemical_formula_sum "Si O2"
_cell_formula_units_Z 16
_cell_length_a 5.825963
_cell_length_b 11.395881
_cell_length_c 12.006722
_cell_angle_alpha 75.697532
_cell_angle_beta 102.072504
_cell_angle_gamma 124.778553
_cell_volume 632.119491
_symmetry_space_group_name_H-M "P -1"
_symmetry_group_IT_number 2
_symmetry_cell_setting 'triclinic'
loop_
_space_group_symop_operation_xyz
x,y,z
-x,-y,-z
loop_
_atom_site_type_symbol
_atom_site_label
_atom_site_fract_x
_atom_site_fract_y
_atom_site_fract_z
Si Si1 0.077050 0.764499 0.261445
Si Si2 0.711017 0.306115 0.294804
Si Si3 0.004739 0.281505 0.114201
Si Si4 0.195776 0.932386 0.042414
Si Si5 0.520035 0.522892 0.187446
Si Si6 0.157881 0.215420 0.546609
Si Si7 0.896439 0.897537 0.665880
Si Si8 0.740750 0.447547 0.632356
O O1 0.773179 0.686406 0.188161
O O2 0.016582 0.758629 0.386987
O O3 0.243200 0.916853 0.181594
O O4 0.210024 0.670915 0.281769
O O5 0.800896 0.273808 0.192553
O O6 0.633473 0.419995 0.222007
O O7 0.436958 0.165450 0.353561
O O8 0.953759 0.406648 0.388380
O O9 0.262797 0.449746 0.093755
O O10 0.070277 0.168876 0.203303
O O11 0.936765 0.222424 0.997164
O O12 0.500000 0.000000 0.000000
O O13 0.000000 0.000000 0.000000
O O14 0.371427 0.496503 0.296995
O O15 0.052051 0.172306 0.420629
O O16 0.478787 0.352800 0.546161
O O17 0.109810 0.067978 0.630093
#
# Coordination Sequence:
#
# PCOD9021429 Si02
#       8
#     2   2   2   2   2   2   2   2
#     4  10  22  41  66  91 132 166 221 271 331 397
#     4   9  19  38  62  91 124 170 213 271 328 395
#     4  10  22  41  66  91 132 166 221 271 331 397
#     4  12  30  45  69 103 133 180 224 271 342 400
#     4   8  18  39  65  90 122 166 215 271 334 386
#     4  10  22  38  61  92 129 172 216 269 333 396
#     4  10  22  38  61  92 129 172 216 269 333 396
#     4   9  19  38  62  91 124 170 213 271 328 395
#
# _framework density 25.311671
#
# number of rings (size 3 to 8) (size 9 to 14) (size 15 to 20)
#    0.000    2.250    0.000    0.750   10.500    2.000 
#    0.000   29.375    0.000    0.000    0.000    0.000 
#    0.000    0.000    0.000    0.000    0.000    0.000 
#
# Total GULP energy -89130.940589 kJ/mol
# GULP energy per Si atom -5570.683787 kJ/mol
# Density = 2.525406 g / cm^3
# Si number density = 25.311671 Si / 1000 Ang^3
#
#
#
# Elastic Constant Matrix: (Units=GPa)
#
#
# Indices 1 2 3 4 5 6 
#
# 1 89.2096 29.8896 31.0208 -4.4086 -26.6725 -9.5977
# 2 29.8896 77.4227 8.7242 11.4795 -14.5260 -0.9002
# 3 31.0208 8.7242 85.6865 -5.7968 -20.5033 4.7513
# 4 -4.4086 11.4795 -5.7968 43.1274 -2.5852 -0.6953
# 5 -26.6725 -14.5260 -20.5033 -2.5852 21.6637 -4.4026
# 6 -9.5977 -0.9002 4.7513 -0.6953 -4.4026 37.4596
#
#
#
# Elastic Compliance Matrix: (Units=1/GPa)
#
#
# Indices 1 2 3 4 5 6 
#
# 1 0.021751 -0.004171 -0.001701 0.004726 0.024702 0.008679
# 2 -0.004171 0.016193 0.001067 -0.004224 0.006195 -0.000165
# 3 -0.001701 0.001067 0.015627 0.002443 0.013549 -0.000754
# 4 0.004726 -0.004224 0.002443 0.025690 0.008834 0.002314
# 5 0.024702 0.006195 0.013549 0.008834 0.097944 0.016434
# 6 0.008679 -0.000165 -0.000754 0.002314 0.016434 0.030985
#
#
# Mechanical properties :
#
#
# Convention : Reuss Voigt Hill
#
# Bulk Modulus (GPa) = 22.74728 43.50980 33.12854
# Shear Modulus (GPa) = 21.50970 32.62909 27.06939
#
# Velocity S-wave (km/s) = 2.91828 3.59429 3.27378
# Velocity P-wave (km/s) = 4.51238 5.86960 5.23516
#
# Compressibility (1/GPa) = 0.04396129
#
# Stress axis : x y z
#
# Youngs Moduli (GPa) = 45.97447 61.75622 63.99299
#
# Poissons Ratio (x) = 0.25757 0.10884
# Poissons Ratio (y) = 0.19175 -0.06827
# Poissons Ratio (z) = 0.07819 -0.06589
#
# Static dielectric constant tensor:
#      x y z
#    x 2.133390 0.169460 0.009450 
#    y 0.169460 2.286160 -0.060820 
#    z 0.009450 -0.060820 1.972290 
# 
# From -- ./inp_files/52207.got.cif
#   From: 2010.05.17/outbox.cif.g08.bks.cpg/sg2_27_cif.got.tgz:52207.got - 2010.06.03 11:33:40.
