data_PCOD9021465
_publ_section_title
;
Structure prediction by ZEFSAII (Michael W. Deem and Ramdas Pophale) SiO2 
 PCOD9021465
Probable space group: P -1
;
_chemical_formula_sum "Si O2"
_cell_formula_units_Z 16
_cell_length_a 6.712411
_cell_length_b 13.834150
_cell_length_c 8.179785
_cell_angle_alpha 91.300845
_cell_angle_beta 111.746927
_cell_angle_gamma 64.194025
_cell_volume 626.375962
_symmetry_space_group_name_H-M "P -1"
_symmetry_group_IT_number 2
_symmetry_cell_setting 'triclinic'
loop_
_space_group_symop_operation_xyz
x,y,z
-x,-y,-z
loop_
_atom_site_type_symbol
_atom_site_label
_atom_site_fract_x
_atom_site_fract_y
_atom_site_fract_z
Si Si1 0.512919 0.920716 0.852879
Si Si2 0.270620 0.785668 0.275795
Si Si3 0.921777 0.360855 0.296400
Si Si4 0.993476 0.340794 0.678822
Si Si5 0.904510 0.679875 0.963007
Si Si6 0.766903 0.021303 0.538012
Si Si7 0.129483 0.844997 0.862091
Si Si8 0.566441 0.439379 0.738395
O O1 0.764521 0.810245 0.906933
O O2 0.412478 0.984196 0.653055
O O3 0.336075 0.869463 0.847723
O O4 0.500000 0.000000 0.000000
O O5 0.061922 0.761327 0.296708
O O6 0.339268 0.858577 0.415113
O O7 0.479679 0.663560 0.313820
O O8 0.180173 0.838260 0.072035
O O9 0.049231 0.335376 0.508990
O O10 0.866273 0.262271 0.220719
O O11 0.102216 0.369012 0.215728
O O12 0.801246 0.383248 0.929182
O O13 0.661975 0.463102 0.251715
O O14 0.164396 0.342961 0.877701
O O15 0.272329 0.555966 0.366578
O O16 0.000000 0.000000 0.500000
O O17 0.881910 0.941891 0.723019
#
# Coordination Sequence:
#
# PCOD9021465 Si02
#       8
#     2   2   2   2   2   2   2   2
#     4  11  26  44  59  89 134 167 208 265 326 370
#     4   9  19  38  59  95 124 149 218 260 307 358
#     4  12  18  39  68  97 120 170 216 249 315 367
#     4   8  19  32  62  90 124 151 207 252 297 359
#     4   9  22  37  60  92 126 162 202 266 307 371
#     4  10  22  38  62  87 116 166 213 259 303 377
#     4  11  23  36  69  89 123 169 212 259 310 375
#     4   8  20  35  67  93 129 157 212 263 298 377
#
# _framework density 25.543762999999998
#
# number of rings (size 3 to 8) (size 9 to 14) (size 15 to 20)
#    1.500    0.500    2.500    2.625    8.750    1.000 
#    2.250    1.875    0.000    0.750    0.000    0.000 
#    0.000    0.000    0.000    0.000    0.000    0.000 
#
# Total GULP energy -89116.969038 kJ/mol
# GULP energy per Si atom -5569.810565 kJ/mol
# Density = 2.548562 g / cm^3
# Si number density = 25.543763 Si / 1000 Ang^3
#
#
#
# Elastic Constant Matrix: (Units=GPa)
#
#
# Indices 1 2 3 4 5 6 
#
# 1 65.4683 25.0199 29.4808 14.5497 4.2424 -1.8891
# 2 25.0199 160.5490 47.5355 22.4023 6.0883 -25.2011
# 3 29.4808 47.5355 169.8686 36.3000 -25.4272 -16.5429
# 4 14.5497 22.4023 36.3000 30.1794 -11.9995 -8.2035
# 5 4.2424 6.0883 -25.4272 -11.9995 26.8428 7.8546
# 6 -1.8891 -25.2011 -16.5429 -8.2035 7.8546 27.0682
#
#
#
# Elastic Compliance Matrix: (Units=1/GPa)
#
#
# Indices 1 2 3 4 5 6 
#
# 1 0.019475 -0.000719 -0.002612 -0.009768 -0.009425 -0.001132
# 2 -0.000719 0.009265 -0.001750 -0.005575 -0.008568 0.008302
# 3 -0.002612 -0.001750 0.009058 -0.005592 0.006881 0.000032
# 4 -0.009768 -0.005575 -0.005592 0.058354 0.023103 0.001692
# 5 -0.009425 -0.008568 0.006881 0.023103 0.062048 -0.015432
# 6 -0.001132 0.008302 0.000032 0.001692 -0.015432 0.049605
#
#
# Mechanical properties :
#
#
# Convention : Reuss Voigt Hill
#
# Bulk Modulus (GPa) = 36.18634 66.66203 51.42419
# Shear Modulus (GPa) = 22.00897 36.40807 29.20852
#
# Velocity S-wave (km/s) = 2.93852 3.77944 3.38519
# Velocity P-wave (km/s) = 5.07054 6.72305 5.95440
#
# Compressibility (1/GPa) = 0.02763473
#
# Stress axis : x y z
#
# Youngs Moduli (GPa) = 51.34909 107.93323 110.39687
#
# Poissons Ratio (x) = 0.07758 0.28839
# Poissons Ratio (y) = 0.03691 0.19325
# Poissons Ratio (z) = 0.13414 0.18894
#
# Static dielectric constant tensor:
#      x y z
#    x 2.175940 0.017880 -0.087540 
#    y 0.017880 2.001200 -0.014080 
#    z -0.087540 -0.014080 2.145690 
# 
# From -- ./inp_files/207425.got.cif
#   From: 2010.05.17/outbox.cif.g08.bks.cpg/sg2_104_cif.got.tgz:207425.got - 2010.06.03 11:33:40.
