data_PCOD9021597
_publ_section_title
;
Structure prediction by ZEFSAII (Michael W. Deem and Ramdas Pophale) SiO2 
 PCOD9021597
Probable space group: P -1
;
_chemical_formula_sum "Si O2"
_cell_formula_units_Z 14
_cell_length_a 19.229036
_cell_length_b 16.575604
_cell_length_c 16.133055
_cell_angle_alpha 23.582868
_cell_angle_beta 159.349555
_cell_angle_gamma 159.865743
_cell_volume 592.996920
_symmetry_space_group_name_H-M "P -1"
_symmetry_group_IT_number 2
_symmetry_cell_setting 'triclinic'
loop_
_space_group_symop_operation_xyz
x,y,z
-x,-y,-z
loop_
_atom_site_type_symbol
_atom_site_label
_atom_site_fract_x
_atom_site_fract_y
_atom_site_fract_z
Si Si1 0.462318 0.125986 0.944006
Si Si2 0.346883 0.744863 0.315308
Si Si3 0.211848 0.374976 0.784810
Si Si4 0.611810 0.526094 0.868851
Si Si5 0.706614 0.908166 0.958053
Si Si6 0.904610 0.230362 0.739805
Si Si7 0.908378 0.305406 0.155523
O O1 0.677860 0.248454 0.003123
O O2 0.462318 0.927304 0.191858
O O3 0.506173 0.348021 0.839192
O O4 0.207321 0.959605 0.767865
O O5 0.528643 0.708997 0.602427
O O6 0.248996 0.876643 0.134743
O O7 0.134026 0.462771 0.320039
O O8 0.034497 0.229273 0.802342
O O9 0.163770 0.579447 0.523040
O O10 0.500000 0.500000 0.000000
O O11 0.132932 0.195228 0.786072
O O12 0.895868 0.680523 0.049522
O O13 0.520752 0.333416 0.024635
O O14 0.685923 0.983901 0.770722
O O15 0.000000 0.500000 0.000000
#
# Coordination Sequence:
#
# PCOD9021597 Si02
#       7
#     2   2   2   2   2   2   2
#     4   9  20  38  62  90 125 171 212 258 317 369
#     4  10  22  38  63  93 129 166 211 264 311 381
#     4  11  24  47  66  93 128 165 217 268 315 385
#     4  11  23  41  61  97 131 163 216 264 315 382
#     4  11  23  41  66  92 124 171 209 260 325 375
#     4  11  25  43  66  94 128 168 211 268 320 378
#     4   9  18  39  62  88 127 168 215 260 306 376
#
# _framework density 23.608891
#
# number of rings (size 3 to 8) (size 9 to 14) (size 15 to 20)
#    0.000    1.714    1.429    2.143    0.000    4.571 
#    0.000    6.429    0.000    0.000    0.000    0.000 
#    0.000    0.000    0.000    0.000    0.000    0.000 
#
# Total GULP energy -77987.272449 kJ/mol
# GULP energy per Si atom -5570.519461 kJ/mol
# Density = 2.355516 g / cm^3
# Si number density = 23.608891 Si / 1000 Ang^3
#
#
#
# Elastic Constant Matrix: (Units=GPa)
#
#
# Indices 1 2 3 4 5 6 
#
# 1 137.0200 49.1841 34.6932 -5.5249 11.7765 18.7242
# 2 49.1841 107.4834 51.0057 -5.9730 5.1113 -8.2654
# 3 34.6932 51.0057 114.6497 0.8759 11.5044 7.1164
# 4 -5.5249 -5.9730 0.8759 29.4539 3.7296 -5.0500
# 5 11.7765 5.1113 11.5044 3.7296 16.1047 -17.9874
# 6 18.7242 -8.2654 7.1164 -5.0500 -17.9874 46.6575
#
#
#
# Elastic Compliance Matrix: (Units=1/GPa)
#
#
# Indices 1 2 3 4 5 6 
#
# 1 0.016265 -0.009567 0.004766 0.001857 -0.039448 -0.023956
# 2 -0.009567 0.018529 -0.009720 0.001907 0.030659 0.020631
# 3 0.004766 -0.009720 0.016047 -0.000633 -0.032641 -0.018734
# 4 0.001857 0.001907 -0.000633 0.035939 -0.010249 -0.000372
# 5 -0.039448 0.030659 -0.032641 -0.010249 0.237034 0.116513
# 6 -0.023956 0.020631 -0.018734 -0.000372 0.116513 0.082437
#
#
# Mechanical properties :
#
#
# Convention : Reuss Voigt Hill
#
# Bulk Modulus (GPa) = 45.87524 69.87992 57.87758
# Shear Modulus (GPa) = 11.29793 33.39457 22.34625
#
# Velocity S-wave (km/s) = 2.18994 3.76505 3.07989
# Velocity P-wave (km/s) = 5.08606 6.96879 6.10049
#
# Compressibility (1/GPa) = 0.02179825
#
# Stress axis : x y z
#
# Youngs Moduli (GPa) = 61.48246 53.97060 62.31615
#
# Poissons Ratio (x) = 0.51636 -0.29699
# Poissons Ratio (y) = 0.58823 0.60569
# Poissons Ratio (z) = -0.29301 0.52457
#
# Static dielectric constant tensor:
#      x y z
#    x 1.941620 -0.045570 -0.018030 
#    y -0.045570 2.020390 -0.027180 
#    z -0.018030 -0.027180 1.883710 
# 
# From -- ./inp_files/578406.got.cif
#   From: 2010.05.17/outbox.cif.g08.bks.cpg/sg2_290_cif.got.tgz:578406.got - 2010.06.03 11:33:40.
