data_PCOD9021632
_publ_section_title
;
Structure prediction by ZEFSAII (Michael W. Deem and Ramdas Pophale) SiO2 
 PCOD9021632
Probable space group: P -1
;
_chemical_formula_sum "Si O2"
_cell_formula_units_Z 16
_cell_length_a 4.993245
_cell_length_b 14.923157
_cell_length_c 14.155938
_cell_angle_alpha 56.634350
_cell_angle_beta 53.885643
_cell_angle_gamma 51.972783
_cell_volume 641.641779
_symmetry_space_group_name_H-M "P -1"
_symmetry_group_IT_number 2
_symmetry_cell_setting 'triclinic'
loop_
_space_group_symop_operation_xyz
x,y,z
-x,-y,-z
loop_
_atom_site_type_symbol
_atom_site_label
_atom_site_fract_x
_atom_site_fract_y
_atom_site_fract_z
Si Si1 0.303392 0.812020 0.808744
Si Si2 0.590052 0.159932 0.659677
Si Si3 0.526389 0.017821 0.094449
Si Si4 0.712539 0.404940 0.093513
Si Si5 0.241708 0.436479 0.616762
Si Si6 0.491048 0.454574 0.756752
Si Si7 0.573261 0.248680 0.972566
Si Si8 0.424106 0.027991 0.610172
O O1 0.446998 0.691279 0.789483
O O2 0.311643 0.755014 0.941933
O O3 0.883386 0.901694 0.825077
O O4 0.503302 0.898840 0.713559
O O5 0.419782 0.301687 0.618290
O O6 0.614650 0.098415 0.587083
O O7 0.988651 0.113425 0.653139
O O8 0.367689 0.102012 0.800062
O O9 0.705268 0.109522 0.008679
O O10 0.500000 0.000000 0.000000
O O11 0.720782 0.468223 0.153673
O O12 0.131109 0.323684 0.021940
O O13 0.500000 0.500000 0.000000
O O14 0.500000 0.500000 0.500000
O O15 0.254840 0.444313 0.724424
O O16 0.815921 0.492342 0.641156
O O17 0.699287 0.321882 0.833258
O O18 0.500000 0.000000 0.500000
#
# Coordination Sequence:
#
# PCOD9021632 Si02
#       8
#     2   2   2   2   2   2   2   2
#     4  10  23  39  62  99 139 176 225 284 337 411
#     4  11  24  46  69 100 136 177 226 290 339 402
#     4  10  22  38  63  97 139 181 218 275 349 418
#     4  11  23  40  65 101 146 180 224 288 350 415
#     4  12  29  50  70  98 139 181 242 289 331 411
#     4  12  26  44  73 100 133 191 231 276 358 409
#     4  11  22  40  65 101 144 170 227 289 344 420
#     4  11  24  46  71 101 135 181 229 281 346 409
#
# _framework density 24.936029999999999
#
# number of rings (size 3 to 8) (size 9 to 14) (size 15 to 20)
#    0.000    1.000    2.500    3.375    5.250    3.500 
#    0.000    0.000    0.000    0.000    0.000    0.000 
#    0.000    0.000    0.000    0.000    0.000    0.000 
#
# Total GULP energy -89404.693984 kJ/mol
# GULP energy per Si atom -5587.793374 kJ/mol
# Density = 2.487927 g / cm^3
# Si number density = 24.936030 Si / 1000 Ang^3
#
#
#
# Elastic Constant Matrix: (Units=GPa)
#
#
# Indices 1 2 3 4 5 6 
#
# 1 112.8790 32.4143 5.2013 -3.6261 6.6334 21.7580
# 2 32.4143 164.6331 22.9064 -24.5953 -1.4882 27.7962
# 3 5.2013 22.9064 71.4520 -6.7350 -4.6932 11.7333
# 4 -3.6261 -24.5953 -6.7350 30.4513 11.1404 -2.3108
# 5 6.6334 -1.4882 -4.6932 11.1404 42.2115 6.2881
# 6 21.7580 27.7962 11.7333 -2.3108 6.2881 54.8358
#
#
#
# Elastic Compliance Matrix: (Units=1/GPa)
#
#
# Indices 1 2 3 4 5 6 
#
# 1 0.009939 -0.001428 0.000192 0.000276 -0.001200 -0.003112
# 2 -0.001428 0.007917 -0.001466 0.005991 -0.000826 -0.002786
# 3 0.000192 -0.001466 0.015133 0.001381 0.001638 -0.002701
# 4 0.000276 0.005991 0.001381 0.041884 -0.010665 -0.000454
# 5 -0.001200 -0.000826 0.001638 -0.010665 0.027299 -0.003036
# 6 -0.003112 -0.002786 -0.002701 -0.000454 -0.003036 0.021790
#
#
# Mechanical properties :
#
#
# Convention : Reuss Voigt Hill
#
# Bulk Modulus (GPa) = 36.25062 52.22313 44.23687
# Shear Modulus (GPa) = 36.08531 44.72920 40.40726
#
# Velocity S-wave (km/s) = 3.80822 4.23987 4.02983
# Velocity P-wave (km/s) = 5.82287 6.70500 6.27944
#
# Compressibility (1/GPa) = 0.02758573
#
# Stress axis : x y z
#
# Youngs Moduli (GPa) = 100.60911 126.30787 66.08180
#
# Poissons Ratio (x) = 0.18037 -0.01272
# Poissons Ratio (y) = 0.14367 0.09689
# Poissons Ratio (z) = -0.01936 0.18520
#
# Static dielectric constant tensor:
#      x y z
#    x 1.877570 -0.112170 0.099520 
#    y -0.112170 1.906340 0.110100 
#    z 0.099520 0.110100 2.494160 
# 
# From -- ./inp_files/484322.got.cif
#   From: 2010.05.17/outbox.cif.g08.bks.cpg/sg2_243_cif.got.tgz:484322.got - 2010.06.03 11:33:40.
