data_PCOD9021370
_publ_section_title
;
Structure prediction by ZEFSAII (Michael W. Deem and Ramdas Pophale) SiO2 
 PCOD9021370
Probable space group: P -1
;
_chemical_formula_sum "Si O2"
_cell_formula_units_Z 10
_cell_length_a 10.933355
_cell_length_b 12.092656
_cell_length_c 5.018698
_cell_angle_alpha 80.381466
_cell_angle_beta 73.598665
_cell_angle_gamma 36.626875
_cell_volume 377.699960
_symmetry_space_group_name_H-M "P -1"
_symmetry_group_IT_number 2
_symmetry_cell_setting 'triclinic'
loop_
_space_group_symop_operation_xyz
x,y,z
-x,-y,-z
loop_
_atom_site_type_symbol
_atom_site_label
_atom_site_fract_x
_atom_site_fract_y
_atom_site_fract_z
Si Si1 0.296544 0.605584 0.918121
Si Si2 0.061365 0.831283 0.461926
Si Si3 0.037782 0.334157 0.238688
Si Si4 0.381037 0.029635 0.808154
Si Si5 0.302507 0.364046 0.258978
O O1 0.112734 0.788803 0.137049
O O2 0.289337 0.477582 0.022423
O O3 0.500000 0.500000 0.000000
O O4 0.255375 0.668342 0.614908
O O5 0.913246 0.826323 0.611546
O O6 0.000000 0.000000 0.500000
O O7 0.165808 0.354706 0.242545
O O8 0.808235 0.521821 0.441039
O O9 0.140275 0.238927 0.918818
O O10 0.500000 0.000000 0.500000
O O11 0.453570 0.849497 0.805445
O O12 0.500000 0.000000 0.000000
#
# Coordination Sequence:
#
# PCOD9021370 Si02
#       5
#     2   2   2   2   2
#     4  11  25  45  68 100 137 186 229 284 349 415
#     4  11  25  45  70 101 136 185 231 282 351 410
#     4   9  21  41  69 100 136 175 231 289 343 411
#     4  10  22  38  60  98 133 172 219 276 350 403
#     4   9  21  42  67 100 136 180 228 289 348 411
#
# _framework density 26.476044000000002
#
# number of rings (size 3 to 8) (size 9 to 14) (size 15 to 20)
#    0.000    2.000    0.000    1.200    2.800   16.000 
#    7.200    0.000    0.000    0.000    0.000    0.000 
#    0.000    0.000    0.000    0.000    0.000    0.000 
#
# Total GULP energy -55774.736661 kJ/mol
# GULP energy per Si atom -5577.473666 kJ/mol
# Density = 2.641578 g / cm^3
# Si number density = 26.476044 Si / 1000 Ang^3
#
#
#
# Elastic Constant Matrix: (Units=GPa)
#
#
# Indices 1 2 3 4 5 6 
#
# 1 146.6692 45.0982 12.1083 -3.8418 7.6845 19.8301
# 2 45.0982 187.7052 49.7048 25.1633 0.9418 35.7276
# 3 12.1083 49.7048 148.0125 30.8835 26.7967 4.7907
# 4 -3.8418 25.1633 30.8835 52.8682 5.7689 9.9651
# 5 7.6845 0.9418 26.7967 5.7689 33.1704 -1.3954
# 6 19.8301 35.7276 4.7907 9.9651 -1.3954 55.6733
#
#
#
# Elastic Compliance Matrix: (Units=1/GPa)
#
#
# Indices 1 2 3 4 5 6 
#
# 1 0.007802 -0.001735 -0.000017 0.002034 -0.002186 -0.002083
# 2 -0.001735 0.007212 -0.002161 -0.001881 0.002126 -0.003434
# 3 -0.000017 -0.002161 0.009529 -0.003997 -0.006890 0.001116
# 4 0.002034 -0.001881 -0.003997 0.023068 -0.001341 -0.003336
# 5 -0.002186 0.002126 -0.006890 -0.001341 0.036442 0.001161
# 6 -0.002083 -0.003434 0.001116 -0.003336 0.001161 0.021438
#
#
# Mechanical properties :
#
#
# Convention : Reuss Voigt Hill
#
# Bulk Modulus (GPa) = 59.82101 77.35661 68.58881
# Shear Modulus (GPa) = 42.05580 53.37409 47.71495
#
# Velocity S-wave (km/s) = 3.98986 4.49479 4.24983
# Velocity P-wave (km/s) = 6.62335 7.49790 7.07415
#
# Compressibility (1/GPa) = 0.01671653
#
# Stress axis : x y z
#
# Youngs Moduli (GPa) = 128.16426 138.66051 104.94612
#
# Poissons Ratio (x) = 0.24064 0.00175
# Poissons Ratio (y) = 0.22242 0.22680
# Poissons Ratio (z) = 0.00214 0.29966
#
# Static dielectric constant tensor:
#      x y z
#    x 2.512020 -0.506140 0.206630 
#    y -0.506140 2.603380 -0.273140 
#    z 0.206630 -0.273140 2.218610 
# 
# From -- ./inp_files/539.got.cif
#   From: 2010.05.17/outbox.cif.g08.bks.cpg/sg2_1_cif.got.tgz:539.got - 2010.06.03 11:33:40.
