data_PCOD9021906
_publ_section_title
;
Structure prediction by ZEFSAII (Michael W. Deem and Ramdas Pophale) SiO2 
 PCOD9021906
Probable space group: P -1
;
_chemical_formula_sum "Si O2"
_cell_formula_units_Z 16
_cell_length_a 15.422793
_cell_length_b 11.330055
_cell_length_c 9.016574
_cell_angle_alpha 114.837929
_cell_angle_beta 70.656700
_cell_angle_gamma 152.700083
_cell_volume 652.433510
_symmetry_space_group_name_H-M "P -1"
_symmetry_group_IT_number 2
_symmetry_cell_setting 'triclinic'
loop_
_space_group_symop_operation_xyz
x,y,z
-x,-y,-z
loop_
_atom_site_type_symbol
_atom_site_label
_atom_site_fract_x
_atom_site_fract_y
_atom_site_fract_z
Si Si1 0.346484 0.705594 0.502021
Si Si2 0.918591 0.503246 0.234479
Si Si3 0.117200 0.484388 0.061958
Si Si4 0.882408 0.980890 0.094714
Si Si5 0.407912 0.534383 0.194193
Si Si6 0.528442 0.751209 0.667761
Si Si7 0.695936 0.772777 0.391952
Si Si8 0.467011 0.126275 0.947919
O O1 0.149579 0.518600 0.582750
O O2 0.303065 0.530390 0.324822
O O3 0.457832 0.776382 0.613071
O O4 0.500000 0.000000 0.500000
O O5 0.073324 0.579038 0.182806
O O6 0.716908 0.186071 0.139129
O O7 0.945557 0.618894 0.128520
O O8 0.334946 0.708558 0.076920
O O9 0.985122 0.233634 0.108198
O O10 0.698771 0.711828 0.961462
O O11 0.850333 0.945988 0.270025
O O12 0.000000 0.000000 0.000000
O O13 0.523613 0.613970 0.304119
O O14 0.528595 0.760588 0.122479
O O15 0.711708 0.903216 0.576674
O O16 0.365948 0.438169 0.609558
O O17 0.552858 0.832793 0.860604
#
# Coordination Sequence:
#
# PCOD9021906 Si02
#       8
#     2   2   2   2   2   2   2   2
#     4  11  23  42  68  99 137 180 229 289 343 401
#     4  11  25  44  71  98 139 183 234 287 336 413
#     4  11  25  42  67 105 134 181 233 282 342 411
#     4  12  23  41  67  96 143 175 221 289 341 413
#     4  11  23  40  70 103 126 183 228 275 350 406
#     4  10  22  38  67 101 134 174 227 283 341 402
#     4  10  22  41  66 100 135 176 229 278 341 418
#     4  12  21  44  73  99 134 182 234 279 343 408
#
# _framework density 24.523572999999999
#
# number of rings (size 3 to 8) (size 9 to 14) (size 15 to 20)
#    0.000    1.000    5.000    1.500    3.500    0.000 
#    0.000    3.750    0.000    0.000    0.000    0.000 
#    0.000    0.000    0.000    0.000    0.000    0.000 
#
# Total GULP energy -89505.947105 kJ/mol
# GULP energy per Si atom -5594.121694 kJ/mol
# Density = 2.446776 g / cm^3
# Si number density = 24.523573 Si / 1000 Ang^3
#
#
#
# Elastic Constant Matrix: (Units=GPa)
#
#
# Indices 1 2 3 4 5 6 
#
# 1 104.0546 32.7098 29.2893 -25.2726 -1.8318 -16.2706
# 2 32.7098 67.0180 33.1053 -33.5686 -7.2014 -1.7238
# 3 29.2893 33.1053 156.9153 -39.2620 -22.3149 -9.4799
# 4 -25.2726 -33.5686 -39.2620 50.6821 0.9178 3.0610
# 5 -1.8318 -7.2014 -22.3149 0.9178 54.4155 -17.9415
# 6 -16.2706 -1.7238 -9.4799 3.0610 -17.9415 44.2807
#
#
#
# Elastic Compliance Matrix: (Units=1/GPa)
#
#
# Indices 1 2 3 4 5 6 
#
# 1 0.012476 -0.004259 -0.000243 0.002907 0.001248 0.004671
# 2 -0.004259 0.024303 -0.000684 0.013447 0.002316 -0.000756
# 3 -0.000243 -0.000684 0.008912 0.006055 0.004509 0.003200
# 4 0.002907 0.013447 0.006055 0.034553 0.004550 0.002343
# 5 0.001248 0.002316 0.004509 0.004550 0.024115 0.010970
# 6 0.004671 -0.000756 0.003200 0.002343 0.010970 0.029238
#
#
# Mechanical properties :
#
#
# Convention : Reuss Voigt Hill
#
# Bulk Modulus (GPa) = 28.31344 57.57740 42.94542
# Shear Modulus (GPa) = 32.10437 45.40120 38.75279
#
# Velocity S-wave (km/s) = 3.62211 4.30738 3.97952
# Velocity P-wave (km/s) = 5.39104 6.94747 6.21815
#
# Compressibility (1/GPa) = 0.03531891
#
# Stress axis : x y z
#
# Youngs Moduli (GPa) = 80.15403 41.14789 112.20679
#
# Poissons Ratio (x) = 0.17523 0.02728
# Poissons Ratio (y) = 0.34134 0.07677
# Poissons Ratio (z) = 0.01949 0.02815
#
# Static dielectric constant tensor:
#      x y z
#    x 1.967980 0.095830 -0.031600 
#    y 0.095830 2.026480 -0.042460 
#    z -0.031600 -0.042460 1.985190 
# 
# From -- ./inp_files/307995.got.cif
#   From: 2010.05.17/outbox.cif.g08.bks.cpg/sg2_154_cif.got.tgz:307995.got - 2010.06.03 11:33:40.
