data_PCOD9021626
_publ_section_title
;
Structure prediction by ZEFSAII (Michael W. Deem and Ramdas Pophale) SiO2 
 PCOD9021626
Probable space group: P -1
;
_chemical_formula_sum "Si O2"
_cell_formula_units_Z 14
_cell_length_a 7.093977
_cell_length_b 18.625871
_cell_length_c 16.399766
_cell_angle_alpha 157.015728
_cell_angle_beta 43.805642
_cell_angle_gamma 129.333447
_cell_volume 581.951547
_symmetry_space_group_name_H-M "P -1"
_symmetry_group_IT_number 2
_symmetry_cell_setting 'triclinic'
loop_
_space_group_symop_operation_xyz
x,y,z
-x,-y,-z
loop_
_atom_site_type_symbol
_atom_site_label
_atom_site_fract_x
_atom_site_fract_y
_atom_site_fract_z
Si Si1 0.221143 0.630966 0.713940
Si Si2 0.752248 0.713327 0.419770
Si Si3 0.969385 0.971518 0.075575
Si Si4 0.219859 0.611260 0.424251
Si Si5 0.156079 0.446026 0.112920
Si Si6 0.627326 0.083393 0.767755
Si Si7 0.841829 0.756822 0.254075
O O1 0.500000 0.500000 0.500000
O O2 0.068626 0.658654 0.877912
O O3 0.022850 0.504272 0.594617
O O4 0.218711 0.832721 0.886899
O O5 0.458943 0.635907 0.438923
O O6 0.980499 0.624310 0.315037
O O7 0.833120 0.667478 0.252456
O O8 0.705363 0.935567 0.661871
O O9 0.696549 0.871964 0.077016
O O10 0.905443 0.181483 0.346341
O O11 0.000000 0.000000 0.000000
O O12 0.332296 0.508482 0.198391
O O13 0.286570 0.330017 0.875319
O O14 0.839943 0.232020 0.856274
O O15 0.697310 0.962907 0.536910
#
# Coordination Sequence:
#
# PCOD9021626 Si02
#       7
#     2   2   2   2   2   2   2
#     4  10  26  44  63 103 133 173 236 276 345 399
#     4   9  18  39  64  91 133 176 221 259 347 397
#     4  11  24  45  72  97 134 186 224 287 343 401
#     4   9  24  43  62 101 132 168 237 271 333 415
#     4  10  22  38  63  96 139 173 214 293 331 388
#     4   8  20  37  62 103 128 165 248 259 330 421
#     4   9  18  37  66 100 130 184 219 278 333 412
#
# _framework density 24.056985000000001
#
# number of rings (size 3 to 8) (size 9 to 14) (size 15 to 20)
#    1.714    0.857    0.000    0.429    6.000    4.000 
#    0.000    0.714    0.000    0.000    0.000    0.000 
#    0.000    0.000    0.000    0.000    0.000    0.000 
#
# Total GULP energy -78036.733147 kJ/mol
# GULP energy per Si atom -5574.052368 kJ/mol
# Density = 2.400223 g / cm^3
# Si number density = 24.056985 Si / 1000 Ang^3
#
#
#
# Elastic Constant Matrix: (Units=GPa)
#
#
# Indices 1 2 3 4 5 6 
#
# 1 45.8850 7.7696 18.8802 1.0934 0.5009 -4.3228
# 2 7.7696 52.9337 30.0402 -3.2455 2.2966 -10.1923
# 3 18.8802 30.0402 58.0188 -0.7022 -8.9047 2.7099
# 4 1.0934 -3.2455 -0.7022 36.1545 -12.0637 2.2371
# 5 0.5009 2.2966 -8.9047 -12.0637 35.1160 -1.8947
# 6 -4.3228 -10.1923 2.7099 2.2371 -1.8947 35.0176
#
#
#
# Elastic Compliance Matrix: (Units=1/GPa)
#
#
# Indices 1 2 3 4 5 6 
#
# 1 0.026434 0.003565 -0.011331 -0.002356 -0.004017 0.005111
# 2 0.003565 0.031437 -0.018941 -0.000486 -0.006498 0.010735
# 3 -0.011331 -0.018941 0.032785 0.003298 0.010356 -0.009099
# 4 -0.002356 -0.000486 0.003298 0.031787 0.011709 -0.002085
# 5 -0.004017 -0.006498 0.010356 0.011709 0.035499 -0.002016
# 6 0.005111 0.010735 -0.009099 -0.002085 -0.002016 0.033041
#
#
# Mechanical properties :
#
#
# Convention : Reuss Voigt Hill
#
# Bulk Modulus (GPa) = 26.85355 30.02416 28.43886
# Shear Modulus (GPa) = 19.46948 27.93412 23.70180
#
# Velocity S-wave (km/s) = 2.84792 3.41128 3.14225
# Velocity P-wave (km/s) = 4.69051 5.29371 5.00121
#
# Compressibility (1/GPa) = 0.03723902
#
# Stress axis : x y z
#
# Youngs Moduli (GPa) = 37.83003 31.80970 30.50200
#
# Poissons Ratio (x) = -0.11339 0.34563
# Poissons Ratio (y) = -0.13485 0.57775
# Poissons Ratio (z) = 0.42867 0.60252
#
# Static dielectric constant tensor:
#      x y z
#    x 1.908970 0.030880 -0.007220 
#    y 0.030880 1.941960 -0.000110 
#    z -0.007220 -0.000110 2.005150 
# 
# From -- ./inp_files/484952.got.cif
#   From: 2010.05.17/outbox.cif.g08.bks.cpg/sg2_243_cif.got.tgz:484952.got - 2010.06.03 11:33:40.
