data_PCOD9021645
_publ_section_title
;
Structure prediction by ZEFSAII (Michael W. Deem and Ramdas Pophale) SiO2 
 PCOD9021645
Probable space group: P -1
;
_chemical_formula_sum "Si O2"
_cell_formula_units_Z 16
_cell_length_a 6.625438
_cell_length_b 7.307058
_cell_length_c 26.320684
_cell_angle_alpha 34.351399
_cell_angle_beta 96.223443
_cell_angle_gamma 110.006640
_cell_volume 638.185811
_symmetry_space_group_name_H-M "P -1"
_symmetry_group_IT_number 2
_symmetry_cell_setting 'triclinic'
loop_
_space_group_symop_operation_xyz
x,y,z
-x,-y,-z
loop_
_atom_site_type_symbol
_atom_site_label
_atom_site_fract_x
_atom_site_fract_y
_atom_site_fract_z
Si Si1 0.786791 0.312423 0.775159
Si Si2 0.796822 0.911335 0.717534
Si Si3 0.906805 0.082316 0.109142
Si Si4 0.428563 0.285031 0.908044
Si Si5 0.691243 0.762076 0.355189
Si Si6 0.691438 0.220520 0.162966
Si Si7 0.218849 0.197696 0.424258
Si Si8 0.269424 0.679483 0.464384
O O1 0.798694 0.597232 0.753085
O O2 0.857410 0.562731 0.669499
O O3 0.537585 0.010367 0.822186
O O4 0.930992 0.110378 0.842951
O O5 0.648803 0.674938 0.814561
O O6 0.674198 0.109341 0.636091
O O7 0.061233 0.200505 0.665388
O O8 0.855919 0.112718 0.159967
O O9 0.700528 0.861105 0.115253
O O10 0.000000 0.500000 0.000000
O O11 0.274605 0.372414 0.924198
O O12 0.500000 0.000000 0.000000
O O13 0.451789 0.453004 0.400263
O O14 0.687216 0.658013 0.438306
O O15 0.700189 0.110349 0.246893
O O16 0.313117 0.969062 0.444214
O O17 0.000000 0.000000 0.500000
O O18 0.000000 0.500000 0.500000
#
# Coordination Sequence:
#
# PCOD9021645 Si02
#       8
#     2   2   2   2   2   2   2   2
#     4  10  23  46  69 100 144 184 229 293 356 417
#     4  10  22  45  70  97 147 187 238 295 352 424
#     4  12  28  46  74 105 141 188 232 301 364 415
#     4  12  28  47  74 105 140 189 238 303 353 418
#     4  10  22  39  69 102 139 185 235 286 351 428
#     4  11  26  46  72 110 140 184 243 285 359 429
#     4  10  22  38  64 101 138 181 233 286 346 423
#     4   9  20  39  64  98 136 182 230 286 348 418
#
# _framework density 25.071066999999999
#
# number of rings (size 3 to 8) (size 9 to 14) (size 15 to 20)
#    0.000    1.500    1.250    1.875    7.000    5.500 
#    0.000    6.250    0.000    0.000    0.000    0.000 
#    0.000    0.000    0.000    0.000    0.000    0.000 
#
# Total GULP energy -89270.985693 kJ/mol
# GULP energy per Si atom -5579.436606 kJ/mol
# Density = 2.501400 g / cm^3
# Si number density = 25.071067 Si / 1000 Ang^3
#
#
#
# Elastic Constant Matrix: (Units=GPa)
#
#
# Indices 1 2 3 4 5 6 
#
# 1 82.3296 27.3968 45.2142 4.2366 30.4096 9.9357
# 2 27.3968 82.6160 10.2191 -8.0762 0.3224 -4.5315
# 3 45.2142 10.2191 101.2474 10.4056 33.0350 16.2185
# 4 4.2366 -8.0762 10.4056 35.3972 6.1351 4.7727
# 5 30.4096 0.3224 33.0350 6.1351 61.0644 -1.0959
# 6 9.9357 -4.5315 16.2185 4.7727 -1.0959 40.9358
#
#
#
# Elastic Compliance Matrix: (Units=1/GPa)
#
#
# Indices 1 2 3 4 5 6 
#
# 1 0.020357 -0.006292 -0.005496 -0.000535 -0.007142 -0.003589
# 2 -0.006292 0.014733 -0.000502 0.003322 0.003048 0.003051
# 3 -0.005496 -0.000502 0.015070 -0.002361 -0.005258 -0.004558
# 4 -0.000535 0.003322 -0.002361 0.030326 -0.001559 -0.002144
# 5 -0.007142 0.003048 -0.005258 -0.001559 0.023007 0.004952
# 6 -0.003589 0.003051 -0.004558 -0.002144 0.004952 0.027826
#
#
# Mechanical properties :
#
#
# Convention : Reuss Voigt Hill
#
# Bulk Modulus (GPa) = 39.09213 47.98368 43.53791
# Shear Modulus (GPa) = 30.40908 39.70368 35.05638
#
# Velocity S-wave (km/s) = 3.48647 3.98382 3.74342
# Velocity P-wave (km/s) = 5.64214 6.35151 6.00730
#
# Compressibility (1/GPa) = 0.02558060
#
# Stress axis : x y z
#
# Youngs Moduli (GPa) = 49.12351 67.87433 66.35770
#
# Poissons Ratio (x) = 0.42708 0.36467
# Poissons Ratio (y) = 0.30909 0.03331
# Poissons Ratio (z) = 0.26996 0.03407
#
# Static dielectric constant tensor:
#      x y z
#    x 2.341340 -1.500720 -0.015200 
#    y -1.500720 9.711930 -0.223740 
#    z -0.015200 -0.223740 2.073550 
# 
# From -- ./inp_files/621724.got.cif
#   From: 2010.05.17/outbox.cif.g08.bks.cpg/sg2_311_cif.got.tgz:621724.got - 2010.06.03 11:33:40.
