data_PCOD9021536
_publ_section_title
;
Structure prediction by ZEFSAII (Michael W. Deem and Ramdas Pophale) SiO2 
 PCOD9021536
Probable space group: P -1
;
_chemical_formula_sum "Si O2"
_cell_formula_units_Z 15
_cell_length_a 12.739770
_cell_length_b 5.076441
_cell_length_c 11.246394
_cell_angle_alpha 78.198479
_cell_angle_beta 119.650754
_cell_angle_gamma 93.675260
_cell_volume 618.145971
_symmetry_space_group_name_H-M "P -1"
_symmetry_group_IT_number 2
_symmetry_cell_setting 'triclinic'
loop_
_space_group_symop_operation_xyz
x,y,z
-x,-y,-z
loop_
_atom_site_type_symbol
_atom_site_label
_atom_site_fract_x
_atom_site_fract_y
_atom_site_fract_z
Si Si1 0.803001 0.372037 0.284681
Si Si2 0.134113 0.159764 0.906570
Si Si3 0.452747 0.788739 0.900467
Si Si4 0.717524 0.521913 0.732787
Si Si5 0.628224 0.981084 0.798211
Si Si6 0.816533 0.471557 0.548018
Si Si7 0.985582 0.940575 0.664335
Si Si8 0.000000 0.500000 0.000000
O O1 0.842752 0.621287 0.203843
O O2 0.690331 0.226093 0.182225
O O3 0.770705 0.484174 0.386562
O O4 0.912404 0.145550 0.367092
O O5 0.263103 0.086682 0.041434
O O6 0.048514 0.290741 0.945523
O O7 0.063629 0.907828 0.834640
O O8 0.507903 0.869545 0.797559
O O9 0.500000 0.500000 0.000000
O O10 0.500000 0.000000 0.000000
O O11 0.666651 0.816536 0.716249
O O12 0.722060 0.449754 0.602415
O O13 0.631744 0.300440 0.759726
O O14 0.854583 0.487757 0.864488
O O15 0.884833 0.732185 0.603300
O O16 0.916937 0.226059 0.619562
#
# Coordination Sequence:
#
# PCOD9021536 Si02
#       8
#     2   2   2   2   2   2   2   1
#     4  12  27  45  72 102 140 183 236 287 347 412
#     4  11  24  40  68 104 135 179 224 280 351 406
#     4  12  26  47  73 104 133 178 234 297 350 399
#     4  11  24  43  64  98 138 184 224 278 343 405
#     4  11  25  43  68  97 138 173 230 293 338 401
#     4  12  27  44  68 101 146 187 230 274 347 426
#     4  12  24  43  65 104 143 182 223 280 342 418
#     4  10  22  38  62  96 136 176 216 268 332 420
#
# _framework density 24.266110999999999
#
# number of rings (size 3 to 8) (size 9 to 14) (size 15 to 20)
#    0.000    0.533    4.000    3.200    9.333    2.133 
#    0.000    1.333    0.000    0.000    0.000    0.000 
#    0.000    0.000    0.000    0.000    0.000    0.000 
#
# Total GULP energy -83784.357151 kJ/mol
# GULP energy per Si atom -5585.623810 kJ/mol
# Density = 2.421088 g / cm^3
# Si number density = 24.266111 Si / 1000 Ang^3
#
#
#
# Elastic Constant Matrix: (Units=GPa)
#
#
# Indices 1 2 3 4 5 6 
#
# 1 62.3495 5.9827 -3.4395 8.4870 -13.1015 5.4358
# 2 5.9827 123.9106 23.4037 23.5890 -7.5246 7.4860
# 3 -3.4395 23.4037 49.1749 18.9088 -27.4499 -6.8508
# 4 8.4870 23.5890 18.9088 31.8316 -11.8090 -5.7084
# 5 -13.1015 -7.5246 -27.4499 -11.8090 39.3109 17.5996
# 6 5.4358 7.4860 -6.8508 -5.7084 17.5996 30.2274
#
#
#
# Elastic Compliance Matrix: (Units=1/GPa)
#
#
# Indices 1 2 3 4 5 6 
#
# 1 0.025319 0.000139 0.017623 -0.011082 0.025218 -0.017369
# 2 0.000139 0.010140 -0.002918 -0.006635 -0.000068 -0.004411
# 3 0.017623 -0.002918 0.053838 -0.021245 0.045927 -0.020997
# 4 -0.011082 -0.006635 -0.021245 0.050374 -0.011357 0.014947
# 5 0.025218 -0.000068 0.045927 -0.011357 0.082251 -0.044144
# 6 -0.017369 -0.004411 -0.020997 0.014947 -0.044144 0.061065
#
#
# Mechanical properties :
#
#
# Convention : Reuss Voigt Hill
#
# Bulk Modulus (GPa) = 8.40433 31.92543 20.16488
# Shear Modulus (GPa) = 17.06725 34.23984 25.65355
#
# Velocity S-wave (km/s) = 2.65493 3.76042 3.25495
# Velocity P-wave (km/s) = 3.58735 5.66033 4.73859
#
# Compressibility (1/GPa) = 0.11898627
#
# Stress axis : x y z
#
# Youngs Moduli (GPa) = 39.49570 98.61884 18.57440
#
# Poissons Ratio (x) = -0.01375 -0.32734
# Poissons Ratio (y) = -0.00551 0.05419
# Poissons Ratio (z) = -0.69603 0.28773
#
# Static dielectric constant tensor:
#      x y z
#    x 2.536920 0.376560 -0.719390 
#    y 0.376560 2.087790 -0.422910 
#    z -0.719390 -0.422910 2.707850 
# 
# From -- ./inp_files/410354.got.cif
#   From: 2010.05.17/outbox.cif.g08.bks.cpg/sg2_206_cif.got.tgz:410354.got - 2010.06.03 11:33:40.
