data_PCOD9021615
_publ_section_title
;
Structure prediction by ZEFSAII (Michael W. Deem and Ramdas Pophale) SiO2 
 PCOD9021615
Probable space group: P -1
;
_chemical_formula_sum "Si O2"
_cell_formula_units_Z 16
_cell_length_a 11.614496
_cell_length_b 9.037740
_cell_length_c 8.779242
_cell_angle_alpha 105.418048
_cell_angle_beta 107.765648
_cell_angle_gamma 73.966596
_cell_volume 826.695988
_symmetry_space_group_name_H-M "P -1"
_symmetry_group_IT_number 2
_symmetry_cell_setting 'triclinic'
loop_
_space_group_symop_operation_xyz
x,y,z
-x,-y,-z
loop_
_atom_site_type_symbol
_atom_site_label
_atom_site_fract_x
_atom_site_fract_y
_atom_site_fract_z
Si Si1 0.474486 0.039552 0.680787
Si Si2 0.801753 0.607877 0.949827
Si Si3 0.467505 0.332312 0.982497
Si Si4 0.054270 0.834480 0.565485
Si Si5 0.316220 0.875845 0.778487
Si Si6 0.963263 0.339920 0.770973
Si Si7 0.268851 0.069028 0.113675
Si Si8 0.927931 0.019668 0.819633
O O1 0.466870 0.214189 0.802741
O O2 0.500000 0.000000 0.500000
O O3 0.361575 0.970908 0.684121
O O4 0.591616 0.937763 0.788091
O O5 0.843060 0.455228 0.821589
O O6 0.802814 0.753847 0.878799
O O7 0.668643 0.635268 0.985495
O O8 0.913131 0.605820 0.113051
O O9 0.500000 0.500000 0.000000
O O10 0.571937 0.243387 0.121521
O O11 0.199515 0.811582 0.654387
O O12 0.034810 0.692079 0.415690
O O13 0.977617 0.866096 0.697579
O O14 0.000000 0.000000 0.500000
O O15 0.263534 0.997584 0.924947
O O16 0.956619 0.172730 0.795898
O O17 0.213429 0.969757 0.189204
O O18 0.000000 0.000000 0.000000
#
# Coordination Sequence:
#
# PCOD9021615 Si02
#       8
#     2   2   2   2   2   2   2   2
#     4  11  25  40  66  97 123 166 217 268 316 384
#     4  11  21  42  63  85 129 166 214 248 330 371
#     4  11  25  43  68  92 126 176 216 266 321 385
#     4  10  22  38  63  95 128 158 210 265 315 371
#     4  11  21  43  67  92 126 169 215 260 318 386
#     4  10  24  38  62  92 125 169 202 266 313 382
#     4  11  20  40  63  89 121 165 212 255 308 380
#     4  11  20  35  65  89 116 160 212 251 307 377
#
# _framework density 19.354151999999999
#
# number of rings (size 3 to 8) (size 9 to 14) (size 15 to 20)
#    0.000    1.250    5.000    1.500    7.000    0.000 
#    2.250    1.875    0.000    0.000    0.000    0.000 
#    0.000    0.000    0.000    0.000    0.000    0.000 
#
# Total GULP energy -89153.860655 kJ/mol
# GULP energy per Si atom -5572.116291 kJ/mol
# Density = 1.931010 g / cm^3
# Si number density = 19.354152 Si / 1000 Ang^3
#
#
#
# Elastic Constant Matrix: (Units=GPa)
#
#
# Indices 1 2 3 4 5 6 
#
# 1 87.3103 18.1339 17.0011 5.2308 -19.4055 -8.5858
# 2 18.1339 78.1956 38.2505 15.1526 -11.1342 -10.0448
# 3 17.0011 38.2505 108.9947 23.2053 -26.0514 -14.2172
# 4 5.2308 15.1526 23.2053 22.3928 -8.2000 -6.4184
# 5 -19.4055 -11.1342 -26.0514 -8.2000 31.1012 -4.0433
# 6 -8.5858 -10.0448 -14.2172 -6.4184 -4.0433 31.2917
#
#
#
# Elastic Compliance Matrix: (Units=1/GPa)
#
#
# Indices 1 2 3 4 5 6 
#
# 1 0.014450 -0.002186 0.001329 0.002280 0.010691 0.005716
# 2 -0.002186 0.016641 -0.004014 -0.006195 -0.000191 0.001623
# 3 0.001329 -0.004014 0.015463 -0.007884 0.011034 0.005910
# 4 0.002280 -0.006195 -0.007884 0.062971 0.010415 0.009317
# 5 0.010691 -0.000191 0.011034 0.010415 0.052935 0.016861
# 6 0.005716 0.001623 0.005910 0.009317 0.016861 0.040822
#
#
# Mechanical properties :
#
#
# Convention : Reuss Voigt Hill
#
# Bulk Modulus (GPa) = 27.16639 46.80799 36.98719
# Shear Modulus (GPa) = 22.19313 30.36482 26.27898
#
# Velocity S-wave (km/s) = 3.38995 3.96524 3.68882
# Velocity P-wave (km/s) = 5.42119 6.72322 6.10700
#
# Compressibility (1/GPa) = 0.03681019
#
# Stress axis : x y z
#
# Youngs Moduli (GPa) = 69.20250 60.09403 64.67128
#
# Poissons Ratio (x) = 0.13139 -0.08592
# Poissons Ratio (y) = 0.15131 0.25959
# Poissons Ratio (z) = -0.09194 0.24122
#
# Static dielectric constant tensor:
#      x y z
#    x 1.739910 0.012980 -0.013530 
#    y 0.012980 1.679840 0.008150 
#    z -0.013530 0.008150 1.724910 
# 
# From -- ./inp_files/177561.got.cif
#   From: 2010.05.17/outbox.cif.g08.bks.cpg/sg2_89_cif.got.tgz:177561.got - 2010.06.03 11:33:40.
