data_PCOD9021148
_publ_section_title
;
Structure prediction by ZEFSAII (Michael W. Deem and Ramdas Pophale) SiO2 
 PCOD9021148
Probable space group: P -1
;
_chemical_formula_sum "Si O2"
_cell_formula_units_Z 12
_cell_length_a 5.084173
_cell_length_b 17.346156
_cell_length_c 8.907331
_cell_angle_alpha 53.373606
_cell_angle_beta 102.981827
_cell_angle_gamma 110.471635
_cell_volume 590.485283
_symmetry_space_group_name_H-M "P -1"
_symmetry_group_IT_number 2
_symmetry_cell_setting 'triclinic'
loop_
_space_group_symop_operation_xyz
x,y,z
-x,-y,-z
loop_
_atom_site_type_symbol
_atom_site_label
_atom_site_fract_x
_atom_site_fract_y
_atom_site_fract_z
Si Si1 0.837583 0.257654 0.974430
Si Si2 0.487669 0.111147 0.894833
Si Si3 0.938052 0.778635 0.250537
Si Si4 0.425889 0.601079 0.415331
Si Si5 0.773565 0.427002 0.254467
Si Si6 0.826517 0.631092 0.861060
O O1 0.602085 0.155521 0.022124
O O2 0.715610 0.347592 0.792387
O O3 0.078509 0.248881 0.897559
O O4 0.961763 0.278163 0.130749
O O5 0.186779 0.131008 0.822746
O O6 0.724634 0.184848 0.731673
O O7 0.500000 0.000000 0.000000
O O8 0.716980 0.682838 0.400943
O O9 0.500000 0.500000 0.500000
O O10 0.224350 0.582414 0.555905
O O11 0.475309 0.358349 0.235082
O O12 0.021037 0.402331 0.222135
O O13 0.772766 0.539328 0.079448
#
# Coordination Sequence:
#
# PCOD9021148 Si02
#       6
#     2   2   2   2   2   2
#     4   9  22  35  58  81 112 141 195 225 270 331
#     4   9  18  34  56  85 113 134 175 242 292 314
#     4   9  20  33  53  84 109 137 187 220 278 329
#     4  11  23  36  56  82 116 156 185 225 274 327
#     4  10  24  35  53  72 113 152 187 220 277 308
#     4  10  22  38  50  77 107 149 192 229 256 333
#
# _framework density 20.322265999999999
#
# number of rings (size 3 to 8) (size 9 to 14) (size 15 to 20)
#    1.000    1.333    0.000    1.500   14.000    1.333 
#    0.000    0.000    0.000    0.000    0.000   16.333 
#    0.000    0.000    0.000    0.000    0.000    0.000 
#
# Total GULP energy -66844.147129 kJ/mol
# GULP energy per Si atom -5570.345594 kJ/mol
# Density = 2.027601 g / cm^3
# Si number density = 20.322266 Si / 1000 Ang^3
#
#
#
# Elastic Constant Matrix: (Units=GPa)
#
#
# Indices 1 2 3 4 5 6 
#
# 1 88.3127 -2.4428 6.3204 -11.6820 1.8391 -11.3782
# 2 -2.4428 87.3435 13.2260 -19.8381 13.7331 -9.6086
# 3 6.3204 13.2260 29.7726 -0.6069 1.1936 -0.4669
# 4 -11.6820 -19.8381 -0.6069 22.0802 -0.5849 10.4357
# 5 1.8391 13.7331 1.1936 -0.5849 30.9321 1.4580
# 6 -11.3782 -9.6086 -0.4669 10.4357 1.4580 32.9005
#
#
#
# Elastic Compliance Matrix: (Units=1/GPa)
#
#
# Indices 1 2 3 4 5 6 
#
# 1 0.013306 0.003665 -0.004138 0.008775 -0.002231 0.002929
# 2 0.003665 0.017999 -0.008099 0.017053 -0.007637 0.001339
# 3 -0.004138 -0.008099 0.037798 -0.007974 0.002272 -0.000831
# 4 0.008775 0.017053 -0.007974 0.071789 -0.005739 -0.014615
# 5 -0.002231 -0.007637 0.002272 -0.005739 0.035785 -0.002735
# 6 0.002929 0.001339 -0.000831 -0.014615 -0.002735 0.036543
#
#
# Mechanical properties :
#
#
# Convention : Reuss Voigt Hill
#
# Bulk Modulus (GPa) = 19.24666 26.62620 22.93643
# Shear Modulus (GPa) = 20.18698 29.73760 24.96229
#
# Velocity S-wave (km/s) = 3.15515 3.82946 3.50855
# Velocity P-wave (km/s) = 4.77123 5.71695 5.26536
#
# Compressibility (1/GPa) = 0.05195708
#
# Stress axis : x y z
#
# Youngs Moduli (GPa) = 75.15684 55.55807 26.45664
#
# Poissons Ratio (x) = -0.20361 0.10949
# Poissons Ratio (y) = -0.27543 0.21427
# Poissons Ratio (z) = 0.31103 0.44997
#
# Static dielectric constant tensor:
#      x y z
#    x 1.783570 0.026380 0.022630 
#    y 0.026380 1.745610 -0.006410 
#    z 0.022630 -0.006410 1.762770 
# 
# From -- ./inp_files/100458.got.cif
#   From: 2010.05.17/outbox.cif.g08.bks.cpg/sg2_51_cif.got.tgz:100458.got - 2010.06.03 11:33:40.
