data_PCOD9021348
_publ_section_title
;
Structure prediction by ZEFSAII (Michael W. Deem and Ramdas Pophale) SiO2 
 PCOD9021348
Probable space group: P -1
;
_chemical_formula_sum "Si O2"
_cell_formula_units_Z 15
_cell_length_a 13.996759
_cell_length_b 9.121305
_cell_length_c 6.604640
_cell_angle_alpha 112.139611
_cell_angle_beta 83.284502
_cell_angle_gamma 62.124069
_cell_volume 644.639718
_symmetry_space_group_name_H-M "P -1"
_symmetry_group_IT_number 2
_symmetry_cell_setting 'triclinic'
loop_
_space_group_symop_operation_xyz
x,y,z
-x,-y,-z
loop_
_atom_site_type_symbol
_atom_site_label
_atom_site_fract_x
_atom_site_fract_y
_atom_site_fract_z
Si Si1 0.000000 0.500000 0.000000
Si Si2 0.244027 0.702145 0.520888
Si Si3 0.540401 0.304170 0.593244
Si Si4 0.660607 0.527384 0.998089
Si Si5 0.485004 0.831094 0.876581
Si Si6 0.925506 0.919069 0.398120
Si Si7 0.209278 0.426049 0.656756
Si Si8 0.287953 0.017688 0.294711
O O1 0.014484 0.295808 0.809385
O O2 0.083267 0.483790 0.786323
O O3 0.373785 0.646212 0.498169
O O4 0.211648 0.580284 0.598020
O O5 0.155004 0.928119 0.677656
O O6 0.249853 0.652205 0.252761
O O7 0.432149 0.472865 0.832216
O O8 0.495605 0.233534 0.391399
O O9 0.622162 0.127311 0.631267
O O10 0.724552 0.593763 0.159592
O O11 0.578748 0.673193 0.921976
O O12 0.500000 0.000000 0.000000
O O13 0.353209 0.913783 0.018728
O O14 0.835366 0.946397 0.609441
O O15 0.000000 0.000000 0.500000
O O16 0.269850 0.222346 0.426263
#
# Coordination Sequence:
#
# PCOD9021348 Si02
#       8
#     1   2   2   2   2   2   2   2
#     4  10  24  46  70  94 128 168 214 278 336 386
#     4  11  24  40  64  96 128 171 218 264 328 396
#     4  10  22  38  60  93 133 172 217 265 317 387
#     4  11  22  37  61  92 133 174 214 267 320 383
#     4  11  21  36  60  92 129 175 221 262 317 386
#     4  10  22  45  70  95 128 168 217 275 335 390
#     4  11  23  42  65  94 130 170 220 271 327 391
#     4   9  21  40  62  92 133 175 215 269 327 380
#
# _framework density 23.268812
#
# number of rings (size 3 to 8) (size 9 to 14) (size 15 to 20)
#    0.000    1.600    0.000    4.400    0.000    9.067 
#    0.000   11.333    0.000    0.000    0.000    0.000 
#    0.000    0.000    0.000    0.000    0.000    0.000 
#
# Total GULP energy -83562.483833 kJ/mol
# GULP energy per Si atom -5570.832256 kJ/mol
# Density = 2.321585 g / cm^3
# Si number density = 23.268812 Si / 1000 Ang^3
#
#
#
# Elastic Constant Matrix: (Units=GPa)
#
#
# Indices 1 2 3 4 5 6 
#
# 1 98.3064 42.1472 26.0043 1.9499 -7.2409 29.5466
# 2 42.1472 76.4957 27.4149 22.8664 -7.3659 29.6017
# 3 26.0043 27.4149 111.8022 12.5280 -4.4357 7.8290
# 4 1.9499 22.8664 12.5280 35.8070 4.6891 1.8849
# 5 -7.2409 -7.3659 -4.4357 4.6891 44.1723 2.6253
# 6 29.5466 29.6017 7.8290 1.8849 2.6253 34.7160
#
#
#
# Elastic Compliance Matrix: (Units=1/GPa)
#
#
# Indices 1 2 3 4 5 6 
#
# 1 0.015687 -0.005601 -0.002036 0.003676 0.001544 -0.008433
# 2 -0.005601 0.031580 -0.002563 -0.018815 0.007343 -0.021117
# 3 -0.002036 -0.002563 0.010159 -0.001945 0.000364 0.001705
# 4 0.003676 -0.018815 -0.001945 0.040822 -0.007760 0.011724
# 5 0.001544 0.007343 0.000364 -0.007760 0.025521 -0.009166
# 6 -0.008433 -0.021117 0.001705 0.011724 -0.009166 0.053661
#
#
# Mechanical properties :
#
#
# Convention : Reuss Voigt Hill
#
# Bulk Modulus (GPa) = 27.00600 53.08191 40.04395
# Shear Modulus (GPa) = 23.79010 35.67493 29.73251
#
# Velocity S-wave (km/s) = 3.20097 3.91981 3.57849
# Velocity P-wave (km/s) = 5.02921 6.58396 5.85839
#
# Compressibility (1/GPa) = 0.03702881
#
# Stress axis : x y z
#
# Youngs Moduli (GPa) = 63.74542 31.66571 98.43310
#
# Poissons Ratio (x) = 0.17735 0.20037
# Poissons Ratio (y) = 0.35702 0.25225
# Poissons Ratio (z) = 0.12976 0.08115
#
# Static dielectric constant tensor:
#      x y z
#    x 1.950880 -0.003010 -0.007610 
#    y -0.003010 1.926470 0.033600 
#    z -0.007610 0.033600 1.853500 
# 
# From -- ./inp_files/90960.got.cif
#   From: 2010.05.17/outbox.cif.g08.bks.cpg/sg2_46_cif.got.tgz:90960.got - 2010.06.03 11:33:40.
