data_PCOD9021966
_publ_section_title
;
Structure prediction by ZEFSAII (Michael W. Deem and Ramdas Pophale) SiO2 
 PCOD9021966
Probable space group: P -1
;
_chemical_formula_sum "Si O2"
_cell_formula_units_Z 14
_cell_length_a 5.699369
_cell_length_b 4.888449
_cell_length_c 22.831607
_cell_angle_alpha 102.155925
_cell_angle_beta 120.738370
_cell_angle_gamma 88.411983
_cell_volume 532.063695
_symmetry_space_group_name_H-M "P -1"
_symmetry_group_IT_number 2
_symmetry_cell_setting 'triclinic'
loop_
_space_group_symop_operation_xyz
x,y,z
-x,-y,-z
loop_
_atom_site_type_symbol
_atom_site_label
_atom_site_fract_x
_atom_site_fract_y
_atom_site_fract_z
Si Si1 0.862641 0.250859 0.429508
Si Si2 0.356162 0.265090 0.428577
Si Si3 0.865688 0.471953 0.315876
Si Si4 0.536908 0.135314 0.073620
Si Si5 0.351690 0.660141 0.228202
Si Si6 0.748881 0.350499 0.923156
Si Si7 0.022199 0.139830 0.217153
O O1 0.597618 0.109971 0.422896
O O2 0.760906 0.389755 0.363748
O O3 0.000000 0.500000 0.500000
O O4 0.116601 0.092024 0.428929
O O5 0.500000 0.500000 0.500000
O O6 0.189058 0.440822 0.368349
O O7 0.679335 0.713573 0.282025
O O8 0.830394 0.258544 0.247215
O O9 0.307441 0.969287 0.077579
O O10 0.822822 0.071920 0.134293
O O11 0.500420 0.464068 0.083147
O O12 0.500000 0.000000 0.000000
O O13 0.259278 0.647362 0.148083
O O14 0.176472 0.882509 0.247016
O O15 0.252552 0.367548 0.232257
O O16 0.000000 0.500000 0.000000
#
# Coordination Sequence:
#
# PCOD9021966 Si02
#       7
#     2   2   2   2   2   2   2
#     4   8  15  31  59  98 135 186 237 298 363 440
#     4   8  15  31  59  98 135 186 237 298 363 440
#     4  10  22  38  68 100 146 184 244 298 366 448
#     4  12  24  44  69 101 141 185 241 301 363 437
#     4  12  26  45  70 103 144 187 241 301 368 439
#     4  12  24  44  69 101 141 185 241 301 363 437
#     4  12  26  45  70 103 144 187 241 301 368 439
#
# _framework density 26.312636999999999
#
# number of rings (size 3 to 8) (size 9 to 14) (size 15 to 20)
#    0.857    0.571    1.429    5.143    0.000    0.000 
#    0.000    0.000    0.000    1.714    0.000    0.000 
#    0.000    0.000    0.000    0.000    0.000    0.000 
#
# Total GULP energy -78225.659231 kJ/mol
# GULP energy per Si atom -5587.547088 kJ/mol
# Density = 2.625275 g / cm^3
# Si number density = 26.312637 Si / 1000 Ang^3
#
#
#
# Elastic Constant Matrix: (Units=GPa)
#
#
# Indices 1 2 3 4 5 6 
#
# 1 165.0789 16.0871 26.0159 -3.3942 -2.2353 -20.4771
# 2 16.0871 30.3256 21.5619 -3.4430 16.6487 -12.0020
# 3 26.0159 21.5619 168.8967 -17.3636 2.5684 3.8551
# 4 -3.3942 -3.4430 -17.3636 25.5375 -6.9940 3.7896
# 5 -2.2353 16.6487 2.5684 -6.9940 47.4751 1.1163
# 6 -20.4771 -12.0020 3.8551 3.7896 1.1163 44.3404
#
#
#
# Elastic Compliance Matrix: (Units=1/GPa)
#
#
# Indices 1 2 3 4 5 6 
#
# 1 0.006766 -0.002809 -0.000758 0.000003 0.001288 0.002398
# 2 -0.002809 0.056806 -0.007462 -0.005845 -0.020881 0.015753
# 3 -0.000758 -0.007462 0.007582 0.005414 0.003053 -0.003569
# 4 0.000003 -0.005845 0.005414 0.045311 0.008577 -0.006140
# 5 0.001288 -0.020881 0.003053 0.008577 0.029705 -0.006803
# 6 0.002398 0.015753 -0.003569 -0.006140 -0.006803 0.028930
#
#
# Mechanical properties :
#
#
# Convention : Reuss Voigt Hill
#
# Bulk Modulus (GPa) = 20.36821 54.62566 37.49693
# Shear Modulus (GPa) = 23.41673 43.51300 33.46487
#
# Velocity S-wave (km/s) = 2.98643 4.07097 3.57012
# Velocity P-wave (km/s) = 4.43275 6.54999 5.59248
#
# Compressibility (1/GPa) = 0.04909612
#
# Stress axis : x y z
#
# Youngs Moduli (GPa) = 147.80423 17.60386 131.89569
#
# Poissons Ratio (x) = 0.04944 0.09993
# Poissons Ratio (y) = 0.41512 0.98425
# Poissons Ratio (z) = 0.11199 0.13137
#
# Static dielectric constant tensor:
#      x y z
#    x 2.178950 0.013260 0.037630 
#    y 0.013260 1.979420 0.029450 
#    z 0.037630 0.029450 2.045920 
# 
# From -- ./inp_files/603338.got.cif
#   From: 2010.05.17/outbox.cif.g08.bks.cpg/sg2_302_cif.got.tgz:603338.got - 2010.06.03 11:33:40.
