data_PCOD9021343
_publ_section_title
;
Structure prediction by ZEFSAII (Michael W. Deem and Ramdas Pophale) SiO2 
 PCOD9021343
Probable space group: P -1
;
_chemical_formula_sum "Si O2"
_cell_formula_units_Z 14
_cell_length_a 13.897481
_cell_length_b 6.027669
_cell_length_c 23.018428
_cell_angle_alpha 49.200193
_cell_angle_beta 158.823678
_cell_angle_gamma 129.548741
_cell_volume 524.629720
_symmetry_space_group_name_H-M "P -1"
_symmetry_group_IT_number 2
_symmetry_cell_setting 'triclinic'
loop_
_space_group_symop_operation_xyz
x,y,z
-x,-y,-z
loop_
_atom_site_type_symbol
_atom_site_label
_atom_site_fract_x
_atom_site_fract_y
_atom_site_fract_z
Si Si1 0.972593 0.304350 0.143254
Si Si2 0.731043 0.201956 0.629929
Si Si3 0.514229 0.273164 0.625038
Si Si4 0.718108 0.826671 0.888360
Si Si5 0.224547 0.958157 0.814276
Si Si6 0.947457 0.521869 0.535107
Si Si7 0.626672 0.009260 0.242265
O O1 0.929308 0.298666 0.189416
O O2 0.246422 0.507777 0.249932
O O3 0.742668 0.480458 0.956029
O O4 0.012154 0.976341 0.201637
O O5 0.616431 0.213739 0.628211
O O6 0.734611 0.532314 0.549600
O O7 0.500000 0.000000 0.500000
O O8 0.499031 0.964325 0.701879
O O9 0.651301 0.905597 0.903011
O O10 0.000000 0.000000 0.000000
O O11 0.318554 0.944481 0.803043
O O12 0.015414 0.209870 0.652824
O O13 0.500000 0.000000 0.000000
O O14 0.000000 0.500000 0.500000
O O15 0.161266 0.752200 0.647941
O O16 0.678756 0.689487 0.353198
#
# Coordination Sequence:
#
# PCOD9021343 Si02
#       7
#     2   2   2   2   2   2   2
#     4  10  22  38  60  93 126 160 214 261 324 380
#     4   9  19  39  59  88 120 161 210 262 310 378
#     4   9  20  40  62  89 125 165 212 255 325 385
#     4  10  22  40  64  94 127 172 212 263 331 393
#     4  11  24  40  65  98 129 172 223 273 332 396
#     4   9  21  43  64  95 125 172 225 270 331 395
#     4  10  22  44  67  93 136 172 219 279 334 391
#
# _framework density 26.685486999999998
#
# number of rings (size 3 to 8) (size 9 to 14) (size 15 to 20)
#    0.000    2.286    0.000    0.857    2.000    6.286 
#   20.571    5.714    0.000    0.000    0.000    0.000 
#    0.000    0.000    0.000    0.000    0.000    0.000 
#
# Total GULP energy -78268.351706 kJ/mol
# GULP energy per Si atom -5590.596550 kJ/mol
# Density = 2.662475 g / cm^3
# Si number density = 26.685487 Si / 1000 Ang^3
#
#
#
# Elastic Constant Matrix: (Units=GPa)
#
#
# Indices 1 2 3 4 5 6 
#
# 1 145.6767 49.5376 74.1533 -24.3022 -2.0936 -1.4925
# 2 49.5376 73.6810 71.8345 -36.6557 -11.8675 0.6664
# 3 74.1533 71.8345 171.3919 -60.8872 -20.4843 -5.8333
# 4 -24.3022 -36.6557 -60.8872 82.8976 2.4574 -1.3850
# 5 -2.0936 -11.8675 -20.4843 2.4574 57.1391 -3.5614
# 6 -1.4925 0.6664 -5.8333 -1.3850 -3.5614 42.0892
#
#
#
# Elastic Compliance Matrix: (Units=1/GPa)
#
#
# Indices 1 2 3 4 5 6 
#
# 1 0.009658 -0.004526 -0.002932 -0.001279 -0.001593 -0.000169
# 2 -0.004526 0.026440 -0.007057 0.005087 0.002503 -0.001178
# 3 -0.002932 -0.007057 0.012215 0.004946 0.002724 0.002094
# 4 -0.001279 0.005087 0.004946 0.017529 0.002111 0.001315
# 5 -0.001593 0.002503 0.002724 0.002111 0.018970 0.001956
# 6 -0.000169 -0.001178 0.002094 0.001315 0.001956 0.024271
#
#
# Mechanical properties :
#
#
# Convention : Reuss Voigt Hill
#
# Bulk Modulus (GPa) = 51.86173 86.86673 69.36423
# Shear Modulus (GPa) = 34.59214 49.44014 42.01614
#
# Velocity S-wave (km/s) = 3.60431 4.30897 3.97229
# Velocity P-wave (km/s) = 6.06614 7.57489 6.86211
#
# Compressibility (1/GPa) = 0.01928204
#
# Stress axis : x y z
#
# Youngs Moduli (GPa) = 103.53907 37.82156 81.86823
#
# Poissons Ratio (x) = 0.17119 0.24006
# Poissons Ratio (y) = 0.46864 0.57775
# Poissons Ratio (z) = 0.30360 0.26691
#
# Static dielectric constant tensor:
#      x y z
#    x 2.056840 -0.027470 -0.005780 
#    y -0.027470 2.110630 -0.030540 
#    z -0.005780 -0.030540 2.215190 
# 
# From -- ./inp_files/592703.got.cif
#   From: 2010.05.17/outbox.cif.g08.bks.cpg/sg2_297_cif.got.tgz:592703.got - 2010.06.03 11:33:40.
