data_PCOD9021486
_publ_section_title
;
Structure prediction by ZEFSAII (Michael W. Deem and Ramdas Pophale) SiO2 
 PCOD9021486
Probable space group: P -1
;
_chemical_formula_sum "Si O2"
_cell_formula_units_Z 14
_cell_length_a 8.909535
_cell_length_b 14.484913
_cell_length_c 15.674082
_cell_angle_alpha 38.915716
_cell_angle_beta 137.174811
_cell_angle_gamma 151.328100
_cell_volume 600.951051
_symmetry_space_group_name_H-M "P -1"
_symmetry_group_IT_number 2
_symmetry_cell_setting 'triclinic'
loop_
_space_group_symop_operation_xyz
x,y,z
-x,-y,-z
loop_
_atom_site_type_symbol
_atom_site_label
_atom_site_fract_x
_atom_site_fract_y
_atom_site_fract_z
Si Si1 0.136095 0.870239 0.340493
Si Si2 0.154297 0.411833 0.426473
Si Si3 0.276740 0.065943 0.852601
Si Si4 0.047268 0.386679 0.709468
Si Si5 0.345516 0.429723 0.079503
Si Si6 0.495283 0.990576 0.149198
Si Si7 0.260531 0.725588 0.802369
O O1 0.064874 0.699846 0.370818
O O2 0.098913 0.816330 0.464242
O O3 0.443816 0.098664 0.265507
O O4 0.841494 0.838574 0.229526
O O5 0.500000 0.500000 0.500000
O O6 0.089989 0.526830 0.373904
O O7 0.040058 0.395734 0.295533
O O8 0.440531 0.134252 0.779698
O O9 0.968391 0.817474 0.883954
O O10 0.494511 0.101412 0.990668
O O11 0.413233 0.530623 0.781261
O O12 0.854224 0.173863 0.838163
O O13 0.500000 0.500000 0.000000
O O14 0.284159 0.574564 0.961706
O O15 0.725188 0.149186 0.205900
#
# Coordination Sequence:
#
# PCOD9021486 Si02
#       7
#     2   2   2   2   2   2   2
#     4  11  23  40  64  88 119 163 206 243 294 364
#     4  12  25  42  62  87 125 160 201 252 298 354
#     4  11  21  38  61  93 125 157 196 248 307 352
#     4  11  22  42  64  91 120 158 204 247 301 355
#     4  12  20  37  67  92 120 153 198 253 298 350
#     4  10  22  38  62  91 125 157 196 251 305 360
#     4  11  23  42  63  90 121 161 204 244 303 356
#
# _framework density 23.296408
#
# number of rings (size 3 to 8) (size 9 to 14) (size 15 to 20)
#    0.000    0.857    4.286    2.571    0.000    5.143 
#    0.000    7.857    0.000    0.000    0.000    0.000 
#    0.000    0.000    0.000    0.000    0.000    0.000 
#
# Total GULP energy -78139.716810 kJ/mol
# GULP energy per Si atom -5581.408344 kJ/mol
# Density = 2.324338 g / cm^3
# Si number density = 23.296408 Si / 1000 Ang^3
#
#
#
# Elastic Constant Matrix: (Units=GPa)
#
#
# Indices 1 2 3 4 5 6 
#
# 1 105.8899 31.5568 37.0861 17.9738 6.5252 -13.2698
# 2 31.5568 76.3426 13.2539 9.9146 0.8683 0.9322
# 3 37.0861 13.2539 57.1695 4.3959 10.4494 1.8233
# 4 17.9738 9.9146 4.3959 32.8068 4.0125 -5.1758
# 5 6.5252 0.8683 10.4494 4.0125 42.6446 -3.2759
# 6 -13.2698 0.9322 1.8233 -5.1758 -3.2759 37.4998
#
#
#
# Elastic Compliance Matrix: (Units=1/GPa)
#
#
# Indices 1 2 3 4 5 6 
#
# 1 0.015291 -0.004181 -0.008869 -0.005189 0.000814 0.005301
# 2 -0.004181 0.015308 -0.000670 -0.002655 0.000577 -0.002143
# 3 -0.008869 -0.000670 0.024345 0.001711 -0.005103 -0.004515
# 4 -0.005189 -0.002655 0.001711 0.034644 -0.002624 0.002699
# 5 0.000814 0.000577 -0.005103 -0.002624 0.024990 0.002343
# 6 0.005301 -0.002143 -0.004515 0.002699 0.002343 0.029393
#
#
# Mechanical properties :
#
#
# Convention : Reuss Voigt Hill
#
# Bulk Modulus (GPa) = 36.35697 44.79951 40.57824
# Shear Modulus (GPa) = 27.68885 33.09060 30.38973
#
# Velocity S-wave (km/s) = 3.45127 3.77293 3.61568
# Velocity P-wave (km/s) = 5.61443 6.18482 5.90651
#
# Compressibility (1/GPa) = 0.02750504
#
# Stress axis : x y z
#
# Youngs Moduli (GPa) = 65.39893 65.32652 41.07550
#
# Poissons Ratio (x) = 0.27313 0.36429
# Poissons Ratio (y) = 0.27343 0.02751
# Poissons Ratio (z) = 0.58001 0.04375
#
# Static dielectric constant tensor:
#      x y z
#    x 1.907520 0.038970 0.010270 
#    y 0.038970 1.929790 -0.081530 
#    z 0.010270 -0.081530 1.951000 
# 
# From -- ./inp_files/207002.got.cif
#   From: 2010.05.17/outbox.cif.g08.bks.cpg/sg2_104_cif.got.tgz:207002.got - 2010.06.03 11:33:40.
