data_PCOD9021439
_publ_section_title
;
Structure prediction by ZEFSAII (Michael W. Deem and Ramdas Pophale) SiO2 
 PCOD9021439
Probable space group: P -1
;
_chemical_formula_sum "Si O2"
_cell_formula_units_Z 14
_cell_length_a 8.845097
_cell_length_b 17.082508
_cell_length_c 13.250944
_cell_angle_alpha 24.232281
_cell_angle_beta 57.302456
_cell_angle_gamma 57.449610
_cell_volume 685.533508
_symmetry_space_group_name_H-M "P -1"
_symmetry_group_IT_number 2
_symmetry_cell_setting 'triclinic'
loop_
_space_group_symop_operation_xyz
x,y,z
-x,-y,-z
loop_
_atom_site_type_symbol
_atom_site_label
_atom_site_fract_x
_atom_site_fract_y
_atom_site_fract_z
Si Si1 0.726310 0.702549 0.695674
Si Si2 0.236196 0.948392 0.595112
Si Si3 0.836683 0.930230 0.733526
Si Si4 0.092767 0.503713 0.851778
Si Si5 0.412166 0.560255 0.087278
Si Si6 0.489780 0.535505 0.311655
Si Si7 0.577620 0.817361 0.120447
O O1 0.642081 0.642817 0.691300
O O2 0.940017 0.638915 0.687076
O O3 0.690107 0.910854 0.515191
O O4 0.618518 0.577056 0.959534
O O5 0.020282 0.017663 0.585745
O O6 0.282557 0.972009 0.431738
O O7 0.292218 0.733166 0.867210
O O8 0.900824 0.714975 0.927278
O O9 0.739381 0.901361 0.906434
O O10 0.298902 0.541009 0.707386
O O11 0.000000 0.500000 0.000000
O O12 0.394288 0.592276 0.174116
O O13 0.484777 0.716737 0.176796
O O14 0.400379 0.365807 0.597362
O O15 0.500000 0.000000 0.000000
#
# Coordination Sequence:
#
# PCOD9021439 Si02
#       7
#     2   2   2   2   2   2   2
#     4  11  22  34  58  92 127 159 189 236 322 361
#     4  11  22  37  61  93 127 153 192 257 307 362
#     4  10  22  38  61  94 122 154 210 250 298 358
#     4  11  18  37  62  92 123 158 197 251 298 368
#     4  11  23  38  57  95 129 155 191 250 307 367
#     4  10  23  41  64  90 124 158 207 248 298 353
#     4  10  23  41  64  89 115 165 211 251 287 356
#
# _framework density 20.422049999999999
#
# number of rings (size 3 to 8) (size 9 to 14) (size 15 to 20)
#    0.000    1.429    4.286    1.286    2.000    3.429 
#    0.000    0.714    0.000    1.714    0.000    0.000 
#    0.000    0.000    0.000    0.000    0.000    0.000 
#
# Total GULP energy -77944.484585 kJ/mol
# GULP energy per Si atom -5567.463185 kJ/mol
# Density = 2.037557 g / cm^3
# Si number density = 20.422050 Si / 1000 Ang^3
#
#
#
# Elastic Constant Matrix: (Units=GPa)
#
#
# Indices 1 2 3 4 5 6 
#
# 1 57.7912 30.2981 29.4590 -5.9777 12.0301 1.3764
# 2 30.2981 140.3593 35.7076 3.6448 5.7134 8.7927
# 3 29.4590 35.7076 72.4026 5.8402 0.0215 1.4187
# 4 -5.9777 3.6448 5.8402 34.0157 1.8964 -2.0572
# 5 12.0301 5.7134 0.0215 1.8964 26.4253 0.6096
# 6 1.3764 8.7927 1.4187 -2.0572 0.6096 27.8434
#
#
#
# Elastic Compliance Matrix: (Units=1/GPa)
#
#
# Indices 1 2 3 4 5 6 
#
# 1 0.027541 -0.003072 -0.010326 0.007695 -0.012440 0.000976
# 2 -0.003072 0.008731 -0.002917 -0.001108 -0.000349 -0.002531
# 3 -0.010326 -0.002917 0.019874 -0.005237 0.005694 -0.000093
# 4 0.007695 -0.001108 -0.005237 0.032249 -0.005637 0.002743
# 5 -0.012440 -0.000349 0.005694 -0.005637 0.044003 -0.000945
# 6 0.000976 -0.002531 -0.000093 0.002743 -0.000945 0.036894
#
#
# Mechanical properties :
#
#
# Convention : Reuss Voigt Hill
#
# Bulk Modulus (GPa) = 42.52659 51.27583 46.90121
# Shear Modulus (GPa) = 23.83656 29.32944 26.58300
#
# Velocity S-wave (km/s) = 3.42013 3.79379 3.61180
# Velocity P-wave (km/s) = 6.03867 6.65981 6.35683
#
# Compressibility (1/GPa) = 0.02351470
#
# Stress axis : x y z
#
# Youngs Moduli (GPa) = 36.31015 114.52910 50.31588
#
# Poissons Ratio (x) = 0.35188 0.51958
# Poissons Ratio (y) = 0.11156 0.14677
# Poissons Ratio (z) = 0.37495 0.33408
#
# Static dielectric constant tensor:
#      x y z
#    x 1.819060 -0.017740 -0.035580 
#    y -0.017740 1.792060 0.043010 
#    z -0.035580 0.043010 1.768350 
# 
# From -- ./inp_files/396843.got.cif
#   From: 2010.05.17/outbox.cif.g08.bks.cpg/sg2_199_cif.got.tgz:396843.got - 2010.06.03 11:33:40.
