data_PCOD9021095
_publ_section_title
;
Structure prediction by ZEFSAII (Michael W. Deem and Ramdas Pophale) SiO2 
 PCOD9021095
Probable space group: P -1
;
_chemical_formula_sum "Si O2"
_cell_formula_units_Z 16
_cell_length_a 9.076600
_cell_length_b 14.178689
_cell_length_c 14.505999
_cell_angle_alpha 148.695191
_cell_angle_beta 130.578147
_cell_angle_gamma 62.742743
_cell_volume 713.747785
_symmetry_space_group_name_H-M "P -1"
_symmetry_group_IT_number 2
_symmetry_cell_setting 'triclinic'
loop_
_space_group_symop_operation_xyz
x,y,z
-x,-y,-z
loop_
_atom_site_type_symbol
_atom_site_label
_atom_site_fract_x
_atom_site_fract_y
_atom_site_fract_z
Si Si1 0.738877 0.002307 0.871374
Si Si2 0.536275 0.588268 0.488770
Si Si3 0.783404 0.485894 0.351797
Si Si4 0.291219 0.537873 0.907939
Si Si5 0.970213 0.120068 0.230234
Si Si6 0.283128 0.861493 0.313068
Si Si7 0.009680 0.868319 0.555685
Si Si8 0.688801 0.170363 0.495772
O O1 0.698429 0.791211 0.723923
O O2 0.917483 0.028166 0.891964
O O3 0.523329 0.984905 0.725728
O O4 0.813623 0.138743 0.101667
O O5 0.500000 0.500000 0.500000
O O6 0.615161 0.459596 0.340029
O O7 0.343531 0.651293 0.425415
O O8 0.833430 0.709817 0.534472
O O9 0.716782 0.403480 0.154670
O O10 0.243844 0.700306 0.086850
O O11 0.500000 0.500000 0.000000
O O12 0.124437 0.342413 0.687009
O O13 0.867942 0.106397 0.276517
O O14 0.000000 0.500000 0.500000
O O15 0.275629 0.773055 0.337581
O O16 0.500000 0.000000 0.500000
O O17 0.129111 0.991111 0.365857
O O18 0.148591 0.909830 0.557911
#
# Coordination Sequence:
#
# PCOD9021095 Si02
#       8
#     2   2   2   2   2   2   2   2
#     4   8  18  36  63  88 127 170 218 267 335 388
#     4   9  20  38  63  94 137 179 211 275 346 401
#     4  10  22  37  66  99 130 170 236 279 330 408
#     4  11  24  45  71 101 135 180 231 285 342 409
#     4   9  18  38  61  92 128 173 217 278 324 400
#     4  12  24  44  74  96 132 181 230 280 340 403
#     4  11  24  42  69  96 137 175 228 277 347 404
#     4  10  23  42  64  97 140 174 226 286 338 416
#
# _framework density 22.416882999999999
#
# number of rings (size 3 to 8) (size 9 to 14) (size 15 to 20)
#    0.750    1.250    1.250    1.875    3.500    5.000 
#    0.000    1.250    0.000    0.000    0.000    0.000 
#    0.000    0.000    0.000    0.000    0.000    0.000 
#
# Total GULP energy -89155.474056 kJ/mol
# GULP energy per Si atom -5572.217128 kJ/mol
# Density = 2.236586 g / cm^3
# Si number density = 22.416883 Si / 1000 Ang^3
#
#
#
# Elastic Constant Matrix: (Units=GPa)
#
#
# Indices 1 2 3 4 5 6 
#
# 1 109.1059 46.3652 50.4029 -15.4812 -41.9648 1.4679
# 2 46.3652 113.9739 45.5326 -22.6783 -27.3915 12.4030
# 3 50.4029 45.5326 146.9102 -22.5754 -37.0802 5.8023
# 4 -15.4812 -22.6783 -22.5754 36.0606 7.1196 -9.0712
# 5 -41.9648 -27.3915 -37.0802 7.1196 39.1938 -4.5522
# 6 1.4679 12.4030 5.8023 -9.0712 -4.5522 40.4545
#
#
#
# Elastic Compliance Matrix: (Units=1/GPa)
#
#
# Indices 1 2 3 4 5 6 
#
# 1 0.016887 -0.002612 -0.000804 0.002747 0.015302 0.002641
# 2 -0.002612 0.012336 -0.001229 0.004641 0.003579 -0.002068
# 3 -0.000804 -0.001229 0.009763 0.003790 0.006902 0.000632
# 4 0.002747 0.004641 0.003790 0.034952 0.004146 0.006238
# 5 0.015302 0.003579 0.006902 0.004146 0.050639 0.003985
# 6 0.002641 -0.002068 0.000632 0.006238 0.003985 0.027014
#
#
# Mechanical properties :
#
#
# Convention : Reuss Voigt Hill
#
# Bulk Modulus (GPa) = 33.67436 72.73239 53.20337
# Shear Modulus (GPa) = 29.27755 38.32104 33.79929
#
# Velocity S-wave (km/s) = 3.61785 4.13906 3.88720
# Velocity P-wave (km/s) = 5.70143 7.44031 6.62814
#
# Compressibility (1/GPa) = 0.02969619
#
# Stress axis : x y z
#
# Youngs Moduli (GPa) = 59.21875 81.06396 102.42565
#
# Poissons Ratio (x) = 0.21170 0.08235
# Poissons Ratio (y) = 0.15465 0.12591
# Poissons Ratio (z) = 0.04761 0.09965
#
# Static dielectric constant tensor:
#      x y z
#    x 1.816260 0.013960 -0.017180 
#    y 0.013960 2.019890 0.048950 
#    z -0.017180 0.048950 1.968640 
# 
# From -- ./inp_files/505940.got.cif
#   From: 2010.05.17/outbox.cif.g08.bks.cpg/sg2_253_cif.got.tgz:505940.got - 2010.06.03 11:33:40.
