data_PCOD9021822
_publ_section_title
;
Structure prediction by ZEFSAII (Michael W. Deem and Ramdas Pophale) SiO2 
 PCOD9021822
Probable space group: P -1
;
_chemical_formula_sum "Si O2"
_cell_formula_units_Z 15
_cell_length_a 9.020868
_cell_length_b 11.686535
_cell_length_c 12.422908
_cell_angle_alpha 76.044609
_cell_angle_beta 145.338561
_cell_angle_gamma 88.703884
_cell_volume 662.383993
_symmetry_space_group_name_H-M "P -1"
_symmetry_group_IT_number 2
_symmetry_cell_setting 'triclinic'
loop_
_space_group_symop_operation_xyz
x,y,z
-x,-y,-z
loop_
_atom_site_type_symbol
_atom_site_label
_atom_site_fract_x
_atom_site_fract_y
_atom_site_fract_z
Si Si1 0.231379 0.783906 0.372325
Si Si2 0.318935 0.456278 0.818321
Si Si3 0.808059 0.956078 0.243400
Si Si4 0.500000 0.000000 0.500000
Si Si5 0.864973 0.213438 0.158700
Si Si6 0.695740 0.477181 0.448138
Si Si7 0.227497 0.764355 0.135006
Si Si8 0.658418 0.889817 0.395444
O O1 0.386540 0.632564 0.523665
O O2 0.098719 0.795514 0.170212
O O3 0.005171 0.833900 0.321186
O O4 0.401171 0.875847 0.456382
O O5 0.281441 0.532905 0.666237
O O6 0.013504 0.463964 0.673691
O O7 0.500000 0.500000 0.000000
O O8 0.542598 0.311937 0.955429
O O9 0.793704 0.929230 0.365610
O O10 0.891791 0.074146 0.240731
O O11 0.500000 0.000000 0.000000
O O12 0.465184 0.003312 0.610695
O O13 0.092780 0.232460 0.369188
O O14 0.961674 0.205831 0.093293
O O15 0.450594 0.616056 0.297282
O O16 0.413441 0.849011 0.214624
#
# Coordination Sequence:
#
# PCOD9021822 Si02
#       8
#     2   2   2   1   2   2   2   2
#     4  11  24  42  68  96 134 178 223 272 335 396
#     4  10  22  38  66 100 131 171 215 281 333 389
#     4  12  24  39  65  99 128 170 219 273 331 390
#     4  10  24  42  62  98 128 188 212 266 336 388
#     4  11  22  39  62  94 130 170 218 265 333 388
#     4  10  22  41  66  96 132 171 225 271 331 392
#     4  10  23  43  65  92 132 175 216 274 329 393
#     4  11  23  41  65  93 135 168 219 273 325 395
#
# _framework density 22.645475000000001
#
# number of rings (size 3 to 8) (size 9 to 14) (size 15 to 20)
#    0.000    1.333    2.667    2.400    5.600    1.600 
#    0.000    2.667    0.000    9.600    0.000    0.000 
#    0.000    0.000    0.000    0.000    0.000    0.000 
#
# Total GULP energy -83559.321249 kJ/mol
# GULP energy per Si atom -5570.621417 kJ/mol
# Density = 2.259393 g / cm^3
# Si number density = 22.645475 Si / 1000 Ang^3
#
#
#
# Elastic Constant Matrix: (Units=GPa)
#
#
# Indices 1 2 3 4 5 6 
#
# 1 117.8646 41.5828 36.9984 -8.6326 -30.6044 -25.7819
# 2 41.5828 91.6323 20.1161 5.7612 -23.5404 -3.2126
# 3 36.9984 20.1161 96.3243 20.8773 -26.0508 -3.1689
# 4 -8.6326 5.7612 20.8773 31.8115 3.1849 -5.7317
# 5 -30.6044 -23.5404 -26.0508 3.1849 38.3388 7.5883
# 6 -25.7819 -3.2126 -3.1689 -5.7317 7.5883 30.8197
#
#
#
# Elastic Compliance Matrix: (Units=1/GPa)
#
#
# Indices 1 2 3 4 5 6 
#
# 1 0.017976 -0.006594 -0.007888 0.014072 0.000603 0.016007
# 2 -0.006594 0.015773 0.003387 -0.009101 0.008947 -0.007419
# 3 -0.007888 0.003387 0.020084 -0.019241 0.013208 -0.011010
# 4 0.014072 -0.009101 -0.019241 0.055381 -0.016629 0.023239
# 5 0.000603 0.008947 0.013208 -0.016629 0.044649 -0.011290
# 6 0.016007 -0.007419 -0.011010 0.023239 -0.011290 0.051034
#
#
# Mechanical properties :
#
#
# Convention : Reuss Voigt Hill
#
# Bulk Modulus (GPa) = 31.60295 55.91284 43.75790
# Shear Modulus (GPa) = 21.04082 34.00226 27.52154
#
# Velocity S-wave (km/s) = 3.05149 3.87913 3.48993
# Velocity P-wave (km/s) = 5.13821 6.69385 5.96695
#
# Compressibility (1/GPa) = 0.03164261
#
# Stress axis : x y z
#
# Youngs Moduli (GPa) = 55.63082 63.40099 49.79117
#
# Poissons Ratio (x) = 0.41809 0.39273
# Poissons Ratio (y) = 0.36685 -0.16865
# Poissons Ratio (z) = 0.43879 -0.21475
#
# Static dielectric constant tensor:
#      x y z
#    x 1.875470 0.033000 0.308450 
#    y 0.033000 1.804380 -0.250820 
#    z 0.308450 -0.250820 3.577730 
# 
# From -- ./inp_files/389867.got.cif
#   From: 2010.05.17/outbox.cif.g08.bks.cpg/sg2_195_cif.got.tgz:389867.got - 2010.06.03 11:33:40.
