data_PCOD9021272
_publ_section_title
;
Structure prediction by ZEFSAII (Michael W. Deem and Ramdas Pophale) SiO2 
 PCOD9021272
Probable space group: P -1
;
_chemical_formula_sum "Si O2"
_cell_formula_units_Z 12
_cell_length_a 7.998006
_cell_length_b 16.139866
_cell_length_c 15.130663
_cell_angle_alpha 153.738106
_cell_angle_beta 33.609386
_cell_angle_gamma 131.922248
_cell_volume 452.975475
_symmetry_space_group_name_H-M "P -1"
_symmetry_group_IT_number 2
_symmetry_cell_setting 'triclinic'
loop_
_space_group_symop_operation_xyz
x,y,z
-x,-y,-z
loop_
_atom_site_type_symbol
_atom_site_label
_atom_site_fract_x
_atom_site_fract_y
_atom_site_fract_z
Si Si1 0.091661 0.761335 0.885248
Si Si2 0.220359 0.318923 0.436125
Si Si3 0.265891 0.677449 0.215802
Si Si4 0.854292 0.859419 0.269973
Si Si5 0.319710 0.546851 0.876229
Si Si6 0.248414 0.835011 0.625192
O O1 0.183585 0.528656 0.606732
O O2 0.411524 0.793266 0.814060
O O3 0.855644 0.801154 0.111857
O O4 0.912808 0.933360 0.060324
O O5 0.066916 0.351552 0.633808
O O6 0.010558 0.220761 0.375035
O O7 0.395726 0.636517 0.020233
O O8 0.183233 0.911151 0.488944
O O9 0.500000 0.500000 0.000000
O O10 0.562317 0.823282 0.416834
O O11 0.190542 0.721681 0.030488
O O12 0.602058 0.341600 0.539712
O O13 0.000000 0.500000 0.000000
#
# Coordination Sequence:
#
# PCOD9021272 Si02
#       6
#     2   2   2   2   2   2
#     4  11  23  40  61  92 123 160 207 250 310 355
#     4  11  23  37  65  90 123 157 208 258 296 359
#     4  12  21  38  66  91 121 160 211 248 300 359
#     4  11  23  37  63  90 124 161 200 256 305 361
#     4  10  22  38  59  92 127 157 201 255 303 354
#     4  11  21  39  63  88 120 163 207 248 293 366
#
# _framework density 26.491499999999998
#
# number of rings (size 3 to 8) (size 9 to 14) (size 15 to 20)
#    0.000    1.000    3.333    4.500    0.000    0.000 
#    0.000    0.833    0.000    6.000    0.000    0.000 
#    0.000    0.000    0.000    0.000    0.000    0.000 
#
# Total GULP energy -67126.167952 kJ/mol
# GULP energy per Si atom -5593.847329 kJ/mol
# Density = 2.643120 g / cm^3
# Si number density = 26.491500 Si / 1000 Ang^3
#
#
#
# Elastic Constant Matrix: (Units=GPa)
#
#
# Indices 1 2 3 4 5 6 
#
# 1 59.2617 14.7316 44.3487 24.7195 -39.6749 -16.7394
# 2 14.7316 108.5046 54.3987 14.7880 -19.4815 -1.9053
# 3 44.3487 54.3987 237.7664 39.0392 -54.8414 -2.7753
# 4 24.7195 14.7880 39.0392 59.0552 -4.4091 -3.9886
# 5 -39.6749 -19.4815 -54.8414 -4.4091 51.6416 6.3478
# 6 -16.7394 -1.9053 -2.7753 -3.9886 6.3478 41.7610
#
#
#
# Elastic Compliance Matrix: (Units=1/GPa)
#
#
# Indices 1 2 3 4 5 6 
#
# 1 0.056585 0.001962 0.002792 -0.021807 0.043564 0.014252
# 2 0.001962 0.010710 -0.001638 -0.002125 0.003575 0.000420
# 3 0.002792 -0.001638 0.006728 -0.004600 0.008305 -0.000210
# 4 -0.021807 -0.002125 -0.004600 0.027934 -0.019627 -0.003493
# 5 0.043564 0.003575 0.008305 -0.019627 0.060452 0.007114
# 6 0.014252 0.000420 -0.000210 -0.003493 0.007114 0.028249
#
#
# Mechanical properties :
#
#
# Convention : Reuss Voigt Hill
#
# Bulk Modulus (GPa) = 12.46035 70.27676 41.36856
# Shear Modulus (GPa) = 23.67689 49.96181 36.81935
#
# Velocity S-wave (km/s) = 2.99282 4.34747 3.73212
# Velocity P-wave (km/s) = 4.08122 7.19627 5.84990
#
# Compressibility (1/GPa) = 0.08025454
#
# Stress axis : x y z
#
# Youngs Moduli (GPa) = 17.67266 93.37202 148.62519
#
# Poissons Ratio (x) = -0.18318 -0.41494
# Poissons Ratio (y) = -0.03467 0.24342
# Poissons Ratio (z) = -0.04934 0.15293
#
# Static dielectric constant tensor:
#      x y z
#    x 2.205580 0.037700 0.035530 
#    y 0.037700 2.094870 -0.004840 
#    z 0.035530 -0.004840 2.065190 
# 
# From -- ./inp_files/312131.got.cif
#   From: 2010.05.17/outbox.cif.g08.bks.cpg/sg2_157_cif.got.tgz:312131.got - 2010.06.03 11:33:40.
