data_PCOD9021589
_publ_section_title
;
Structure prediction by ZEFSAII (Michael W. Deem and Ramdas Pophale) SiO2 
 PCOD9021589
Probable space group: P -1
;
_chemical_formula_sum "Si O2"
_cell_formula_units_Z 14
_cell_length_a 10.869712
_cell_length_b 22.142636
_cell_length_c 6.620875
_cell_angle_alpha 71.151936
_cell_angle_beta 86.989240
_cell_angle_gamma 144.896622
_cell_volume 705.123133
_symmetry_space_group_name_H-M "P -1"
_symmetry_group_IT_number 2
_symmetry_cell_setting 'triclinic'
loop_
_space_group_symop_operation_xyz
x,y,z
-x,-y,-z
loop_
_atom_site_type_symbol
_atom_site_label
_atom_site_fract_x
_atom_site_fract_y
_atom_site_fract_z
Si Si1 0.572896 0.393261 0.012002
Si Si2 0.317175 0.680416 0.179158
Si Si3 0.810915 0.431849 0.281097
Si Si4 0.743343 0.143199 0.938443
Si Si5 0.522837 0.884967 0.691214
Si Si6 0.993354 0.807947 0.794923
Si Si7 0.930805 0.286895 0.369819
O O1 0.574946 0.359050 0.266989
O O2 0.302254 0.303764 0.082959
O O3 0.633363 0.367860 0.862743
O O4 0.812101 0.552228 0.843229
O O5 0.303457 0.670066 0.434056
O O6 0.024857 0.567783 0.251058
O O7 0.517101 0.817662 0.894693
O O8 0.000000 0.500000 0.000000
O O9 0.889666 0.252366 0.643996
O O10 0.612660 0.126162 0.138471
O O11 0.931639 0.180472 0.998457
O O12 0.500000 0.000000 0.000000
O O13 0.322981 0.793406 0.617126
O O14 0.803390 0.042465 0.439112
O O15 0.037737 0.766577 0.690959
#
# Coordination Sequence:
#
# PCOD9021589 Si02
#       7
#     2   2   2   2   2   2   2
#     4  11  24  39  62  91 130 160 194 258 309 358
#     4  10  22  38  63  93 117 162 208 242 303 371
#     4   9  20  39  59  87 119 158 202 246 295 359
#     4  11  21  39  65  89 115 166 213 249 301 355
#     4  11  22  39  65  90 121 159 211 252 293 373
#     4  11  24  41  58  94 127 159 205 252 304 362
#     4  11  22  40  64  89 121 165 206 251 303 357
#
# _framework density 19.854687999999999
#
# number of rings (size 3 to 8) (size 9 to 14) (size 15 to 20)
#    0.000    1.429    4.286    1.286    6.000    2.286 
#    0.000    0.714    0.000    0.000    0.000    0.000 
#    0.000    0.000    0.000    0.000    0.000    0.000 
#
# Total GULP energy -78086.536677 kJ/mol
# GULP energy per Si atom -5577.609763 kJ/mol
# Density = 1.980950 g / cm^3
# Si number density = 19.854688 Si / 1000 Ang^3
#
#
#
# Elastic Constant Matrix: (Units=GPa)
#
#
# Indices 1 2 3 4 5 6 
#
# 1 39.1632 35.9941 19.0896 -3.0416 9.4950 5.9781
# 2 35.9941 106.3095 47.8521 -4.8247 10.5626 11.5887
# 3 19.0896 47.8521 112.1698 3.6293 35.3235 5.0322
# 4 -3.0416 -4.8247 3.6293 41.8739 2.0923 8.9784
# 5 9.4950 10.5626 35.3235 2.0923 31.3438 2.1190
# 6 5.9781 11.5887 5.0322 8.9784 2.1190 33.0605
#
#
#
# Elastic Compliance Matrix: (Units=1/GPa)
#
#
# Indices 1 2 3 4 5 6 
#
# 1 0.039335 -0.012764 0.001847 0.002338 -0.009654 -0.002936
# 2 -0.012764 0.016615 -0.006685 0.002005 0.005898 -0.003421
# 3 0.001847 -0.006685 0.016917 -0.001437 -0.017340 0.000936
# 4 0.002338 0.002005 -0.001437 0.026160 -0.000974 -0.007949
# 5 -0.009654 0.005898 -0.017340 -0.000974 0.052500 -0.000783
# 6 -0.002936 -0.003421 0.000936 -0.007949 -0.000783 0.034044
#
#
# Mechanical properties :
#
#
# Convention : Reuss Voigt Hill
#
# Bulk Modulus (GPa) = 26.55036 51.50158 39.02597
# Shear Modulus (GPa) = 21.42889 31.56943 26.49916
#
# Velocity S-wave (km/s) = 3.28881 3.99184 3.65726
# Velocity P-wave (km/s) = 5.27476 6.87328 6.12638
#
# Compressibility (1/GPa) = 0.03766427
#
# Stress axis : x y z
#
# Youngs Moduli (GPa) = 25.42235 60.18663 59.11108
#
# Poissons Ratio (x) = 0.76824 -0.10918
# Poissons Ratio (y) = 0.32450 0.39513
# Poissons Ratio (z) = -0.04696 0.40232
#
# Static dielectric constant tensor:
#      x y z
#    x 1.761410 -0.034980 0.056190 
#    y -0.034980 1.742760 -0.008440 
#    z 0.056190 -0.008440 1.757110 
# 
# From -- ./inp_files/84309.got.cif
#   From: 2010.05.17/outbox.cif.g08.bks.cpg/sg2_43_cif.got.tgz:84309.got - 2010.06.03 11:33:40.
