data_PCOD9021291
_publ_section_title
;
Structure prediction by ZEFSAII (Michael W. Deem and Ramdas Pophale) SiO2 
 PCOD9021291
Probable space group: P -1
;
_chemical_formula_sum "Si O2"
_cell_formula_units_Z 16
_cell_length_a 19.963688
_cell_length_b 8.797469
_cell_length_c 11.793484
_cell_angle_alpha 38.963114
_cell_angle_beta 142.336523
_cell_angle_gamma 115.668419
_cell_volume 700.491611
_symmetry_space_group_name_H-M "P -1"
_symmetry_group_IT_number 2
_symmetry_cell_setting 'triclinic'
loop_
_space_group_symop_operation_xyz
x,y,z
-x,-y,-z
loop_
_atom_site_type_symbol
_atom_site_label
_atom_site_fract_x
_atom_site_fract_y
_atom_site_fract_z
Si Si1 0.885239 0.557982 0.893621
Si Si2 0.958119 0.268656 0.604871
Si Si3 0.194098 0.709469 0.237781
Si Si4 0.774723 0.665392 0.295827
Si Si5 0.002078 0.769092 0.558573
Si Si6 0.456911 0.449493 0.672274
Si Si7 0.616753 0.956502 0.331382
Si Si8 0.503318 0.069252 0.596928
O O1 0.842782 0.349708 0.901510
O O2 0.760736 0.844990 0.557296
O O3 0.000000 0.500000 0.000000
O O4 0.929382 0.501455 0.115081
O O5 0.845858 0.398190 0.465893
O O6 0.000000 0.500000 0.500000
O O7 0.924529 0.227873 0.456674
O O8 0.079032 0.989033 0.964950
O O9 0.220716 0.453620 0.503818
O O10 0.327724 0.689077 0.411911
O O11 0.864694 0.804936 0.331980
O O12 0.638192 0.865160 0.951213
O O13 0.000000 0.000000 0.500000
O O14 0.427239 0.255850 0.660252
O O15 0.520303 0.617762 0.606699
O O16 0.535900 0.248123 0.995402
O O17 0.593792 0.962052 0.431625
O O18 0.500000 0.000000 0.500000
#
# Coordination Sequence:
#
# PCOD9021291 Si02
#       8
#     2   2   2   2   2   2   2   2
#     4  11  23  42  67 104 136 171 221 291 350 407
#     4  10  22  38  59  99 132 182 223 274 339 408
#     4  11  20  43  69  96 138 179 228 283 345 410
#     4  11  24  43  68  96 141 185 233 278 351 417
#     4  11  22  40  68  99 138 175 227 288 347 408
#     4  10  22  46  75  98 134 184 234 294 348 413
#     4  10  24  46  72 103 136 181 240 287 355 416
#     4  12  27  48  69 102 142 190 237 288 347 419
#
# _framework density 22.841100000000001
#
# number of rings (size 3 to 8) (size 9 to 14) (size 15 to 20)
#    0.000    1.250    3.750    2.250    3.500    0.500 
#    4.500    0.000    0.000    0.000    0.000    0.000 
#    0.000    0.000    0.000    0.000    0.000    0.000 
#
# Total GULP energy -89353.909557 kJ/mol
# GULP energy per Si atom -5584.619347 kJ/mol
# Density = 2.278911 g / cm^3
# Si number density = 22.841100 Si / 1000 Ang^3
#
#
#
# Elastic Constant Matrix: (Units=GPa)
#
#
# Indices 1 2 3 4 5 6 
#
# 1 105.9030 6.0118 43.0933 11.7886 -4.1781 -14.5258
# 2 6.0118 44.0361 24.1191 4.1966 -0.3815 -11.7835
# 3 43.0933 24.1191 133.5145 1.9716 -4.2884 2.2188
# 4 11.7886 4.1966 1.9716 28.8796 -2.0352 -4.0777
# 5 -4.1781 -0.3815 -4.2884 -2.0352 38.7638 1.2226
# 6 -14.5258 -11.7835 2.2188 -4.0777 1.2226 32.5122
#
#
#
# Elastic Compliance Matrix: (Units=1/GPa)
#
#
# Indices 1 2 3 4 5 6 
#
# 1 0.012524 0.002942 -0.004603 -0.004288 0.000442 0.006422
# 2 0.002942 0.029349 -0.006422 -0.003381 -0.000660 0.011991
# 3 -0.004603 -0.006422 0.010222 0.001475 0.000804 -0.004927
# 4 -0.004288 -0.003381 0.001475 0.037068 0.001572 0.001348
# 5 0.000442 -0.000660 0.000804 0.001572 0.026038 -0.000879
# 6 0.006422 0.011991 -0.004927 0.001348 -0.000879 0.038511
#
#
# Mechanical properties :
#
#
# Convention : Reuss Voigt Hill
#
# Bulk Modulus (GPa) = 27.83250 47.76690 37.79970
# Shear Modulus (GPa) = 27.49450 34.04641 30.77045
#
# Velocity S-wave (km/s) = 3.47324 3.86499 3.67434
# Velocity P-wave (km/s) = 5.31943 6.39340 5.88098
#
# Compressibility (1/GPa) = 0.03592922
#
# Stress axis : x y z
#
# Youngs Moduli (GPa) = 79.84591 34.07217 97.83249
#
# Poissons Ratio (x) = -0.10024 0.45032
# Poissons Ratio (y) = -0.23492 0.62829
# Poissons Ratio (z) = 0.36753 0.21881
#
# Static dielectric constant tensor:
#      x y z
#    x -1.318360 1.634370 0.781480 
#    y 1.634370 1.075640 -0.406390 
#    z 0.781480 -0.406390 1.684320 
# 
# From -- ./inp_files/403180.got.cif
#   From: 2010.05.17/outbox.cif.g08.bks.cpg/sg2_202_cif.got.tgz:403180.got - 2010.06.03 11:33:40.
