data_PCOD9021751
_publ_section_title
;
Structure prediction by ZEFSAII (Michael W. Deem and Ramdas Pophale) SiO2 
 PCOD9021751
Probable space group: P -1
;
_chemical_formula_sum "Si O2"
_cell_formula_units_Z 12
_cell_length_a 10.684509
_cell_length_b 5.507784
_cell_length_c 9.773572
_cell_angle_alpha 93.969574
_cell_angle_beta 51.392938
_cell_angle_gamma 96.052641
_cell_volume 446.941204
_symmetry_space_group_name_H-M "P -1"
_symmetry_group_IT_number 2
_symmetry_cell_setting 'triclinic'
loop_
_space_group_symop_operation_xyz
x,y,z
-x,-y,-z
loop_
_atom_site_type_symbol
_atom_site_label
_atom_site_fract_x
_atom_site_fract_y
_atom_site_fract_z
Si Si1 0.703477 0.754439 0.969424
Si Si2 0.768552 0.884250 0.436904
Si Si3 0.573989 0.624461 0.772568
Si Si4 0.058408 0.590753 0.164413
Si Si5 0.857022 0.282663 0.607476
Si Si6 0.821672 0.099238 0.127387
O O1 0.595726 0.514704 0.086585
O O2 0.705164 0.953771 0.093213
O O3 0.630887 0.791958 0.870703
O O4 0.885855 0.670577 0.839303
O O5 0.608093 0.765956 0.613700
O O6 0.877161 0.666764 0.305677
O O7 0.857301 0.045996 0.503434
O O8 0.754105 0.057137 0.322854
O O9 0.697117 0.411584 0.684041
O O10 0.142068 0.766406 0.232563
O O11 0.866665 0.355471 0.033515
O O12 0.000000 0.500000 0.500000
O O13 0.000000 0.000000 0.000000
#
# Coordination Sequence:
#
# PCOD9021751 Si02
#       6
#     2   2   2   2   2   2
#     4  10  23  43  62  92 125 164 201 248 314 356
#     4  11  23  38  62  95 119 160 209 252 305 355
#     4  10  23  41  66  90 123 162 205 255 298 368
#     4  10  22  38  65  87 123 161 200 259 290 364
#     4  11  22  37  66  92 118 159 208 259 297 355
#     4  10  24  38  61  92 129 161 200 252 301 370
#
# _framework density 26.849170999999998
#
# number of rings (size 3 to 8) (size 9 to 14) (size 15 to 20)
#    0.000    1.667    1.667    1.500    9.333    6.000 
#    0.000    6.667    0.000    0.000    0.000    0.000 
#    0.000    0.000    0.000    0.000    0.000    0.000 
#
# Total GULP energy -67122.226551 kJ/mol
# GULP energy per Si atom -5593.518879 kJ/mol
# Density = 2.678806 g / cm^3
# Si number density = 26.849171 Si / 1000 Ang^3
#
#
#
# Elastic Constant Matrix: (Units=GPa)
#
#
# Indices 1 2 3 4 5 6 
#
# 1 68.4291 20.2797 38.7978 -3.1242 18.6027 -0.5068
# 2 20.2797 66.5735 41.6281 -0.4938 13.3426 31.7193
# 3 38.7978 41.6281 161.6219 -24.2333 38.6560 -0.3909
# 4 -3.1242 -0.4938 -24.2333 56.4763 -15.6798 6.6705
# 5 18.6027 13.3426 38.6560 -15.6798 66.6488 8.8223
# 6 -0.5068 31.7193 -0.3909 6.6705 8.8223 46.8958
#
#
#
# Elastic Compliance Matrix: (Units=1/GPa)
#
#
# Indices 1 2 3 4 5 6 
#
# 1 0.018664 -0.005988 -0.002272 -0.001652 -0.003767 0.005177
# 2 -0.005988 0.031228 -0.007247 0.000100 0.002524 -0.021736
# 3 -0.002272 -0.007247 0.009874 0.002365 -0.003792 0.005336
# 4 -0.001652 0.000100 0.002365 0.020280 0.004339 -0.003767
# 5 -0.003767 0.002524 -0.003792 0.004339 0.019575 -0.006079
# 6 0.005177 -0.021736 0.005336 -0.003767 -0.006079 0.037805
#
#
# Mechanical properties :
#
#
# Convention : Reuss Voigt Hill
#
# Bulk Modulus (GPa) = 34.78251 55.33730 45.05991
# Shear Modulus (GPa) = 28.08620 47.06544 37.57582
#
# Velocity S-wave (km/s) = 3.23781 4.19138 3.74507
# Velocity P-wave (km/s) = 5.19238 6.63918 5.95984
#
# Compressibility (1/GPa) = 0.02875008
#
# Stress axis : x y z
#
# Youngs Moduli (GPa) = 53.58042 32.02289 101.28043
#
# Poissons Ratio (x) = 0.19177 0.23013
# Poissons Ratio (y) = 0.32086 0.73396
# Poissons Ratio (z) = 0.12174 0.23206
#
# Static dielectric constant tensor:
#      x y z
#    x 2.130180 -0.013380 0.041790 
#    y -0.013380 2.110090 -0.017770 
#    z 0.041790 -0.017770 2.107040 
# 
# From -- ./inp_files/361039.got.cif
#   From: 2010.05.17/outbox.cif.g08.bks.cpg/sg2_181_cif.got.tgz:361039.got - 2010.06.03 11:33:40.
