data_PCOD9021945
_publ_section_title
;
Structure prediction by ZEFSAII (Michael W. Deem and Ramdas Pophale) SiO2 
 PCOD9021945
Probable space group: P -1
;
_chemical_formula_sum "Si O2"
_cell_formula_units_Z 12
_cell_length_a 8.205322
_cell_length_b 15.554405
_cell_length_c 12.372590
_cell_angle_alpha 143.352606
_cell_angle_beta 32.064198
_cell_angle_gamma 129.486957
_cell_volume 495.515061
_symmetry_space_group_name_H-M "P -1"
_symmetry_group_IT_number 2
_symmetry_cell_setting 'triclinic'
loop_
_space_group_symop_operation_xyz
x,y,z
-x,-y,-z
loop_
_atom_site_type_symbol
_atom_site_label
_atom_site_fract_x
_atom_site_fract_y
_atom_site_fract_z
Si Si1 0.705344 0.340910 0.720869
Si Si2 0.557892 0.313025 0.543729
Si Si3 0.205281 0.535320 0.601381
Si Si4 0.593971 0.957915 0.781583
Si Si5 0.288498 0.837163 0.246684
Si Si6 0.111737 0.609464 0.943930
O O1 0.648957 0.259759 0.559450
O O2 0.631318 0.251638 0.777818
O O3 0.048812 0.391912 0.571132
O O4 0.500000 0.500000 0.000000
O O5 0.829818 0.396125 0.428360
O O6 0.499539 0.190982 0.366240
O O7 0.228565 0.417756 0.856535
O O8 0.074025 0.653891 0.883955
O O9 0.580619 0.505601 0.360502
O O10 0.968549 0.939067 0.557586
O O11 0.495390 0.072126 0.854302
O O12 0.500000 0.000000 0.000000
O O13 0.200902 0.725372 0.093347
#
# Coordination Sequence:
#
# PCOD9021945 Si02
#       6
#     2   2   2   2   2   2
#     4  12  25  43  64 103 147 174 206 273 354 404
#     4  11  23  42  65  98 136 173 222 276 333 398
#     4  11  23  37  68  97 134 180 222 267 334 401
#     4  10  23  46  71  94 123 180 238 277 318 384
#     4  10  24  42  67  96 135 171 224 284 323 389
#     4  10  22  38  67  96 126 177 228 273 320 392
#
# _framework density 24.217224000000002
#
# number of rings (size 3 to 8) (size 9 to 14) (size 15 to 20)
#    0.000    1.333    1.667    3.000   11.667    0.667 
#    0.000    0.833    0.000    0.000    0.000    0.000 
#    0.000    0.000    0.000    0.000    0.000    0.000 
#
# Total GULP energy -66849.993404 kJ/mol
# GULP energy per Si atom -5570.832784 kJ/mol
# Density = 2.416210 g / cm^3
# Si number density = 24.217224 Si / 1000 Ang^3
#
#
#
# Elastic Constant Matrix: (Units=GPa)
#
#
# Indices 1 2 3 4 5 6 
#
# 1 99.7442 43.1016 55.7295 -12.2563 35.6102 -12.1358
# 2 43.1016 130.4728 55.0881 -23.3724 19.6297 -33.1875
# 3 55.7295 55.0881 135.6168 -34.0084 48.5633 -19.9589
# 4 -12.2563 -23.3724 -34.0084 39.6433 -9.6302 9.0359
# 5 35.6102 19.6297 48.5633 -9.6302 43.8979 -7.0500
# 6 -12.1358 -33.1875 -19.9589 9.0359 -7.0500 46.0389
#
#
#
# Elastic Compliance Matrix: (Units=1/GPa)
#
#
# Indices 1 2 3 4 5 6 
#
# 1 0.015734 -0.003143 -0.002197 -0.001046 -0.009202 -0.000274
# 2 -0.003143 0.011521 -0.002361 0.002784 0.001608 0.006153
# 3 -0.002197 -0.002361 0.016163 0.008382 -0.013030 0.001086
# 4 -0.001046 0.002784 0.008382 0.033471 -0.002584 -0.001600
# 5 -0.009202 0.001608 -0.013030 -0.002584 0.043412 0.000240
# 6 -0.000274 0.006153 0.001086 -0.001600 0.000240 0.026906
#
#
# Mechanical properties :
#
#
# Convention : Reuss Voigt Hill
#
# Bulk Modulus (GPa) = 35.69094 74.85245 55.27169
# Shear Modulus (GPa) = 29.07875 40.04365 34.56120
#
# Velocity S-wave (km/s) = 3.46894 4.07076 3.78184
# Velocity P-wave (km/s) = 5.55108 7.28496 6.47631
#
# Compressibility (1/GPa) = 0.02801832
#
# Stress axis : x y z
#
# Youngs Moduli (GPa) = 63.55473 86.79540 61.87000
#
# Poissons Ratio (x) = 0.27281 0.13590
# Poissons Ratio (y) = 0.19976 0.14605
# Poissons Ratio (z) = 0.13960 0.20488
#
# Static dielectric constant tensor:
#      x y z
#    x 2.231770 -0.164680 -0.055260 
#    y -0.164680 2.056070 -0.027970 
#    z -0.055260 -0.027970 1.934220 
# 
# From -- ./inp_files/399731.got.cif
#   From: 2010.05.17/outbox.cif.g08.bks.cpg/sg2_200_cif.got.tgz:399731.got - 2010.06.03 11:33:40.
