data_PCOD9021016
_publ_section_title
;
Structure prediction by ZEFSAII (Michael W. Deem and Ramdas Pophale) SiO2 
 PCOD9021016
Probable space group: P -1
;
_chemical_formula_sum "Si O2"
_cell_formula_units_Z 12
_cell_length_a 19.938887
_cell_length_b 17.260005
_cell_length_c 9.696775
_cell_angle_alpha 136.824828
_cell_angle_beta 150.363428
_cell_angle_gamma 19.929692
_cell_volume 480.034167
_symmetry_space_group_name_H-M "P -1"
_symmetry_group_IT_number 2
_symmetry_cell_setting 'triclinic'
loop_
_space_group_symop_operation_xyz
x,y,z
-x,-y,-z
loop_
_atom_site_type_symbol
_atom_site_label
_atom_site_fract_x
_atom_site_fract_y
_atom_site_fract_z
Si Si1 0.234797 0.253439 0.255565
Si Si2 0.826600 0.372806 0.988994
Si Si3 0.011860 0.656574 0.466990
Si Si4 0.371518 0.850453 0.620863
Si Si5 0.120564 0.868950 0.398465
Si Si6 0.633972 0.636120 0.530200
O O1 0.033094 0.505926 0.297019
O O2 0.390284 0.212102 0.357589
O O3 0.500000 0.000000 0.500000
O O4 0.982099 0.362168 0.872295
O O5 0.697294 0.567919 0.910704
O O6 0.499034 0.557597 0.692288
O O7 0.015656 0.139522 0.930997
O O8 0.951385 0.333207 0.298214
O O9 0.308144 0.467752 0.648256
O O10 0.711298 0.955439 0.266415
O O11 0.116393 0.972460 0.412965
O O12 0.388751 0.797396 0.423544
O O13 0.000000 0.000000 0.500000
#
# Coordination Sequence:
#
# PCOD9021016 Si02
#       6
#     2   2   2   2   2   2
#     4   9  21  41  64  88 127 162 198 248 311 361
#     4   9  22  39  59  94 118 160 211 238 310 360
#     4  10  22  37  64  92 119 163 204 248 310 354
#     4  10  22  38  63  89 124 157 206 252 296 364
#     4   9  21  41  62  84 127 163 198 252 303 355
#     4   9  22  40  60  93 123 156 205 250 303 358
#
# _framework density 24.998221999999998
#
# number of rings (size 3 to 8) (size 9 to 14) (size 15 to 20)
#    2.000    0.667    0.000    0.000    4.667    4.000 
#    0.000    3.333    0.000    0.000    0.000    0.000 
#    0.000    0.000    0.000    0.000    0.000    0.000 
#
# Total GULP energy -66871.054810 kJ/mol
# GULP energy per Si atom -5572.587901 kJ/mol
# Density = 2.494133 g / cm^3
# Si number density = 24.998222 Si / 1000 Ang^3
#
#
#
# Elastic Constant Matrix: (Units=GPa)
#
#
# Indices 1 2 3 4 5 6 
#
# 1 151.3033 64.2956 29.8886 10.8669 -39.3496 -20.7640
# 2 64.2956 168.2888 45.0810 16.7793 -30.2159 -3.0476
# 3 29.8886 45.0810 75.0592 20.0227 -30.8094 -1.5067
# 4 10.8669 16.7793 20.0227 38.8914 -6.3277 -19.8290
# 5 -39.3496 -30.2159 -30.8094 -6.3277 43.8299 2.3627
# 6 -20.7640 -3.0476 -1.5067 -19.8290 2.3627 55.0623
#
#
#
# Elastic Compliance Matrix: (Units=1/GPa)
#
#
# Indices 1 2 3 4 5 6 
#
# 1 0.010018 -0.002659 0.000383 0.001288 0.007412 0.003787
# 2 -0.002659 0.008067 -0.002987 -0.001713 0.000896 -0.001293
# 3 0.000383 -0.002987 0.023105 -0.010462 0.013216 -0.003723
# 4 0.001288 -0.001713 -0.010462 0.038171 -0.002621 0.013963
# 5 0.007412 0.000896 0.013216 -0.002621 0.038968 0.000590
# 6 0.003787 -0.001293 -0.003723 0.013963 0.000590 0.024419
#
#
# Mechanical properties :
#
#
# Convention : Reuss Voigt Hill
#
# Bulk Modulus (GPa) = 32.61234 74.79796 53.70515
# Shear Modulus (GPa) = 30.58192 44.58248 37.58220
#
# Velocity S-wave (km/s) = 3.50146 4.22764 3.88157
# Velocity P-wave (km/s) = 5.42412 7.33600 6.45128
#
# Compressibility (1/GPa) = 0.03066324
#
# Stress axis : x y z
#
# Youngs Moduli (GPa) = 99.81551 123.96821 43.28025
#
# Poissons Ratio (x) = 0.32965 -0.01656
# Poissons Ratio (y) = 0.26542 0.12928
# Poissons Ratio (z) = -0.03819 0.37030
#
# Static dielectric constant tensor:
#      x y z
#    x 2.052920 -0.030420 0.099580 
#    y -0.030420 2.003840 -0.070170 
#    z 0.099580 -0.070170 2.096340 
# 
# From -- ./inp_files/348614.got.cif
#   From: 2010.05.17/outbox.cif.g08.bks.cpg/sg2_175_cif.got.tgz:348614.got - 2010.06.03 11:33:40.
