data_PCOD9021608
_publ_section_title
;
Structure prediction by ZEFSAII (Michael W. Deem and Ramdas Pophale) SiO2 
 PCOD9021608
Probable space group: P -1
;
_chemical_formula_sum "Si O2"
_cell_formula_units_Z 13
_cell_length_a 14.439268
_cell_length_b 9.903713
_cell_length_c 11.399295
_cell_angle_alpha 55.345846
_cell_angle_beta 151.381262
_cell_angle_gamma 125.655326
_cell_volume 627.602587
_symmetry_space_group_name_H-M "P -1"
_symmetry_group_IT_number 2
_symmetry_cell_setting 'triclinic'
loop_
_space_group_symop_operation_xyz
x,y,z
-x,-y,-z
loop_
_atom_site_type_symbol
_atom_site_label
_atom_site_fract_x
_atom_site_fract_y
_atom_site_fract_z
Si Si1 0.978896 0.404386 0.645069
Si Si2 0.000000 0.000000 0.500000
Si Si3 0.656678 0.477793 0.836975
Si Si4 0.167735 0.951436 0.452379
Si Si5 0.592225 0.075624 0.943101
Si Si6 0.227418 0.523028 0.397165
Si Si7 0.063436 0.294448 0.141749
O O1 0.000000 0.500000 0.500000
O O2 0.916329 0.210269 0.638390
O O3 0.819259 0.455809 0.529991
O O4 0.182945 0.460261 0.914549
O O5 0.097070 0.932202 0.520016
O O6 0.200705 0.981577 0.808224
O O7 0.623451 0.278007 0.879605
O O8 0.452764 0.525989 0.621423
O O9 0.755673 0.578814 0.783660
O O10 0.408212 0.001521 0.688929
O O11 0.085541 0.109091 0.236381
O O12 0.500000 0.000000 0.000000
O O13 0.100377 0.343689 0.295708
O O14 0.132082 0.657423 0.152129
#
# Coordination Sequence:
#
# PCOD9021608 Si02
#       7
#     2   1   2   2   2   2   2
#     4  11  26  43  63  97 136 168 215 272 329 382
#     4  10  24  38  64  90 128 168 218 266 318 372
#     4  11  23  42  69  95 129 172 219 265 321 390
#     4  11  24  41  64  96 130 168 218 271 316 386
#     4  10  22  38  63  94 124 165 221 264 310 382
#     4  10  23  41  68  94 130 175 211 267 327 381
#     4  10  23  40  69  97 128 169 225 264 315 392
#
# _framework density 20.713743999999998
#
# number of rings (size 3 to 8) (size 9 to 14) (size 15 to 20)
#    0.000    1.538    1.538    2.308    8.615    4.308 
#    0.000    1.538    0.000    0.000    0.000    0.000 
#    0.000    0.000    0.000    0.000    0.000    0.000 
#
# Total GULP energy -72384.690430 kJ/mol
# GULP energy per Si atom -5568.053110 kJ/mol
# Density = 2.066660 g / cm^3
# Si number density = 20.713744 Si / 1000 Ang^3
#
#
#
# Elastic Constant Matrix: (Units=GPa)
#
#
# Indices 1 2 3 4 5 6 
#
# 1 114.0489 28.8794 33.6324 0.5488 11.7135 -11.6674
# 2 28.8794 128.2530 20.7865 4.9510 -3.4324 -0.6563
# 3 33.6324 20.7865 116.3485 8.1721 42.9704 -9.9415
# 4 0.5488 4.9510 8.1721 29.9587 -8.8217 -0.9510
# 5 11.7135 -3.4324 42.9704 -8.8217 41.0349 2.7417
# 6 -11.6674 -0.6563 -9.9415 -0.9510 2.7417 23.9512
#
#
#
# Elastic Compliance Matrix: (Units=1/GPa)
#
#
# Indices 1 2 3 4 5 6 
#
# 1 0.010424 -0.002112 -0.001648 0.000259 -0.001674 0.004538
# 2 -0.002112 0.008853 -0.003039 0.000754 0.004859 -0.002574
# 3 -0.001648 -0.003039 0.020170 -0.011751 -0.024084 0.009776
# 4 0.000259 0.000754 -0.011751 0.042713 0.021847 -0.005536
# 5 -0.001674 0.004859 -0.024084 0.021847 0.056257 -0.016251
# 6 0.004538 -0.002574 0.009776 -0.005536 -0.016251 0.049590
#
#
# Mechanical properties :
#
#
# Convention : Reuss Voigt Hill
#
# Bulk Modulus (GPa) = 38.68572 58.36077 48.52324
# Shear Modulus (GPa) = 23.78467 37.34576 30.56522
#
# Velocity S-wave (km/s) = 3.39227 4.25072 3.84552
# Velocity P-wave (km/s) = 5.83611 7.23378 6.57220
#
# Compressibility (1/GPa) = 0.02584933
#
# Stress axis : x y z
#
# Youngs Moduli (GPa) = 95.93442 112.95788 49.57883
#
# Poissons Ratio (x) = 0.23852 0.08172
# Poissons Ratio (y) = 0.20258 0.15066
# Poissons Ratio (z) = 0.15812 0.34325
#
# Static dielectric constant tensor:
#      x y z
#    x 1.774100 0.122060 0.009270 
#    y 0.122060 1.586220 -0.074290 
#    z 0.009270 -0.074290 1.731310 
# 
# From -- ./inp_files/445701.got.cif
#   From: 2010.05.17/outbox.cif.g08.bks.cpg/sg2_223_cif.got.tgz:445701.got - 2010.06.03 11:33:40.
