data_PCOD9021530
_publ_section_title
;
Structure prediction by ZEFSAII (Michael W. Deem and Ramdas Pophale) SiO2 
 PCOD9021530
Probable space group: P -1
;
_chemical_formula_sum "Si O2"
_cell_formula_units_Z 14
_cell_length_a 30.050405
_cell_length_b 9.568050
_cell_length_c 6.173433
_cell_angle_alpha 61.548346
_cell_angle_beta 130.134639
_cell_angle_gamma 151.420863
_cell_volume 629.378391
_symmetry_space_group_name_H-M "P -1"
_symmetry_group_IT_number 2
_symmetry_cell_setting 'triclinic'
loop_
_space_group_symop_operation_xyz
x,y,z
-x,-y,-z
loop_
_atom_site_type_symbol
_atom_site_label
_atom_site_fract_x
_atom_site_fract_y
_atom_site_fract_z
Si Si1 0.949436 0.888890 0.674388
Si Si2 0.156496 0.704379 0.260832
Si Si3 0.442590 0.965962 0.658072
Si Si4 0.646179 0.488849 0.602698
Si Si5 0.738137 0.949559 0.259125
Si Si6 0.623799 0.856558 0.613859
Si Si7 0.157661 0.016867 0.812462
O O1 0.885746 0.570422 0.711315
O O2 0.898418 0.949196 0.458935
O O3 0.000000 0.000000 0.500000
O O4 0.000000 0.000000 0.000000
O O5 0.164971 0.761658 0.498594
O O6 0.284731 0.005625 0.358503
O O7 0.098876 0.721238 0.947610
O O8 0.541105 0.253560 0.601033
O O9 0.383278 0.974594 0.577049
O O10 0.364582 0.684519 0.464449
O O11 0.500000 0.000000 0.000000
O O12 0.649576 0.649116 0.342749
O O13 0.754836 0.733530 0.909642
O O14 0.782252 0.921389 0.250503
O O15 0.679188 0.954965 0.947339
O O16 0.500000 0.500000 0.500000
#
# Coordination Sequence:
#
# PCOD9021530 Si02
#       7
#     2   2   2   2   2   2   2
#     4  12  32  52  81 118 146 192 261 318 388 464
#     4  10  26  46  75 107 145 201 239 311 382 439
#     4  11  23  35  57  99 142 190 243 295 354 436
#     4  10  22  38  62  95 137 194 236 294 371 428
#     4  10  22  43  68  97 141 189 242 292 371 438
#     4  11  23  39  65 101 145 191 246 298 357 448
#     4  10  24  47  74 101 149 187 239 312 380 453
#
# _framework density 22.244168999999999
#
# number of rings (size 3 to 8) (size 9 to 14) (size 15 to 20)
#    0.000    1.429    0.000    4.286   14.000    4.571 
#    0.000    0.000    0.000    0.000    0.000    0.000 
#    0.000    0.000    0.000    0.000    0.000    0.000 
#
# Total GULP energy -78018.709375 kJ/mol
# GULP energy per Si atom -5572.764955 kJ/mol
# Density = 2.219354 g / cm^3
# Si number density = 22.244169 Si / 1000 Ang^3
#
#
#
# Elastic Constant Matrix: (Units=GPa)
#
#
# Indices 1 2 3 4 5 6 
#
# 1 88.1853 44.2738 65.8737 -1.1567 -1.3246 -28.9714
# 2 44.2738 98.8737 40.4441 -16.2951 -0.1655 -16.8599
# 3 65.8737 40.4441 158.6899 -25.5921 10.3309 -17.1754
# 4 -1.1567 -16.2951 -25.5921 24.5925 -9.9562 4.7936
# 5 -1.3246 -0.1655 10.3309 -9.9562 45.8880 -14.6974
# 6 -28.9714 -16.8599 -17.1754 4.7936 -14.6974 29.6633
#
#
#
# Elastic Compliance Matrix: (Units=1/GPa)
#
#
# Indices 1 2 3 4 5 6 
#
# 1 0.034533 -0.008454 -0.012719 -0.019254 0.008979 0.029119
# 2 -0.008454 0.015396 0.001448 0.012136 0.002279 0.000501
# 3 -0.012719 0.001448 0.012824 0.014142 -0.002674 -0.007783
# 4 -0.019254 0.012136 0.014142 0.067679 0.007482 -0.010948
# 5 0.008979 0.002279 -0.002674 0.007482 0.031648 0.022988
# 6 0.029119 0.000501 -0.007783 -0.010948 0.022988 0.071089
#
#
# Mechanical properties :
#
#
# Convention : Reuss Voigt Hill
#
# Bulk Modulus (GPa) = 42.90694 71.88136 57.39415
# Shear Modulus (GPa) = 17.83257 33.03925 25.43591
#
# Velocity S-wave (km/s) = 2.83446 3.85814 3.38522
# Velocity P-wave (km/s) = 5.48116 7.22716 6.41385
#
# Compressibility (1/GPa) = 0.02330625
#
# Stress axis : x y z
#
# Youngs Moduli (GPa) = 28.95745 64.95087 77.97631
#
# Poissons Ratio (x) = 0.54907 0.99175
# Poissons Ratio (y) = 0.24480 -0.11294
# Poissons Ratio (z) = 0.36830 -0.09407
#
# Static dielectric constant tensor:
#      x y z
#    x 1.889000 -0.034200 -0.014160 
#    y -0.034200 1.915440 -0.016720 
#    z -0.014160 -0.016720 1.824120 
# 
# From -- ./inp_files/36390.got.cif
#   From: 2010.05.17/outbox.cif.g08.bks.cpg/sg2_19_cif.got.tgz:36390.got - 2010.06.03 11:33:40.
