data_PCOD9021269
_publ_section_title
;
Structure prediction by ZEFSAII (Michael W. Deem and Ramdas Pophale) SiO2 
 PCOD9021269
Probable space group: P -1
;
_chemical_formula_sum "Si O2"
_cell_formula_units_Z 16
_cell_length_a 11.626116
_cell_length_b 5.592827
_cell_length_c 23.328089
_cell_angle_alpha 117.261741
_cell_angle_beta 27.807699
_cell_angle_gamma 106.822932
_cell_volume 604.024445
_symmetry_space_group_name_H-M "P -1"
_symmetry_group_IT_number 2
_symmetry_cell_setting 'triclinic'
loop_
_space_group_symop_operation_xyz
x,y,z
-x,-y,-z
loop_
_atom_site_type_symbol
_atom_site_label
_atom_site_fract_x
_atom_site_fract_y
_atom_site_fract_z
Si Si1 0.786721 0.296277 0.131343
Si Si2 0.584942 0.355689 0.748248
Si Si3 0.797201 0.904257 0.367016
Si Si4 0.560021 0.647222 0.065418
Si Si5 0.998340 0.368946 0.361701
Si Si6 0.025596 0.199840 0.847739
Si Si7 0.522989 0.852971 0.654622
Si Si8 0.165075 0.376046 0.166328
O O1 0.682651 0.423049 0.129488
O O2 0.904005 0.514026 0.136405
O O3 0.536928 0.286393 0.275787
O O4 0.000000 0.000000 0.000000
O O5 0.541368 0.219282 0.814022
O O6 0.808360 0.509810 0.672177
O O7 0.628640 0.113265 0.654864
O O8 0.893162 0.101385 0.391093
O O9 0.500000 0.000000 0.500000
O O10 0.893191 0.936195 0.264408
O O11 0.881375 0.572736 0.303798
O O12 0.320695 0.609094 0.131208
O O13 0.725002 0.765540 0.958428
O O14 0.724646 0.338790 0.980635
O O15 0.737919 0.627587 0.499813
O O16 0.165907 0.272659 0.219192
O O17 0.231929 0.980896 0.772697
#
# Coordination Sequence:
#
# PCOD9021269 Si02
#       8
#     2   2   2   2   2   2   2   2
#     4  11  23  39  64  92 123 170 214 256 319 375
#     4  10  23  42  63  94 128 163 214 264 308 374
#     4  11  23  40  62  91 127 164 208 260 312 376
#     4   9  18  40  64  86 125 162 201 259 314 364
#     4  11  24  41  65  94 125 169 213 255 319 379
#     4  10  22  38  59  91 125 159 207 261 309 370
#     4  11  23  40  62  91 129 168 210 262 312 369
#     4   9  21  40  63  91 124 165 208 258 315 371
#
# _framework density 26.488990999999999
#
# number of rings (size 3 to 8) (size 9 to 14) (size 15 to 20)
#    0.000    1.750    0.000    3.375    0.000   10.500 
#    0.000   18.125    0.000    0.000    0.000    0.000 
#    0.000    0.000    0.000    0.000    0.000    0.000 
#
# Total GULP energy -89210.232429 kJ/mol
# GULP energy per Si atom -5575.639527 kJ/mol
# Density = 2.642870 g / cm^3
# Si number density = 26.488991 Si / 1000 Ang^3
#
#
#
# Elastic Constant Matrix: (Units=GPa)
#
#
# Indices 1 2 3 4 5 6 
#
# 1 99.6881 27.2281 13.7498 7.4777 0.7633 7.2394
# 2 27.2281 100.1718 26.6087 20.8359 -6.3382 24.1938
# 3 13.7498 26.6087 99.6932 13.4587 -5.5023 14.7709
# 4 7.4777 20.8359 13.4587 27.7917 -4.8590 -2.2296
# 5 0.7633 -6.3382 -5.5023 -4.8590 49.1390 -7.7412
# 6 7.2394 24.1938 14.7709 -2.2296 -7.7412 30.5004
#
#
#
# Elastic Compliance Matrix: (Units=1/GPa)
#
#
# Indices 1 2 3 4 5 6 
#
# 1 0.010925 -0.002528 -0.000677 -0.000886 -0.000740 -0.000512
# 2 -0.002528 0.016715 -0.000394 -0.012990 -0.001299 -0.013747
# 3 -0.000677 -0.000394 0.011844 -0.005751 -0.000185 -0.005730
# 4 -0.000886 -0.012990 -0.005751 0.051219 0.005671 0.018483
# 5 -0.000740 -0.001299 -0.000185 0.005671 0.021879 0.007263
# 6 -0.000512 -0.013747 -0.005730 0.018483 0.007263 0.049782
#
#
# Mechanical properties :
#
#
# Convention : Reuss Voigt Hill
#
# Bulk Modulus (GPa) = 30.97390 48.30293 39.63842
# Shear Modulus (GPa) = 27.72790 36.95064 32.33927
#
# Velocity S-wave (km/s) = 3.23889 3.73895 3.49787
# Velocity P-wave (km/s) = 5.07008 6.07571 5.59554
#
# Compressibility (1/GPa) = 0.03228524
#
# Stress axis : x y z
#
# Youngs Moduli (GPa) = 91.53644 59.82738 84.42796
#
# Poissons Ratio (x) = 0.15126 0.05718
# Poissons Ratio (y) = 0.23144 0.03324
# Poissons Ratio (z) = 0.06199 0.02355
#
# Static dielectric constant tensor:
#      x y z
#    x 2.187780 -0.379900 0.437710 
#    y -0.379900 3.439920 -1.703320 
#    z 0.437710 -1.703320 4.140770 
# 
# From -- ./inp_files/410868.got.cif
#   From: 2010.05.17/outbox.cif.g08.bks.cpg/sg2_206_cif.got.tgz:410868.got - 2010.06.03 11:33:40.
