data_PCOD9021168
_publ_section_title
;
Structure prediction by ZEFSAII (Michael W. Deem and Ramdas Pophale) SiO2 
 PCOD9021168
Probable space group: P -1
;
_chemical_formula_sum "Si O2"
_cell_formula_units_Z 14
_cell_length_a 10.323004
_cell_length_b 7.084610
_cell_length_c 14.102164
_cell_angle_alpha 110.272864
_cell_angle_beta 43.967334
_cell_angle_gamma 83.742563
_cell_volume 560.814657
_symmetry_space_group_name_H-M "P -1"
_symmetry_group_IT_number 2
_symmetry_cell_setting 'triclinic'
loop_
_space_group_symop_operation_xyz
x,y,z
-x,-y,-z
loop_
_atom_site_type_symbol
_atom_site_label
_atom_site_fract_x
_atom_site_fract_y
_atom_site_fract_z
Si Si1 0.159051 0.596806 0.563384
Si Si2 0.500782 0.193093 0.698561
Si Si3 0.047491 0.110078 0.662495
Si Si4 0.200485 0.137021 0.969160
Si Si5 0.447891 0.657195 0.842800
Si Si6 0.736067 0.606234 0.844131
Si Si7 0.244108 0.398653 0.688582
O O1 0.058469 0.882602 0.661486
O O2 0.339143 0.461514 0.361908
O O3 0.275381 0.476642 0.582102
O O4 0.947595 0.572712 0.668904
O O5 0.763756 0.010936 0.540911
O O6 0.360241 0.088166 0.788690
O O7 0.410263 0.444628 0.841627
O O8 0.451341 0.262608 0.625664
O O9 0.139962 0.238213 0.700980
O O10 0.815871 0.334937 0.784968
O O11 0.281207 0.237990 0.029364
O O12 0.243058 0.891227 0.943125
O O13 0.949290 0.351452 0.119035
O O14 0.523226 0.720048 0.909828
#
# Coordination Sequence:
#
# PCOD9021168 Si02
#       7
#     2   2   2   2   2   2   2
#     4   9  20  37  60  84 110 146 186 230 279 325
#     4  11  23  37  58  86 113 147 187 228 278 331
#     4   9  20  37  60  84 110 146 186 230 279 325
#     4  10  22  38  56  80 114 152 186 226 276 328
#     4  11  23  37  58  86 113 147 187 228 278 331
#     4  10  22  39  58  83 114 147 186 230 276 330
#     4  10  22  39  58  83 114 147 186 230 276 330
#
# _framework density 24.963684000000001
#
# number of rings (size 3 to 8) (size 9 to 14) (size 15 to 20)
#    0.000    2.286    0.000    3.429    0.000   12.571 
#    0.000    0.000    0.000    0.000    0.000    0.000 
#    0.000    0.000    0.000    0.000    0.000    0.000 
#
# Total GULP energy -78336.379425 kJ/mol
# GULP energy per Si atom -5595.455673 kJ/mol
# Density = 2.490687 g / cm^3
# Si number density = 24.963684 Si / 1000 Ang^3
#
#
#
# Elastic Constant Matrix: (Units=GPa)
#
#
# Indices 1 2 3 4 5 6 
#
# 1 57.6764 25.1251 -11.7304 4.8193 0.6783 -3.5263
# 2 25.1251 109.2291 41.1117 30.6168 -0.5857 -7.0810
# 3 -11.7304 41.1117 67.7126 1.8596 -0.4531 -14.1218
# 4 4.8193 30.6168 1.8596 46.4838 -8.9848 -0.0278
# 5 0.6783 -0.5857 -0.4531 -8.9848 19.6535 7.5342
# 6 -3.5263 -7.0810 -14.1218 -0.0278 7.5342 22.1256
#
#
#
# Elastic Compliance Matrix: (Units=1/GPa)
#
#
# Indices 1 2 3 4 5 6 
#
# 1 0.025129 -0.011053 0.012987 0.003579 -0.003013 0.009787
# 2 -0.011053 0.020521 -0.014751 -0.012515 -0.003790 -0.003334
# 3 0.012987 -0.014751 0.029418 0.006436 -0.003970 0.017485
# 4 0.003579 -0.012515 0.006436 0.032265 0.016250 -0.004820
# 5 -0.003013 -0.003790 -0.003970 0.016250 0.068804 -0.027636
# 6 0.009787 -0.003334 0.017485 -0.004820 -0.027636 0.066253
#
#
# Mechanical properties :
#
#
# Convention : Reuss Voigt Hill
#
# Bulk Modulus (GPa) = 20.22943 38.18122 29.20533
# Shear Modulus (GPa) = 17.57448 29.66003 23.61726
#
# Velocity S-wave (km/s) = 2.65618 3.45066 3.07915
# Velocity P-wave (km/s) = 4.18667 5.58605 4.93620
#
# Compressibility (1/GPa) = 0.04943292
#
# Stress axis : x y z
#
# Youngs Moduli (GPa) = 39.79439 48.73053 33.99328
#
# Poissons Ratio (x) = 0.53863 -0.44147
# Poissons Ratio (y) = 0.43985 0.50144
# Poissons Ratio (z) = -0.51681 0.71883
#
# Static dielectric constant tensor:
#      x y z
#    x 1.922550 0.009780 0.056700 
#    y 0.009780 1.965500 0.006360 
#    z 0.056700 0.006360 1.955840 
# 
# From -- ./inp_files/597043.got.cif
#   From: 2010.05.17/outbox.cif.g08.bks.cpg/sg2_299_cif.got.tgz:597043.got - 2010.06.03 11:33:40.
