data_PCOD9021534
_publ_section_title
;
Structure prediction by ZEFSAII (Michael W. Deem and Ramdas Pophale) SiO2 
 PCOD9021534
Probable space group: P -1
;
_chemical_formula_sum "Si O2"
_cell_formula_units_Z 14
_cell_length_a 11.013618
_cell_length_b 14.438745
_cell_length_c 5.539855
_cell_angle_alpha 91.155086
_cell_angle_beta 107.852743
_cell_angle_gamma 41.710645
_cell_volume 526.776676
_symmetry_space_group_name_H-M "P -1"
_symmetry_group_IT_number 2
_symmetry_cell_setting 'triclinic'
loop_
_space_group_symop_operation_xyz
x,y,z
-x,-y,-z
loop_
_atom_site_type_symbol
_atom_site_label
_atom_site_fract_x
_atom_site_fract_y
_atom_site_fract_z
Si Si1 0.694193 0.841676 0.309719
Si Si2 0.527429 0.365393 0.769426
Si Si3 0.308843 0.318025 0.082074
Si Si4 0.122561 0.119103 0.869848
Si Si5 0.587632 0.134078 0.635232
Si Si6 0.264416 0.691577 0.613657
Si Si7 0.996800 0.360019 0.130366
O O1 0.687416 0.938472 0.152584
O O2 0.520420 0.904142 0.386638
O O3 0.904951 0.735500 0.574712
O O4 0.718241 0.739385 0.149167
O O5 0.489956 0.277026 0.721637
O O6 0.339473 0.542325 0.675153
O O7 0.632924 0.329855 0.574071
O O8 0.664058 0.306130 0.087695
O O9 0.531656 0.189849 0.329125
O O10 0.152512 0.358279 0.179890
O O11 0.222329 0.468991 0.992661
O O12 0.971232 0.162229 0.585439
O O13 0.012772 0.268270 0.942961
O O14 0.197465 0.005901 0.115055
#
# Coordination Sequence:
#
# PCOD9021534 Si02
#       7
#     2   2   2   2   2   2   2
#     4  10  22  38  62  96 132 174 216 272 332 400
#     4  10  24  47  72  99 131 175 230 287 340 396
#     4   9  19  36  58  87 122 165 216 266 321 386
#     4  11  24  40  63  95 135 175 217 271 336 409
#     4  11  24  40  63  95 135 175 217 271 336 409
#     4  10  24  47  72  99 131 175 230 287 340 396
#     4   9  19  36  58  87 122 165 216 266 321 386
#
# _framework density 26.576725
#
# number of rings (size 3 to 8) (size 9 to 14) (size 15 to 20)
#    0.000    2.000    0.000    1.714    4.000   10.857 
#    0.000    0.000    0.000    0.000    0.000    0.000 
#    0.000    0.000    0.000    0.000    0.000    0.000 
#
# Total GULP energy -78256.906951 kJ/mol
# GULP energy per Si atom -5589.779068 kJ/mol
# Density = 2.651624 g / cm^3
# Si number density = 26.576725 Si / 1000 Ang^3
#
#
#
# Elastic Constant Matrix: (Units=GPa)
#
#
# Indices 1 2 3 4 5 6 
#
# 1 75.1500 3.5972 16.1165 -5.0402 -6.3216 10.5416
# 2 3.5972 105.9046 31.4702 14.9097 5.1753 28.6965
# 3 16.1165 31.4702 202.3684 -5.2264 6.4096 13.3111
# 4 -5.0402 14.9097 -5.2264 48.4485 6.0608 1.8111
# 5 -6.3216 5.1753 6.4096 6.0608 34.0674 -5.3971
# 6 10.5416 28.6965 13.3111 1.8111 -5.3971 22.4546
#
#
#
# Elastic Compliance Matrix: (Units=1/GPa)
#
#
# Indices 1 2 3 4 5 6 
#
# 1 0.014788 0.001926 -0.000912 0.001040 0.001061 -0.008691
# 2 0.001926 0.016452 -0.001200 -0.003569 -0.004779 -0.022079
# 3 -0.000912 -0.001200 0.005385 0.001101 -0.001460 -0.001670
# 4 0.001040 -0.003569 0.001101 0.022350 -0.003318 0.000821
# 5 0.001061 -0.004779 -0.001460 -0.003318 0.033485 0.014791
# 6 -0.008691 -0.022079 -0.001670 0.000821 0.014791 0.081310
#
#
# Mechanical properties :
#
#
# Convention : Reuss Voigt Hill
#
# Bulk Modulus (GPa) = 27.58458 53.97676 40.78067
# Shear Modulus (GPa) = 26.84861 43.14337 34.99599
#
# Velocity S-wave (km/s) = 3.18186 4.03345 3.63270
# Velocity P-wave (km/s) = 4.88884 6.48425 5.74222
#
# Compressibility (1/GPa) = 0.03625214
#
# Stress axis : x y z
#
# Youngs Moduli (GPa) = 67.62068 60.78107 185.68962
#
# Poissons Ratio (x) = -0.11704 0.16940
# Poissons Ratio (y) = -0.13021 0.22290
# Poissons Ratio (z) = 0.06169 0.07296
#
# Static dielectric constant tensor:
#      x y z
#    x 2.185190 -0.086020 -0.072140 
#    y -0.086020 2.030190 -0.047310 
#    z -0.072140 -0.047310 2.121360 
# 
# From -- ./inp_files/77958.got.cif
#   From: 2010.05.17/outbox.cif.g08.bks.cpg/sg2_39_cif.got.tgz:77958.got - 2010.06.03 11:33:40.
