data_PCOD9021478
_publ_section_title
;
Structure prediction by ZEFSAII (Michael W. Deem and Ramdas Pophale) SiO2 
 PCOD9021478
Probable space group: P -1
;
_chemical_formula_sum "Si O2"
_cell_formula_units_Z 12
_cell_length_a 15.461987
_cell_length_b 4.786813
_cell_length_c 13.383315
_cell_angle_alpha 95.801109
_cell_angle_beta 153.118270
_cell_angle_gamma 92.164436
_cell_volume 427.186327
_symmetry_space_group_name_H-M "P -1"
_symmetry_group_IT_number 2
_symmetry_cell_setting 'triclinic'
loop_
_space_group_symop_operation_xyz
x,y,z
-x,-y,-z
loop_
_atom_site_type_symbol
_atom_site_label
_atom_site_fract_x
_atom_site_fract_y
_atom_site_fract_z
Si Si1 0.241285 0.504105 0.945205
Si Si2 0.974280 0.249941 0.114335
Si Si3 0.129617 0.698684 0.554803
Si Si4 0.409813 0.649123 0.325730
Si Si5 0.635824 0.761104 0.260404
Si Si6 0.244222 0.875002 0.398627
O O1 0.359404 0.450962 0.164285
O O2 0.399805 0.625940 0.026325
O O3 0.049380 0.262265 0.699599
O O4 0.135771 0.737805 0.892602
O O5 0.196995 0.703429 0.132932
O O6 0.048128 0.968802 0.167041
O O7 0.170174 0.526646 0.318814
O O8 0.000000 0.500000 0.500000
O O9 0.263241 0.499786 0.643634
O O10 0.277397 0.021999 0.734190
O O11 0.500000 0.500000 0.500000
O O12 0.565821 0.951897 0.463672
O O13 0.698185 0.972258 0.428383
#
# Coordination Sequence:
#
# PCOD9021478 Si02
#       6
#     2   2   2   2   2   2
#     4   9  22  40  64  90 121 163 198 248 299 358
#     4  10  22  38  62  90 119 160 205 240 297 353
#     4  12  25  41  63  90 122 157 202 252 300 356
#     4   9  21  40  62  94 124 157 203 248 296 356
#     4  11  21  41  62  89 121 159 202 245 301 358
#     4  11  20  40  64  87 121 166 197 245 299 355
#
# _framework density 28.090788
#
# number of rings (size 3 to 8) (size 9 to 14) (size 15 to 20)
#    1.000    0.667    3.333    0.500    0.000    6.667 
#    0.000    1.667    0.000    0.000    0.000    0.000 
#    0.000    0.000    0.000    0.000    0.000    0.000 
#
# Total GULP energy -67233.893676 kJ/mol
# GULP energy per Si atom -5602.824473 kJ/mol
# Density = 2.802685 g / cm^3
# Si number density = 28.090788 Si / 1000 Ang^3
#
#
#
# Elastic Constant Matrix: (Units=GPa)
#
#
# Indices 1 2 3 4 5 6 
#
# 1 104.1588 40.3663 41.0067 5.9724 38.9538 10.5729
# 2 40.3663 142.2887 38.8824 8.0472 20.3790 13.0582
# 3 41.0067 38.8824 162.9572 18.5270 32.4261 17.9410
# 4 5.9724 8.0472 18.5270 49.0029 11.6115 2.1066
# 5 38.9538 20.3790 32.4261 11.6115 61.1697 2.8256
# 6 10.5729 13.0582 17.9410 2.1066 2.8256 34.8892
#
#
#
# Elastic Compliance Matrix: (Units=1/GPa)
#
#
# Indices 1 2 3 4 5 6 
#
# 1 0.014029 -0.002400 -0.001349 0.001068 -0.007525 -0.002115
# 2 -0.002400 0.008248 -0.001013 -0.000482 -0.000509 -0.001768
# 3 -0.001349 -0.001013 0.007729 -0.001897 -0.002408 -0.002877
# 4 0.001068 -0.000482 -0.001897 0.021952 -0.003672 -0.000196
# 5 -0.007525 -0.000509 -0.002408 -0.003672 0.023188 0.002053
# 6 -0.002115 -0.001768 -0.002877 -0.000196 0.002053 0.031290
#
#
# Mechanical properties :
#
#
# Convention : Reuss Voigt Hill
#
# Bulk Modulus (GPa) = 48.82289 72.21284 60.51786
# Shear Modulus (GPa) = 40.72037 48.28898 44.50468
#
# Velocity S-wave (km/s) = 3.81149 4.15062 3.98466
# Velocity P-wave (km/s) = 6.06532 6.98090 6.53915
#
# Compressibility (1/GPa) = 0.02048220
#
# Stress axis : x y z
#
# Youngs Moduli (GPa) = 71.27870 121.23819 129.37656
#
# Poissons Ratio (x) = 0.29098 0.17454
# Poissons Ratio (y) = 0.17107 0.13109
# Poissons Ratio (z) = 0.09616 0.12285
#
# Static dielectric constant tensor:
#      x y z
#    x 2.408780 0.059470 -0.122230 
#    y 0.059470 2.090380 -0.052700 
#    z -0.122230 -0.052700 2.159430 
# 
# From -- ./inp_files/525812.got.cif
#   From: 2010.05.17/outbox.cif.g08.bks.cpg/sg2_263_cif.got.tgz:525812.got - 2010.06.03 11:33:40.
