data_PCOD9021601
_publ_section_title
;
Structure prediction by ZEFSAII (Michael W. Deem and Ramdas Pophale) SiO2 
 PCOD9021601
Probable space group: P -1
;
_chemical_formula_sum "Si O2"
_cell_formula_units_Z 16
_cell_length_a 5.240358
_cell_length_b 6.978614
_cell_length_c 21.216580
_cell_angle_alpha 121.509368
_cell_angle_beta 82.011188
_cell_angle_gamma 118.147163
_cell_volume 577.265100
_symmetry_space_group_name_H-M "P -1"
_symmetry_group_IT_number 2
_symmetry_cell_setting 'triclinic'
loop_
_space_group_symop_operation_xyz
x,y,z
-x,-y,-z
loop_
_atom_site_type_symbol
_atom_site_label
_atom_site_fract_x
_atom_site_fract_y
_atom_site_fract_z
Si Si1 0.304095 0.007524 0.120260
Si Si2 0.710047 0.263274 0.657092
Si Si3 0.708380 0.729669 0.606314
Si Si4 0.190238 0.094587 0.721344
Si Si5 0.908513 0.453678 0.192780
Si Si6 0.805459 0.330347 0.037336
Si Si7 0.923385 0.707211 0.462079
Si Si8 0.362499 0.241591 0.866448
O O1 0.559177 0.274980 0.181865
O O2 0.435090 0.823945 0.108419
O O3 0.980141 0.948395 0.139575
O O4 0.289406 0.948908 0.036295
O O5 0.377178 0.200309 0.669681
O O6 0.915845 0.488168 0.737595
O O7 0.822227 0.306691 0.589178
O O8 0.697536 0.991274 0.631688
O O9 0.859560 0.662943 0.531246
O O10 0.386017 0.506604 0.591619
O O11 0.933028 0.817889 0.671297
O O12 0.048898 0.268694 0.776605
O O13 0.413793 0.156824 0.781089
O O14 0.955840 0.354543 0.105677
O O15 0.611177 0.478547 0.079970
O O16 0.000000 0.500000 0.000000
O O17 0.000000 0.000000 0.500000
#
# Coordination Sequence:
#
# PCOD9021601 Si02
#       8
#     2   2   2   2   2   2   2   2
#     4  11  23  42  63  99 127 179 225 291 341 408
#     4  10  22  38  63  93 130 173 218 280 336 405
#     4   9  20  41  64  93 129 174 219 271 338 405
#     4  10  23  40  62  92 131 179 220 277 335 413
#     4  10  23  40  61  93 131 166 224 284 337 400
#     4   9  20  42  64  89 126 178 224 280 343 412
#     4   9  19  40  66  94 130 171 217 278 331 407
#     4  10  24  39  67  94 134 175 231 274 349 409
#
# _framework density 27.716904
#
# number of rings (size 3 to 8) (size 9 to 14) (size 15 to 20)
#    0.000    2.250    0.000    0.750   10.500    0.500 
#    2.250    8.750    0.000    0.000    0.000    0.000 
#    0.000    0.000    0.000    0.000    0.000    0.000 
#
# Total GULP energy -89353.699553 kJ/mol
# GULP energy per Si atom -5584.606222 kJ/mol
# Density = 2.765382 g / cm^3
# Si number density = 27.716904 Si / 1000 Ang^3
#
#
#
# Elastic Constant Matrix: (Units=GPa)
#
#
# Indices 1 2 3 4 5 6 
#
# 1 93.4940 31.6742 46.5754 4.1102 -7.8990 21.8030
# 2 31.6742 92.6849 37.9939 13.0200 -7.8650 12.9876
# 3 46.5754 37.9939 154.5152 13.0670 3.6443 16.3522
# 4 4.1102 13.0200 13.0670 64.2227 9.3659 -5.1536
# 5 -7.8990 -7.8650 3.6443 9.3659 39.7517 0.4356
# 6 21.8030 12.9876 16.3522 -5.1536 0.4356 48.0515
#
#
#
# Elastic Compliance Matrix: (Units=1/GPa)
#
#
# Indices 1 2 3 4 5 6 
#
# 1 0.014627 -0.002658 -0.003259 -0.000544 0.002861 -0.004894
# 2 -0.002658 0.013500 -0.002143 -0.002732 0.003005 -0.002034
# 3 -0.003259 -0.002143 0.008176 -0.000850 -0.001612 -0.000801
# 4 -0.000544 -0.002732 -0.000850 0.017268 -0.004674 0.003169
# 5 0.002861 0.003005 -0.001612 -0.004674 0.027594 -0.002313
# 6 -0.004894 -0.002034 -0.000801 0.003169 -0.002313 0.024215
#
#
# Mechanical properties :
#
#
# Convention : Reuss Voigt Hill
#
# Bulk Modulus (GPa) = 49.54654 63.68678 56.61666
# Shear Modulus (GPa) = 38.99378 45.36855 42.18117
#
# Velocity S-wave (km/s) = 3.75488 4.05020 3.90533
# Velocity P-wave (km/s) = 6.05917 6.70072 6.38800
#
# Compressibility (1/GPa) = 0.02018305
#
# Stress axis : x y z
#
# Youngs Moduli (GPa) = 68.36864 74.07541 122.31269
#
# Poissons Ratio (x) = 0.19686 0.39861
# Poissons Ratio (y) = 0.18170 0.26211
# Poissons Ratio (z) = 0.22281 0.15874
#
# Static dielectric constant tensor:
#      x y z
#    x 2.173620 -0.016760 0.033190 
#    y -0.016760 2.339820 -0.002250 
#    z 0.033190 -0.002250 2.169510 
# 
# From -- ./inp_files/604060.got.cif
#   From: 2010.05.17/outbox.cif.g08.bks.cpg/sg2_303_cif.got.tgz:604060.got - 2010.06.03 11:33:40.
