data_PCOD9021915
_publ_section_title
;
Structure prediction by ZEFSAII (Michael W. Deem and Ramdas Pophale) SiO2 
 PCOD9021915
Probable space group: P -1
;
_chemical_formula_sum "Si O2"
_cell_formula_units_Z 16
_cell_length_a 12.413951
_cell_length_b 11.898463
_cell_length_c 11.856728
_cell_angle_alpha 152.934748
_cell_angle_beta 113.646617
_cell_angle_gamma 58.851612
_cell_volume 673.964413
_symmetry_space_group_name_H-M "P -1"
_symmetry_group_IT_number 2
_symmetry_cell_setting 'triclinic'
loop_
_space_group_symop_operation_xyz
x,y,z
-x,-y,-z
loop_
_atom_site_type_symbol
_atom_site_label
_atom_site_fract_x
_atom_site_fract_y
_atom_site_fract_z
Si Si1 0.128516 0.163479 0.166225
Si Si2 0.679872 0.721148 0.514806
Si Si3 0.283002 0.123982 0.003161
Si Si4 0.936170 0.393931 0.777913
Si Si5 0.840331 0.098763 0.651485
Si Si6 0.578271 0.182656 0.732197
Si Si7 0.127899 0.705254 0.922696
Si Si8 0.508194 0.738118 0.643458
O O1 0.203132 0.336417 0.401671
O O2 0.214253 0.994023 0.945984
O O3 0.992738 0.342337 0.218905
O O4 0.118131 0.970378 0.087084
O O5 0.741077 0.533509 0.267469
O O6 0.565635 0.671955 0.483947
O O7 0.635065 0.031731 0.738914
O O8 0.169181 0.379216 0.135603
O O9 0.390264 0.172865 0.167679
O O10 0.365509 0.957257 0.784999
O O11 0.860260 0.232404 0.663813
O O12 0.054038 0.199862 0.580197
O O13 0.000000 0.500000 0.000000
O O14 0.697523 0.129739 0.650534
O O15 0.879196 0.238098 0.898093
O O16 0.500000 0.000000 0.500000
O O17 0.500000 0.500000 0.000000
O O18 0.500000 0.500000 0.500000
#
# Coordination Sequence:
#
# PCOD9021915 Si02
#       8
#     2   2   2   2   2   2   2   2
#     4  10  22  38  67 105 139 184 232 293 379 436
#     4  11  24  42  69 104 144 190 245 303 370 450
#     4  10  23  42  67  99 139 178 238 298 356 440
#     4  11  27  46  76 103 144 192 248 315 381 458
#     4  11  27  48  70 108 142 191 253 311 382 454
#     4  12  29  48  75 108 151 206 257 316 377 454
#     4  11  22  41  71 103 145 179 233 304 377 448
#     4  10  23  43  69 100 142 189 240 296 367 439
#
# _framework density 23.740129
#
# number of rings (size 3 to 8) (size 9 to 14) (size 15 to 20)
#    0.000    1.250    1.250    2.625    7.000    8.000 
#    0.000    0.000    0.000    0.000    0.000    0.000 
#    0.000    0.000    0.000    0.000    0.000    0.000 
#
# Total GULP energy -89444.292140 kJ/mol
# GULP energy per Si atom -5590.268259 kJ/mol
# Density = 2.368610 g / cm^3
# Si number density = 23.740129 Si / 1000 Ang^3
#
#
#
# Elastic Constant Matrix: (Units=GPa)
#
#
# Indices 1 2 3 4 5 6 
#
# 1 161.1446 32.6191 45.7433 13.5361 -33.9504 4.4270
# 2 32.6191 77.3813 25.2175 13.2197 -13.8874 -5.7138
# 3 45.7433 25.2175 101.2290 14.5766 -43.3581 -6.8250
# 4 13.5361 13.2197 14.5766 36.4412 -4.5875 4.3008
# 5 -33.9504 -13.8874 -43.3581 -4.5875 49.6897 1.0431
# 6 4.4270 -5.7138 -6.8250 4.3008 1.0431 38.6798
#
#
#
# Elastic Compliance Matrix: (Units=1/GPa)
#
#
# Indices 1 2 3 4 5 6 
#
# 1 0.007920 -0.002175 -0.001548 -0.000930 0.003398 -0.001489
# 2 -0.002175 0.015493 -0.001671 -0.004346 0.000927 0.002701
# 3 -0.001548 -0.001671 0.017567 -0.004544 0.013318 0.003176
# 4 -0.000930 -0.004346 -0.004544 0.031387 -0.002817 -0.004751
# 5 0.003398 0.000927 0.013318 -0.002817 0.034035 0.001493
# 6 -0.001489 0.002701 0.003176 -0.004751 0.001493 0.027471
#
#
# Mechanical properties :
#
#
# Convention : Reuss Voigt Hill
#
# Bulk Modulus (GPa) = 33.12303 60.76828 46.94566
# Shear Modulus (GPa) = 32.31496 40.70716 36.51106
#
# Velocity S-wave (km/s) = 3.69344 4.14538 3.92592
# Velocity P-wave (km/s) = 5.67198 6.96887 6.35360
#
# Compressibility (1/GPa) = 0.03019047
#
# Stress axis : x y z
#
# Youngs Moduli (GPa) = 126.25649 64.54528 56.92454
#
# Poissons Ratio (x) = 0.14041 0.08813
# Poissons Ratio (y) = 0.27466 0.09515
# Poissons Ratio (z) = 0.19546 0.10788
#
# Static dielectric constant tensor:
#      x y z
#    x 1.882030 -0.038460 -0.015710 
#    y -0.038460 1.924950 -0.028040 
#    z -0.015710 -0.028040 1.946800 
# 
# From -- ./inp_files/429262.got.cif
#   From: 2010.05.17/outbox.cif.g08.bks.cpg/sg2_215_cif.got.tgz:429262.got - 2010.06.03 11:33:40.
