data_PCOD9021338
_publ_section_title
;
Structure prediction by ZEFSAII (Michael W. Deem and Ramdas Pophale) SiO2 
 PCOD9021338
Probable space group: P -1
;
_chemical_formula_sum "Si O2"
_cell_formula_units_Z 14
_cell_length_a 24.602570
_cell_length_b 15.415116
_cell_length_c 6.507854
_cell_angle_alpha 91.526517
_cell_angle_beta 97.575227
_cell_angle_gamma 163.381201
_cell_volume 589.145711
_symmetry_space_group_name_H-M "P -1"
_symmetry_group_IT_number 2
_symmetry_cell_setting 'triclinic'
loop_
_space_group_symop_operation_xyz
x,y,z
-x,-y,-z
loop_
_atom_site_type_symbol
_atom_site_label
_atom_site_fract_x
_atom_site_fract_y
_atom_site_fract_z
Si Si1 0.197468 0.484390 0.008425
Si Si2 0.019746 0.131991 0.515602
Si Si3 0.126588 0.537805 0.738579
Si Si4 0.263042 0.879189 0.121706
Si Si5 0.093205 0.887960 0.783425
Si Si6 0.541118 0.165879 0.505005
Si Si7 0.346155 0.193720 0.281726
O O1 0.029220 0.175943 0.756754
O O2 0.269378 0.677310 0.918125
O O3 0.371778 0.684311 0.209699
O O4 0.061253 0.314392 0.120623
O O5 0.260850 0.519056 0.545490
O O6 0.849894 0.937520 0.304780
O O7 0.000000 0.000000 0.500000
O O8 0.048514 0.391339 0.461625
O O9 0.886711 0.168428 0.721155
O O10 0.744861 0.176536 0.113719
O O11 0.344896 0.927706 0.315095
O O12 0.407659 0.186760 0.272261
O O13 0.000000 0.500000 0.000000
O O14 0.289689 0.141867 0.021482
O O15 0.500000 0.000000 0.500000
O O16 0.500000 0.500000 0.500000
#
# Coordination Sequence:
#
# PCOD9021338 Si02
#       7
#     2   2   2   2   2   2   2
#     4   9  19  39  63  92 126 167 213 280 333 396
#     4  10  23  40  64 100 134 173 221 283 339 406
#     4   9  18  39  61  89 125 167 226 277 335 397
#     4  10  22  40  64  96 136 172 228 282 334 402
#     4   9  20  38  65  88 123 179 219 272 340 400
#     4  11  22  40  68 100 130 177 226 275 339 401
#     4  10  22  38  60  91 132 176 220 283 333 408
#
# _framework density 23.763221999999999
#
# number of rings (size 3 to 8) (size 9 to 14) (size 15 to 20)
#    0.000    2.286    1.429    0.000    2.000    8.571 
#    2.571    2.857    0.000    0.000    0.000    0.000 
#    0.000    0.000    0.000    0.000    0.000    0.000 
#
# Total GULP energy -78060.364972 kJ/mol
# GULP energy per Si atom -5575.740355 kJ/mol
# Density = 2.370914 g / cm^3
# Si number density = 23.763222 Si / 1000 Ang^3
#
#
#
# Elastic Constant Matrix: (Units=GPa)
#
#
# Indices 1 2 3 4 5 6 
#
# 1 186.4501 38.0370 95.4221 1.0159 -16.6366 -34.2835
# 2 38.0370 75.5906 22.3783 -5.5253 -6.2516 -11.5399
# 3 95.4221 22.3783 198.2987 -12.3796 -4.1884 -14.1399
# 4 1.0159 -5.5253 -12.3796 21.8488 8.2549 -3.9061
# 5 -16.6366 -6.2516 -4.1884 8.2549 56.8610 5.5544
# 6 -34.2835 -11.5399 -14.1399 -3.9061 5.5544 42.8101
#
#
#
# Elastic Compliance Matrix: (Units=1/GPa)
#
#
# Indices 1 2 3 4 5 6 
#
# 1 0.008913 -0.002722 -0.003812 -0.003216 0.002047 0.004586
# 2 -0.002722 0.015273 0.000030 0.004421 0.000014 0.002348
# 3 -0.003812 0.000030 0.007133 0.004684 -0.001257 -0.000099
# 4 -0.003216 0.004421 0.004684 0.054034 -0.008561 0.006204
# 5 0.002047 0.000014 -0.001257 -0.008561 0.019541 -0.002089
# 6 0.004586 0.002348 -0.000099 0.006204 -0.002089 0.028469
#
#
# Mechanical properties :
#
#
# Convention : Reuss Voigt Hill
#
# Bulk Modulus (GPa) = 54.61536 85.77935 70.19736
# Shear Modulus (GPa) = 32.79213 44.60410 38.69812
#
# Velocity S-wave (km/s) = 3.71880 4.33716 4.03983
# Velocity P-wave (km/s) = 6.43990 7.82670 7.16692
#
# Compressibility (1/GPa) = 0.01830987
#
# Stress axis : x y z
#
# Youngs Moduli (GPa) = 112.19265 65.47572 140.19570
#
# Poissons Ratio (x) = 0.17824 0.53449
# Poissons Ratio (y) = 0.30541 -0.00422
# Poissons Ratio (z) = 0.42773 -0.00197
#
# Static dielectric constant tensor:
#      x y z
#    x 1.983570 0.018690 0.014030 
#    y 0.018690 2.092980 0.176840 
#    z 0.014030 0.176840 2.122300 
# 
# From -- ./inp_files/124215.got.cif
#   From: 2010.05.17/outbox.cif.g08.bks.cpg/sg2_63_cif.got.tgz:124215.got - 2010.06.03 11:33:40.
