data_PCOD9021921
_publ_section_title
;
Structure prediction by ZEFSAII (Michael W. Deem and Ramdas Pophale) SiO2 
 PCOD9021921
Probable space group: P -1
;
_chemical_formula_sum "Si O2"
_cell_formula_units_Z 16
_cell_length_a 14.705167
_cell_length_b 12.511088
_cell_length_c 9.293368
_cell_angle_alpha 37.943079
_cell_angle_beta 112.768848
_cell_angle_gamma 130.602008
_cell_volume 768.471213
_symmetry_space_group_name_H-M "P -1"
_symmetry_group_IT_number 2
_symmetry_cell_setting 'triclinic'
loop_
_space_group_symop_operation_xyz
x,y,z
-x,-y,-z
loop_
_atom_site_type_symbol
_atom_site_label
_atom_site_fract_x
_atom_site_fract_y
_atom_site_fract_z
Si Si1 0.089331 0.176423 0.668360
Si Si2 0.459372 0.822873 0.950611
Si Si3 0.754115 0.860114 0.432590
Si Si4 0.493093 0.749343 0.368214
Si Si5 0.423375 0.365698 0.950526
Si Si6 0.761057 0.531808 0.959624
Si Si7 0.996872 0.294894 0.237542
Si Si8 0.176550 0.261298 0.939508
O O1 0.180403 0.156411 0.648380
O O2 0.047321 0.294114 0.423807
O O3 0.157023 0.301436 0.723008
O O4 0.960523 0.939672 0.877501
O O5 0.518201 0.074226 0.751029
O O6 0.440611 0.712115 0.213543
O O7 0.535242 0.772617 0.947513
O O8 0.326298 0.703705 0.917178
O O9 0.639005 0.857316 0.325398
O O10 0.710960 0.658941 0.726162
O O11 0.862266 0.075537 0.354673
O O12 0.441234 0.538914 0.659128
O O13 0.275560 0.210191 0.056975
O O14 0.500000 0.500000 0.000000
O O15 0.902349 0.676851 0.839535
O O16 0.763770 0.539082 0.124443
O O17 0.000000 0.500000 0.000000
#
# Coordination Sequence:
#
# PCOD9021921 Si02
#       8
#     2   2   2   2   2   2   2   2
#     4  10  22  38  67  88 121 162 207 257 309 374
#     4  11  24  43  64  96 125 165 217 264 315 371
#     4  11  19  40  65  90 121 159 213 259 312 368
#     4  11  25  41  66  97 125 163 215 268 314 372
#     4  12  24  41  66  91 132 173 209 252 319 380
#     4  11  20  40  64  88 122 163 210 254 313 372
#     4  11  22  37  61  93 122 158 208 262 314 363
#     4  11  21  40  62  91 122 164 210 248 309 379
#
# _framework density 20.820557999999998
#
# number of rings (size 3 to 8) (size 9 to 14) (size 15 to 20)
#    0.000    1.000    5.000    2.625    3.500    0.500 
#    0.000    0.625    0.000    0.000    0.000    0.000 
#    0.000    0.000    0.000    0.000    0.000    0.000 
#
# Total GULP energy -89393.148866 kJ/mol
# GULP energy per Si atom -5587.071804 kJ/mol
# Density = 2.077317 g / cm^3
# Si number density = 20.820558 Si / 1000 Ang^3
#
#
#
# Elastic Constant Matrix: (Units=GPa)
#
#
# Indices 1 2 3 4 5 6 
#
# 1 82.6678 42.7112 26.5620 9.2086 -4.8727 1.2756
# 2 42.7112 153.0209 27.2690 29.1598 1.3980 -9.5054
# 3 26.5620 27.2690 47.3894 18.0774 11.5117 -16.6479
# 4 9.2086 29.1598 18.0774 33.7924 -0.5182 -3.9450
# 5 -4.8727 1.3980 11.5117 -0.5182 26.7321 -3.2798
# 6 1.2756 -9.5054 -16.6479 -3.9450 -3.2798 33.4824
#
#
#
# Elastic Compliance Matrix: (Units=1/GPa)
#
#
# Indices 1 2 3 4 5 6 
#
# 1 0.019560 -0.004383 -0.016146 0.006270 0.009849 -0.008314
# 2 -0.004383 0.009045 0.001105 -0.006957 -0.001600 0.002308
# 3 -0.016146 0.001105 0.050763 -0.021558 -0.022652 0.021410
# 4 0.006270 -0.006957 -0.021558 0.044817 0.010851 -0.006590
# 5 0.009849 -0.001600 -0.022652 0.010851 0.048508 -0.006062
# 6 -0.008314 0.002308 0.021410 -0.006590 -0.006062 0.040114
#
#
# Mechanical properties :
#
#
# Convention : Reuss Voigt Hill
#
# Bulk Modulus (GPa) = 24.67914 52.90695 38.79304
# Shear Modulus (GPa) = 18.85641 31.23712 25.04676
#
# Velocity S-wave (km/s) = 3.01269 3.87757 3.47217
# Velocity P-wave (km/s) = 4.89701 6.74637 5.89467
#
# Compressibility (1/GPa) = 0.04052005
#
# Stress axis : x y z
#
# Youngs Moduli (GPa) = 51.12579 110.55406 19.69932
#
# Poissons Ratio (x) = 0.48461 0.31807
# Poissons Ratio (y) = 0.22411 -0.02178
# Poissons Ratio (z) = 0.82548 -0.12221
#
# Static dielectric constant tensor:
#      x y z
#    x 1.733980 0.038740 -0.056180 
#    y 0.038740 1.758020 0.003680 
#    z -0.056180 0.003680 1.728020 
# 
# From -- ./inp_files/255827.got.cif
#   From: 2010.05.17/outbox.cif.g08.bks.cpg/sg2_128_cif.got.tgz:255827.got - 2010.06.03 11:33:40.
