data_PCOD9021055
_publ_section_title
;
Structure prediction by ZEFSAII (Michael W. Deem and Ramdas Pophale) SiO2 
 PCOD9021055
Probable space group: P -1
;
_chemical_formula_sum "Si O2"
_cell_formula_units_Z 16
_cell_length_a 22.884115
_cell_length_b 26.048747
_cell_length_c 14.903102
_cell_angle_alpha 148.980086
_cell_angle_beta 146.807432
_cell_angle_gamma 10.042048
_cell_volume 795.849951
_symmetry_space_group_name_H-M "P -1"
_symmetry_group_IT_number 2
_symmetry_cell_setting 'triclinic'
loop_
_space_group_symop_operation_xyz
x,y,z
-x,-y,-z
loop_
_atom_site_type_symbol
_atom_site_label
_atom_site_fract_x
_atom_site_fract_y
_atom_site_fract_z
Si Si1 0.548235 0.576638 0.262619
Si Si2 0.610579 0.680696 0.648097
Si Si3 0.379564 0.037201 0.732373
Si Si4 0.720438 0.036670 0.802924
Si Si5 0.464643 0.207657 0.915333
Si Si6 0.618153 0.840389 0.550950
Si Si7 0.703392 0.961835 0.049411
Si Si8 0.369234 0.716765 0.062102
O O1 0.551613 0.633172 0.443302
O O2 0.433231 0.563150 0.103042
O O3 0.338180 0.801784 0.244747
O O4 0.913838 0.267202 0.222973
O O5 0.994593 0.355950 0.687726
O O6 0.505519 0.860335 0.712233
O O7 0.380469 0.892913 0.757941
O O8 0.591982 0.828245 0.602076
O O9 0.453838 0.087022 0.924382
O O10 0.683786 0.062765 0.900953
O O11 0.588433 0.050784 0.613798
O O12 0.514532 0.310449 0.905167
O O13 0.474857 0.079013 0.721045
O O14 0.084025 0.584193 0.979676
O O15 0.617298 0.085909 0.028332
O O16 0.000000 0.500000 0.500000
O O17 0.000000 0.000000 0.000000
#
# Coordination Sequence:
#
# PCOD9021055 Si02
#       8
#     2   2   2   2   2   2   2   2
#     4  10  22  37  65  96 120 155 205 266 328 370
#     4  12  23  39  65  89 123 167 215 264 303 365
#     4  11  22  37  58  90 124 170 216 248 311 361
#     4  11  21  37  63  86 126 162 205 253 320 378
#     4  11  25  40  59  88 130 174 208 247 303 372
#     4  11  23  37  58  94 136 168 206 252 305 380
#     4  11  24  42  57  87 130 172 218 252 296 360
#     4   9  21  41  60  95 122 151 199 264 336 379
#
# _framework density 20.104291
#
# number of rings (size 3 to 8) (size 9 to 14) (size 15 to 20)
#    0.000    1.250    1.250    5.625    7.000    0.000 
#    0.000    0.000    0.000    1.500    0.000    0.000 
#    0.000    0.000    0.000    0.000    0.000    0.000 
#
# Total GULP energy -89338.189291 kJ/mol
# GULP energy per Si atom -5583.636831 kJ/mol
# Density = 2.005853 g / cm^3
# Si number density = 20.104291 Si / 1000 Ang^3
#
#
#
# Elastic Constant Matrix: (Units=GPa)
#
#
# Indices 1 2 3 4 5 6 
#
# 1 145.6418 34.0173 55.1772 16.0274 -25.5705 19.1592
# 2 34.0173 102.1902 36.8798 -4.2854 -19.3574 6.1294
# 3 55.1772 36.8798 111.9792 3.4646 -28.3819 -4.6181
# 4 16.0274 -4.2854 3.4646 15.3019 -0.0154 -4.9679
# 5 -25.5705 -19.3574 -28.3819 -0.0154 27.8442 0.1436
# 6 19.1592 6.1294 -4.6181 -4.9679 0.1436 30.3985
#
#
#
# Elastic Compliance Matrix: (Units=1/GPa)
#
#
# Indices 1 2 3 4 5 6 
#
# 1 0.013606 -0.001676 -0.004330 -0.017564 0.006968 -0.011799
# 2 -0.001676 0.012334 -0.002234 0.005426 0.004767 -0.000906
# 3 -0.004330 -0.002234 0.014222 0.002554 0.008939 0.005715
# 4 -0.017564 0.005426 0.002554 0.092993 -0.009835 0.025608
# 5 0.006968 0.004767 0.008939 -0.009835 0.054764 -0.005861
# 6 -0.011799 -0.000906 0.005715 0.025608 -0.005861 0.045596
#
#
# Mechanical properties :
#
#
# Convention : Reuss Voigt Hill
#
# Bulk Modulus (GPa) = 42.22147 67.99552 55.10850
# Shear Modulus (GPa) = 19.38822 30.29138 24.83980
#
# Velocity S-wave (km/s) = 3.10882 3.88585 3.51885
# Velocity P-wave (km/s) = 5.82522 7.35037 6.63178
#
# Compressibility (1/GPa) = 0.02368463
#
# Stress axis : x y z
#
# Youngs Moduli (GPa) = 73.49586 81.07375 70.31532
#
# Poissons Ratio (x) = 0.13585 0.30444
# Poissons Ratio (y) = 0.12315 0.15706
# Poissons Ratio (z) = 0.31821 0.18109
#
# Static dielectric constant tensor:
#      x y z
#    x 1.713920 0.020350 -0.000400 
#    y 0.020350 1.675790 0.022730 
#    z -0.000400 0.022730 1.732500 
# 
# From -- ./inp_files/543444.got.cif
#   From: 2010.05.17/outbox.cif.g08.bks.cpg/sg2_272_cif.got.tgz:543444.got - 2010.06.03 11:33:40.
