data_PCOD9021722
_publ_section_title
;
Structure prediction by ZEFSAII (Michael W. Deem and Ramdas Pophale) SiO2 
 PCOD9021722
Probable space group: P -1
;
_chemical_formula_sum "Si O2"
_cell_formula_units_Z 13
_cell_length_a 9.195042
_cell_length_b 13.381492
_cell_length_c 11.994470
_cell_angle_alpha 114.409896
_cell_angle_beta 62.396206
_cell_angle_gamma 60.879938
_cell_volume 645.545823
_symmetry_space_group_name_H-M "P -1"
_symmetry_group_IT_number 2
_symmetry_cell_setting 'triclinic'
loop_
_space_group_symop_operation_xyz
x,y,z
-x,-y,-z
loop_
_atom_site_type_symbol
_atom_site_label
_atom_site_fract_x
_atom_site_fract_y
_atom_site_fract_z
Si Si1 0.111840 0.489412 0.839905
Si Si2 0.623580 0.897373 0.081745
Si Si3 0.110574 0.099692 0.190087
Si Si4 0.823330 0.178676 0.895264
Si Si5 0.000000 0.000000 0.500000
Si Si6 0.600725 0.397286 0.680684
Si Si7 0.542363 0.058880 0.409372
O O1 0.315704 0.479870 0.791553
O O2 0.319763 0.284915 0.610444
O O3 0.000000 0.500000 0.000000
O O4 0.829330 0.683501 0.955564
O O5 0.368574 0.997694 0.136114
O O6 0.481151 0.031679 0.303731
O O7 0.830364 0.869402 0.930861
O O8 0.793262 0.305742 0.457067
O O9 0.155028 0.943975 0.095331
O O10 0.863402 0.117143 0.724984
O O11 0.529215 0.417838 0.135096
O O12 0.117327 0.087109 0.775434
O O13 0.814013 0.205494 0.597616
O O14 0.500000 0.000000 0.500000
#
# Coordination Sequence:
#
# PCOD9021722 Si02
#       7
#     2   2   2   2   1   2   2
#     4  12  24  43  68 102 136 175 223 280 341 400
#     4  11  26  47  68 100 138 175 229 285 332 400
#     4  10  26  47  69  98 137 181 226 280 335 400
#     4  11  23  43  67 100 132 183 224 271 344 399
#     4  10  22  38  64  96 140 164 222 278 316 408
#     4  11  23  43  67 100 132 183 224 271 344 399
#     4  12  24  43  68 102 136 175 223 280 341 400
#
# _framework density 20.137996000000001
#
# number of rings (size 3 to 8) (size 9 to 14) (size 15 to 20)
#    0.000    0.923    6.154    0.462    8.615    3.692 
#    0.000    3.077    0.000    0.000    0.000    0.000 
#    0.000    0.000    0.000    0.000    0.000    0.000 
#
# Total GULP energy -72428.491996 kJ/mol
# GULP energy per Si atom -5571.422461 kJ/mol
# Density = 2.009216 g / cm^3
# Si number density = 20.137996 Si / 1000 Ang^3
#
#
#
# Elastic Constant Matrix: (Units=GPa)
#
#
# Indices 1 2 3 4 5 6 
#
# 1 45.8757 34.2364 30.4114 0.6632 4.8801 21.4942
# 2 34.2364 75.2952 53.4253 -12.9385 19.4354 -4.1035
# 3 30.4114 53.4253 129.6009 33.7835 26.9786 18.3447
# 4 0.6632 -12.9385 33.7835 22.8872 27.6985 2.2842
# 5 4.8801 19.4354 26.9786 27.6985 40.2167 2.5345
# 6 21.4942 -4.1035 18.3447 2.2842 2.5345 22.3637
#
#
#
# Elastic Compliance Matrix: (Units=1/GPa)
#
#
# Indices 1 2 3 4 5 6 
#
# 1 0.061463 -0.006718 -0.011538 0.050604 -0.027994 -0.052838
# 2 -0.006718 -0.000841 0.006840 -0.038140 0.022775 0.002006
# 3 -0.011538 0.006840 0.006587 0.011756 -0.014889 0.007427
# 4 0.050604 -0.038140 0.011756 -0.002771 0.010484 -0.066184
# 5 -0.027994 0.022775 -0.014889 0.010484 0.017487 0.040246
# 6 -0.052838 0.002006 0.007427 -0.066184 0.040246 0.091973
#
#
# Mechanical properties :
#
#
# Convention : Reuss Voigt Hill
#
# Bulk Modulus (GPa) = 22.53375 54.10200 38.31787
# Shear Modulus (GPa) = 23.63808 25.94010 24.78909
#
# Velocity S-wave (km/s) = 3.42980 3.59293 3.51231
# Velocity P-wave (km/s) = 5.18639 6.64350 5.95965
#
# Compressibility (1/GPa) = 0.04437789
#
# Stress axis : x y z
#
# Youngs Moduli (GPa) = 16.26997 -1189.38272 151.80770
#
# Poissons Ratio (x) = -7.99081 1.75149
# Poissons Ratio (y) = 0.10931 -1.03840
# Poissons Ratio (z) = 0.18772 8.13569
#
# Static dielectric constant tensor:
#      x y z
#    x 1.731340 0.022750 -0.005720 
#    y 0.022750 1.698950 0.007960 
#    z -0.005720 0.007960 1.740070 
# 
# From -- ./inp_files/259876.got.cif
#   From: 2010.05.17/outbox.cif.g08.bks.cpg/sg2_130_cif.got.tgz:259876.got - 2010.06.03 11:33:40.
