data_PCOD9021008
_publ_section_title
;
Structure prediction by ZEFSAII (Michael W. Deem and Ramdas Pophale) SiO2 
 PCOD9021008
Probable space group: P -1
;
_chemical_formula_sum "Si O2"
_cell_formula_units_Z 15
_cell_length_a 11.650706
_cell_length_b 17.078909
_cell_length_c 15.470242
_cell_angle_alpha 27.010036
_cell_angle_beta 27.956054
_cell_angle_gamma 45.046637
_cell_volume 606.803712
_symmetry_space_group_name_H-M "P -1"
_symmetry_group_IT_number 2
_symmetry_cell_setting 'triclinic'
loop_
_space_group_symop_operation_xyz
x,y,z
-x,-y,-z
loop_
_atom_site_type_symbol
_atom_site_label
_atom_site_fract_x
_atom_site_fract_y
_atom_site_fract_z
Si Si1 0.314468 0.589414 0.191845
Si Si2 0.536514 0.813196 0.089864
Si Si3 0.000000 0.000000 0.000000
Si Si4 0.829172 0.332425 0.372690
Si Si5 0.742234 0.184144 0.129913
Si Si6 0.400592 0.480495 0.786172
Si Si7 0.486971 0.980304 0.786273
Si Si8 0.984458 0.250646 0.085747
O O1 0.443035 0.462964 0.282114
O O2 0.000000 0.500000 0.500000
O O3 0.354851 0.656294 0.999938
O O4 0.448556 0.778771 0.969924
O O5 0.308817 0.792295 0.331079
O O6 0.473151 0.620267 0.267031
O O7 0.570478 0.966629 0.843056
O O8 0.797082 0.830820 0.952161
O O9 0.876676 0.118775 0.026468
O O10 0.792723 0.002351 0.057331
O O11 0.638111 0.350533 0.405367
O O12 0.102679 0.332610 0.151969
O O13 0.923353 0.541627 0.144100
O O14 0.932414 0.251624 0.018099
O O15 0.500000 0.000000 0.500000
O O16 0.712379 0.126611 0.434946
#
# Coordination Sequence:
#
# PCOD9021008 Si02
#       8
#     2   2   1   2   2   2   2   2
#     4  10  22  37  64  89 119 166 198 251 306 359
#     4  10  22  41  65  90 124 162 206 254 305 359
#     4  10  22  44  62  86 126 164 198 254 302 374
#     4  10  22  39  65  94 117 164 206 252 305 363
#     4  11  23  43  62  89 125 162 205 249 311 366
#     4   9  20  41  61  89 130 154 205 256 302 360
#     4  10  22  42  60  91 125 161 203 253 310 359
#     4  11  21  41  65  89 125 164 202 254 308 360
#
# _framework density 24.71969
#
# number of rings (size 3 to 8) (size 9 to 14) (size 15 to 20)
#    0.000    1.867    2.667    2.000    5.600    3.200 
#    4.800    1.333    0.000    0.000    0.000    0.000 
#    0.000    0.000    0.000    0.000    0.000    0.000 
#
# Total GULP energy -83667.447246 kJ/mol
# GULP energy per Si atom -5577.829816 kJ/mol
# Density = 2.466343 g / cm^3
# Si number density = 24.719690 Si / 1000 Ang^3
#
#
#
# Elastic Constant Matrix: (Units=GPa)
#
#
# Indices 1 2 3 4 5 6 
#
# 1 230.8092 20.9199 29.9043 5.6716 23.2494 -12.7763
# 2 20.9199 71.0200 7.5066 5.5466 8.7340 9.7452
# 3 29.9043 7.5066 84.9973 -1.0782 27.9961 -4.7615
# 4 5.6716 5.5466 -1.0782 25.6520 3.3825 4.5840
# 5 23.2494 8.7340 27.9961 3.3825 35.6815 3.4298
# 6 -12.7763 9.7452 -4.7615 4.5840 3.4298 45.0328
#
#
#
# Elastic Compliance Matrix: (Units=1/GPa)
#
#
# Indices 1 2 3 4 5 6 
#
# 1 0.004908 -0.001260 -0.000726 -0.000857 -0.002418 0.001860
# 2 -0.001260 0.015385 -0.000453 -0.002196 -0.002059 -0.003354
# 3 -0.000726 -0.000453 0.016415 0.002203 -0.012733 0.002373
# 4 -0.000857 -0.002196 0.002203 0.040896 -0.004185 -0.003379
# 5 -0.002418 -0.002059 -0.012733 -0.004185 0.040903 -0.004276
# 6 0.001860 -0.003354 0.002373 -0.003379 -0.004276 0.024380
#
#
# Mechanical properties :
#
#
# Convention : Reuss Voigt Hill
#
# Bulk Modulus (GPa) = 31.41685 55.94310 43.67998
# Shear Modulus (GPa) = 31.57059 43.17297 37.37178
#
# Velocity S-wave (km/s) = 3.57759 4.18365 3.89243
# Velocity P-wave (km/s) = 5.45916 6.78361 6.15710
#
# Compressibility (1/GPa) = 0.03183006
#
# Stress axis : x y z
#
# Youngs Moduli (GPa) = 203.73277 65.00026 60.91901
#
# Poissons Ratio (x) = 0.08190 0.04422
# Poissons Ratio (y) = 0.25671 0.02760
# Poissons Ratio (z) = 0.14790 0.02945
#
# Static dielectric constant tensor:
#      x y z
#    x 2.091370 0.020000 0.005750 
#    y 0.020000 1.981520 -0.059980 
#    z 0.005750 -0.059980 1.987160 
# 
# From -- ./inp_files/422966.got.cif
#   From: 2010.05.17/outbox.cif.g08.bks.cpg/sg2_212_cif.got.tgz:422966.got - 2010.06.03 11:33:40.
