data_PCOD9021152
_publ_section_title
;
Structure prediction by ZEFSAII (Michael W. Deem and Ramdas Pophale) SiO2 
 PCOD9021152
Probable space group: P -1
;
_chemical_formula_sum "Si O2"
_cell_formula_units_Z 13
_cell_length_a 5.565714
_cell_length_b 4.924624
_cell_length_c 18.535575
_cell_angle_alpha 62.028292
_cell_angle_beta 77.221272
_cell_angle_gamma 86.331495
_cell_volume 437.112681
_symmetry_space_group_name_H-M "P -1"
_symmetry_group_IT_number 2
_symmetry_cell_setting 'triclinic'
loop_
_space_group_symop_operation_xyz
x,y,z
-x,-y,-z
loop_
_atom_site_type_symbol
_atom_site_label
_atom_site_fract_x
_atom_site_fract_y
_atom_site_fract_z
Si Si1 0.476157 0.368002 0.953162
Si Si2 0.000000 0.500000 0.000000
Si Si3 0.077847 0.776106 0.391350
Si Si4 0.833533 0.802474 0.133314
Si Si5 0.581576 0.938442 0.787792
Si Si6 0.355801 0.206421 0.428602
Si Si7 0.763070 0.678400 0.302616
O O1 0.178560 0.369375 0.922077
O O2 0.608182 0.602665 0.857810
O O3 0.302589 0.542416 0.005703
O O4 0.500000 0.000000 0.000000
O O5 0.017003 0.876951 0.924177
O O6 0.210198 0.471634 0.443998
O O7 0.824931 0.668532 0.384209
O O8 0.192633 0.911004 0.290011
O O9 0.153430 0.030905 0.412912
O O10 0.917980 0.647607 0.221908
O O11 0.547281 0.875940 0.162194
O O12 0.356801 0.990667 0.740910
O O13 0.553855 0.404369 0.343974
O O14 0.500000 0.000000 0.500000
#
# Coordination Sequence:
#
# PCOD9021152 Si02
#       7
#     2   1   2   2   2   2   2
#     4  11  22  36  58  85 123 164 213 267 325 380
#     4  10  22  38  52  86 118 162 208 264 320 366
#     4  11  23  43  71  98 126 185 209 256 341 380
#     4   9  20  42  56  85 122 162 209 273 311 368
#     4   8  21  38  58  89 124 164 216 272 306 380
#     4  11  25  44  68 103 138 163 215 271 314 395
#     4   9  22  44  64  93 129 171 215 271 314 397
#
# _framework density 29.740614000000001
#
# number of rings (size 3 to 8) (size 9 to 14) (size 15 to 20)
#    0.923    1.231    0.000    1.846    2.154    7.385 
#    2.769    0.000    0.000    0.000    0.000    0.000 
#    0.000    0.000    0.000    0.000    0.000    0.000 
#
# Total GULP energy -72572.096895 kJ/mol
# GULP energy per Si atom -5582.468992 kJ/mol
# Density = 2.967292 g / cm^3
# Si number density = 29.740614 Si / 1000 Ang^3
#
#
#
# Elastic Constant Matrix: (Units=GPa)
#
#
# Indices 1 2 3 4 5 6 
#
# 1 101.4641 47.0628 31.5743 20.0427 20.4428 9.3194
# 2 47.0628 233.8107 84.4247 21.3527 5.1856 37.7718
# 3 31.5743 84.4247 201.6115 2.5080 32.3582 14.2727
# 4 20.0427 21.3527 2.5080 50.5762 -5.1212 6.9465
# 5 20.4428 5.1856 32.3582 -5.1212 45.2019 -3.8053
# 6 9.3194 37.7718 14.2727 6.9465 -3.8053 58.4385
#
#
#
# Elastic Compliance Matrix: (Units=1/GPa)
#
#
# Indices 1 2 3 4 5 6 
#
# 1 0.013052 -0.001881 -0.000157 -0.004908 -0.006185 -0.000647
# 2 -0.001881 0.005984 -0.002222 -0.001146 0.001389 -0.002798
# 3 -0.000157 -0.002222 0.006660 0.000286 -0.004451 -0.000490
# 4 -0.004908 -0.001146 0.000286 0.022788 0.004648 -0.000953
# 5 -0.006185 0.001389 -0.004451 0.004648 0.028683 0.002491
# 6 -0.000647 -0.002798 -0.000490 -0.000953 0.002491 0.019419
#
#
# Mechanical properties :
#
#
# Convention : Reuss Voigt Hill
#
# Bulk Modulus (GPa) = 58.21609 95.88998 77.05304
# Shear Modulus (GPa) = 45.11391 55.76498 50.43945
#
# Velocity S-wave (km/s) = 3.89898 4.33488 4.12269
# Velocity P-wave (km/s) = 6.31558 7.57410 6.97329
#
# Compressibility (1/GPa) = 0.01717738
#
# Stress axis : x y z
#
# Youngs Moduli (GPa) = 76.61694 167.12327 150.14135
#
# Poissons Ratio (x) = 0.31429 0.02357
# Poissons Ratio (y) = 0.14408 0.33357
# Poissons Ratio (z) = 0.01203 0.37130
#
# Static dielectric constant tensor:
#      x y z
#    x 3.201360 -0.182390 0.020180 
#    y -0.182390 2.512110 0.278810 
#    z 0.020180 0.278810 2.415420 
# 
# From -- ./inp_files/580579.got.cif
#   From: 2010.05.17/outbox.cif.g08.bks.cpg/sg2_291_cif.got.tgz:580579.got - 2010.06.03 11:33:40.
