data_PCOD9021462
_publ_section_title
;
Structure prediction by ZEFSAII (Michael W. Deem and Ramdas Pophale) SiO2 
 PCOD9021462
Probable space group: P -1
;
_chemical_formula_sum "Si O2"
_cell_formula_units_Z 16
_cell_length_a 6.347627
_cell_length_b 13.676204
_cell_length_c 20.246575
_cell_angle_alpha 148.252470
_cell_angle_beta 89.133082
_cell_angle_gamma 71.655673
_cell_volume 723.586124
_symmetry_space_group_name_H-M "P -1"
_symmetry_group_IT_number 2
_symmetry_cell_setting 'triclinic'
loop_
_space_group_symop_operation_xyz
x,y,z
-x,-y,-z
loop_
_atom_site_type_symbol
_atom_site_label
_atom_site_fract_x
_atom_site_fract_y
_atom_site_fract_z
Si Si1 0.952369 0.475119 0.884964
Si Si2 0.569318 0.829694 0.558584
Si Si3 0.193817 0.666581 0.071311
Si Si4 0.140298 0.354150 0.329497
Si Si5 0.626052 0.056082 0.806008
Si Si6 0.930845 0.645462 0.328845
Si Si7 0.034379 0.765571 0.854369
Si Si8 0.349287 0.586419 0.394814
O O1 0.961398 0.327044 0.860843
O O2 0.050391 0.323173 0.730327
O O3 0.642104 0.721870 0.027790
O O4 0.133082 0.553199 0.948722
O O5 0.333942 0.806171 0.546045
O O6 0.831408 0.585363 0.451186
O O7 0.666456 0.816680 0.475102
O O8 0.537253 0.026940 0.717894
O O9 0.163572 0.891850 0.174572
O O10 0.500000 0.500000 0.000000
O O11 0.301782 0.455177 0.374776
O O12 0.171989 0.189306 0.175128
O O13 0.232657 0.189906 0.297543
O O14 0.151073 0.638051 0.366019
O O15 0.994255 0.387670 0.181739
O O16 0.347363 0.588478 0.731774
O O17 0.000000 0.000000 0.000000
#
# Coordination Sequence:
#
# PCOD9021462 Si02
#       8
#     2   2   2   2   2   2   2   2
#     4  10  22  38  62  86 103 142 190 232 284 333
#     4   9  20  38  51  82 120 155 180 221 268 328
#     4   9  22  42  58  83 115 134 178 246 288 326
#     4   9  20  32  50  81 114 156 187 218 264 328
#     4  11  22  34  60  83 112 148 190 228 277 323
#     4   9  20  35  56  79 109 148 183 223 281 325
#     4   9  19  28  47  76 116 145 182 227 266 318
#     4   8  18  34  48  73 116 148 182 224 258 319
#
# _framework density 22.112089000000001
#
# number of rings (size 3 to 8) (size 9 to 14) (size 15 to 20)
#    0.000    3.250    0.000    0.375    5.250    7.500 
#    0.000    0.625    0.000    7.500    0.000    0.000 
#    0.000    0.000    0.000    0.000    0.000    0.000 
#
# Total GULP energy -89121.402542 kJ/mol
# GULP energy per Si atom -5570.087659 kJ/mol
# Density = 2.206176 g / cm^3
# Si number density = 22.112089 Si / 1000 Ang^3
#
#
#
# Elastic Constant Matrix: (Units=GPa)
#
#
# Indices 1 2 3 4 5 6 
#
# 1 132.8629 28.4280 29.1886 -0.4700 28.8983 9.7491
# 2 28.4280 70.7234 26.2809 -23.7558 -4.5373 9.8991
# 3 29.1886 26.2809 67.2765 -2.5397 8.7684 7.7685
# 4 -0.4700 -23.7558 -2.5397 27.6059 -0.7237 -8.8571
# 5 28.8983 -4.5373 8.7684 -0.7237 32.1229 8.4018
# 6 9.7491 9.8991 7.7685 -8.8571 8.4018 14.5481
#
#
#
# Elastic Compliance Matrix: (Units=1/GPa)
#
#
# Indices 1 2 3 4 5 6 
#
# 1 0.011781 -0.007276 -0.001050 -0.006307 -0.011607 0.000480
# 2 -0.007276 0.030080 -0.009088 0.023702 0.015129 -0.005045
# 3 -0.001050 -0.009088 0.019837 -0.008094 -0.004333 -0.006131
# 4 -0.006307 0.023702 -0.008094 0.065286 0.005052 0.029250
# 5 -0.011607 0.015129 -0.004333 0.005052 0.052128 -0.027231
# 6 0.000480 -0.005045 -0.006131 0.029250 -0.027231 0.108657
#
#
# Mechanical properties :
#
#
# Convention : Reuss Voigt Hill
#
# Bulk Modulus (GPa) = 37.21612 48.73975 42.97794
# Shear Modulus (GPa) = 15.08060 27.31975 21.20017
#
# Velocity S-wave (km/s) = 2.61436 3.51880 3.09974
# Velocity P-wave (km/s) = 5.09709 6.21283 5.68241
#
# Compressibility (1/GPa) = 0.02687007
#
# Stress axis : x y z
#
# Youngs Moduli (GPa) = 84.88195 33.24508 50.41168
#
# Poissons Ratio (x) = 0.24189 0.05292
# Poissons Ratio (y) = 0.61759 0.45814
# Poissons Ratio (z) = 0.08911 0.30213
#
# Static dielectric constant tensor:
#      x y z
#    x 1.813850 0.019910 0.001280 
#    y 0.019910 1.866300 -0.000440 
#    z 0.001280 -0.000440 1.981690 
# 
# From -- ./inp_files/583646.got.cif
#   From: 2010.05.17/outbox.cif.g08.bks.cpg/sg2_292_cif.got.tgz:583646.got - 2010.06.03 11:33:40.
