data_PCOD9021862
_publ_section_title
;
Structure prediction by ZEFSAII (Michael W. Deem and Ramdas Pophale) SiO2 
 PCOD9021862
Probable space group: P -1
;
_chemical_formula_sum "Si O2"
_cell_formula_units_Z 16
_cell_length_a 13.852751
_cell_length_b 16.785616
_cell_length_c 7.845461
_cell_angle_alpha 45.694909
_cell_angle_beta 85.198732
_cell_angle_gamma 48.895671
_cell_volume 706.010770
_symmetry_space_group_name_H-M "P -1"
_symmetry_group_IT_number 2
_symmetry_cell_setting 'triclinic'
loop_
_space_group_symop_operation_xyz
x,y,z
-x,-y,-z
loop_
_atom_site_type_symbol
_atom_site_label
_atom_site_fract_x
_atom_site_fract_y
_atom_site_fract_z
Si Si1 0.983782 0.848131 0.347071
Si Si2 0.988922 0.929475 0.854657
Si Si3 0.406634 0.741400 0.714442
Si Si4 0.504430 0.123864 0.634982
Si Si5 0.392118 0.175547 0.113526
Si Si6 0.354146 0.583656 0.138347
Si Si7 0.864621 0.530195 0.005871
Si Si8 0.568310 0.198476 0.861011
O O1 0.065788 0.663393 0.708193
O O2 0.022323 0.929674 0.304575
O O3 0.037953 0.812775 0.192846
O O4 0.772567 0.031194 0.105218
O O5 0.145279 0.767768 0.932875
O O6 0.790870 0.086437 0.591666
O O7 0.435105 0.844843 0.563920
O O8 0.564373 0.544915 0.858331
O O9 0.403670 0.666026 0.992656
O O10 0.545956 0.145946 0.770576
O O11 0.609877 0.907162 0.921419
O O12 0.296086 0.305841 0.352548
O O13 0.500000 0.000000 0.500000
O O14 0.209138 0.378669 0.928742
O O15 0.488047 0.195878 0.017911
O O16 0.458249 0.416428 0.517312
O O17 0.000000 0.500000 0.000000
#
# Coordination Sequence:
#
# PCOD9021862 Si02
#       8
#     2   2   2   2   2   2   2   2
#     4  11  24  40  65  95 136 168 217 273 322 382
#     4  11  23  41  62  99 133 174 216 267 320 388
#     4  10  22  42  64  98 135 167 221 267 322 390
#     4  10  22  43  70  91 130 176 211 272 330 383
#     4  10  22  42  67  94 124 170 220 263 333 392
#     4  10  22  38  66  92 135 172 215 264 325 380
#     4  11  25  44  64  96 130 169 218 276 327 390
#     4  11  22  44  66  98 130 172 217 272 323 393
#
# _framework density 22.662542999999999
#
# number of rings (size 3 to 8) (size 9 to 14) (size 15 to 20)
#    0.000    1.500    2.500    3.000    5.250    3.500 
#    4.500    1.250    0.000    0.000    0.000    0.000 
#    0.000    0.000    0.000    0.000    0.000    0.000 
#
# Total GULP energy -89447.260897 kJ/mol
# GULP energy per Si atom -5590.453806 kJ/mol
# Density = 2.261096 g / cm^3
# Si number density = 22.662543 Si / 1000 Ang^3
#
#
#
# Elastic Constant Matrix: (Units=GPa)
#
#
# Indices 1 2 3 4 5 6 
#
# 1 141.2058 34.3592 27.2230 -2.1547 -3.3011 -32.2809
# 2 34.3592 100.5096 31.0432 -1.7387 7.3949 -31.5222
# 3 27.2230 31.0432 66.6672 -5.7829 -7.0935 -4.8586
# 4 -2.1547 -1.7387 -5.7829 35.5708 -11.7832 -0.3513
# 5 -3.3011 7.3949 -7.0935 -11.7832 46.3483 9.8133
# 6 -32.2809 -31.5222 -4.8586 -0.3513 9.8133 42.7632
#
#
#
# Elastic Compliance Matrix: (Units=1/GPa)
#
#
# Indices 1 2 3 4 5 6 
#
# 1 0.009309 0.000304 -0.003627 -0.000464 -0.001583 0.007198
# 2 0.000304 0.017168 -0.008177 -0.002850 -0.007589 0.013674
# 3 -0.003627 -0.008177 0.020917 0.005100 0.007240 -0.008008
# 4 -0.000464 -0.002850 0.005100 0.032116 0.010203 -0.003950
# 5 -0.001583 -0.007589 0.007240 0.010203 0.029032 -0.012544
# 6 0.007198 0.013674 -0.008008 -0.003950 -0.012544 0.040834
#
#
# Mechanical properties :
#
#
# Convention : Reuss Voigt Hill
#
# Bulk Modulus (GPa) = 40.99119 54.84816 47.91967
# Shear Modulus (GPa) = 27.69990 39.32029 33.51009
#
# Velocity S-wave (km/s) = 3.49990 4.16989 3.84950
# Velocity P-wave (km/s) = 5.87020 6.88757 6.39914
#
# Compressibility (1/GPa) = 0.02439549
#
# Stress axis : x y z
#
# Youngs Moduli (GPa) = 107.42793 58.24706 47.80730
#
# Poissons Ratio (x) = -0.01770 0.17338
# Poissons Ratio (y) = -0.03265 0.39090
# Poissons Ratio (z) = 0.38960 0.47626
#
# Static dielectric constant tensor:
#      x y z
#    x 1.821500 0.044340 -0.044650 
#    y 0.044340 1.929000 0.035280 
#    z -0.044650 0.035280 1.881810 
# 
# From -- ./inp_files/278801.got.cif
#   From: 2010.05.17/outbox.cif.g08.bks.cpg/sg2_140_cif.got.tgz:278801.got - 2010.06.03 11:33:40.
