data_PCOD9021166
_publ_section_title
;
Structure prediction by ZEFSAII (Michael W. Deem and Ramdas Pophale) SiO2 
 PCOD9021166
Probable space group: P -1
;
_chemical_formula_sum "Si O2"
_cell_formula_units_Z 14
_cell_length_a 18.136494
_cell_length_b 12.348209
_cell_length_c 5.388164
_cell_angle_alpha 109.254476
_cell_angle_beta 60.185683
_cell_angle_gamma 141.049797
_cell_volume 654.587524
_symmetry_space_group_name_H-M "P -1"
_symmetry_group_IT_number 2
_symmetry_cell_setting 'triclinic'
loop_
_space_group_symop_operation_xyz
x,y,z
-x,-y,-z
loop_
_atom_site_type_symbol
_atom_site_label
_atom_site_fract_x
_atom_site_fract_y
_atom_site_fract_z
Si Si1 0.051981 0.923733 0.370360
Si Si2 0.085050 0.250258 0.027977
Si Si3 0.407185 0.158304 0.503365
Si Si4 0.750726 0.796023 0.410752
Si Si5 0.330680 0.593743 0.064545
Si Si6 0.578424 0.471869 0.754748
Si Si7 0.586277 0.085853 0.670087
O O1 0.005959 0.822124 0.113186
O O2 0.198817 0.093851 0.335503
O O3 0.000000 0.000000 0.500000
O O4 0.988333 0.804290 0.632030
O O5 0.137868 0.170910 0.867270
O O6 0.211575 0.458520 0.975579
O O7 0.310941 0.163641 0.607764
O O8 0.481747 0.270853 0.711048
O O9 0.347445 0.972106 0.480783
O O10 0.528226 0.275763 0.197683
O O11 0.645351 0.593735 0.495829
O O12 0.319171 0.476778 0.189295
O O13 0.328751 0.714245 0.296737
O O14 0.500000 0.500000 0.000000
O O15 0.500000 0.000000 0.500000
O O16 0.500000 0.000000 0.000000
#
# Coordination Sequence:
#
# PCOD9021166 Si02
#       7
#     2   2   2   2   2   2   2
#     4  10  22  38  55  82 115 157 197 231 285 348
#     4  11  22  37  59  83 115 154 195 240 285 345
#     4  11  22  37  54  87 119 151 192 238 299 349
#     4  11  21  37  56  87 121 153 191 241 295 352
#     4  11  21  37  58  84 117 154 198 240 289 349
#     4  12  21  32  56  87 126 150 185 234 301 359
#     4  10  22  39  58  81 116 157 197 233 283 351
#
# _framework density 21.387512999999998
#
# number of rings (size 3 to 8) (size 9 to 14) (size 15 to 20)
#    0.000    1.143    4.286    4.714    0.000    1.143 
#    0.000    0.000    0.000    1.714    0.000    0.000 
#    0.000    1.143    0.000    0.000    0.000    0.000 
#
# Total GULP energy -78111.879938 kJ/mol
# GULP energy per Si atom -5579.419996 kJ/mol
# Density = 2.133883 g / cm^3
# Si number density = 21.387513 Si / 1000 Ang^3
#
#
#
# Elastic Constant Matrix: (Units=GPa)
#
#
# Indices 1 2 3 4 5 6 
#
# 1 62.6338 42.3843 15.2857 17.1171 18.7683 1.9895
# 2 42.3843 104.8017 29.6521 30.3999 -2.5599 2.0321
# 3 15.2857 29.6521 73.1259 12.5935 16.6032 -2.4935
# 4 17.1171 30.3999 12.5935 33.2186 6.6065 6.6731
# 5 18.7683 -2.5599 16.6032 6.6065 33.0298 12.5145
# 6 1.9895 2.0321 -2.4935 6.6731 12.5145 37.8723
#
#
#
# Elastic Compliance Matrix: (Units=1/GPa)
#
#
# Indices 1 2 3 4 5 6 
#
# 1 0.032500 -0.014973 0.005566 -0.001780 -0.025131 0.008080
# 2 -0.014973 0.021894 -0.008061 -0.011957 0.018517 -0.004931
# 3 0.005566 -0.008061 0.019912 -0.001226 -0.016213 0.007025
# 4 -0.001780 -0.011957 -0.001226 0.044713 -0.006293 -0.005145
# 5 -0.025131 0.018517 -0.016213 -0.006293 0.063169 -0.020505
# 6 0.008080 -0.004931 0.007025 -0.005145 -0.020505 0.034389
#
#
# Mechanical properties :
#
#
# Convention : Reuss Voigt Hill
#
# Bulk Modulus (GPa) = 25.40010 46.13394 35.76702
# Shear Modulus (GPa) = 18.89374 31.04008 24.96691
#
# Velocity S-wave (km/s) = 2.97543 3.81375 3.42037
# Velocity P-wave (km/s) = 4.86890 6.40392 5.68843
#
# Compressibility (1/GPa) = 0.03936993
#
# Stress axis : x y z
#
# Youngs Moduli (GPa) = 30.76942 45.67384 50.22012
#
# Poissons Ratio (x) = 0.68386 -0.27952
# Poissons Ratio (y) = 0.46070 0.40484
# Poissons Ratio (z) = -0.17126 0.36819
#
# Static dielectric constant tensor:
#      x y z
#    x 1.775060 0.044960 0.015140 
#    y 0.044960 1.837010 0.003150 
#    z 0.015140 0.003150 1.827660 
# 
# From -- ./inp_files/63962.got.cif
#   From: 2010.05.17/outbox.cif.g08.bks.cpg/sg2_32_cif.got.tgz:63962.got - 2010.06.03 11:33:40.
