data_PCOD9021104
_publ_section_title
;
Structure prediction by ZEFSAII (Michael W. Deem and Ramdas Pophale) SiO2 
 PCOD9021104
Probable space group: P -1
;
_chemical_formula_sum "Si O2"
_cell_formula_units_Z 16
_cell_length_a 11.427695
_cell_length_b 8.213381
_cell_length_c 18.131186
_cell_angle_alpha 113.775893
_cell_angle_beta 154.201102
_cell_angle_gamma 57.115186
_cell_volume 604.635557
_symmetry_space_group_name_H-M "P -1"
_symmetry_group_IT_number 2
_symmetry_cell_setting 'triclinic'
loop_
_space_group_symop_operation_xyz
x,y,z
-x,-y,-z
loop_
_atom_site_type_symbol
_atom_site_label
_atom_site_fract_x
_atom_site_fract_y
_atom_site_fract_z
Si Si1 0.151750 0.761891 0.989269
Si Si2 0.287442 0.285388 0.766493
Si Si3 0.264950 0.726606 0.609192
Si Si4 0.920888 0.283874 0.339989
Si Si5 0.045601 0.931401 0.257878
Si Si6 0.115018 0.384401 0.855731
Si Si7 0.431104 0.753709 0.300247
Si Si8 0.552529 0.765719 0.639407
O O1 0.253338 0.523603 0.992672
O O2 0.801462 0.846180 0.785099
O O3 0.356762 0.828151 0.067469
O O4 0.212859 0.794234 0.113890
O O5 0.194636 0.483648 0.700196
O O6 0.200101 0.351128 0.812592
O O7 0.071764 0.192605 0.600385
O O8 0.425722 0.485640 0.648810
O O9 0.456204 0.790147 0.674342
O O10 0.223322 0.765183 0.679426
O O11 0.276212 0.212986 0.543924
O O12 0.890120 0.166181 0.229971
O O13 0.262057 0.858902 0.297773
O O14 0.265763 0.848016 0.439109
O O15 0.829108 0.824405 0.115204
O O16 0.760479 0.532632 0.694910
#
# Coordination Sequence:
#
# PCOD9021104 Si02
#       8
#     2   2   2   2   2   2   2   2
#     4  10  22  38  68  96 121 166 221 263 301 370
#     4  11  19  42  66  94 121 168 220 259 303 373
#     4  11  19  38  69  89 123 165 222 256 294 381
#     4  11  24  37  67  95 130 164 211 263 319 370
#     4  12  23  41  63  99 129 165 208 265 319 374
#     4  10  22  37  67  93 123 165 216 260 307 374
#     4  11  20  41  66  92 122 169 221 255 302 377
#     4  10  22  38  65  94 121 168 215 256 308 373
#
# _framework density 26.462219999999999
#
# number of rings (size 3 to 8) (size 9 to 14) (size 15 to 20)
#    0.750    0.500    5.000    3.375    0.000    2.500 
#    0.000    1.250    0.000    0.000    0.000    0.000 
#    0.000    0.000    0.000    0.000    0.000    0.000 
#
# Total GULP energy -89634.251899 kJ/mol
# GULP energy per Si atom -5602.140744 kJ/mol
# Density = 2.640199 g / cm^3
# Si number density = 26.462220 Si / 1000 Ang^3
#
#
#
# Elastic Constant Matrix: (Units=GPa)
#
#
# Indices 1 2 3 4 5 6 
#
# 1 200.0373 17.8237 21.5062 -2.1700 -2.0153 -27.2289
# 2 17.8237 64.3406 -2.7722 5.5544 -1.1749 -17.5396
# 3 21.5062 -2.7722 82.1500 -0.3571 11.1733 -4.3065
# 4 -2.1700 5.5544 -0.3571 40.7777 -7.7496 -2.8966
# 5 -2.0153 -1.1749 11.1733 -7.7496 46.0186 9.2364
# 6 -27.2289 -17.5396 -4.3065 -2.8966 9.2364 46.2234
#
#
#
# Elastic Compliance Matrix: (Units=1/GPa)
#
#
# Indices 1 2 3 4 5 6 
#
# 1 0.005623 -0.000886 -0.001360 0.000628 0.000083 0.002872
# 2 -0.000886 0.017800 0.001386 -0.002303 -0.001622 0.006541
# 3 -0.001360 0.001386 0.013158 -0.000727 -0.003670 0.001639
# 4 0.000628 -0.002303 -0.000727 0.025720 0.004446 0.000152
# 5 0.000083 -0.001622 -0.003670 0.004446 0.024439 -0.005513
# 6 0.002872 0.006541 0.001639 0.000152 -0.005513 0.027072
#
#
# Mechanical properties :
#
#
# Convention : Reuss Voigt Hill
#
# Bulk Modulus (GPa) = 28.68579 46.62704 37.65642
# Shear Modulus (GPa) = 39.32355 47.26863 43.29609
#
# Velocity S-wave (km/s) = 3.85908 4.23101 4.04932
# Velocity P-wave (km/s) = 5.54261 6.44415 6.01031
#
# Compressibility (1/GPa) = 0.03486046
#
# Stress axis : x y z
#
# Youngs Moduli (GPa) = 177.84699 56.18048 76.00203
#
# Poissons Ratio (x) = 0.04977 0.10336
# Poissons Ratio (y) = 0.15757 -0.10534
# Poissons Ratio (z) = 0.24186 -0.07787
#
# Static dielectric constant tensor:
#      x y z
#    x 1.947820 0.010460 0.034910 
#    y 0.010460 2.278200 -0.062500 
#    z 0.034910 -0.062500 2.054500 
# 
# From -- ./inp_files/567500.got.cif
#   From: 2010.05.17/outbox.cif.g08.bks.cpg/sg2_284_cif.got.tgz:567500.got - 2010.06.03 11:33:40.
