data_PCOD9021643
_publ_section_title
;
Structure prediction by ZEFSAII (Michael W. Deem and Ramdas Pophale) SiO2 
 PCOD9021643
Probable space group: P -1
;
_chemical_formula_sum "Si O2"
_cell_formula_units_Z 12
_cell_length_a 7.813627
_cell_length_b 14.328177
_cell_length_c 4.967979
_cell_angle_alpha 71.329816
_cell_angle_beta 54.837724
_cell_angle_gamma 68.861942
_cell_volume 419.467723
_symmetry_space_group_name_H-M "P -1"
_symmetry_group_IT_number 2
_symmetry_cell_setting 'triclinic'
loop_
_space_group_symop_operation_xyz
x,y,z
-x,-y,-z
loop_
_atom_site_type_symbol
_atom_site_label
_atom_site_fract_x
_atom_site_fract_y
_atom_site_fract_z
Si Si1 0.011832 0.752949 0.841302
Si Si2 0.740217 0.537857 0.282129
Si Si3 0.827680 0.376294 0.720252
Si Si4 0.451702 0.153505 0.739950
Si Si5 0.135410 0.949519 0.673397
Si Si6 0.538346 0.721150 0.913640
O O1 0.784117 0.830632 0.932410
O O2 0.014355 0.667914 0.143810
O O3 0.101547 0.691064 0.550250
O O4 0.142671 0.829525 0.783720
O O5 0.500000 0.500000 0.500000
O O6 0.779624 0.494328 0.591148
O O7 0.680784 0.642098 0.071574
O O8 0.000000 0.500000 0.000000
O O9 0.607875 0.346585 0.025601
O O10 0.613389 0.051278 0.591512
O O11 0.568601 0.192485 0.855257
O O12 0.396298 0.220540 0.455277
O O13 0.000000 0.000000 0.500000
O O14 0.000000 0.000000 0.000000
#
# Coordination Sequence:
#
# PCOD9021643 Si02
#       6
#     2   2   2   2   2   2
#     4  12  24  43  70  96 129 172 221 269 332 401
#     4  10  22  38  64 100 140 182 232 278 328 392
#     4  11  22  43  67  97 136 179 219 269 328 391
#     4  12  24  43  70  96 129 172 221 269 332 401
#     4  12  26  44  68  93 130 163 210 278 342 402
#     4  11  22  43  67  97 136 179 219 269 328 391
#
# _framework density 28.607685
#
# number of rings (size 3 to 8) (size 9 to 14) (size 15 to 20)
#    0.000    0.667    3.333    5.000    0.000    2.667 
#    0.000    8.333    0.000    0.000    0.000    0.000 
#    0.000    0.000    0.000    0.000    0.000    0.000 
#
# Total GULP energy -66828.617726 kJ/mol
# GULP energy per Si atom -5569.051477 kJ/mol
# Density = 2.854257 g / cm^3
# Si number density = 28.607685 Si / 1000 Ang^3
#
#
#
# Elastic Constant Matrix: (Units=GPa)
#
#
# Indices 1 2 3 4 5 6 
#
# 1 93.9599 37.3038 25.2902 15.5894 17.4485 -20.5217
# 2 37.3038 138.8746 56.6250 9.9686 16.7582 -25.8337
# 3 25.2902 56.6250 86.0069 25.0089 34.3187 10.1798
# 4 15.5894 9.9686 25.0089 73.5472 -9.3354 3.8654
# 5 17.4485 16.7582 34.3187 -9.3354 65.6154 4.2623
# 6 -20.5217 -25.8337 10.1798 3.8654 4.2623 64.1102
#
#
#
# Elastic Compliance Matrix: (Units=1/GPa)
#
#
# Indices 1 2 3 4 5 6 
#
# 1 0.013686 -0.001794 -0.001222 -0.002875 -0.003227 0.004240
# 2 -0.001794 0.012282 -0.009767 0.002041 0.002372 0.005645
# 3 -0.001222 -0.009767 0.026439 -0.008519 -0.011751 -0.007230
# 4 -0.002875 0.002041 -0.008519 0.017761 0.007245 -0.000298
# 5 -0.003227 0.002372 -0.011751 0.007245 0.022679 -0.000156
# 6 0.004240 0.005645 -0.007230 -0.000298 -0.000156 0.020407
#
#
# Mechanical properties :
#
#
# Convention : Reuss Voigt Hill
#
# Bulk Modulus (GPa) = 37.25592 61.91992 49.58792
# Shear Modulus (GPa) = 33.83693 53.96273 43.89983
#
# Velocity S-wave (km/s) = 3.44290 4.34787 3.92158
# Velocity P-wave (km/s) = 5.37179 6.84812 6.15438
#
# Compressibility (1/GPa) = 0.02684137
#
# Stress axis : x y z
#
# Youngs Moduli (GPa) = 73.06707 81.41693 37.82340
#
# Poissons Ratio (x) = 0.14603 0.04622
# Poissons Ratio (y) = 0.13105 0.36944
# Poissons Ratio (z) = 0.08928 0.79523
#
# Static dielectric constant tensor:
#      x y z
#    x 2.491330 0.061700 -0.275420 
#    y 0.061700 2.271530 0.030380 
#    z -0.275420 0.030380 2.340950 
# 
# From -- ./inp_files/35997.got.cif
#   From: 2010.05.17/outbox.cif.g08.bks.cpg/sg2_18_cif.got.tgz:35997.got - 2010.06.03 11:33:40.
