data_PCOD9021084
_publ_section_title
;
Structure prediction by ZEFSAII (Michael W. Deem and Ramdas Pophale) SiO2 
 PCOD9021084
Probable space group: P -1
;
_chemical_formula_sum "Si O2"
_cell_formula_units_Z 16
_cell_length_a 15.529045
_cell_length_b 9.023569
_cell_length_c 11.159466
_cell_angle_alpha 113.406324
_cell_angle_beta 118.304861
_cell_angle_gamma 118.390772
_cell_volume 720.265395
_symmetry_space_group_name_H-M "P -1"
_symmetry_group_IT_number 2
_symmetry_cell_setting 'triclinic'
loop_
_space_group_symop_operation_xyz
x,y,z
-x,-y,-z
loop_
_atom_site_type_symbol
_atom_site_label
_atom_site_fract_x
_atom_site_fract_y
_atom_site_fract_z
Si Si1 0.603978 0.282469 0.730084
Si Si2 0.249284 0.290986 0.720215
Si Si3 0.354588 0.134496 0.900941
Si Si4 0.452090 0.220070 0.249357
Si Si5 0.897034 0.338368 0.758005
Si Si6 0.642343 0.140748 0.367026
Si Si7 0.617050 0.777915 0.542977
Si Si8 0.925299 0.702005 0.223449
O O1 0.565788 0.393627 0.670634
O O2 0.500000 0.000000 0.500000
O O3 0.506402 0.153314 0.751076
O O4 0.802413 0.534153 0.972318
O O5 0.263347 0.164003 0.787102
O O6 0.182747 0.363784 0.762629
O O7 0.438984 0.561112 0.879323
O O8 0.100011 0.042714 0.448391
O O9 0.312476 0.912366 0.731367
O O10 0.333162 0.086437 0.012929
O O11 0.557444 0.196716 0.300673
O O12 0.590047 0.552140 0.457926
O O13 0.346457 0.091614 0.262432
O O14 0.802974 0.357681 0.635033
O O15 0.010663 0.394109 0.756097
O O16 0.745522 0.015332 0.603300
O O17 0.000000 0.500000 0.000000
#
# Coordination Sequence:
#
# PCOD9021084 Si02
#       8
#     2   2   2   2   2   2   2   2
#     4  11  20  38  68  92 123 160 218 261 309 370
#     4  10  22  37  66  94 125 159 217 267 310 375
#     4  11  21  41  63  92 124 168 212 262 311 382
#     4  11  23  38  67  88 131 164 210 258 317 375
#     4  11  24  40  68  93 127 162 216 266 311 374
#     4  11  22  40  62  95 120 165 216 258 310 378
#     4  10  23  42  62  97 121 166 215 253 313 391
#     4  11  20  36  62  98 123 155 204 274 316 355
#
# _framework density 22.214032
#
# number of rings (size 3 to 8) (size 9 to 14) (size 15 to 20)
#    0.000    1.250    3.750    3.375    3.500    0.000 
#    0.000    0.625   11.000    2.250    0.000    0.000 
#    0.000    0.000    0.000    0.000    0.000    0.000 
#
# Total GULP energy -89276.844444 kJ/mol
# GULP energy per Si atom -5579.802778 kJ/mol
# Density = 2.216347 g / cm^3
# Si number density = 22.214032 Si / 1000 Ang^3
#
#
#
# Elastic Constant Matrix: (Units=GPa)
#
#
# Indices 1 2 3 4 5 6 
#
# 1 99.6014 17.4151 18.0090 -16.5574 -8.9438 -10.6455
# 2 17.4151 63.0987 11.8595 -19.5157 -0.8445 -15.3318
# 3 18.0090 11.8595 145.1015 -7.9661 -0.5588 -3.9199
# 4 -16.5574 -19.5157 -7.9661 28.0049 3.4670 -0.5668
# 5 -8.9438 -0.8445 -0.5588 3.4670 31.5343 -0.8374
# 6 -10.6455 -15.3318 -3.9199 -0.5668 -0.8374 20.7910
#
#
#
# Elastic Compliance Matrix: (Units=1/GPa)
#
#
# Indices 1 2 3 4 5 6 
#
# 1 0.012308 0.000806 -0.000989 0.007343 0.002874 0.007025
# 2 0.000806 0.026725 -0.000668 0.019407 -0.000657 0.020497
# 3 -0.000989 -0.000668 0.007134 0.001020 -0.000275 0.000363
# 4 0.007343 0.019407 0.001020 0.054615 -0.002863 0.019637
# 5 0.002874 -0.000657 -0.000275 -0.002863 0.032877 0.002182
# 6 0.007025 0.020497 0.000363 0.019637 0.002182 0.067502
#
#
# Mechanical properties :
#
#
# Convention : Reuss Voigt Hill
#
# Bulk Modulus (GPa) = 22.49014 44.70765 33.59889
# Shear Modulus (GPa) = 22.96902 33.43391 28.20147
#
# Velocity S-wave (km/s) = 3.21906 3.88375 3.56692
# Velocity P-wave (km/s) = 4.89517 6.34672 5.66761
#
# Compressibility (1/GPa) = 0.04446393
#
# Stress axis : x y z
#
# Youngs Moduli (GPa) = 81.25004 37.41789 140.17665
#
# Poissons Ratio (x) = -0.03015 0.13869
# Poissons Ratio (y) = -0.06546 0.09360
# Poissons Ratio (z) = 0.08039 0.02498
#
# Static dielectric constant tensor:
#      x y z
#    x 1.892590 0.002630 -0.038250 
#    y 0.002630 1.801920 0.012540 
#    z -0.038250 0.012540 1.903720 
# 
# From -- ./inp_files/254590.got.cif
#   From: 2010.05.17/outbox.cif.g08.bks.cpg/sg2_128_cif.got.tgz:254590.got - 2010.06.03 11:33:40.
