data_PCOD9021384
_publ_section_title
;
Structure prediction by ZEFSAII (Michael W. Deem and Ramdas Pophale) SiO2 
 PCOD9021384
Probable space group: P -1
;
_chemical_formula_sum "Si O2"
_cell_formula_units_Z 14
_cell_length_a 10.345795
_cell_length_b 9.218686
_cell_length_c 16.664209
_cell_angle_alpha 48.546447
_cell_angle_beta 34.295308
_cell_angle_gamma 42.128495
_cell_volume 595.582676
_symmetry_space_group_name_H-M "P -1"
_symmetry_group_IT_number 2
_symmetry_cell_setting 'triclinic'
loop_
_space_group_symop_operation_xyz
x,y,z
-x,-y,-z
loop_
_atom_site_type_symbol
_atom_site_label
_atom_site_fract_x
_atom_site_fract_y
_atom_site_fract_z
Si Si1 0.720886 0.577269 0.871869
Si Si2 0.357725 0.290249 0.958977
Si Si3 0.988101 0.787743 0.552529
Si Si4 0.075408 0.774400 0.859806
Si Si5 0.840291 0.327885 0.658129
Si Si6 0.452708 0.350673 0.436158
Si Si7 0.881457 0.815663 0.264314
O O1 0.782124 0.726070 0.722911
O O2 0.984365 0.346093 0.818728
O O3 0.500000 0.500000 0.000000
O O4 0.652968 0.708795 0.940720
O O5 0.189526 0.547470 0.930693
O O6 0.634140 0.234801 0.801565
O O7 0.214381 0.167815 0.036440
O O8 0.956386 0.799228 0.468555
O O9 0.276874 0.576996 0.490643
O O10 0.000000 0.000000 0.500000
O O11 0.249736 0.727972 0.706495
O O12 0.107424 0.959060 0.824935
O O13 0.681492 0.570518 0.612687
O O14 0.944876 0.309810 0.700179
O O15 0.389184 0.174434 0.576009
#
# Coordination Sequence:
#
# PCOD9021384 Si02
#       7
#     2   2   2   2   2   2   2
#     4  11  23  39  61  95 126 153 205 266 304 346
#     4  10  22  41  61  85 126 165 198 252 306 363
#     4   9  21  37  61  90 123 154 202 256 305 355
#     4  10  22  38  61  86 123 164 204 238 309 377
#     4   9  19  36  63  84 117 157 205 243 299 361
#     4   8  19  37  59  82 122 155 200 244 300 363
#     4  11  20  35  63  92 115 162 204 253 301 362
#
# _framework density 23.506392000000002
#
# number of rings (size 3 to 8) (size 9 to 14) (size 15 to 20)
#    0.857    1.429    1.429    0.857    2.000    2.286 
#    0.000    2.857    3.143    0.000    0.000    0.000 
#    0.000    0.000    0.000    0.000    0.000    0.000 
#
# Total GULP energy -78095.784692 kJ/mol
# GULP energy per Si atom -5578.270335 kJ/mol
# Density = 2.345289 g / cm^3
# Si number density = 23.506392 Si / 1000 Ang^3
#
#
#
# Elastic Constant Matrix: (Units=GPa)
#
#
# Indices 1 2 3 4 5 6 
#
# 1 24.3056 14.2493 36.1125 -1.1295 -3.7068 6.5655
# 2 14.2493 110.4778 47.0697 -24.0414 -2.2142 19.2167
# 3 36.1125 47.0697 157.0449 10.1850 -5.8406 6.8457
# 4 -1.1295 -24.0414 10.1850 31.9581 1.1730 0.3712
# 5 -3.7068 -2.2142 -5.8406 1.1730 30.0541 -0.3529
# 6 6.5655 19.2167 6.8457 0.3712 -0.3529 22.1833
#
#
#
# Elastic Compliance Matrix: (Units=1/GPa)
#
#
# Indices 1 2 3 4 5 6 
#
# 1 0.070778 0.004048 -0.017179 0.011061 0.005031 -0.019258
# 2 0.004048 0.017033 -0.006409 0.015173 -0.000251 -0.014233
# 3 -0.017179 -0.006409 0.012566 -0.009525 0.000304 0.006923
# 4 0.011061 0.015173 -0.009525 0.046347 -0.001345 -0.014275
# 5 0.005031 -0.000251 0.000304 -0.001345 0.033978 -0.000803
# 6 -0.019258 -0.014233 0.006923 -0.014275 -0.000803 0.061198
#
#
# Mechanical properties :
#
#
# Convention : Reuss Voigt Hill
#
# Bulk Modulus (GPa) = 16.31423 54.07681 35.19552
# Shear Modulus (GPa) = 16.58862 29.79891 23.19377
#
# Velocity S-wave (km/s) = 2.65940 3.56433 3.14459
# Velocity P-wave (km/s) = 4.04787 6.32411 5.30941
#
# Compressibility (1/GPa) = 0.06129616
#
# Stress axis : x y z
#
# Youngs Moduli (GPa) = 14.12878 58.71084 79.57880
#
# Poissons Ratio (x) = -0.23767 1.36712
# Poissons Ratio (y) = -0.05720 0.51001
# Poissons Ratio (z) = 0.24272 0.37627
#
# Static dielectric constant tensor:
#      x y z
#    x 1.906950 -0.045990 -0.024980 
#    y -0.045990 1.933030 -0.002230 
#    z -0.024980 -0.002230 1.910160 
# 
# From -- ./inp_files/495819.got.cif
#   From: 2010.05.17/outbox.cif.g08.bks.cpg/sg2_248_cif.got.tgz:495819.got - 2010.06.03 11:33:40.
