data_PCOD9021015
_publ_section_title
;
Structure prediction by ZEFSAII (Michael W. Deem and Ramdas Pophale) SiO2 
 PCOD9021015
Probable space group: P -1
;
_chemical_formula_sum "Si O2"
_cell_formula_units_Z 16
_cell_length_a 22.050258
_cell_length_b 5.411122
_cell_length_c 12.959177
_cell_angle_alpha 101.115485
_cell_angle_beta 144.975052
_cell_angle_gamma 93.785172
_cell_volume 799.021328
_symmetry_space_group_name_H-M "P -1"
_symmetry_group_IT_number 2
_symmetry_cell_setting 'triclinic'
loop_
_space_group_symop_operation_xyz
x,y,z
-x,-y,-z
loop_
_atom_site_type_symbol
_atom_site_label
_atom_site_fract_x
_atom_site_fract_y
_atom_site_fract_z
Si Si1 0.048244 0.091412 0.304411
Si Si2 0.376121 0.364943 0.264830
Si Si3 0.029299 0.538041 0.924553
Si Si4 0.507563 0.154708 0.915232
Si Si5 0.760785 0.252743 0.888253
Si Si6 0.908359 0.286511 0.280429
Si Si7 0.688614 0.759773 0.267591
Si Si8 0.333085 0.062718 0.976881
O O1 0.029258 0.285541 0.204955
O O2 0.183960 0.204746 0.524919
O O3 0.973534 0.118336 0.300496
O O4 0.006464 0.772358 0.191602
O O5 0.500000 0.500000 0.500000
O O6 0.315943 0.574904 0.214651
O O7 0.306655 0.062251 0.194370
O O8 0.376908 0.314877 0.138377
O O9 0.000000 0.500000 0.000000
O O10 0.164805 0.713314 0.107762
O O11 0.379901 0.153715 0.730935
O O12 0.603042 0.453655 0.095298
O O13 0.500000 0.000000 0.000000
O O14 0.562642 0.040984 0.892123
O O15 0.857622 0.397503 0.122978
O O16 0.000000 0.500000 0.500000
O O17 0.792207 0.125046 0.168922
O O18 0.692048 0.906490 0.175105
#
# Coordination Sequence:
#
# PCOD9021015 Si02
#       8
#     2   2   2   2   2   2   2   2
#     4  11  25  40  68 100 132 169 220 271 324 410
#     4  11  24  44  67  94 132 175 223 275 324 384
#     4  11  24  47  68  92 132 176 219 272 336 385
#     4   9  20  40  58  83 129 169 206 269 318 375
#     4  10  23  44  65  98 133 168 218 281 325 387
#     4  10  22  38  66 101 137 171 208 263 341 407
#     4  10  22  38  62  91 131 165 216 265 330 384
#     4  10  22  37  64  91 131 171 214 262 331 390
#
# _framework density 20.024495000000002
#
# number of rings (size 3 to 8) (size 9 to 14) (size 15 to 20)
#    0.000    1.750    0.000    3.750   12.250    0.500 
#    2.250    2.500    0.000    0.000    0.000    0.000 
#    0.000    0.000    0.000    0.000    0.000    0.000 
#
# Total GULP energy -89186.575811 kJ/mol
# GULP energy per Si atom -5574.160988 kJ/mol
# Density = 1.997892 g / cm^3
# Si number density = 20.024495 Si / 1000 Ang^3
#
#
#
# Elastic Constant Matrix: (Units=GPa)
#
#
# Indices 1 2 3 4 5 6 
#
# 1 145.7378 49.9758 48.5376 -0.8288 33.5276 0.0491
# 2 49.9758 109.8782 28.7487 -8.2813 13.0900 -3.0648
# 3 48.5376 28.7487 89.6186 -10.3884 21.8208 -6.1321
# 4 -0.8288 -8.2813 -10.3884 19.1965 -12.9070 13.2203
# 5 33.5276 13.0900 21.8208 -12.9070 30.8266 -6.4534
# 6 0.0491 -3.0648 -6.1321 13.2203 -6.4534 25.1530
#
#
#
# Elastic Compliance Matrix: (Units=1/GPa)
#
#
# Indices 1 2 3 4 5 6 
#
# 1 0.013056 -0.004243 -0.003459 -0.015846 -0.015990 0.002840
# 2 -0.004243 0.011530 -0.001522 0.007937 0.003661 -0.002190
# 3 -0.003459 -0.001522 0.015113 0.004300 -0.004468 0.000099
# 4 -0.015846 0.007937 0.004300 0.129407 0.054098 -0.052090
# 5 -0.015990 0.003661 -0.004468 0.054098 0.071869 -0.010607
# 6 0.002840 -0.002190 0.000099 -0.052090 -0.010607 0.064165
#
#
# Mechanical properties :
#
#
# Convention : Reuss Voigt Hill
#
# Bulk Modulus (GPa) = 47.05682 66.63986 56.84834
# Shear Modulus (GPa) = 15.12067 29.56673 22.34370
#
# Velocity S-wave (km/s) = 2.75091 3.84673 3.34401
# Velocity P-wave (km/s) = 5.80005 7.28568 6.58490
#
# Compressibility (1/GPa) = 0.02125090
#
# Stress axis : x y z
#
# Youngs Moduli (GPa) = 76.59106 86.72912 66.16682
#
# Poissons Ratio (x) = 0.36803 0.22889
# Poissons Ratio (y) = 0.32501 0.10069
# Poissons Ratio (z) = 0.26495 0.13198
#
# Static dielectric constant tensor:
#      x y z
#    x 1.758810 -0.047040 0.020110 
#    y -0.047040 1.748330 -0.017030 
#    z 0.020110 -0.017030 1.689930 
# 
# From -- ./inp_files/468152.got.cif
#   From: 2010.05.17/outbox.cif.g08.bks.cpg/sg2_235_cif.got.tgz:468152.got - 2010.06.03 11:33:40.
