data_PCOD9021533
_publ_section_title
;
Structure prediction by ZEFSAII (Michael W. Deem and Ramdas Pophale) SiO2 
 PCOD9021533
Probable space group: P -1
;
_chemical_formula_sum "Si O2"
_cell_formula_units_Z 16
_cell_length_a 6.093036
_cell_length_b 13.218003
_cell_length_c 11.555326
_cell_angle_alpha 93.827771
_cell_angle_beta 75.634580
_cell_angle_gamma 57.130138
_cell_volume 733.643155
_symmetry_space_group_name_H-M "P -1"
_symmetry_group_IT_number 2
_symmetry_cell_setting 'triclinic'
loop_
_space_group_symop_operation_xyz
x,y,z
-x,-y,-z
loop_
_atom_site_type_symbol
_atom_site_label
_atom_site_fract_x
_atom_site_fract_y
_atom_site_fract_z
Si Si1 0.854587 0.891054 0.508748
Si Si2 0.615916 0.866805 0.314832
Si Si3 0.494668 0.695914 0.430893
Si Si4 0.667373 0.274098 0.136899
Si Si5 0.709556 0.729117 0.632226
Si Si6 0.186845 0.389292 0.056767
Si Si7 0.775191 0.434532 0.301911
Si Si8 0.276478 0.125917 0.967343
O O1 0.816441 0.876966 0.376750
O O2 0.678903 0.846476 0.588750
O O3 0.172331 0.804406 0.494457
O O4 0.694251 0.028288 0.590558
O O5 0.638278 0.740698 0.329130
O O6 0.660166 0.888906 0.179124
O O7 0.640729 0.669317 0.534199
O O8 0.527866 0.573158 0.373903
O O9 0.495514 0.235108 0.229730
O O10 0.482798 0.355776 0.057159
O O11 0.697186 0.358589 0.229622
O O12 0.970811 0.164091 0.045134
O O13 0.029423 0.642396 0.622106
O O14 0.991935 0.441940 0.197921
O O15 0.252238 0.253650 0.009272
O O16 0.000000 0.500000 0.000000
O O17 0.500000 0.000000 0.000000
#
# Coordination Sequence:
#
# PCOD9021533 Si02
#       8
#     2   2   2   2   2   2   2   2
#     4  10  23  42  66  93 130 172 216 272 325 393
#     4  10  24  43  62  94 131 166 220 273 322 392
#     4  11  22  39  67  94 126 175 213 270 333 383
#     4  10  24  43  65  98 133 181 212 277 338 391
#     4  10  22  39  64  96 134 164 217 269 329 394
#     4  10  23  44  65  95 133 177 225 275 330 398
#     4  10  22  38  62  96 131 165 218 268 327 397
#     4  11  26  43  69 101 136 175 229 277 328 404
#
# _framework density 21.808969000000001
#
# number of rings (size 3 to 8) (size 9 to 14) (size 15 to 20)
#    0.000    1.750    0.000    2.250    7.000   11.500 
#    0.000    0.000    0.000    0.000    0.000    0.000 
#    0.000    0.000    0.000    0.000    0.000    0.000 
#
# Total GULP energy -89280.560715 kJ/mol
# GULP energy per Si atom -5580.035045 kJ/mol
# Density = 2.175933 g / cm^3
# Si number density = 21.808969 Si / 1000 Ang^3
#
#
#
# Elastic Constant Matrix: (Units=GPa)
#
#
# Indices 1 2 3 4 5 6 
#
# 1 73.9831 38.9119 37.0967 2.0986 9.2792 -18.2467
# 2 38.9119 116.4850 53.8890 -4.3899 7.0059 -18.6448
# 3 37.0967 53.8890 123.2238 -17.9929 3.9964 -5.1955
# 4 2.0986 -4.3899 -17.9929 35.6225 -2.9915 3.1707
# 5 9.2792 7.0059 3.9964 -2.9915 33.9820 -9.2970
# 6 -18.2467 -18.6448 -5.1955 3.1707 -9.2970 23.0079
#
#
#
# Elastic Compliance Matrix: (Units=1/GPa)
#
#
# Indices 1 2 3 4 5 6 
#
# 1 0.021373 -0.002473 -0.005557 -0.005725 -0.001366 0.013928
# 2 -0.002473 0.012741 -0.004712 -0.001301 0.000601 0.007722
# 3 -0.005557 -0.004712 0.012555 0.006643 -0.000144 -0.006364
# 4 -0.005725 -0.001301 0.006643 0.032451 0.001758 -0.007856
# 5 -0.001366 0.000601 -0.000144 0.001758 0.033290 0.012580
# 6 0.013928 0.007722 -0.006364 -0.007856 0.012580 0.065496
#
#
# Mechanical properties :
#
#
# Convention : Reuss Voigt Hill
#
# Bulk Modulus (GPa) = 47.20135 63.72081 55.46108
# Shear Modulus (GPa) = 23.75845 30.77544 27.26694
#
# Velocity S-wave (km/s) = 3.30417 3.76059 3.53974
# Velocity P-wave (km/s) = 6.02053 6.93809 6.49553
#
# Compressibility (1/GPa) = 0.02118583
#
# Stress axis : x y z
#
# Youngs Moduli (GPa) = 46.78888 78.48434 79.64886
#
# Poissons Ratio (x) = 0.19408 0.44263
# Poissons Ratio (y) = 0.11570 0.37527
# Poissons Ratio (z) = 0.26002 0.36978
#
# Static dielectric constant tensor:
#      x y z
#    x 1.837840 0.019140 0.028110 
#    y 0.019140 1.872880 -0.040190 
#    z 0.028110 -0.040190 1.815620 
# 
# From -- ./inp_files/364488.got.cif
#   From: 2010.05.17/outbox.cif.g08.bks.cpg/sg2_183_cif.got.tgz:364488.got - 2010.06.03 11:33:40.
