data_PCOD9021047
_publ_section_title
;
Structure prediction by ZEFSAII (Michael W. Deem and Ramdas Pophale) SiO2 
 PCOD9021047
Probable space group: P -1
;
_chemical_formula_sum "Si O2"
_cell_formula_units_Z 16
_cell_length_a 14.359878
_cell_length_b 5.082943
_cell_length_c 15.156847
_cell_angle_alpha 66.946447
_cell_angle_beta 45.572145
_cell_angle_gamma 66.474366
_cell_volume 713.671137
_symmetry_space_group_name_H-M "P -1"
_symmetry_group_IT_number 2
_symmetry_cell_setting 'triclinic'
loop_
_space_group_symop_operation_xyz
x,y,z
-x,-y,-z
loop_
_atom_site_type_symbol
_atom_site_label
_atom_site_fract_x
_atom_site_fract_y
_atom_site_fract_z
Si Si1 0.353832 0.286351 0.113522
Si Si2 0.626414 0.248010 0.428600
Si Si3 0.078977 0.849230 0.748592
Si Si4 0.510411 0.703528 0.152992
Si Si5 0.496857 0.782691 0.668692
Si Si6 0.075477 0.228569 0.872778
Si Si7 0.713535 0.883074 0.104111
Si Si8 0.811403 0.110301 0.834862
O O1 0.262369 0.564082 0.181017
O O2 0.439373 0.039393 0.149943
O O3 0.258473 0.109809 0.145349
O O4 0.454471 0.378391 0.961299
O O5 0.500000 0.500000 0.500000
O O6 0.770177 0.292902 0.359330
O O7 0.610477 0.230054 0.336037
O O8 0.596932 0.961185 0.533843
O O9 0.013530 0.569933 0.856438
O O10 0.102430 0.074302 0.780342
O O11 0.970201 0.029968 0.731999
O O12 0.435062 0.519101 0.291569
O O13 0.653960 0.661715 0.111092
O O14 0.414849 0.946898 0.782266
O O15 0.192143 0.244870 0.862559
O O16 0.000000 0.000000 0.000000
O O17 0.780839 0.070893 0.965227
#
# Coordination Sequence:
#
# PCOD9021047 Si02
#       8
#     2   2   2   2   2   2   2   2
#     4  10  23  40  62  96 133 163 214 261 329 375
#     4  11  25  42  60  92 128 172 217 266 304 382
#     4  12  25  41  63  88 131 175 209 254 324 376
#     4  10  22  37  65  93 129 171 205 271 321 378
#     4  11  21  39  63  90 123 167 215 264 314 375
#     4  12  24  38  60  95 129 170 207 253 317 399
#     4  11  22  35  62  93 133 160 216 252 326 379
#     4  11  23  39  62  92 131 169 205 261 317 394
#
# _framework density 22.419291000000001
#
# number of rings (size 3 to 8) (size 9 to 14) (size 15 to 20)
#    0.000    1.000    3.750    3.375    3.500    1.500 
#    0.000    0.000    0.000    1.500    0.000    0.000 
#    0.000    0.000    0.000    0.000    0.000    0.000 
#
# Total GULP energy -89331.279396 kJ/mol
# GULP energy per Si atom -5583.204962 kJ/mol
# Density = 2.236826 g / cm^3
# Si number density = 22.419291 Si / 1000 Ang^3
#
#
#
# Elastic Constant Matrix: (Units=GPa)
#
#
# Indices 1 2 3 4 5 6 
#
# 1 103.7013 27.3618 26.7259 -1.3962 -10.8957 -7.1173
# 2 27.3618 116.5563 34.5601 -20.0024 -4.6369 -14.2609
# 3 26.7259 34.5601 69.7191 -16.3970 -4.5196 -18.6357
# 4 -1.3962 -20.0024 -16.3970 39.7916 -8.8377 6.8263
# 5 -10.8957 -4.6369 -4.5196 -8.8377 31.3466 5.2728
# 6 -7.1173 -14.2609 -18.6357 6.8263 5.2728 38.7723
#
#
#
# Elastic Compliance Matrix: (Units=1/GPa)
#
#
# Indices 1 2 3 4 5 6 
#
# 1 0.011307 -0.001715 -0.003738 -0.001281 0.002863 -0.000516
# 2 -0.001715 0.010894 -0.003359 0.004174 0.001516 0.001136
# 3 -0.003738 -0.003359 0.020767 0.005962 0.001740 0.006774
# 4 -0.001281 0.004174 0.005962 0.032538 0.010713 -0.003020
# 5 0.002863 0.001516 0.001740 0.010713 0.037238 -0.005031
# 6 -0.000516 0.001136 0.006774 -0.003020 -0.005031 0.030587
#
#
# Mechanical properties :
#
#
# Convention : Reuss Voigt Hill
#
# Bulk Modulus (GPa) = 39.45741 51.91917 45.68829
# Shear Modulus (GPa) = 29.51551 35.40402 32.45977
#
# Velocity S-wave (km/s) = 3.63233 3.97820 3.80919
# Velocity P-wave (km/s) = 5.93546 6.65657 6.30633
#
# Compressibility (1/GPa) = 0.02534378
#
# Stress axis : x y z
#
# Youngs Moduli (GPa) = 88.43993 91.79569 48.15408
#
# Poissons Ratio (x) = 0.15744 0.17999
# Poissons Ratio (y) = 0.15169 0.16175
# Poissons Ratio (z) = 0.33057 0.30834
#
# Static dielectric constant tensor:
#      x y z
#    x 1.862930 0.048660 -0.038260 
#    y 0.048660 1.940300 0.003740 
#    z -0.038260 0.003740 1.889710 
# 
# From -- ./inp_files/571613.got.cif
#   From: 2010.05.17/outbox.cif.g08.bks.cpg/sg2_286_cif.got.tgz:571613.got - 2010.06.03 11:33:40.
