data_PCOD9021593
_publ_section_title
;
Structure prediction by ZEFSAII (Michael W. Deem and Ramdas Pophale) SiO2 
 PCOD9021593
Probable space group: P -1
;
_chemical_formula_sum "Si O2"
_cell_formula_units_Z 16
_cell_length_a 13.471185
_cell_length_b 7.905133
_cell_length_c 9.063374
_cell_angle_alpha 131.082208
_cell_angle_beta 76.436028
_cell_angle_gamma 100.255709
_cell_volume 706.847197
_symmetry_space_group_name_H-M "P -1"
_symmetry_group_IT_number 2
_symmetry_cell_setting 'triclinic'
loop_
_space_group_symop_operation_xyz
x,y,z
-x,-y,-z
loop_
_atom_site_type_symbol
_atom_site_label
_atom_site_fract_x
_atom_site_fract_y
_atom_site_fract_z
Si Si1 0.041554 0.677462 0.962875
Si Si2 0.620219 0.824592 0.376395
Si Si3 0.109720 0.081579 0.353613
Si Si4 0.570468 0.414138 0.557969
Si Si5 0.946897 0.416222 0.616302
Si Si6 0.755496 0.517274 0.367053
Si Si7 0.245498 0.770637 0.325701
Si Si8 0.393180 0.395302 0.035021
O O1 0.150034 0.605540 0.812975
O O2 0.954864 0.628184 0.842741
O O3 0.000000 0.500000 0.000000
O O4 0.057070 0.932259 0.157809
O O5 0.505423 0.770685 0.444339
O O6 0.690948 0.640919 0.330851
O O7 0.669886 0.056816 0.546023
O O8 0.625500 0.809239 0.188038
O O9 0.194565 0.285375 0.432166
O O10 0.017269 0.215974 0.536603
O O11 0.173010 0.894706 0.309056
O O12 0.500000 0.500000 0.500000
O O13 0.675721 0.371207 0.410244
O O14 0.596329 0.594923 0.784855
O O15 0.834167 0.320745 0.578118
O O16 0.000000 0.500000 0.500000
O O17 0.303561 0.562539 0.123504
O O18 0.500000 0.500000 0.000000
#
# Coordination Sequence:
#
# PCOD9021593 Si02
#       8
#     2   2   2   2   2   2   2   2
#     4  11  22  38  66  93 125 172 220 258 314 390
#     4   9  20  38  64  91 119 167 217 257 314 383
#     4  10  22  41  65  94 127 173 221 257 315 396
#     4   9  19  40  62  87 128 164 199 269 326 367
#     4  11  26  42  63  97 138 166 212 277 325 372
#     4   9  20  37  61  91 130 163 207 264 326 368
#     4  11  22  39  68  96 126 172 216 264 322 382
#     4  10  22  38  63  93 125 162 217 262 312 382
#
# _framework density 22.635725999999998
#
# number of rings (size 3 to 8) (size 9 to 14) (size 15 to 20)
#    0.000    2.000    1.250    1.125    7.000    2.500 
#    2.250    2.500    0.000   13.500    0.000    0.000 
#    0.000    0.000    0.000    0.000    0.000    0.000 
#
# Total GULP energy -89158.008568 kJ/mol
# GULP energy per Si atom -5572.375536 kJ/mol
# Density = 2.258421 g / cm^3
# Si number density = 22.635726 Si / 1000 Ang^3
#
#
#
# Elastic Constant Matrix: (Units=GPa)
#
#
# Indices 1 2 3 4 5 6 
#
# 1 112.9947 31.8778 19.3649 1.0817 -11.8641 11.8365
# 2 31.8778 78.8505 35.0900 -7.1997 -2.2977 22.9605
# 3 19.3649 35.0900 122.9559 3.0253 15.0384 18.3478
# 4 1.0817 -7.1997 3.0253 33.7460 3.1625 -2.1357
# 5 -11.8641 -2.2977 15.0384 3.1625 51.4045 -8.9863
# 6 11.8365 22.9605 18.3478 -2.1357 -8.9863 45.9800
#
#
#
# Elastic Compliance Matrix: (Units=1/GPa)
#
#
# Indices 1 2 3 4 5 6 
#
# 1 0.010360 -0.003886 -0.000805 -0.001325 0.002540 0.000029
# 2 -0.003886 0.018108 -0.003636 0.003941 -0.000400 -0.006486
# 3 -0.000805 -0.003636 0.010219 -0.001496 -0.003745 -0.002856
# 4 -0.001325 0.003941 -0.001496 0.030804 -0.001571 0.000094
# 5 0.002540 -0.000400 -0.003745 -0.001571 0.022140 0.005294
# 6 0.000029 -0.006486 -0.002856 0.000094 0.005294 0.027159
#
#
# Mechanical properties :
#
#
# Convention : Reuss Voigt Hill
#
# Bulk Modulus (GPa) = 45.38576 54.16294 49.77435
# Shear Modulus (GPa) = 35.01704 41.45733 38.23718
#
# Velocity S-wave (km/s) = 3.93743 4.28425 4.11450
# Velocity P-wave (km/s) = 6.38476 6.96082 6.67901
#
# Compressibility (1/GPa) = 0.02203334
#
# Stress axis : x y z
#
# Youngs Moduli (GPa) = 96.52062 55.22357 97.86168
#
# Poissons Ratio (x) = 0.21459 0.07880
# Poissons Ratio (y) = 0.37506 0.35582
# Poissons Ratio (z) = 0.07772 0.20079
#
# Static dielectric constant tensor:
#      x y z
#    x 1.830680 -0.052030 0.044380 
#    y -0.052030 1.903860 -0.024590 
#    z 0.044380 -0.024590 1.840570 
# 
# From -- ./inp_files/299655.got.cif
#   From: 2010.05.17/outbox.cif.g08.bks.cpg/sg2_150_cif.got.tgz:299655.got - 2010.06.03 11:33:40.
