data_PCOD9021176
_publ_section_title
;
Structure prediction by ZEFSAII (Michael W. Deem and Ramdas Pophale) SiO2 
 PCOD9021176
Probable space group: P -1
;
_chemical_formula_sum "Si O2"
_cell_formula_units_Z 16
_cell_length_a 9.448874
_cell_length_b 11.884623
_cell_length_c 8.280005
_cell_angle_alpha 109.563895
_cell_angle_beta 60.034215
_cell_angle_gamma 91.634438
_cell_volume 747.974369
_symmetry_space_group_name_H-M "P -1"
_symmetry_group_IT_number 2
_symmetry_cell_setting 'triclinic'
loop_
_space_group_symop_operation_xyz
x,y,z
-x,-y,-z
loop_
_atom_site_type_symbol
_atom_site_label
_atom_site_fract_x
_atom_site_fract_y
_atom_site_fract_z
Si Si1 0.237483 0.684225 0.492608
Si Si2 0.885954 0.691653 0.578910
Si Si3 0.175831 0.401516 0.090780
Si Si4 0.447213 0.502591 0.829950
Si Si5 0.174691 0.499373 0.715364
Si Si6 0.380305 0.880652 0.681628
Si Si7 0.526144 0.776576 0.889628
Si Si8 0.399235 0.149064 0.779865
O O1 0.414517 0.618514 0.290406
O O2 0.215462 0.582516 0.586080
O O3 0.250349 0.804162 0.644633
O O4 0.073914 0.714446 0.489791
O O5 0.874715 0.603051 0.696282
O O6 0.850756 0.628378 0.403377
O O7 0.719826 0.787998 0.753525
O O8 0.009248 0.435614 0.100523
O O9 0.307515 0.491215 0.038715
O O10 0.263651 0.269214 0.925264
O O11 0.332470 0.487929 0.733669
O O12 0.505015 0.633649 0.846527
O O13 0.432927 0.831052 0.807222
O O14 0.519908 0.858994 0.448590
O O15 0.329752 0.024961 0.786752
O O16 0.485431 0.836634 0.119246
#
# Coordination Sequence:
#
# PCOD9021176 Si02
#       8
#     2   2   2   2   2   2   2   2
#     4  11  20  36  64  89 124 165 210 251 315 378
#     4  10  23  37  58  90 131 166 198 253 326 377
#     4  10  22  38  56  91 127 158 203 258 313 367
#     4  12  22  36  64  96 124 161 205 258 316 380
#     4  11  21  38  56  93 128 166 197 251 325 377
#     4  11  22  44  67  89 123 166 220 257 304 372
#     4  11  23  41  65  95 127 162 213 256 317 374
#     4  10  24  40  67  91 122 169 212 262 306 365
#
# _framework density 21.391107999999999
#
# number of rings (size 3 to 8) (size 9 to 14) (size 15 to 20)
#    0.000    1.250    3.750    3.375    1.750    4.000 
#    0.000    5.625    0.000    1.500    0.000    0.000 
#    0.000    0.000    0.000    0.000    0.000    0.000 
#
# Total GULP energy -89175.537934 kJ/mol
# GULP energy per Si atom -5573.471121 kJ/mol
# Density = 2.134242 g / cm^3
# Si number density = 21.391108 Si / 1000 Ang^3
#
#
#
# Elastic Constant Matrix: (Units=GPa)
#
#
# Indices 1 2 3 4 5 6 
#
# 1 103.1492 19.3389 33.9748 1.2377 10.8489 16.2470
# 2 19.3389 72.7481 20.0216 13.9783 4.8693 -2.3346
# 3 33.9748 20.0216 72.6742 10.0336 6.0501 -4.3970
# 4 1.2377 13.9783 10.0336 29.4317 5.3051 9.9476
# 5 10.8489 4.8693 6.0501 5.3051 42.5539 -4.7344
# 6 16.2470 -2.3346 -4.3970 9.9476 -4.7344 26.5145
#
#
#
# Elastic Compliance Matrix: (Units=1/GPa)
#
#
# Indices 1 2 3 4 5 6 
#
# 1 0.016522 -0.004321 -0.008627 0.011137 -0.005787 -0.017147
# 2 -0.004321 0.017399 -0.000890 -0.010890 0.001528 0.008390
# 3 -0.008627 -0.000890 0.020144 -0.010893 0.002246 0.013036
# 4 0.011137 -0.010890 -0.010893 0.055155 -0.010498 -0.032157
# 5 -0.005787 0.001528 0.002246 -0.010498 0.027220 0.012852
# 6 -0.017147 0.008390 0.013036 -0.032157 0.012852 0.065482
#
#
# Mechanical properties :
#
#
# Convention : Reuss Voigt Hill
#
# Bulk Modulus (GPa) = 37.89237 43.91581 40.90409
# Shear Modulus (GPa) = 20.97384 31.38244 26.17814
#
# Velocity S-wave (km/s) = 3.13468 3.83440 3.50206
# Velocity P-wave (km/s) = 5.55465 6.33861 5.95954
#
# Compressibility (1/GPa) = 0.02639054
#
# Stress axis : x y z
#
# Youngs Moduli (GPa) = 60.52509 57.47495 49.64308
#
# Poissons Ratio (x) = 0.24833 0.42826
# Poissons Ratio (y) = 0.26151 0.04416
# Poissons Ratio (z) = 0.52214 0.05113
#
# Static dielectric constant tensor:
#      x y z
#    x 1.857930 0.019260 0.004730 
#    y 0.019260 1.780390 -0.049890 
#    z 0.004730 -0.049890 1.892250 
# 
# From -- ./inp_files/189797.got.cif
#   From: 2010.05.17/outbox.cif.g08.bks.cpg/sg2_95_cif.got.tgz:189797.got - 2010.06.03 11:33:40.
