data_PCOD9021557
_publ_section_title
;
Structure prediction by ZEFSAII (Michael W. Deem and Ramdas Pophale) SiO2 
 PCOD9021557
Probable space group: P -1
;
_chemical_formula_sum "Si O2"
_cell_formula_units_Z 16
_cell_length_a 7.779532
_cell_length_b 11.393778
_cell_length_c 12.558753
_cell_angle_alpha 54.746223
_cell_angle_beta 84.266608
_cell_angle_gamma 64.318586
_cell_volume 801.982481
_symmetry_space_group_name_H-M "P -1"
_symmetry_group_IT_number 2
_symmetry_cell_setting 'triclinic'
loop_
_space_group_symop_operation_xyz
x,y,z
-x,-y,-z
loop_
_atom_site_type_symbol
_atom_site_label
_atom_site_fract_x
_atom_site_fract_y
_atom_site_fract_z
Si Si1 0.155901 0.276180 0.213741
Si Si2 0.211818 0.671132 0.403823
Si Si3 0.947375 0.880553 0.498428
Si Si4 0.556773 0.995924 0.374850
Si Si5 0.385854 0.309462 0.608297
Si Si6 0.158813 0.815097 0.103966
Si Si7 0.012296 0.341846 0.966888
Si Si8 0.576360 0.807155 0.097679
O O1 0.097576 0.221956 0.355581
O O2 0.102834 0.463756 0.123254
O O3 0.383923 0.151032 0.250229
O O4 0.039539 0.265522 0.123147
O O5 0.233124 0.490783 0.490128
O O6 0.416391 0.675431 0.400350
O O7 0.126428 0.763139 0.251033
O O8 0.102706 0.757295 0.472468
O O9 0.765647 0.988079 0.376832
O O10 0.000000 0.000000 0.500000
O O11 0.585401 0.831395 0.402246
O O12 0.500000 0.000000 0.500000
O O13 0.349902 0.258576 0.753639
O O14 0.382738 0.785799 0.096934
O O15 0.105556 0.716487 0.072419
O O16 0.000000 0.000000 0.000000
O O17 0.233930 0.282093 0.941972
O O18 0.500000 0.000000 0.000000
#
# Coordination Sequence:
#
# PCOD9021557 Si02
#       8
#     2   2   2   2   2   2   2   2
#     4  10  24  46  63  94 128 177 224 264 333 391
#     4  10  23  40  65  98 131 162 219 279 328 389
#     4  11  24  41  66  95 131 173 216 269 330 401
#     4  10  22  38  63  86 126 170 213 258 324 394
#     4  10  22  41  64  96 129 167 215 278 330 387
#     4  11  25  40  68 101 131 173 220 276 337 397
#     4  11  24  45  69  90 138 175 220 282 320 396
#     4  11  22  41  67  98 131 174 220 270 337 397
#
# _framework density 19.950561
#
# number of rings (size 3 to 8) (size 9 to 14) (size 15 to 20)
#    0.000    1.500    1.250    3.000    8.750    1.500 
#    4.500    1.250    0.000    0.000    0.000    0.000 
#    0.000    0.000    0.000    0.000    0.000    0.000 
#
# Total GULP energy -89311.473254 kJ/mol
# GULP energy per Si atom -5581.967078 kJ/mol
# Density = 1.990515 g / cm^3
# Si number density = 19.950561 Si / 1000 Ang^3
#
#
#
# Elastic Constant Matrix: (Units=GPa)
#
#
# Indices 1 2 3 4 5 6 
#
# 1 59.0423 32.1517 36.5244 -5.1373 10.1791 21.0791
# 2 32.1517 134.2282 55.5341 -11.3369 13.7612 16.5026
# 3 36.5244 55.5341 137.4964 -7.1804 18.0533 5.2275
# 4 -5.1373 -11.3369 -7.1804 38.9384 -3.5949 5.4923
# 5 10.1791 13.7612 18.0533 -3.5949 22.8863 11.1713
# 6 21.0791 16.5026 5.2275 5.4923 11.1713 34.2452
#
#
#
# Elastic Compliance Matrix: (Units=1/GPa)
#
#
# Indices 1 2 3 4 5 6 
#
# 1 0.027649 -0.001953 -0.006009 0.004556 0.002485 -0.016702
# 2 -0.001953 0.009891 -0.003143 0.002448 -0.000616 -0.003276
# 3 -0.006009 -0.003143 0.010775 -0.001234 -0.007100 0.006083
# 4 0.004556 0.002448 -0.001234 0.028970 0.007311 -0.010827
# 5 0.002485 -0.000616 -0.007100 0.007311 0.059890 -0.020859
# 6 -0.016702 -0.003276 0.006083 -0.010827 -0.020859 0.048673
#
#
# Mechanical properties :
#
#
# Convention : Reuss Voigt Hill
#
# Bulk Modulus (GPa) = 38.30767 64.35414 51.33091
# Shear Modulus (GPa) = 23.06714 32.98443 28.02578
#
# Velocity S-wave (km/s) = 3.40401 4.07050 3.75208
# Velocity P-wave (km/s) = 5.89005 7.37691 6.67501
#
# Compressibility (1/GPa) = 0.02610443
#
# Stress axis : x y z
#
# Youngs Moduli (GPa) = 36.16810 101.10491 92.80691
#
# Poissons Ratio (x) = 0.19747 0.55769
# Poissons Ratio (y) = 0.07064 0.29167
# Poissons Ratio (z) = 0.21734 0.31775
#
# Static dielectric constant tensor:
#      x y z
#    x 1.742460 -0.015570 -0.009900 
#    y -0.015570 1.665990 0.026720 
#    z -0.009900 0.026720 1.682370 
# 
# From -- ./inp_files/389056.got.cif
#   From: 2010.05.17/outbox.cif.g08.bks.cpg/sg2_195_cif.got.tgz:389056.got - 2010.06.03 11:33:40.
