data_PCOD9021943
_publ_section_title
;
Structure prediction by ZEFSAII (Michael W. Deem and Ramdas Pophale) SiO2 
 PCOD9021943
Probable space group: P -1
;
_chemical_formula_sum "Si O2"
_cell_formula_units_Z 16
_cell_length_a 9.170059
_cell_length_b 26.824574
_cell_length_c 5.458557
_cell_angle_alpha 85.412804
_cell_angle_beta 88.788455
_cell_angle_gamma 29.600350
_cell_volume 657.903029
_symmetry_space_group_name_H-M "P -1"
_symmetry_group_IT_number 2
_symmetry_cell_setting 'triclinic'
loop_
_space_group_symop_operation_xyz
x,y,z
-x,-y,-z
loop_
_atom_site_type_symbol
_atom_site_label
_atom_site_fract_x
_atom_site_fract_y
_atom_site_fract_z
Si Si1 0.369485 0.609934 0.240460
Si Si2 0.584724 0.031490 0.787199
Si Si3 0.179605 0.899326 0.934604
Si Si4 0.649674 0.898095 0.737179
Si Si5 0.732461 0.268850 0.476674
Si Si6 0.788162 0.526273 0.857038
Si Si7 0.930574 0.398310 0.602269
Si Si8 0.557735 0.207263 0.530836
O O1 0.239948 0.701052 0.308579
O O2 0.635833 0.508804 0.442198
O O3 0.137987 0.633864 0.254222
O O4 0.536634 0.571346 0.998545
O O5 0.517526 0.074817 0.504709
O O6 0.514000 0.994252 0.752973
O O7 0.403062 0.109325 0.990024
O O8 0.924720 0.933340 0.897720
O O9 0.306295 0.864643 0.670007
O O10 0.402886 0.822674 0.179517
O O11 0.000000 0.000000 0.000000
O O12 0.991674 0.800728 0.683262
O O13 0.407920 0.380822 0.348129
O O14 0.714942 0.214787 0.530210
O O15 0.001367 0.421164 0.778511
O O16 0.000000 0.500000 0.000000
O O17 0.207677 0.312727 0.447630
#
# Coordination Sequence:
#
# PCOD9021943 Si02
#       8
#     2   2   2   2   2   2   2   2
#     4  10  23  43  69  98 153 180 240 291 352 417
#     4  10  22  41  65  96 127 178 222 293 349 411
#     4  12  28  49  72 101 144 185 239 298 365 432
#     4  10  22  38  67  95 133 171 228 285 351 405
#     4  11  25  40  68 110 134 186 241 295 346 426
#     4  11  23  41  70 104 149 186 233 293 349 423
#     4  10  24  44  66 105 140 196 233 289 356 421
#     4  12  27  46  76 105 142 191 241 294 357 438
#
# _framework density 24.319693999999998
#
# number of rings (size 3 to 8) (size 9 to 14) (size 15 to 20)
#    0.000    1.250    1.250    3.000   10.500    4.000 
#    0.000    0.000    0.000    0.000    0.000    0.000 
#    0.000    0.000    0.000    0.000    0.000    0.000 
#
# Total GULP energy -89373.455981 kJ/mol
# GULP energy per Si atom -5585.840999 kJ/mol
# Density = 2.426434 g / cm^3
# Si number density = 24.319694 Si / 1000 Ang^3
#
#
#
# Elastic Constant Matrix: (Units=GPa)
#
#
# Indices 1 2 3 4 5 6 
#
# 1 65.6496 16.1614 14.2083 0.5657 2.3978 5.9138
# 2 16.1614 84.9291 29.1219 25.6290 7.9414 -2.9400
# 3 14.2083 29.1219 107.7925 2.4154 18.8387 -0.0883
# 4 0.5657 25.6290 2.4154 28.6683 -3.1868 -7.1887
# 5 2.3978 7.9414 18.8387 -3.1868 23.6641 3.7535
# 6 5.9138 -2.9400 -0.0883 -7.1887 3.7535 36.0485
#
#
#
# Elastic Compliance Matrix: (Units=1/GPa)
#
#
# Indices 1 2 3 4 5 6 
#
# 1 0.016625 -0.003646 -0.001533 0.002559 0.001529 -0.002677
# 2 -0.003646 0.019573 -0.003392 -0.017984 -0.005794 -0.000797
# 3 -0.001533 -0.003392 0.011773 0.001459 -0.008062 0.001134
# 4 0.002559 -0.017984 0.001459 0.053915 0.010644 0.007760
# 5 0.001529 -0.005794 -0.008062 0.010644 0.052548 -0.004092
# 6 -0.002677 -0.000797 0.001134 0.007760 -0.004092 0.030091
#
#
# Mechanical properties :
#
#
# Convention : Reuss Voigt Hill
#
# Bulk Modulus (GPa) = 32.43814 41.92829 37.18321
# Shear Modulus (GPa) = 23.59130 30.93483 27.26307
#
# Velocity S-wave (km/s) = 3.11794 3.57039 3.35181
# Velocity P-wave (km/s) = 5.13120 5.85447 5.50473
#
# Compressibility (1/GPa) = 0.03082791
#
# Stress axis : x y z
#
# Youngs Moduli (GPa) = 60.15046 51.09170 84.94119
#
# Poissons Ratio (x) = 0.18627 0.13022
# Poissons Ratio (y) = 0.21929 0.28816
# Poissons Ratio (z) = 0.09222 0.17333
#
# Static dielectric constant tensor:
#      x y z
#    x 1.944820 -0.008420 -0.014410 
#    y -0.008420 1.948340 -0.024630 
#    z -0.014410 -0.024630 2.069260 
# 
# From -- ./inp_files/56430.got.cif
#   From: 2010.05.17/outbox.cif.g08.bks.cpg/sg2_29_cif.got.tgz:56430.got - 2010.06.03 11:33:40.
