data_PCOD9021879
_publ_section_title
;
Structure prediction by ZEFSAII (Michael W. Deem and Ramdas Pophale) SiO2 
 PCOD9021879
Probable space group: P -1
;
_chemical_formula_sum "Si O2"
_cell_formula_units_Z 13
_cell_length_a 9.350604
_cell_length_b 13.418579
_cell_length_c 6.591796
_cell_angle_alpha 82.485525
_cell_angle_beta 87.421420
_cell_angle_gamma 137.372081
_cell_volume 542.899124
_symmetry_space_group_name_H-M "P -1"
_symmetry_group_IT_number 2
_symmetry_cell_setting 'triclinic'
loop_
_space_group_symop_operation_xyz
x,y,z
-x,-y,-z
loop_
_atom_site_type_symbol
_atom_site_label
_atom_site_fract_x
_atom_site_fract_y
_atom_site_fract_z
Si Si1 0.000000 0.000000 0.000000
Si Si2 0.270533 0.356380 0.949257
Si Si3 0.417498 0.233482 0.827386
Si Si4 0.639550 0.277922 0.192353
Si Si5 0.755813 0.502498 0.429142
Si Si6 0.845056 0.002123 0.599211
Si Si7 0.068894 0.742031 0.679245
O O1 0.786823 0.936871 0.181094
O O2 0.078630 0.960875 0.182330
O O3 0.258061 0.227748 0.971122
O O4 0.270111 0.407038 0.715598
O O5 0.500000 0.500000 0.000000
O O6 0.096895 0.312340 0.120382
O O7 0.549044 0.363182 0.616826
O O8 0.589692 0.278054 0.960788
O O9 0.778436 0.433957 0.263479
O O10 0.745880 0.226911 0.238827
O O11 0.404930 0.159687 0.339797
O O12 0.948193 0.612621 0.548172
O O13 0.862949 0.121999 0.476028
O O14 0.000000 0.000000 0.500000
#
# Coordination Sequence:
#
# PCOD9021879 Si02
#       7
#     1   2   2   2   2   2   2
#     4  10  22  38  66  96 120 162 218 270 322 380
#     4  12  24  41  64  98 128 173 222 272 322 383
#     4  11  23  42  67  96 133 171 222 277 323 387
#     4  11  25  44  65 100 136 175 218 267 332 396
#     4  12  24  41  70  96 135 174 224 268 330 386
#     4  11  24  45  70  96 129 173 221 274 327 387
#     4  12  26  43  68  97 138 175 216 271 331 396
#
# _framework density 23.945516999999999
#
# number of rings (size 3 to 8) (size 9 to 14) (size 15 to 20)
#    0.000    0.615    3.077    5.077    2.154    3.692 
#    0.000    0.000    0.000    9.231    0.000    0.000 
#    0.000    0.000    0.000    0.000    0.000    0.000 
#
# Total GULP energy -72533.831464 kJ/mol
# GULP energy per Si atom -5579.525497 kJ/mol
# Density = 2.389102 g / cm^3
# Si number density = 23.945517 Si / 1000 Ang^3
#
#
#
# Elastic Constant Matrix: (Units=GPa)
#
#
# Indices 1 2 3 4 5 6 
#
# 1 126.8447 16.3565 49.9024 9.6653 51.2357 -5.8902
# 2 16.3565 78.5559 29.8539 7.0797 21.8975 -3.1188
# 3 49.9024 29.8539 153.0750 -16.4599 52.2530 2.5994
# 4 9.6653 7.0797 -16.4599 45.3609 -1.0232 11.7420
# 5 51.2357 21.8975 52.2530 -1.0232 39.5647 1.1174
# 6 -5.8902 -3.1188 2.5994 11.7420 1.1174 27.8000
#
#
#
# Elastic Compliance Matrix: (Units=1/GPa)
#
#
# Indices 1 2 3 4 5 6 
#
# 1 0.020835 0.005081 0.002908 -0.007321 -0.034082 0.009175
# 2 0.005081 0.016976 -0.000229 -0.005748 -0.015993 0.006073
# 3 0.002908 -0.000229 0.013283 0.004167 -0.021029 -0.001566
# 4 -0.007321 -0.005748 0.004167 0.030270 0.008385 -0.015708
# 5 -0.034082 -0.015993 -0.021029 0.008385 0.106672 -0.014878
# 6 0.009175 0.006073 -0.001566 -0.015708 -0.014878 0.045976
#
#
# Mechanical properties :
#
#
# Convention : Reuss Voigt Hill
#
# Bulk Modulus (GPa) = 15.01198 61.18902 38.10050
# Shear Modulus (GPa) = 20.77310 40.03597 30.40453
#
# Velocity S-wave (km/s) = 2.94856 4.09340 3.56720
# Velocity P-wave (km/s) = 4.22786 6.92460 5.73694
#
# Compressibility (1/GPa) = 0.06661345
#
# Stress axis : x y z
#
# Youngs Moduli (GPa) = 47.99645 58.90610 75.28691
#
# Poissons Ratio (x) = -0.29931 -0.21893
# Poissons Ratio (y) = -0.24388 0.01725
# Poissons Ratio (z) = -0.13957 0.01350
#
# Static dielectric constant tensor:
#      x y z
#    x 1.888420 -0.090090 -0.076350 
#    y -0.090090 -0.890460 -0.191810 
#    z -0.076350 -0.191810 1.961100 
# 
# From -- ./inp_files/34714.got.cif
#   From: 2010.05.17/outbox.cif.g08.bks.cpg/sg2_18_cif.got.tgz:34714.got - 2010.06.03 11:33:40.
