data_PCOD9021658
_publ_section_title
;
Structure prediction by ZEFSAII (Michael W. Deem and Ramdas Pophale) SiO2 
 PCOD9021658
Probable space group: P -1
;
_chemical_formula_sum "Si O2"
_cell_formula_units_Z 16
_cell_length_a 9.575245
_cell_length_b 10.845994
_cell_length_c 17.222605
_cell_angle_alpha 146.267997
_cell_angle_beta 50.255116
_cell_angle_gamma 139.199569
_cell_volume 648.769187
_symmetry_space_group_name_H-M "P -1"
_symmetry_group_IT_number 2
_symmetry_cell_setting 'triclinic'
loop_
_space_group_symop_operation_xyz
x,y,z
-x,-y,-z
loop_
_atom_site_type_symbol
_atom_site_label
_atom_site_fract_x
_atom_site_fract_y
_atom_site_fract_z
Si Si1 0.937716 0.263850 0.459400
Si Si2 0.288750 0.333218 0.128332
Si Si3 0.350351 0.744059 0.970920
Si Si4 0.303574 0.155532 0.453680
Si Si5 0.812130 0.995327 0.146387
Si Si6 0.497220 0.067721 0.631143
Si Si7 0.246475 0.583091 0.657747
Si Si8 0.035814 0.826337 0.232104
O O1 0.000000 0.500000 0.500000
O O2 0.066287 0.413668 0.569191
O O3 0.682840 0.097860 0.455129
O O4 0.997458 0.039197 0.314002
O O5 0.483936 0.310922 0.074917
O O6 0.356865 0.626191 0.271524
O O7 0.063950 0.141386 0.150836
O O8 0.253451 0.264058 0.013251
O O9 0.171579 0.468075 0.850454
O O10 0.219797 0.812490 0.113332
O O11 0.500000 0.000000 0.000000
O O12 0.254968 0.381113 0.606335
O O13 0.524161 0.284797 0.395415
O O14 0.358070 0.043508 0.449553
O O15 0.128456 0.945515 0.346807
O O16 0.790872 0.183681 0.189025
O O17 0.660878 0.960579 0.253510
#
# Coordination Sequence:
#
# PCOD9021658 Si02
#       8
#     2   2   2   2   2   2   2   2
#     4  11  19  36  65  93 122 160 204 246 304 366
#     4  11  24  40  58  95 120 158 209 252 295 370
#     4  11  24  39  62  86 123 165 206 250 305 358
#     4   9  18  35  63  89 118 159 198 247 308 360
#     4  10  22  38  64  86 124 159 196 258 303 351
#     4  11  21  39  65  91 122 158 202 249 307 361
#     4   9  18  35  61  92 120 156 203 248 300 364
#     4  10  23  40  61  91 124 158 205 253 300 367
#
# _framework density 24.662082000000002
#
# number of rings (size 3 to 8) (size 9 to 14) (size 15 to 20)
#    0.000    1.750    3.750    1.875    1.750    2.000 
#    0.000    1.250    5.500    0.000    0.000    0.000 
#    0.000    0.000    0.000    0.000    0.000    0.000 
#
# Total GULP energy -89499.836284 kJ/mol
# GULP energy per Si atom -5593.739768 kJ/mol
# Density = 2.460595 g / cm^3
# Si number density = 24.662082 Si / 1000 Ang^3
#
#
#
# Elastic Constant Matrix: (Units=GPa)
#
#
# Indices 1 2 3 4 5 6 
#
# 1 146.0193 43.4766 35.3507 21.9557 -24.8473 9.1348
# 2 43.4766 135.2706 17.6940 17.1807 0.2368 24.3099
# 3 35.3507 17.6940 114.6075 25.5678 -13.4361 -8.6276
# 4 21.9557 17.1807 25.5678 36.4372 9.9682 -0.0641
# 5 -24.8473 0.2368 -13.4361 9.9682 40.7022 -1.6438
# 6 9.1348 24.3099 -8.6276 -0.0641 -1.6438 37.1782
#
#
#
# Elastic Compliance Matrix: (Units=1/GPa)
#
#
# Indices 1 2 3 4 5 6 
#
# 1 0.009944 -0.002153 -0.000396 -0.006774 0.007579 -0.000804
# 2 -0.002153 0.009568 -0.000941 -0.002185 -0.001388 -0.006011
# 3 -0.000396 -0.000941 0.012141 -0.009544 0.006262 0.003790
# 4 -0.006774 -0.002185 -0.009544 0.044203 -0.018092 0.000154
# 5 0.007579 -0.001388 0.006262 -0.018092 0.035784 0.002050
# 6 -0.000804 -0.006011 0.003790 0.000154 0.002050 0.031996
#
#
# Mechanical properties :
#
#
# Convention : Reuss Voigt Hill
#
# Bulk Modulus (GPa) = 40.52821 65.43779 52.98300
# Shear Modulus (GPa) = 31.47849 42.82193 37.15021
#
# Velocity S-wave (km/s) = 3.57654 4.17147 3.88541
# Velocity P-wave (km/s) = 5.79004 7.05641 6.45436
#
# Compressibility (1/GPa) = 0.02467417
#
# Stress axis : x y z
#
# Youngs Moduli (GPa) = 100.56804 104.51913 82.36251
#
# Poissons Ratio (x) = 0.22499 0.03259
# Poissons Ratio (y) = 0.21648 0.07750
# Poissons Ratio (z) = 0.03979 0.09835
#
# Static dielectric constant tensor:
#      x y z
#    x 1.959830 -0.080360 0.013750 
#    y -0.080360 2.033240 -0.047980 
#    z 0.013750 -0.047980 1.980420 
# 
# From -- ./inp_files/589704.got.cif
#   From: 2010.05.17/outbox.cif.g08.bks.cpg/sg2_295_cif.got.tgz:589704.got - 2010.06.03 11:33:40.
