data_PCOD9021382
_publ_section_title
;
Structure prediction by ZEFSAII (Michael W. Deem and Ramdas Pophale) SiO2 
 PCOD9021382
Probable space group: P -1
;
_chemical_formula_sum "Si O2"
_cell_formula_units_Z 16
_cell_length_a 13.303025
_cell_length_b 13.481620
_cell_length_c 6.760329
_cell_angle_alpha 98.789220
_cell_angle_beta 66.600087
_cell_angle_gamma 52.920258
_cell_volume 749.589412
_symmetry_space_group_name_H-M "P -1"
_symmetry_group_IT_number 2
_symmetry_cell_setting 'triclinic'
loop_
_space_group_symop_operation_xyz
x,y,z
-x,-y,-z
loop_
_atom_site_type_symbol
_atom_site_label
_atom_site_fract_x
_atom_site_fract_y
_atom_site_fract_z
Si Si1 0.387663 0.787992 0.540756
Si Si2 0.837516 0.392819 0.852975
Si Si3 0.161541 0.216137 0.304960
Si Si4 0.229757 0.718221 0.430751
Si Si5 0.723283 0.502752 0.392048
Si Si6 0.139756 0.024283 0.125701
Si Si7 0.371217 0.929104 0.235664
Si Si8 0.277963 0.351853 0.226536
O O1 0.348631 0.727174 0.394433
O O2 0.549086 0.649517 0.486973
O O3 0.395591 0.882459 0.428793
O O4 0.241479 0.898380 0.843999
O O5 0.774100 0.329121 0.798225
O O6 0.733375 0.556005 0.904720
O O7 0.006577 0.299968 0.586633
O O8 0.836037 0.399364 0.089657
O O9 0.151826 0.137612 0.118659
O O10 0.181316 0.315499 0.249797
O O11 0.310985 0.081724 0.284438
O O12 0.279962 0.591151 0.491842
O O13 0.047398 0.874111 0.673850
O O14 0.781065 0.556073 0.498410
O O15 0.231850 0.956370 0.244782
O O16 0.535240 0.800236 0.952475
#
# Coordination Sequence:
#
# PCOD9021382 Si02
#       8
#     2   2   2   2   2   2   2   2
#     4  12  22  40  61  89 117 159 194 240 294 344
#     4  10  22  41  58  91 117 154 200 240 285 355
#     4   9  21  41  61  85 121 154 190 247 294 339
#     4  10  24  39  63  84 121 156 192 246 293 339
#     4  11  23  39  61  88 121 151 202 238 284 360
#     4   9  22  41  58  89 117 152 196 244 285 352
#     4  10  22  38  61  86 122 150 198 241 283 354
#     4  11  20  42  61  85 121 156 193 243 296 337
#
# _framework density 21.345018
#
# number of rings (size 3 to 8) (size 9 to 14) (size 15 to 20)
#    0.750    1.000    2.500    1.500    1.750    2.500 
#    2.250    1.250    0.000    0.000    0.000    0.000 
#    0.000    0.000    0.000    0.000    0.000    0.000 
#
# Total GULP energy -89258.438875 kJ/mol
# GULP energy per Si atom -5578.652430 kJ/mol
# Density = 2.129644 g / cm^3
# Si number density = 21.345018 Si / 1000 Ang^3
#
#
#
# Elastic Constant Matrix: (Units=GPa)
#
#
# Indices 1 2 3 4 5 6 
#
# 1 45.3245 1.5913 -8.7428 3.1695 3.9684 -0.0688
# 2 1.5913 49.6722 10.4443 11.4461 -1.0080 -12.1894
# 3 -8.7428 10.4443 44.4501 6.1764 7.1976 -12.5627
# 4 3.1695 11.4461 6.1764 24.0854 -4.2836 4.5748
# 5 3.9684 -1.0080 7.1976 -4.2836 13.2943 -0.1025
# 6 -0.0688 -12.1894 -12.5627 4.5748 -0.1025 20.0857
#
#
#
# Elastic Compliance Matrix: (Units=1/GPa)
#
#
# Indices 1 2 3 4 5 6 
#
# 1 0.027444 0.002419 0.013884 -0.014443 -0.020076 0.013433
# 2 0.002419 0.030749 0.005608 -0.023114 -0.008663 0.027397
# 3 0.013884 0.005608 0.044898 -0.029898 -0.037366 0.038152
# 4 -0.014443 -0.023114 -0.029898 0.079515 0.043976 -0.050663
# 5 -0.020076 -0.008663 -0.037366 0.043976 0.114662 -0.038128
# 6 0.013433 0.027397 0.038152 -0.050663 -0.038128 0.101666
#
#
# Mechanical properties :
#
#
# Convention : Reuss Voigt Hill
#
# Bulk Modulus (GPa) = 6.80676 16.22580 11.51628
# Shear Modulus (GPa) = 12.37372 20.57001 16.47187
#
# Velocity S-wave (km/s) = 2.41031 3.10771 2.78096
# Velocity P-wave (km/s) = 3.30786 4.52717 3.96467
#
# Compressibility (1/GPa) = 0.14691272
#
# Stress axis : x y z
#
# Youngs Moduli (GPa) = 36.43724 32.52169 22.27288
#
# Poissons Ratio (x) = -0.07866 -0.30923
# Poissons Ratio (y) = -0.08813 -0.12491
# Poissons Ratio (z) = -0.50589 -0.18239
#
# Static dielectric constant tensor:
#      x y z
#    x 1.764050 -0.003490 0.000640 
#    y -0.003490 1.814960 0.032400 
#    z 0.000640 0.032400 1.754110 
# 
# From -- ./inp_files/97156.got.cif
#   From: 2010.05.17/outbox.cif.g08.bks.cpg/sg2_49_cif.got.tgz:97156.got - 2010.06.03 11:33:40.
