data_PCOD9021747
_publ_section_title
;
Structure prediction by ZEFSAII (Michael W. Deem and Ramdas Pophale) SiO2 
 PCOD9021747
Probable space group: P -1
;
_chemical_formula_sum "Si O2"
_cell_formula_units_Z 10
_cell_length_a 7.712691
_cell_length_b 7.744472
_cell_length_c 12.808101
_cell_angle_alpha 86.273037
_cell_angle_beta 51.297217
_cell_angle_gamma 55.888098
_cell_volume 443.376904
_symmetry_space_group_name_H-M "P -1"
_symmetry_group_IT_number 2
_symmetry_cell_setting 'triclinic'
loop_
_space_group_symop_operation_xyz
x,y,z
-x,-y,-z
loop_
_atom_site_type_symbol
_atom_site_label
_atom_site_fract_x
_atom_site_fract_y
_atom_site_fract_z
Si Si1 0.254134 0.566933 0.170019
Si Si2 0.296304 0.631525 0.674099
Si Si3 0.974056 0.991299 0.384671
Si Si4 0.384928 0.195541 0.680102
Si Si5 0.330864 0.293378 0.332011
O O1 0.320042 0.356605 0.213940
O O2 0.930167 0.720697 0.234771
O O3 0.500000 0.500000 0.000000
O O4 0.213904 0.728140 0.270092
O O5 0.500000 0.500000 0.500000
O O6 0.012378 0.861377 0.711169
O O7 0.297917 0.439883 0.732749
O O8 0.441059 0.698191 0.693064
O O9 0.636612 0.089441 0.499475
O O10 0.000000 0.000000 0.500000
O O11 0.552327 0.963912 0.695369
O O12 0.000000 0.500000 0.500000
#
# Coordination Sequence:
#
# PCOD9021747 Si02
#       5
#     2   2   2   2   2
#     4  12  26  45  70 106 144 182 228 296 362 406
#     4  10  22  38  65 104 135 169 239 291 330 402
#     4  11  22  43  72 104 138 183 238 290 338 423
#     4  11  24  42  71 100 136 183 243 277 340 422
#     4  12  23  42  73  99 137 187 236 284 345 417
#
# _framework density 22.554175000000001
#
# number of rings (size 3 to 8) (size 9 to 14) (size 15 to 20)
#    0.000    0.800    4.000    5.400    2.800    0.800 
#    0.000    5.000    0.000    0.000    0.000    0.000 
#    0.000    0.000    0.000    0.000    0.000    0.000 
#
# Total GULP energy -55741.284246 kJ/mol
# GULP energy per Si atom -5574.128425 kJ/mol
# Density = 2.250284 g / cm^3
# Si number density = 22.554175 Si / 1000 Ang^3
#
#
#
# Elastic Constant Matrix: (Units=GPa)
#
#
# Indices 1 2 3 4 5 6 
#
# 1 101.3403 45.6996 41.8852 3.0826 -11.1820 -6.7191
# 2 45.6996 239.8192 38.3158 -32.9675 -9.8604 1.0105
# 3 41.8852 38.3158 106.4766 -16.5932 -17.1958 -4.3351
# 4 3.0826 -32.9675 -16.5932 22.0811 5.7231 3.0995
# 5 -11.1820 -9.8604 -17.1958 5.7231 13.3383 2.7544
# 6 -6.7191 1.0105 -4.3351 3.0995 2.7544 38.6273
#
#
#
# Elastic Compliance Matrix: (Units=1/GPa)
#
#
# Indices 1 2 3 4 5 6 
#
# 1 0.015357 -0.003686 -0.005430 -0.014376 0.008762 0.002687
# 2 -0.003686 0.006212 0.000498 0.010953 -0.002253 -0.001466
# 3 -0.005430 0.000498 0.014545 0.009824 0.010531 -0.000864
# 4 -0.014376 0.010953 0.009824 0.077990 -0.023459 -0.006270
# 5 0.008762 -0.002253 0.010531 -0.023459 0.104878 -0.002831
# 6 0.002687 -0.001466 -0.000864 -0.006270 -0.002831 0.027002
#
#
# Mechanical properties :
#
#
# Convention : Reuss Voigt Hill
#
# Bulk Modulus (GPa) = 52.97522 77.71526 65.34524
# Shear Modulus (GPa) = 18.55198 36.25837 27.40517
#
# Velocity S-wave (km/s) = 2.87113 4.01385 3.48958
# Velocity P-wave (km/s) = 5.87624 7.48420 6.72843
#
# Compressibility (1/GPa) = 0.01887675
#
# Stress axis : x y z
#
# Youngs Moduli (GPa) = 65.11836 160.98186 68.75160
#
# Poissons Ratio (x) = 0.59339 0.37335
# Poissons Ratio (y) = 0.24003 -0.03424
# Poissons Ratio (z) = 0.35362 -0.08017
#
# Static dielectric constant tensor:
#      x y z
#    x 1.937450 -0.523750 -0.004760 
#    y -0.523750 -3.286060 0.119260 
#    z -0.004760 0.119260 1.770620 
# 
# From -- ./inp_files/145732.got.cif
#   From: 2010.05.17/outbox.cif.g08.bks.cpg/sg2_73_cif.got.tgz:145732.got - 2010.06.03 11:33:40.
