data_PCOD9021063
_publ_section_title
;
Structure prediction by ZEFSAII (Michael W. Deem and Ramdas Pophale) SiO2 
 PCOD9021063
Probable space group: P -1
;
_chemical_formula_sum "Si O2"
_cell_formula_units_Z 16
_cell_length_a 20.399649
_cell_length_b 10.692536
_cell_length_c 9.572077
_cell_angle_alpha 133.381050
_cell_angle_beta 39.062491
_cell_angle_gamma 150.886989
_cell_volume 639.900339
_symmetry_space_group_name_H-M "P -1"
_symmetry_group_IT_number 2
_symmetry_cell_setting 'triclinic'
loop_
_space_group_symop_operation_xyz
x,y,z
-x,-y,-z
loop_
_atom_site_type_symbol
_atom_site_label
_atom_site_fract_x
_atom_site_fract_y
_atom_site_fract_z
Si Si1 0.927772 0.052247 0.260092
Si Si2 0.835575 0.199305 0.068340
Si Si3 0.381726 0.183251 0.378395
Si Si4 0.358119 0.661754 0.790741
Si Si5 0.746348 0.426836 0.542013
Si Si6 0.191401 0.599710 0.267708
Si Si7 0.434645 0.146984 0.960633
Si Si8 0.065986 0.201457 0.728477
O O1 0.953182 0.012335 0.343955
O O2 0.744680 0.834847 0.380171
O O3 0.017906 0.340987 0.305951
O O4 0.000000 0.000000 0.000000
O O5 0.735338 0.224105 0.331023
O O6 0.727028 0.014619 0.976034
O O7 0.000000 0.500000 0.000000
O O8 0.907760 0.115051 0.951654
O O9 0.272298 0.878541 0.317418
O O10 0.501118 0.297254 0.393758
O O11 0.442991 0.268301 0.182766
O O12 0.213285 0.453916 0.769183
O O13 0.427030 0.934233 0.849472
O O14 0.294469 0.597346 0.003513
O O15 0.798073 0.437028 0.618059
O O16 0.586649 0.338377 0.756894
O O17 0.870862 0.689429 0.448050
#
# Coordination Sequence:
#
# PCOD9021063 Si02
#       8
#     2   2   2   2   2   2   2   2
#     4  12  28  47  65  99 141 183 226 275 344 407
#     4  10  22  37  65  98 140 176 219 273 340 394
#     4  11  25  43  76 102 129 180 232 283 337 392
#     4  11  20  44  70 102 136 168 230 288 330 397
#     4  11  22  40  69 105 133 177 228 278 338 396
#     4  11  23  43  73  99 135 172 231 286 328 404
#     4  11  20  41  67 106 134 172 227 287 330 400
#     4  11  26  44  64  99 144 181 220 275 342 408
#
# _framework density 25.003893999999999
#
# number of rings (size 3 to 8) (size 9 to 14) (size 15 to 20)
#    0.000    1.000    6.250    1.500    5.250    1.000 
#    0.000    0.625    0.000    0.000    0.000    0.000 
#    0.000    0.000    0.000    0.000    0.000    0.000 
#
# Total GULP energy -89379.442306 kJ/mol
# GULP energy per Si atom -5586.215144 kJ/mol
# Density = 2.494698 g / cm^3
# Si number density = 25.003894 Si / 1000 Ang^3
#
#
#
# Elastic Constant Matrix: (Units=GPa)
#
#
# Indices 1 2 3 4 5 6 
#
# 1 85.3210 -15.1359 47.4116 -13.1220 -11.4349 27.3483
# 2 -15.1359 75.0388 22.4283 -2.1254 -4.6894 2.4350
# 3 47.4116 22.4283 112.6850 -20.6951 -0.3660 15.3405
# 4 -13.1220 -2.1254 -20.6951 22.6281 6.7610 2.8040
# 5 -11.4349 -4.6894 -0.3660 6.7610 50.1161 -11.5741
# 6 27.3483 2.4350 15.3405 2.8040 -11.5741 46.2407
#
#
#
# Elastic Compliance Matrix: (Units=1/GPa)
#
#
# Indices 1 2 3 4 5 6 
#
# 1 0.022518 0.007708 -0.008275 0.006841 0.002382 -0.010797
# 2 0.007708 0.017011 -0.006283 -0.000155 0.002706 -0.002684
# 3 -0.008275 -0.006283 0.015741 0.010457 -0.004158 -0.001672
# 4 0.006841 -0.000155 0.010457 0.062400 -0.009980 -0.013789
# 5 0.002382 0.002706 -0.004158 -0.009980 0.023526 0.006322
# 6 -0.010797 -0.002684 -0.001672 -0.013789 0.006322 0.031126
#
#
# Mechanical properties :
#
#
# Convention : Reuss Voigt Hill
#
# Bulk Modulus (GPa) = 24.05515 42.49474 33.27495
# Shear Modulus (GPa) = 25.01511 38.35304 31.68407
#
# Velocity S-wave (km/s) = 3.16642 3.92073 3.56359
# Velocity P-wave (km/s) = 4.79684 6.12604 5.50173
#
# Compressibility (1/GPa) = 0.04157113
#
# Stress axis : x y z
#
# Youngs Moduli (GPa) = 44.40834 58.78516 63.52797
#
# Poissons Ratio (x) = -0.45314 0.52568
# Poissons Ratio (y) = -0.34232 0.39917
# Poissons Ratio (z) = 0.36747 0.36937
#
# Static dielectric constant tensor:
#      x y z
#    x 2.009870 -0.009950 -0.050770 
#    y -0.009950 2.045260 -0.001790 
#    z -0.050770 -0.001790 2.031160 
# 
# From -- ./inp_files/346333.got.cif
#   From: 2010.05.17/outbox.cif.g08.bks.cpg/sg2_174_cif.got.tgz:346333.got - 2010.06.03 11:33:40.
