data_PCOD9021359
_publ_section_title
;
Structure prediction by ZEFSAII (Michael W. Deem and Ramdas Pophale) SiO2 
 PCOD9021359
Probable space group: P -1
;
_chemical_formula_sum "Si O2"
_cell_formula_units_Z 14
_cell_length_a 12.021254
_cell_length_b 10.742522
_cell_length_c 11.560438
_cell_angle_alpha 54.730263
_cell_angle_beta 148.970592
_cell_angle_gamma 123.301108
_cell_volume 623.058683
_symmetry_space_group_name_H-M "P -1"
_symmetry_group_IT_number 2
_symmetry_cell_setting 'triclinic'
loop_
_space_group_symop_operation_xyz
x,y,z
-x,-y,-z
loop_
_atom_site_type_symbol
_atom_site_label
_atom_site_fract_x
_atom_site_fract_y
_atom_site_fract_z
Si Si1 0.644983 0.175059 0.436608
Si Si2 0.833144 0.304246 0.777080
Si Si3 0.388682 0.620326 0.910957
Si Si4 0.670756 0.149697 0.934636
Si Si5 0.188840 0.109505 0.175278
Si Si6 0.283256 0.164321 0.751204
Si Si7 0.973272 0.372759 0.246775
O O1 0.759078 0.264400 0.601090
O O2 0.698656 0.263151 0.319587
O O3 0.387174 0.164031 0.237195
O O4 0.714626 0.005155 0.588760
O O5 0.673321 0.200832 0.776924
O O6 0.853545 0.486445 0.716136
O O7 0.067772 0.246642 0.040630
O O8 0.187721 0.554652 0.847076
O O9 0.500000 0.500000 0.000000
O O10 0.568554 0.713878 0.102376
O O11 0.435229 0.131091 0.795491
O O12 0.824796 0.286816 0.061583
O O13 0.765385 0.990875 0.133620
O O14 0.000000 0.000000 0.000000
O O15 0.085061 0.243374 0.483114
#
# Coordination Sequence:
#
# PCOD9021359 Si02
#       7
#     2   2   2   2   2   2   2
#     4  10  22  38  60  95 129 169 206 256 324 376
#     4  11  23  39  66  94 129 165 214 267 317 379
#     4  11  24  40  65  95 135 167 210 263 321 386
#     4  10  24  44  64  93 126 168 222 271 311 373
#     4   9  21  37  57  91 128 161 208 253 311 380
#     4  10  24  43  67  91 128 167 221 265 317 382
#     4  11  24  43  65  94 127 175 214 262 323 376
#
# _framework density 22.469792999999999
#
# number of rings (size 3 to 8) (size 9 to 14) (size 15 to 20)
#    0.000    1.714    0.000    2.571    8.000    6.286 
#    0.000    0.000    0.000    0.000    0.000    0.000 
#    0.000    0.000    0.000    0.000    0.000    0.000 
#
# Total GULP energy -78294.651030 kJ/mol
# GULP energy per Si atom -5592.475074 kJ/mol
# Density = 2.241865 g / cm^3
# Si number density = 22.469793 Si / 1000 Ang^3
#
#
#
# Elastic Constant Matrix: (Units=GPa)
#
#
# Indices 1 2 3 4 5 6 
#
# 1 43.7813 -2.1636 14.7153 -3.9688 1.3230 4.6203
# 2 -2.1636 70.9163 1.5833 -4.4308 6.2432 9.8529
# 3 14.7153 1.5833 50.2657 6.4208 0.8299 -6.5752
# 4 -3.9688 -4.4308 6.4208 28.5168 -2.5609 1.3758
# 5 1.3230 6.2432 0.8299 -2.5609 28.8672 -7.6627
# 6 4.6203 9.8529 -6.5752 1.3758 -7.6627 28.5323
#
#
#
# Elastic Compliance Matrix: (Units=1/GPa)
#
#
# Indices 1 2 3 4 5 6 
#
# 1 0.028205 0.003130 -0.010397 0.006885 -0.003535 -0.009325
# 2 0.003130 0.016124 -0.002876 0.003502 -0.005460 -0.008373
# 3 -0.010397 -0.002876 0.025230 -0.007834 0.002188 0.009457
# 4 0.006885 0.003502 -0.007834 0.038705 0.001071 -0.005708
# 5 -0.003535 -0.005460 0.002188 0.001071 0.039613 0.013549
# 6 -0.009325 -0.008373 0.009457 -0.005708 0.013549 0.045543
#
#
# Mechanical properties :
#
#
# Convention : Reuss Voigt Hill
#
# Bulk Modulus (GPa) = 20.29559 21.47039 20.88299
# Shear Modulus (GPa) = 21.72690 27.23847 24.48269
#
# Velocity S-wave (km/s) = 3.11294 3.48548 3.30446
# Velocity P-wave (km/s) = 4.68748 5.07682 4.88603
#
# Compressibility (1/GPa) = 0.04927179
#
# Stress axis : x y z
#
# Youngs Moduli (GPa) = 35.45477 62.02111 39.63524
#
# Poissons Ratio (x) = -0.19410 0.41207
# Poissons Ratio (y) = -0.11096 0.11401
# Poissons Ratio (z) = 0.36861 0.17840
#
# Static dielectric constant tensor:
#      x y z
#    x 1.869280 0.036630 0.035190 
#    y 0.036630 1.890260 -0.002510 
#    z 0.035190 -0.002510 1.826000 
# 
# From -- ./inp_files/63457.got.cif
#   From: 2010.05.17/outbox.cif.g08.bks.cpg/sg2_32_cif.got.tgz:63457.got - 2010.06.03 11:33:40.
