data_PCOD9021219
_publ_section_title
;
Structure prediction by ZEFSAII (Michael W. Deem and Ramdas Pophale) SiO2 
 PCOD9021219
Probable space group: P -1
;
_chemical_formula_sum "Si O2"
_cell_formula_units_Z 16
_cell_length_a 24.276819
_cell_length_b 17.584442
_cell_length_c 5.728308
_cell_angle_alpha 76.447936
_cell_angle_beta 86.991745
_cell_angle_gamma 18.372246
_cell_volume 623.556292
_symmetry_space_group_name_H-M "P -1"
_symmetry_group_IT_number 2
_symmetry_cell_setting 'triclinic'
loop_
_space_group_symop_operation_xyz
x,y,z
-x,-y,-z
loop_
_atom_site_type_symbol
_atom_site_label
_atom_site_fract_x
_atom_site_fract_y
_atom_site_fract_z
Si Si1 0.282430 0.081262 0.640410
Si Si2 0.266999 0.968696 0.111732
Si Si3 0.568557 0.822523 0.826626
Si Si4 0.676767 0.693771 0.391722
Si Si5 0.039817 0.010313 0.683461
Si Si6 0.268318 0.850518 0.808378
Si Si7 0.365643 0.484754 0.332910
Si Si8 0.975033 0.681232 0.668307
O O1 0.348176 0.079715 0.657551
O O2 0.467882 0.797673 0.630654
O O3 0.066499 0.350841 0.372972
O O4 0.287904 0.016986 0.908418
O O5 0.497235 0.655003 0.409200
O O6 0.050169 0.279645 0.078827
O O7 0.237732 0.925445 0.022325
O O8 0.703402 0.626406 0.700068
O O9 0.528677 0.969602 0.766408
O O10 0.640291 0.694361 0.160186
O O11 0.857947 0.503129 0.392910
O O12 0.108630 0.005328 0.626636
O O13 0.235541 0.714055 0.011741
O O14 0.000000 0.000000 0.500000
O O15 0.822127 0.306605 0.657545
O O16 0.230495 0.982749 0.583432
O O17 0.500000 0.500000 0.000000
#
# Coordination Sequence:
#
# PCOD9021219 Si02
#       8
#     2   2   2   2   2   2   2   2
#     4  10  22  39  65  91 124 173 210 275 325 396
#     4  10  22  41  60  91 125 168 221 273 329 395
#     4  10  24  44  71  97 140 173 220 276 336 400
#     4  10  24  45  67 104 134 176 219 276 336 402
#     4  11  23  37  57  87 124 166 216 272 329 398
#     4  11  23  39  61  90 127 171 216 274 331 386
#     4  10  22  38  58  87 122 163 219 271 327 397
#     4  10  24  39  66  95 130 169 222 271 330 401
#
# _framework density 25.659269999999999
#
# number of rings (size 3 to 8) (size 9 to 14) (size 15 to 20)
#    0.000    1.750    0.000    3.750    8.750    5.500 
#    0.000    0.625    0.000    0.000    0.000    0.000 
#    0.000    0.000    0.000    0.000    0.000    0.000 
#
# Total GULP energy -89202.904054 kJ/mol
# GULP energy per Si atom -5575.181503 kJ/mol
# Density = 2.560087 g / cm^3
# Si number density = 25.659270 Si / 1000 Ang^3
#
#
#
# Elastic Constant Matrix: (Units=GPa)
#
#
# Indices 1 2 3 4 5 6 
#
# 1 127.5023 25.6417 28.0579 11.9137 32.5714 -13.0963
# 2 25.6417 108.0234 21.9662 22.2074 28.0111 -21.4098
# 3 28.0579 21.9662 81.9643 20.0735 23.7543 7.5771
# 4 11.9137 22.2074 20.0735 43.5479 6.1508 -3.0846
# 5 32.5714 28.0111 23.7543 6.1508 25.2944 -8.4027
# 6 -13.0963 -21.4098 7.5771 -3.0846 -8.4027 38.2899
#
#
#
# Elastic Compliance Matrix: (Units=1/GPa)
#
#
# Indices 1 2 3 4 5 6 
#
# 1 0.012136 0.002329 0.000953 -0.002302 -0.018180 0.001089
# 2 0.002329 0.015351 0.001539 -0.006252 -0.018419 0.004530
# 3 0.000953 0.001539 0.021146 -0.008063 -0.023775 -0.008865
# 4 -0.002302 -0.006252 -0.008063 0.029081 0.011082 0.002087
# 5 -0.018180 -0.018419 -0.023775 0.011082 0.107159 0.012596
# 6 0.001089 0.004530 -0.008865 0.002087 0.012596 0.033708
#
#
# Mechanical properties :
#
#
# Convention : Reuss Voigt Hill
#
# Bulk Modulus (GPa) = 17.15974 52.09129 34.62552
# Shear Modulus (GPa) = 21.89502 37.54806 29.72154
#
# Velocity S-wave (km/s) = 2.92430 3.82950 3.40710
# Velocity P-wave (km/s) = 4.25489 6.31654 5.38529
#
# Compressibility (1/GPa) = 0.05827593
#
# Stress axis : x y z
#
# Youngs Moduli (GPa) = 82.39878 65.14396 47.29038
#
# Poissons Ratio (x) = -0.15170 -0.04509
# Poissons Ratio (y) = -0.19189 -0.07280
# Poissons Ratio (z) = -0.07856 -0.10028
#
# Static dielectric constant tensor:
#      x y z
#    x 2.061680 0.022640 0.059730 
#    y 0.022640 2.111260 0.080040 
#    z 0.059730 0.080040 2.236610 
# 
# From -- ./inp_files/38982.got.cif
#   From: 2010.05.17/outbox.cif.g08.bks.cpg/sg2_20_cif.got.tgz:38982.got - 2010.06.03 11:33:40.
