data_PCOD9021079
_publ_section_title
;
Structure prediction by ZEFSAII (Michael W. Deem and Ramdas Pophale) SiO2 
 PCOD9021079
Probable space group: P -1
;
_chemical_formula_sum "Si O2"
_cell_formula_units_Z 16
_cell_length_a 13.203124
_cell_length_b 6.810585
_cell_length_c 13.825052
_cell_angle_alpha 109.576178
_cell_angle_beta 128.574049
_cell_angle_gamma 102.432412
_cell_volume 748.634445
_symmetry_space_group_name_H-M "P -1"
_symmetry_group_IT_number 2
_symmetry_cell_setting 'triclinic'
loop_
_space_group_symop_operation_xyz
x,y,z
-x,-y,-z
loop_
_atom_site_type_symbol
_atom_site_label
_atom_site_fract_x
_atom_site_fract_y
_atom_site_fract_z
Si Si1 0.330430 0.730297 0.915890
Si Si2 0.685532 0.006964 0.219358
Si Si3 0.872820 0.816916 0.201402
Si Si4 0.208635 0.074415 0.361836
Si Si5 0.555753 0.768271 0.299960
Si Si6 0.656505 0.193147 0.691195
Si Si7 0.333012 0.192913 0.083592
Si Si8 0.820165 0.771359 0.826249
O O1 0.211068 0.464018 0.851970
O O2 0.282771 0.749650 0.780686
O O3 0.505759 0.793942 0.039361
O O4 0.339545 0.961311 0.015025
O O5 0.813151 0.954970 0.253651
O O6 0.664588 0.969244 0.315351
O O7 0.811751 0.827602 0.060912
O O8 0.056291 0.945431 0.317575
O O9 0.352944 0.200113 0.542164
O O10 0.203855 0.246361 0.306310
O O11 0.227015 0.890284 0.273157
O O12 0.419463 0.809995 0.252120
O O13 0.477418 0.472936 0.179909
O O14 0.760655 0.489165 0.774445
O O15 0.500000 0.000000 0.500000
O O16 0.298214 0.189242 0.175645
O O17 0.000000 0.000000 0.000000
#
# Coordination Sequence:
#
# PCOD9021079 Si02
#       8
#     2   2   2   2   2   2   2   2
#     4  10  22  37  66  93 116 164 207 257 311 359
#     4  10  22  38  63  90 124 157 211 256 302 371
#     4  11  22  40  61  93 125 157 206 263 305 363
#     4  11  25  42  65  88 130 168 199 257 321 363
#     4  10  22  44  60  90 126 163 204 256 305 374
#     4   9  23  43  63  93 129 167 208 256 310 383
#     4  10  22  38  64  93 123 155 210 256 305 375
#     4  11  23  40  64  97 127 163 211 261 309 375
#
# _framework density 21.372247999999999
#
# number of rings (size 3 to 8) (size 9 to 14) (size 15 to 20)
#    0.000    1.750    2.500    0.375    7.000    5.500 
#    2.250    0.625    0.000    0.000    0.000    0.000 
#    0.000    0.000    0.000    0.000    0.000    0.000 
#
# Total GULP energy -89194.950415 kJ/mol
# GULP energy per Si atom -5574.684401 kJ/mol
# Density = 2.132360 g / cm^3
# Si number density = 21.372248 Si / 1000 Ang^3
#
#
#
# Elastic Constant Matrix: (Units=GPa)
#
#
# Indices 1 2 3 4 5 6 
#
# 1 96.7834 35.8397 -5.7971 0.4889 5.6197 3.6264
# 2 35.8397 65.2322 9.9062 -3.9446 -0.6507 4.8423
# 3 -5.7971 9.9062 37.2255 -6.9655 -1.5661 -0.9124
# 4 0.4889 -3.9446 -6.9655 21.1038 7.5975 -6.3266
# 5 5.6197 -0.6507 -1.5661 7.5975 30.5810 -9.0557
# 6 3.6264 4.8423 -0.9124 -6.3266 -9.0557 35.4765
#
#
#
# Elastic Compliance Matrix: (Units=1/GPa)
#
#
# Indices 1 2 3 4 5 6 
#
# 1 0.013809 -0.008178 0.004246 0.000315 -0.002824 -0.000851
# 2 -0.008178 0.021046 -0.006681 0.001087 0.000803 -0.001810
# 3 0.004246 -0.006681 0.031234 0.010176 -0.001011 0.002838
# 4 0.000315 0.001087 0.010176 0.057309 -0.011576 0.007346
# 5 -0.002824 0.000803 -0.001011 -0.011576 0.038397 0.007890
# 6 -0.000851 -0.001810 0.002838 0.007346 0.007890 0.031919
#
#
# Mechanical properties :
#
#
# Convention : Reuss Voigt Hill
#
# Bulk Modulus (GPa) = 22.29055 31.01542 26.65299
# Shear Modulus (GPa) = 21.74919 28.05175 24.90047
#
# Velocity S-wave (km/s) = 3.19350 3.62682 3.41704
# Velocity P-wave (km/s) = 4.90411 5.66409 5.29774
#
# Compressibility (1/GPa) = 0.04486206
#
# Stress axis : x y z
#
# Youngs Moduli (GPa) = 72.41501 47.51595 32.01676
#
# Poissons Ratio (x) = 0.38858 -0.13594
# Poissons Ratio (y) = 0.59220 0.21391
# Poissons Ratio (z) = -0.30747 0.31747
#
# Static dielectric constant tensor:
#      x y z
#    x 1.818910 -0.005910 -0.028650 
#    y -0.005910 1.805660 -0.019390 
#    z -0.028650 -0.019390 1.805880 
# 
# From -- ./inp_files/511192.got.cif
#   From: 2010.05.17/outbox.cif.g08.bks.cpg/sg2_256_cif.got.tgz:511192.got - 2010.06.03 11:33:40.
