data_PCOD9021844
_publ_section_title
;
Structure prediction by ZEFSAII (Michael W. Deem and Ramdas Pophale) SiO2 
 PCOD9021844
Probable space group: P -1
;
_chemical_formula_sum "Si O2"
_cell_formula_units_Z 14
_cell_length_a 23.979696
_cell_length_b 12.539786
_cell_length_c 8.846734
_cell_angle_alpha 135.621401
_cell_angle_beta 30.213926
_cell_angle_gamma 148.566072
_cell_volume 695.559295
_symmetry_space_group_name_H-M "P -1"
_symmetry_group_IT_number 2
_symmetry_cell_setting 'triclinic'
loop_
_space_group_symop_operation_xyz
x,y,z
-x,-y,-z
loop_
_atom_site_type_symbol
_atom_site_label
_atom_site_fract_x
_atom_site_fract_y
_atom_site_fract_z
Si Si1 0.309990 0.925172 0.943525
Si Si2 0.764801 0.539271 0.763094
Si Si3 0.631517 0.716342 0.332294
Si Si4 0.493302 0.649176 0.260486
Si Si5 0.203760 0.522454 0.703219
Si Si6 0.547559 0.911358 0.912452
Si Si7 0.996524 0.445527 0.625872
O O1 0.138104 0.795575 0.261043
O O2 0.382908 0.954227 0.963477
O O3 0.295639 0.765031 0.707327
O O4 0.404655 0.139693 0.858133
O O5 0.820845 0.582932 0.503506
O O6 0.856706 0.504681 0.613309
O O7 0.761294 0.710428 0.001917
O O8 0.596128 0.319889 0.936556
O O9 0.500000 0.500000 0.500000
O O10 0.565479 0.700745 0.308059
O O11 0.655380 0.889899 0.551965
O O12 0.319028 0.537830 0.555278
O O13 0.500000 0.500000 0.000000
O O14 0.053884 0.449228 0.056392
O O15 0.500000 0.000000 0.000000
O O16 0.000000 0.500000 0.500000
#
# Coordination Sequence:
#
# PCOD9021844 Si02
#       7
#     2   2   2   2   2   2   2
#     4  10  23  39  62  94 120 162 215 253 311 367
#     4  11  21  42  59  91 124 165 205 257 314 375
#     4  10  23  36  60  93 126 159 204 259 318 368
#     4  12  20  39  65  96 124 158 210 267 315 364
#     4  10  22  38  66  89 125 158 218 252 313 370
#     4  11  21  36  63  92 124 159 211 261 307 361
#     4  10  24  41  63  91 129 167 209 253 317 377
#
# _framework density 20.127687999999999
#
# number of rings (size 3 to 8) (size 9 to 14) (size 15 to 20)
#    0.857    0.571    2.857    3.429    6.000    0.000 
#    0.000    1.429    3.143    0.000    0.000    0.000 
#    0.000    0.000    0.000    0.000    0.000    0.000 
#
# Total GULP energy -78034.850903 kJ/mol
# GULP energy per Si atom -5573.917922 kJ/mol
# Density = 2.008188 g / cm^3
# Si number density = 20.127688 Si / 1000 Ang^3
#
#
#
# Elastic Constant Matrix: (Units=GPa)
#
#
# Indices 1 2 3 4 5 6 
#
# 1 84.7887 -10.4240 38.0412 -3.3332 3.0838 -9.8719
# 2 -10.4240 21.7922 6.8215 10.3884 5.8339 -6.6605
# 3 38.0412 6.8215 133.9184 24.6222 -1.2826 -4.7001
# 4 -3.3332 10.3884 24.6222 24.2258 -3.4824 -2.0018
# 5 3.0838 5.8339 -1.2826 -3.4824 36.0518 -4.7829
# 6 -9.8719 -6.6605 -4.7001 -2.0018 -4.7829 23.5477
#
#
#
# Elastic Compliance Matrix: (Units=1/GPa)
#
#
# Indices 1 2 3 4 5 6 
#
# 1 0.017133 0.011530 -0.005857 0.003847 -0.001947 0.009207
# 2 0.011530 0.076132 -0.000984 -0.030277 -0.013499 0.020856
# 3 -0.005857 -0.000984 0.011346 -0.012089 -0.000311 -0.001560
# 4 0.003847 -0.030277 -0.012089 0.068482 0.010570 -0.001396
# 5 -0.001947 -0.013499 -0.000311 0.010570 0.031442 0.002589
# 6 0.009207 0.020856 -0.001560 -0.001396 0.002589 0.052322
#
#
# Mechanical properties :
#
#
# Convention : Reuss Voigt Hill
#
# Bulk Modulus (GPa) = 8.77267 34.37521 21.57394
# Shear Modulus (GPa) = 17.51458 30.50243 24.00850
#
# Velocity S-wave (km/s) = 2.95307 3.89710 3.45745
# Velocity P-wave (km/s) = 3.99943 6.11273 5.16531
#
# Compressibility (1/GPa) = 0.11399040
#
# Stress axis : x y z
#
# Youngs Moduli (GPa) = 58.36573 13.13500 88.13565
#
# Poissons Ratio (x) = -0.15145 0.51622
# Poissons Ratio (y) = -0.67296 0.08671
# Poissons Ratio (z) = 0.34185 0.01292
#
# Static dielectric constant tensor:
#      x y z
#    x 1.687820 0.000950 -0.008540 
#    y 0.000950 1.689300 0.006370 
#    z -0.008540 0.006370 1.774590 
# 
# From -- ./inp_files/244710.got.cif
#   From: 2010.05.17/outbox.cif.g08.bks.cpg/sg2_123_cif.got.tgz:244710.got - 2010.06.03 11:33:40.
