data_PCOD9021248
_publ_section_title
;
Structure prediction by ZEFSAII (Michael W. Deem and Ramdas Pophale) SiO2 
 PCOD9021248
Probable space group: P -1
;
_chemical_formula_sum "Si O2"
_cell_formula_units_Z 16
_cell_length_a 5.577811
_cell_length_b 17.933000
_cell_length_c 9.182684
_cell_angle_alpha 79.766031
_cell_angle_beta 122.323321
_cell_angle_gamma 124.641559
_cell_volume 627.965667
_symmetry_space_group_name_H-M "P -1"
_symmetry_group_IT_number 2
_symmetry_cell_setting 'triclinic'
loop_
_space_group_symop_operation_xyz
x,y,z
-x,-y,-z
loop_
_atom_site_type_symbol
_atom_site_label
_atom_site_fract_x
_atom_site_fract_y
_atom_site_fract_z
Si Si1 0.288878 0.736545 0.047053
Si Si2 0.671213 0.742734 0.770206
Si Si3 0.499706 0.439948 0.653545
Si Si4 0.010209 0.443639 0.660182
Si Si5 0.747057 0.103992 0.489137
Si Si6 0.516470 0.199792 0.596877
Si Si7 0.720574 0.893735 0.909752
Si Si8 0.214111 0.591848 0.891491
O O1 0.269267 0.748243 0.207191
O O2 0.567266 0.832962 0.026486
O O3 0.365230 0.660801 0.053366
O O4 0.925201 0.709941 0.871291
O O5 0.563462 0.753143 0.574160
O O6 0.850669 0.841640 0.874690
O O7 0.329365 0.669102 0.776649
O O8 0.500000 0.500000 0.500000
O O9 0.167628 0.393040 0.660010
O O10 0.639195 0.388569 0.634210
O O11 0.811890 0.520530 0.823629
O O12 0.250552 0.519063 0.836849
O O13 0.000000 0.500000 0.500000
O O14 0.706140 0.160325 0.584918
O O15 0.580049 0.115595 0.285057
O O16 0.126945 0.130710 0.562916
O O17 0.500000 0.000000 0.500000
O O18 0.000000 0.000000 0.000000
#
# Coordination Sequence:
#
# PCOD9021248 Si02
#       8
#     2   2   2   2   2   2   2   2
#     4  11  22  38  60  81 118 154 194 245 288 347
#     4  10  22  40  55  84 119 150 195 244 287 351
#     4   8  14  26  46  77 114 143 181 231 276 328
#     4   8  14  26  46  77 116 142 182 233 276 329
#     4  11  23  42  60  85 114 146 192 246 294 357
#     4  11  25  41  59  84 116 152 191 237 298 345
#     4  10  22  38  59  85 113 152 195 246 295 344
#     4   9  19  31  56  83 115 152 195 232 288 343
#
# _framework density 25.479099000000001
#
# number of rings (size 3 to 8) (size 9 to 14) (size 15 to 20)
#    0.750    1.500    1.250    1.875    5.250    1.500 
#    0.000    0.000    0.000    0.000    0.000    1.750 
#    0.000    0.250    0.000    0.000    0.000    0.000 
#
# Total GULP energy -89274.959269 kJ/mol
# GULP energy per Si atom -5579.684954 kJ/mol
# Density = 2.542111 g / cm^3
# Si number density = 25.479099 Si / 1000 Ang^3
#
#
#
# Elastic Constant Matrix: (Units=GPa)
#
#
# Indices 1 2 3 4 5 6 
#
# 1 171.8399 35.9985 33.3244 7.7891 -32.0345 0.2830
# 2 35.9985 83.2693 28.1179 10.7818 -14.8137 -10.4471
# 3 33.3244 28.1179 117.6760 -6.3248 -40.6682 -9.9505
# 4 7.7891 10.7818 -6.3248 46.6029 -3.4070 -11.3716
# 5 -32.0345 -14.8137 -40.6682 -3.4070 47.9664 -0.6392
# 6 0.2830 -10.4471 -9.9505 -11.3716 -0.6392 40.8972
#
#
#
# Elastic Compliance Matrix: (Units=1/GPa)
#
#
# Indices 1 2 3 4 5 6 
#
# 1 0.007084 -0.002335 -0.000258 -0.000605 0.003737 -0.000818
# 2 -0.002335 0.014648 -0.002566 -0.002719 0.000628 0.002388
# 3 -0.000258 -0.002566 0.013488 0.004228 0.010824 0.003973
# 4 -0.000605 -0.002719 0.004228 0.024854 0.004204 0.007315
# 5 0.003737 0.000628 0.010824 0.004204 0.033073 0.004454
# 6 -0.000818 0.002388 0.003973 0.007315 0.004454 0.028137
#
#
# Mechanical properties :
#
#
# Convention : Reuss Voigt Hill
#
# Bulk Modulus (GPa) = 40.15810 63.07408 51.61609
# Shear Modulus (GPa) = 35.73879 45.44961 40.59420
#
# Velocity S-wave (km/s) = 3.74929 4.22809 3.99587
# Velocity P-wave (km/s) = 5.87693 6.97457 6.44914
#
# Compressibility (1/GPa) = 0.02490158
#
# Stress axis : x y z
#
# Youngs Moduli (GPa) = 141.16250 68.26720 74.13873
#
# Poissons Ratio (x) = 0.15938 0.01916
# Poissons Ratio (y) = 0.32957 0.19026
# Poissons Ratio (z) = 0.03649 0.17520
#
# Static dielectric constant tensor:
#      x y z
#    x 2.032370 -0.031700 0.086420 
#    y -0.031700 1.967460 -0.020540 
#    z 0.086420 -0.020540 2.079940 
# 
# From -- ./inp_files/50675.got.cif
#   From: 2010.05.17/outbox.cif.g08.bks.cpg/sg2_26_cif.got.tgz:50675.got - 2010.06.03 11:33:40.
