data_PCOD9021590
_publ_section_title
;
Structure prediction by ZEFSAII (Michael W. Deem and Ramdas Pophale) SiO2 
 PCOD9021590
Probable space group: P -1
;
_chemical_formula_sum "Si O2"
_cell_formula_units_Z 14
_cell_length_a 5.996912
_cell_length_b 14.149066
_cell_length_c 20.874224
_cell_angle_alpha 157.702758
_cell_angle_beta 102.899573
_cell_angle_gamma 74.383579
_cell_volume 645.585720
_symmetry_space_group_name_H-M "P -1"
_symmetry_group_IT_number 2
_symmetry_cell_setting 'triclinic'
loop_
_space_group_symop_operation_xyz
x,y,z
-x,-y,-z
loop_
_atom_site_type_symbol
_atom_site_label
_atom_site_fract_x
_atom_site_fract_y
_atom_site_fract_z
Si Si1 0.343394 0.527041 0.070249
Si Si2 0.877851 0.931802 0.198048
Si Si3 0.467272 0.664579 0.509639
Si Si4 0.781632 0.271284 0.007061
Si Si5 0.832622 0.794147 0.360984
Si Si6 0.615478 0.947976 0.576828
Si Si7 0.563455 0.847971 0.765812
O O1 0.525488 0.428838 0.076870
O O2 0.243687 0.821529 0.257306
O O3 0.500000 0.500000 0.000000
O O4 0.176488 0.322354 0.932537
O O5 0.785169 0.162843 0.384519
O O6 0.696819 0.004451 0.172063
O O7 0.123014 0.869912 0.140610
O O8 0.587135 0.772240 0.524708
O O9 0.610190 0.707463 0.610842
O O10 0.438787 0.373760 0.322844
O O11 0.928098 0.496606 0.169310
O O12 0.737919 0.046755 0.910532
O O13 0.714423 0.804332 0.429655
O O14 0.640081 0.902246 0.363698
O O15 0.000000 0.000000 0.500000
#
# Coordination Sequence:
#
# PCOD9021590 Si02
#       7
#     2   2   2   2   2   2   2
#     4  10  17  31  49  79 105 125 164 211 264 312
#     4   9  17  30  50  78 106 129 160 207 254 311
#     4   9  17  36  54  80 106 134 162 210 265 310
#     4  10  19  32  53  74 100 140 170 207 258 300
#     4  10  22  37  51  73 101 142 178 212 247 295
#     4  10  19  36  54  72 106 137 171 210 253 305
#     4   8  18  35  53  81 107 129 166 208 265 311
#
# _framework density 21.685735000000001
#
# number of rings (size 3 to 8) (size 9 to 14) (size 15 to 20)
#    0.857    1.714    1.429    0.857    0.000    2.286 
#    5.143    0.714    0.000    1.714    0.000    0.000 
#    0.000    0.000    0.000    0.000    0.000    0.000 
#
# Total GULP energy -77955.705110 kJ/mol
# GULP energy per Si atom -5568.264651 kJ/mol
# Density = 2.163638 g / cm^3
# Si number density = 21.685735 Si / 1000 Ang^3
#
#
#
# Elastic Constant Matrix: (Units=GPa)
#
#
# Indices 1 2 3 4 5 6 
#
# 1 35.6429 10.1813 27.0842 19.1555 12.7565 5.1522
# 2 10.1813 80.3772 46.0507 30.0467 4.2755 21.0813
# 3 27.0842 46.0507 132.8031 43.1476 23.9592 12.2048
# 4 19.1555 30.0467 43.1476 41.5130 9.6351 9.1423
# 5 12.7565 4.2755 23.9592 9.6351 34.7638 1.8079
# 6 5.1522 21.0813 12.2048 9.1423 1.8079 22.3117
#
#
#
# Elastic Compliance Matrix: (Units=1/GPa)
#
#
# Indices 1 2 3 4 5 6 
#
# 1 0.041534 0.003912 -0.002436 -0.016315 -0.009286 -0.004517
# 2 0.003912 0.022228 -0.003970 -0.010921 0.002397 -0.015454
# 3 -0.002436 -0.003970 0.013041 -0.008577 -0.005287 0.001123
# 4 -0.016315 -0.010921 -0.008577 0.048744 -0.000207 -0.001179
# 5 -0.009286 0.002397 -0.005287 -0.000207 0.035581 -0.000027
# 6 -0.004517 -0.015454 0.001123 -0.001179 -0.000027 0.060335
#
#
# Mechanical properties :
#
#
# Convention : Reuss Voigt Hill
#
# Bulk Modulus (GPa) = 13.92450 46.16173 30.04312
# Shear Modulus (GPa) = 19.96893 30.75149 25.36021
#
# Velocity S-wave (km/s) = 3.03781 3.76979 3.42342
# Velocity P-wave (km/s) = 4.32890 6.34675 5.43234
#
# Compressibility (1/GPa) = 0.07181587
#
# Stress axis : x y z
#
# Youngs Moduli (GPa) = 24.07648 44.98760 76.68396
#
# Poissons Ratio (x) = -0.17600 0.18680
# Poissons Ratio (y) = -0.09419 0.30442
# Poissons Ratio (z) = 0.05865 0.17859
#
# Static dielectric constant tensor:
#      x y z
#    x 1.877140 -0.054340 0.058250 
#    y -0.054340 1.811220 -0.020980 
#    z 0.058250 -0.020980 1.860400 
# 
# From -- ./inp_files/80086.got.cif
#   From: 2010.05.17/outbox.cif.g08.bks.cpg/sg2_41_cif.got.tgz:80086.got - 2010.06.03 11:33:40.
