data_PCOD9021076
_publ_section_title
;
Structure prediction by ZEFSAII (Michael W. Deem and Ramdas Pophale) SiO2 
 PCOD9021076
Probable space group: P -1
;
_chemical_formula_sum "Si O2"
_cell_formula_units_Z 16
_cell_length_a 13.239781
_cell_length_b 8.737533
_cell_length_c 13.946542
_cell_angle_alpha 28.834645
_cell_angle_beta 110.986274
_cell_angle_gamma 108.816181
_cell_volume 726.352405
_symmetry_space_group_name_H-M "P -1"
_symmetry_group_IT_number 2
_symmetry_cell_setting 'triclinic'
loop_
_space_group_symop_operation_xyz
x,y,z
-x,-y,-z
loop_
_atom_site_type_symbol
_atom_site_label
_atom_site_fract_x
_atom_site_fract_y
_atom_site_fract_z
Si Si1 0.705581 0.182878 0.938128
Si Si2 0.466080 0.347646 0.470699
Si Si3 0.125350 0.071015 0.024373
Si Si4 0.103072 0.751012 0.399817
Si Si5 0.867408 0.662453 0.771132
Si Si6 0.926227 0.287760 0.275401
Si Si7 0.737643 0.887224 0.413282
Si Si8 0.683962 0.557007 0.380820
O O1 0.610340 0.399502 0.746385
O O2 0.782733 0.389768 0.922144
O O3 0.787067 0.066219 0.944789
O O4 0.655038 0.884796 0.140267
O O5 0.500000 0.500000 0.500000
O O6 0.384423 0.050864 0.626373
O O7 0.581063 0.317591 0.474501
O O8 0.127067 0.454663 0.815450
O O9 0.134516 0.910080 0.220637
O O10 0.000000 0.000000 0.000000
O O11 0.209085 0.560964 0.568246
O O12 0.000000 0.500000 0.500000
O O13 0.099890 0.042481 0.312915
O O14 0.802686 0.774123 0.591847
O O15 0.983116 0.523194 0.858341
O O16 0.824278 0.143006 0.264967
O O17 0.000000 0.000000 0.500000
O O18 0.719367 0.640804 0.456107
#
# Coordination Sequence:
#
# PCOD9021076 Si02
#       8
#     2   2   2   2   2   2   2   2
#     4  11  23  41  66  98 128 169 218 266 321 386
#     4   9  19  41  68  92 123 170 216 266 318 385
#     4  12  25  41  62  94 135 172 214 269 322 392
#     4  12  27  41  63  99 134 172 217 264 327 386
#     4  10  22  40  62  90 133 166 211 261 323 382
#     4  10  22  37  66  89 130 169 214 257 329 378
#     4   9  20  38  65  90 120 166 212 258 322 373
#     4  11  23  40  69  93 129 168 221 263 323 386
#
# _framework density 22.027874000000001
#
# number of rings (size 3 to 8) (size 9 to 14) (size 15 to 20)
#    0.000    1.500    1.250    4.125   10.500    0.500 
#    0.000    2.500    2.750    2.250    0.000    0.000 
#    0.000    0.000    0.000    0.000    0.000    0.000 
#
# Total GULP energy -89082.075884 kJ/mol
# GULP energy per Si atom -5567.629743 kJ/mol
# Density = 2.197774 g / cm^3
# Si number density = 22.027874 Si / 1000 Ang^3
#
#
#
# Elastic Constant Matrix: (Units=GPa)
#
#
# Indices 1 2 3 4 5 6 
#
# 1 135.3810 49.5485 1.1900 -6.3567 2.3976 36.9072
# 2 49.5485 97.6001 32.1032 -2.4392 0.8164 8.2657
# 3 1.1900 32.1032 66.9605 13.4301 5.1895 -2.4251
# 4 -6.3567 -2.4392 13.4301 32.5151 -9.4801 -6.8873
# 5 2.3976 0.8164 5.1895 -9.4801 27.3374 -6.1140
# 6 36.9072 8.2657 -2.4251 -6.8873 -6.1140 45.0351
#
#
#
# Elastic Compliance Matrix: (Units=1/GPa)
#
#
# Indices 1 2 3 4 5 6 
#
# 1 0.012457 -0.006718 0.003638 -0.003092 -0.004872 -0.009914
# 2 -0.006718 0.016486 -0.009183 0.005811 0.004639 0.003503
# 3 0.003638 -0.009183 0.022431 -0.012699 -0.009448 -0.003313
# 4 -0.003092 0.005811 -0.012699 0.043818 0.019984 0.010198
# 5 -0.004872 0.004639 -0.009448 0.019984 0.048332 0.012250
# 6 -0.009914 0.003503 -0.003313 0.010198 0.012250 0.032731
#
#
# Mechanical properties :
#
#
# Convention : Reuss Voigt Hill
#
# Bulk Modulus (GPa) = 37.24438 51.73612 44.49025
# Shear Modulus (GPa) = 23.84003 35.45082 29.64542
#
# Velocity S-wave (km/s) = 3.29335 4.01604 3.67251
# Velocity P-wave (km/s) = 5.60411 6.71136 6.18258
#
# Compressibility (1/GPa) = 0.02684969
#
# Stress axis : x y z
#
# Youngs Moduli (GPa) = 80.27590 60.65611 44.58044
#
# Poissons Ratio (x) = 0.40746 -0.16218
# Poissons Ratio (y) = 0.53925 0.40938
# Poissons Ratio (z) = -0.29203 0.55700
#
# Static dielectric constant tensor:
#      x y z
#    x 1.880690 -0.061700 -0.061730 
#    y -0.061700 1.835090 0.039570 
#    z -0.061730 0.039570 1.935180 
# 
# From -- ./inp_files/505477.got.cif
#   From: 2010.05.17/outbox.cif.g08.bks.cpg/sg2_253_cif.got.tgz:505477.got - 2010.06.03 11:33:40.
