data_PCOD9021920
_publ_section_title
;
Structure prediction by ZEFSAII (Michael W. Deem and Ramdas Pophale) SiO2 
 PCOD9021920
Probable space group: P -1
;
_chemical_formula_sum "Si O2"
_cell_formula_units_Z 16
_cell_length_a 12.473587
_cell_length_b 7.864848
_cell_length_c 9.870959
_cell_angle_alpha 70.539403
_cell_angle_beta 64.059467
_cell_angle_gamma 42.806625
_cell_volume 591.616028
_symmetry_space_group_name_H-M "P -1"
_symmetry_group_IT_number 2
_symmetry_cell_setting 'triclinic'
loop_
_space_group_symop_operation_xyz
x,y,z
-x,-y,-z
loop_
_atom_site_type_symbol
_atom_site_label
_atom_site_fract_x
_atom_site_fract_y
_atom_site_fract_z
Si Si1 0.797872 0.067801 0.767804
Si Si2 0.121824 0.144560 0.691460
Si Si3 0.843672 0.633591 0.948487
Si Si4 0.640160 0.226362 0.563607
Si Si5 0.744811 0.496716 0.711683
Si Si6 0.745506 0.629647 0.369827
Si Si7 0.503265 0.960454 0.208384
Si Si8 0.117322 0.757342 0.849662
O O1 0.797180 0.128078 0.593036
O O2 0.679102 0.360360 0.801174
O O3 0.933993 0.957666 0.838829
O O4 0.829563 0.818518 0.808664
O O5 0.133458 0.324007 0.710506
O O6 0.940538 0.317846 0.680337
O O7 0.268069 0.990013 0.540693
O O8 0.164291 0.914640 0.807823
O O9 0.660492 0.845028 0.062197
O O10 0.859290 0.398978 0.994447
O O11 0.000000 0.500000 0.000000
O O12 0.500000 0.500000 0.500000
O O13 0.552210 0.190168 0.734253
O O14 0.729125 0.570636 0.543566
O O15 0.640156 0.743429 0.795853
O O16 0.574984 0.886675 0.339934
O O17 0.792726 0.429820 0.282322
#
# Coordination Sequence:
#
# PCOD9021920 Si02
#       8
#     2   2   2   2   2   2   2   2
#     4  10  22  38  67  85 126 174 206 263 321 357
#     4  11  23  38  65  95 132 167 204 261 328 381
#     4   9  20  44  67  86 120 171 216 266 312 366
#     4  12  24  38  62  97 126 166 215 256 316 391
#     4  11  22  38  59  97 130 160 210 259 319 391
#     4  11  21  38  64  90 133 171 196 264 328 369
#     4  11  24  38  61  93 128 160 216 261 310 385
#     4   9  20  40  66  97 120 165 227 250 306 395
#
# _framework density 27.044568000000002
#
# number of rings (size 3 to 8) (size 9 to 14) (size 15 to 20)
#    0.000    1.500    1.250    4.500    3.500    3.000 
#    0.000    0.000    5.500    9.750    0.000    0.000 
#    0.000    0.000    0.000    0.000    0.000    0.000 
#
# Total GULP energy -89140.463646 kJ/mol
# GULP energy per Si atom -5571.278978 kJ/mol
# Density = 2.698301 g / cm^3
# Si number density = 27.044568 Si / 1000 Ang^3
#
#
#
# Elastic Constant Matrix: (Units=GPa)
#
#
# Indices 1 2 3 4 5 6 
#
# 1 58.8550 44.7132 32.3382 -20.7397 7.5398 5.6029
# 2 44.7132 186.5609 60.3290 -33.2746 -2.7427 19.9866
# 3 32.3382 60.3290 79.6045 -38.7942 9.1052 6.1850
# 4 -20.7397 -33.2746 -38.7942 56.4141 6.3004 8.0407
# 5 7.5398 -2.7427 9.1052 6.3004 37.7822 -15.5384
# 6 5.6029 19.9866 6.1850 8.0407 -15.5384 50.1440
#
#
#
# Elastic Compliance Matrix: (Units=1/GPa)
#
#
# Indices 1 2 3 4 5 6 
#
# 1 0.024976 -0.003443 -0.003314 0.006288 -0.007236 -0.004260
# 2 -0.003443 0.007909 -0.004387 0.000480 0.001480 -0.001845
# 3 -0.003314 -0.004387 0.028245 0.018241 -0.012916 -0.008292
# 4 0.006288 0.000480 0.018241 0.036925 -0.017765 -0.014570
# 5 -0.007236 0.001480 -0.012916 -0.017765 0.041270 0.017449
# 6 -0.004260 -0.001845 -0.008292 -0.014570 0.017449 0.029920
#
#
# Mechanical properties :
#
#
# Convention : Reuss Voigt Hill
#
# Bulk Modulus (GPa) = 25.74613 66.64236 46.19425
# Shear Modulus (GPa) = 24.45225 41.37740 32.91482
#
# Velocity S-wave (km/s) = 3.01016 3.91573 3.49242
# Velocity P-wave (km/s) = 4.64995 6.71856 5.77759
#
# Compressibility (1/GPa) = 0.03884079
#
# Stress axis : x y z
#
# Youngs Moduli (GPa) = 40.03917 126.43644 35.40498
#
# Poissons Ratio (x) = 0.43529 0.11733
# Poissons Ratio (y) = 0.13785 0.15534
# Poissons Ratio (z) = 0.13269 0.55473
#
# Static dielectric constant tensor:
#      x y z
#    x 2.517330 0.024920 -0.172890 
#    y 0.024920 2.111810 0.044130 
#    z -0.172890 0.044130 2.288210 
# 
# From -- ./inp_files/528154.got.cif
#   From: 2010.05.17/outbox.cif.g08.bks.cpg/sg2_265_cif.got.tgz:528154.got - 2010.06.03 11:33:40.
