data_PCOD9021086
_publ_section_title
;
Structure prediction by ZEFSAII (Michael W. Deem and Ramdas Pophale) SiO2 
 PCOD9021086
Probable space group: P -1
;
_chemical_formula_sum "Si O2"
_cell_formula_units_Z 16
_cell_length_a 11.411791
_cell_length_b 10.869409
_cell_length_c 9.434638
_cell_angle_alpha 120.200313
_cell_angle_beta 129.748440
_cell_angle_gamma 53.384510
_cell_volume 708.036309
_symmetry_space_group_name_H-M "P -1"
_symmetry_group_IT_number 2
_symmetry_cell_setting 'triclinic'
loop_
_space_group_symop_operation_xyz
x,y,z
-x,-y,-z
loop_
_atom_site_type_symbol
_atom_site_label
_atom_site_fract_x
_atom_site_fract_y
_atom_site_fract_z
Si Si1 0.309333 0.608820 0.962176
Si Si2 0.671286 0.623492 0.930307
Si Si3 0.510917 0.765074 0.325898
Si Si4 0.858229 0.459998 0.442340
Si Si5 0.671366 0.151195 0.281160
Si Si6 0.163864 0.158362 0.925617
Si Si7 0.470502 0.042537 0.280107
Si Si8 0.821575 0.364453 0.670224
O O1 0.257672 0.498336 0.958892
O O2 0.345594 0.734604 0.154983
O O3 0.500000 0.500000 0.000000
O O4 0.183788 0.658388 0.761467
O O5 0.472536 0.720816 0.850830
O O6 0.701632 0.522279 0.749328
O O7 0.756612 0.742778 0.047002
O O8 0.680780 0.611541 0.390346
O O9 0.493628 0.869753 0.509860
O O10 0.528284 0.863371 0.262876
O O11 0.888510 0.404677 0.596467
O O12 0.000000 0.500000 0.500000
O O13 0.570588 0.070985 0.244720
O O14 0.738744 0.248674 0.490917
O O15 0.806595 0.007439 0.217515
O O16 0.970487 0.272065 0.840696
O O17 0.274471 0.117130 0.129764
#
# Coordination Sequence:
#
# PCOD9021086 Si02
#       8
#     2   2   2   2   2   2   2   2
#     4  10  22  37  66  95 125 162 217 267 308 372
#     4  11  22  42  68  93 124 172 223 264 312 382
#     4  10  22  41  62  92 122 166 213 261 312 380
#     4  11  24  39  65  94 131 164 208 260 327 378
#     4  11  23  39  66  95 126 168 216 265 319 380
#     4  11  25  39  65  95 131 166 210 268 328 377
#     4  10  22  40  66  87 126 166 213 259 315 387
#     4  12  25  43  65  97 133 168 214 271 321 383
#
# _framework density 22.597712999999999
#
# number of rings (size 3 to 8) (size 9 to 14) (size 15 to 20)
#    0.000    1.250    0.000    7.125   10.500    1.000 
#    0.000    0.000    0.000    3.750    0.000    0.000 
#    0.000    0.000    0.000    0.000    0.000    0.000 
#
# Total GULP energy -89422.186118 kJ/mol
# GULP energy per Si atom -5588.886632 kJ/mol
# Density = 2.254628 g / cm^3
# Si number density = 22.597713 Si / 1000 Ang^3
#
#
#
# Elastic Constant Matrix: (Units=GPa)
#
#
# Indices 1 2 3 4 5 6 
#
# 1 31.5667 12.2457 6.9518 2.6427 -1.9671 3.5376
# 2 12.2457 91.7282 23.2214 7.1582 2.3167 5.7500
# 3 6.9518 23.2214 100.3115 10.4776 0.6468 -2.0146
# 4 2.6427 7.1582 10.4776 37.1072 4.1051 -3.1774
# 5 -1.9671 2.3167 0.6468 4.1051 37.0550 -4.1477
# 6 3.5376 5.7500 -2.0146 -3.1774 -4.1477 25.2906
#
#
#
# Elastic Compliance Matrix: (Units=1/GPa)
#
#
# Indices 1 2 3 4 5 6 
#
# 1 0.034194 -0.003874 -0.001372 -0.001842 0.001844 -0.003941
# 2 -0.003874 0.012373 -0.002486 -0.001532 -0.001084 -0.002840
# 3 -0.001372 -0.002486 0.010918 -0.002423 0.000314 0.001374
# 4 -0.001842 -0.001532 -0.002423 0.028668 -0.002737 0.003566
# 5 0.001844 -0.001084 0.000314 -0.002737 0.027926 0.004250
# 6 -0.003941 -0.002840 0.001374 0.003566 0.004250 0.041992
#
#
# Mechanical properties :
#
#
# Convention : Reuss Voigt Hill
#
# Bulk Modulus (GPa) = 23.79615 34.27159 29.03387
# Shear Modulus (GPa) = 26.94821 31.96972 29.45897
#
# Velocity S-wave (km/s) = 3.45703 3.76537 3.61449
# Velocity P-wave (km/s) = 5.14665 5.83977 5.50413
#
# Compressibility (1/GPa) = 0.04202360
#
# Stress axis : x y z
#
# Youngs Moduli (GPa) = 29.24453 80.82021 91.59119
#
# Poissons Ratio (x) = 0.31306 0.12563
# Poissons Ratio (y) = 0.11328 0.22768
# Poissons Ratio (z) = 0.04011 0.20091
#
# Static dielectric constant tensor:
#      x y z
#    x 1.837570 0.020370 -0.017170 
#    y 0.020370 1.841290 0.033730 
#    z -0.017170 0.033730 1.900410 
# 
# From -- ./inp_files/263157.got.cif
#   From: 2010.05.17/outbox.cif.g08.bks.cpg/sg2_132_cif.got.tgz:263157.got - 2010.06.03 11:33:40.
