data_PCOD9021299
_publ_section_title
;
Structure prediction by ZEFSAII (Michael W. Deem and Ramdas Pophale) SiO2 
 PCOD9021299
Probable space group: P -1
;
_chemical_formula_sum "Si O2"
_cell_formula_units_Z 16
_cell_length_a 20.210687
_cell_length_b 10.681403
_cell_length_c 8.404644
_cell_angle_alpha 84.253546
_cell_angle_beta 131.367933
_cell_angle_gamma 132.123096
_cell_volume 795.211085
_symmetry_space_group_name_H-M "P -1"
_symmetry_group_IT_number 2
_symmetry_cell_setting 'triclinic'
loop_
_space_group_symop_operation_xyz
x,y,z
-x,-y,-z
loop_
_atom_site_type_symbol
_atom_site_label
_atom_site_fract_x
_atom_site_fract_y
_atom_site_fract_z
Si Si1 0.238470 0.693839 0.821431
Si Si2 0.578705 0.223283 0.646976
Si Si3 0.755981 0.525977 0.586207
Si Si4 0.524951 0.837485 0.982120
Si Si5 0.972208 0.454250 0.220079
Si Si6 0.533541 0.470853 0.223522
Si Si7 0.590885 0.779162 0.427489
Si Si8 0.926163 0.220876 0.890567
O O1 0.155855 0.672507 0.837482
O O2 0.104973 0.528069 0.503768
O O3 0.317936 0.674079 0.045359
O O4 0.371804 0.927273 0.924996
O O5 0.684805 0.386725 0.651138
O O6 0.462713 0.199122 0.512662
O O7 0.500000 0.000000 0.500000
O O8 0.652496 0.344386 0.306002
O O9 0.702676 0.609441 0.481931
O O10 0.929919 0.695874 0.844354
O O11 0.558496 0.765493 0.913469
O O12 0.555085 0.818192 0.205976
O O13 0.039764 0.664706 0.234541
O O14 0.910768 0.311717 0.987494
O O15 0.512605 0.552464 0.312561
O O16 0.500000 0.500000 0.000000
O O17 0.769649 0.968213 0.678297
#
# Coordination Sequence:
#
# PCOD9021299 Si02
#       8
#     2   2   2   2   2   2   2   2
#     4  11  20  37  57  84 123 159 188 235 307 342
#     4  12  23  35  57  90 121 150 198 243 286 350
#     4  10  22  38  60  84 122 149 192 252 286 335
#     4   9  20  38  62  84 112 156 196 238 287 348
#     4  10  23  34  54  86 124 158 188 239 290 366
#     4   8  19  40  61  86 113 148 204 247 283 340
#     4  11  23  38  63  86 115 161 198 239 295 343
#     4  11  22  37  56  86 121 154 196 237 294 349
#
# _framework density 20.120445
#
# number of rings (size 3 to 8) (size 9 to 14) (size 15 to 20)
#    0.750    1.000    3.750    0.750    3.500    1.500 
#    0.000    0.000    0.000    0.000    0.000    7.875 
#    0.000    0.000    0.000    0.000    0.000    0.000 
#
# Total GULP energy -89145.377954 kJ/mol
# GULP energy per Si atom -5571.586122 kJ/mol
# Density = 2.007465 g / cm^3
# Si number density = 20.120445 Si / 1000 Ang^3
#
#
#
# Elastic Constant Matrix: (Units=GPa)
#
#
# Indices 1 2 3 4 5 6 
#
# 1 82.2201 6.2247 8.5113 14.8977 7.2075 -4.7899
# 2 6.2247 19.4042 7.7782 -3.9019 0.2019 -5.8172
# 3 8.5113 7.7782 90.4126 -4.6009 17.4506 8.5974
# 4 14.8977 -3.9019 -4.6009 23.0388 -1.5031 -0.2601
# 5 7.2075 0.2019 17.4506 -1.5031 37.0257 0.9438
# 6 -4.7899 -5.8172 8.5974 -0.2601 0.9438 22.5745
#
#
#
# Elastic Compliance Matrix: (Units=1/GPa)
#
#
# Indices 1 2 3 4 5 6 
#
# 1 0.015136 -0.006004 -0.001117 -0.011193 -0.002895 0.002082
# 2 -0.006004 0.064265 -0.006746 0.013888 0.004107 0.017844
# 3 -0.001117 -0.006746 0.013639 0.001839 -0.005923 -0.006901
# 4 -0.011193 0.013888 0.001839 0.053594 0.003387 0.000979
# 5 -0.002895 0.004107 -0.005923 0.003387 0.030441 0.001466
# 6 0.002082 0.017844 -0.006901 0.000979 0.001466 0.051916
#
#
# Mechanical properties :
#
#
# Convention : Reuss Voigt Hill
#
# Bulk Modulus (GPa) = 15.31274 26.34057 20.82665
# Shear Modulus (GPa) = 17.95372 27.82932 22.89152
#
# Velocity S-wave (km/s) = 2.99040 3.72309 3.37668
# Velocity P-wave (km/s) = 4.42158 5.62154 5.05728
#
# Compressibility (1/GPa) = 0.06530510
#
# Stress axis : x y z
#
# Youngs Moduli (GPa) = 66.06900 15.56058 73.31892
#
# Poissons Ratio (x) = 0.09342 0.08191
# Poissons Ratio (y) = 0.39667 0.49462
# Poissons Ratio (z) = 0.07381 0.10497
#
# Static dielectric constant tensor:
#      x y z
#    x 1.763820 -0.029690 -0.002840 
#    y -0.029690 1.693610 -0.020030 
#    z -0.002840 -0.020030 1.744510 
# 
# From -- ./inp_files/345370.got.cif
#   From: 2010.05.17/outbox.cif.g08.bks.cpg/sg2_173_cif.got.tgz:345370.got - 2010.06.03 11:33:40.
