data_PCOD9021118
_publ_section_title
;
Structure prediction by ZEFSAII (Michael W. Deem and Ramdas Pophale) SiO2 
 PCOD9021118
Probable space group: P -1
;
_chemical_formula_sum "Si O2"
_cell_formula_units_Z 16
_cell_length_a 13.263048
_cell_length_b 26.635498
_cell_length_c 16.064011
_cell_angle_alpha 23.614356
_cell_angle_beta 26.267362
_cell_angle_gamma 24.005637
_cell_volume 860.463048
_symmetry_space_group_name_H-M "P -1"
_symmetry_group_IT_number 2
_symmetry_cell_setting 'triclinic'
loop_
_space_group_symop_operation_xyz
x,y,z
-x,-y,-z
loop_
_atom_site_type_symbol
_atom_site_label
_atom_site_fract_x
_atom_site_fract_y
_atom_site_fract_z
Si Si1 0.380105 0.563956 0.900183
Si Si2 0.927822 0.750489 0.314997
Si Si3 0.745355 0.667334 0.423910
Si Si4 0.787359 0.791251 0.643318
Si Si5 0.159418 0.407557 0.716125
Si Si6 0.503311 0.632774 0.047535
Si Si7 0.600406 0.424973 0.449149
Si Si8 0.256068 0.014605 0.771364
O O1 0.479465 0.674484 0.640195
O O2 0.495218 0.449106 0.913190
O O3 0.500000 0.500000 0.000000
O O4 0.070963 0.618753 0.043334
O O5 0.803363 0.764048 0.295927
O O6 0.747548 0.873926 0.326700
O O7 0.019321 0.584582 0.531326
O O8 0.195759 0.755903 0.099603
O O9 0.732262 0.683979 0.309953
O O10 0.000000 0.500000 0.500000
O O11 0.781626 0.909756 0.405235
O O12 0.088065 0.694784 0.597919
O O13 0.549170 0.868915 0.769439
O O14 0.705442 0.689837 0.806962
O O15 0.402262 0.369080 0.655328
O O16 0.569239 0.534147 0.231353
O O17 0.500000 0.500000 0.500000
O O18 0.000000 0.000000 0.000000
#
# Coordination Sequence:
#
# PCOD9021118 Si02
#       8
#     2   2   2   2   2   2   2   2
#     4  12  18  29  55  85 118 151 175 226 303 352
#     4  10  17  33  55  78 114 146 178 240 283 333
#     4  10  17  31  48  82 116 140 184 228 292 343
#     4  11  24  38  59  82 114 158 197 235 291 347
#     4  10  20  34  51  85 119 144 182 236 294 347
#     4  11  20  35  57  88 122 144 189 239 291 356
#     4  11  22  38  58  84 122 159 187 237 301 349
#     4  11  23  41  57  81 114 155 203 245 279 335
#
# _framework density 18.594639000000001
#
# number of rings (size 3 to 8) (size 9 to 14) (size 15 to 20)
#    0.000    1.250    7.500    3.375    0.000    0.000 
#    0.000    0.000    0.000    0.750    0.000    1.750 
#    0.000    0.000    0.000    0.000    0.000    0.000 
#
# Total GULP energy -89172.177354 kJ/mol
# GULP energy per Si atom -5573.261085 kJ/mol
# Density = 1.855232 g / cm^3
# Si number density = 18.594639 Si / 1000 Ang^3
#
#
#
# Elastic Constant Matrix: (Units=GPa)
#
#
# Indices 1 2 3 4 5 6 
#
# 1 120.3501 68.2092 22.7075 16.5216 -19.5656 11.7549
# 2 68.2092 89.7416 27.4260 24.5892 -10.4530 8.2685
# 3 22.7075 27.4260 88.5171 31.9256 -15.3913 -15.0390
# 4 16.5216 24.5892 31.9256 29.9651 -3.2267 -7.0794
# 5 -19.5656 -10.4530 -15.3913 -3.2267 34.0360 14.8102
# 6 11.7549 8.2685 -15.0390 -7.0794 14.8102 29.8402
#
#
#
# Elastic Compliance Matrix: (Units=1/GPa)
#
#
# Indices 1 2 3 4 5 6 
#
# 1 0.017130 -0.010284 -0.000393 -0.001755 0.010597 -0.009772
# 2 -0.010284 0.024595 0.000085 -0.016189 0.003827 -0.008461
# 3 -0.000393 0.000085 0.020019 -0.019940 0.005834 0.002594
# 4 -0.001755 -0.016189 -0.019940 0.071914 -0.017198 0.020724
# 5 0.010597 0.003827 0.005834 -0.017198 0.051565 -0.031967
# 6 -0.009772 -0.008461 0.002594 0.020724 -0.031967 0.061796
#
#
# Mechanical properties :
#
#
# Convention : Reuss Voigt Hill
#
# Bulk Modulus (GPa) = 24.65534 59.47712 42.06623
# Shear Modulus (GPa) = 17.74787 30.78601 24.26694
#
# Velocity S-wave (km/s) = 3.09279 4.07337 3.61647
# Velocity P-wave (km/s) = 5.10313 7.36062 6.33327
#
# Compressibility (1/GPa) = 0.04055917
#
# Stress axis : x y z
#
# Youngs Moduli (GPa) = 58.37699 40.65817 49.95291
#
# Poissons Ratio (x) = 0.41815 0.01962
# Poissons Ratio (y) = 0.60038 -0.00423
# Poissons Ratio (z) = 0.02292 -0.00344
#
# Static dielectric constant tensor:
#      x y z
#    x 1.723760 0.023620 0.023600 
#    y 0.023620 1.685540 0.012400 
#    z 0.023600 0.012400 1.671060 
# 
# From -- ./inp_files/454723.got.cif
#   From: 2010.05.17/outbox.cif.g08.bks.cpg/sg2_228_cif.got.tgz:454723.got - 2010.06.03 11:33:40.
