data_PCOD9021802
_publ_section_title
;
Structure prediction by ZEFSAII (Michael W. Deem and Ramdas Pophale) SiO2 
 PCOD9021802
Probable space group: P -1
;
_chemical_formula_sum "Si O2"
_cell_formula_units_Z 16
_cell_length_a 8.819224
_cell_length_b 9.637725
_cell_length_c 16.278594
_cell_angle_alpha 143.623391
_cell_angle_beta 111.960423
_cell_angle_gamma 82.049025
_cell_volume 726.994148
_symmetry_space_group_name_H-M "P -1"
_symmetry_group_IT_number 2
_symmetry_cell_setting 'triclinic'
loop_
_space_group_symop_operation_xyz
x,y,z
-x,-y,-z
loop_
_atom_site_type_symbol
_atom_site_label
_atom_site_fract_x
_atom_site_fract_y
_atom_site_fract_z
Si Si1 0.657503 0.053083 0.245610
Si Si2 0.725183 0.759764 0.970472
Si Si3 0.114824 0.997201 0.165919
Si Si4 0.198585 0.730918 0.197641
Si Si5 0.581808 0.654145 0.712884
Si Si6 0.442490 0.911413 0.581177
Si Si7 0.137609 0.006603 0.461192
Si Si8 0.048600 0.271951 0.436550
O O1 0.592486 0.284394 0.316547
O O2 0.561134 0.976177 0.275141
O O3 0.855516 0.100018 0.331530
O O4 0.636724 0.882366 0.080155
O O5 0.759558 0.519580 0.900186
O O6 0.614331 0.686697 0.831785
O O7 0.916694 0.934347 0.068626
O O8 0.260838 0.136895 0.198944
O O9 0.133081 0.177802 0.332777
O O10 0.137332 0.761501 0.107161
O O11 0.374061 0.948403 0.349885
O O12 0.085587 0.794407 0.278791
O O13 0.583614 0.380851 0.558330
O O14 0.298639 0.967678 0.522758
O O15 0.154782 0.256118 0.531758
O O16 0.000000 0.000000 0.500000
O O17 0.000000 0.500000 0.500000
#
# Coordination Sequence:
#
# PCOD9021802 Si02
#       8
#     2   2   2   2   2   2   2   2
#     4  11  24  42  66 100 135 181 223 276 338 398
#     4  11  25  45  67  95 141 177 229 276 333 408
#     4  10  23  42  66  94 131 181 225 270 337 404
#     4  11  24  44  69  99 135 179 223 277 345 399
#     4  12  24  44  71  99 136 176 230 281 338 399
#     4  12  24  43  71 103 136 176 227 281 340 398
#     4  11  23  41  65 100 135 169 224 279 332 393
#     4  10  22  38  65  96 135 172 221 279 335 392
#
# _framework density 22.008431999999999
#
# number of rings (size 3 to 8) (size 9 to 14) (size 15 to 20)
#    0.000    1.000    3.750    2.625    3.500    0.500 
#    0.000    0.000    0.000    0.000    0.000    0.000 
#    0.000    0.000    0.000    0.000    0.000    0.000 
#
# Total GULP energy -89296.208634 kJ/mol
# GULP energy per Si atom -5581.013040 kJ/mol
# Density = 2.195834 g / cm^3
# Si number density = 22.008432 Si / 1000 Ang^3
#
#
#
# Elastic Constant Matrix: (Units=GPa)
#
#
# Indices 1 2 3 4 5 6 
#
# 1 83.2586 41.5875 43.9153 -7.0525 -24.3003 -14.6761
# 2 41.5875 133.1428 33.1962 0.3783 -15.8425 -22.8963
# 3 43.9153 33.1962 61.6733 -7.7341 -10.3965 4.7797
# 4 -7.0525 0.3783 -7.7341 27.9242 -2.7284 -2.6689
# 5 -24.3003 -15.8425 -10.3965 -2.7284 31.6568 -9.8548
# 6 -14.6761 -22.8963 4.7797 -2.6689 -9.8548 44.6198
#
#
#
# Elastic Compliance Matrix: (Units=1/GPa)
#
#
# Indices 1 2 3 4 5 6 
#
# 1 0.035568 0.001394 -0.022043 0.007653 0.028095 0.021438
# 2 0.001394 0.010916 -0.006335 -0.000072 0.007026 0.008286
# 3 -0.022043 -0.006335 0.034414 0.001029 -0.014065 -0.017232
# 4 0.007653 -0.000072 0.001029 0.039901 0.011915 0.007388
# 5 0.028095 0.007026 -0.014065 0.011915 0.062033 0.028766
# 6 0.021438 0.008286 -0.017232 0.007388 0.028766 0.042356
#
#
# Mechanical properties :
#
#
# Convention : Reuss Voigt Hill
#
# Bulk Modulus (GPa) = 37.13316 57.27475 47.20395
# Shear Modulus (GPa) = 17.35310 31.46519 24.40914
#
# Velocity S-wave (km/s) = 2.81103 3.78522 3.33390
# Velocity P-wave (km/s) = 5.23877 6.72193 6.02615
#
# Compressibility (1/GPa) = 0.02693011
#
# Stress axis : x y z
#
# Youngs Moduli (GPa) = 28.11495 91.60931 29.05793
#
# Poissons Ratio (x) = -0.12770 0.64052
# Poissons Ratio (y) = -0.03919 0.18408
# Poissons Ratio (z) = 0.61974 0.58035
#
# Static dielectric constant tensor:
#      x y z
#    x 1.825960 -0.023840 0.027660 
#    y -0.023840 2.020150 0.052110 
#    z 0.027660 0.052110 1.817770 
# 
# From -- ./inp_files/262136.got.cif
#   From: 2010.05.17/outbox.cif.g08.bks.cpg/sg2_132_cif.got.tgz:262136.got - 2010.06.03 11:33:40.
