data_PCOD9021307
_publ_section_title
;
Structure prediction by ZEFSAII (Michael W. Deem and Ramdas Pophale) SiO2 
 PCOD9021307
Probable space group: P -1
;
_chemical_formula_sum "Si O2"
_cell_formula_units_Z 14
_cell_length_a 10.749347
_cell_length_b 9.095098
_cell_length_c 7.789847
_cell_angle_alpha 130.234190
_cell_angle_beta 102.751203
_cell_angle_gamma 84.914409
_cell_volume 565.574576
_symmetry_space_group_name_H-M "P -1"
_symmetry_group_IT_number 2
_symmetry_cell_setting 'triclinic'
loop_
_space_group_symop_operation_xyz
x,y,z
-x,-y,-z
loop_
_atom_site_type_symbol
_atom_site_label
_atom_site_fract_x
_atom_site_fract_y
_atom_site_fract_z
Si Si1 0.358841 0.024452 0.413686
Si Si2 0.717173 0.742823 0.000517
Si Si3 0.354442 0.458843 0.862656
Si Si4 0.973133 0.277545 0.379852
Si Si5 0.236976 0.836702 0.530181
Si Si6 0.561087 0.332592 0.280370
Si Si7 0.820396 0.934318 0.868969
O O1 0.273053 0.856953 0.358034
O O2 0.500000 0.000000 0.500000
O O3 0.340887 0.242602 0.624741
O O4 0.319143 0.015256 0.197889
O O5 0.567769 0.763097 0.921000
O O6 0.798319 0.756887 0.861854
O O7 0.723820 0.565199 0.999724
O O8 0.770602 0.939391 0.253843
O O9 0.346564 0.589038 0.788947
O O10 0.500000 0.500000 0.000000
O O11 0.893116 0.272399 0.527610
O O12 0.000000 0.500000 0.500000
O O13 0.099364 0.156651 0.327583
O O14 0.889529 0.130836 0.114159
O O15 0.353679 0.769716 0.631531
O O16 0.500000 0.500000 0.500000
#
# Coordination Sequence:
#
# PCOD9021307 Si02
#       7
#     2   2   2   2   2   2   2
#     4  11  22  40  63  97 134 166 208 265 334 406
#     4   9  19  37  58  85 122 169 205 261 329 394
#     4   9  20  34  54  90 130 166 202 253 318 395
#     4  10  24  44  68  92 125 174 234 274 318 380
#     4  10  22  38  60  87 124 168 213 260 325 390
#     4  11  20  32  58  92 126 165 208 264 330 385
#     4  10  22  43  70  92 128 177 218 271 332 384
#
# _framework density 24.753588000000001
#
# number of rings (size 3 to 8) (size 9 to 14) (size 15 to 20)
#    0.000    2.000    0.000    3.000    4.000    6.286 
#    0.000    0.714    0.000    0.000    0.000    0.000 
#    0.000    0.000    0.000    0.000    0.000    0.000 
#
# Total GULP energy -78095.878438 kJ/mol
# GULP energy per Si atom -5578.277031 kJ/mol
# Density = 2.469725 g / cm^3
# Si number density = 24.753588 Si / 1000 Ang^3
#
#
#
# Elastic Constant Matrix: (Units=GPa)
#
#
# Indices 1 2 3 4 5 6 
#
# 1 71.0284 25.4220 19.1158 10.7932 6.2991 18.8567
# 2 25.4220 141.2542 42.7348 8.4903 -2.0699 40.0781
# 3 19.1158 42.7348 56.1029 14.7509 14.2488 -0.4070
# 4 10.7932 8.4903 14.7509 39.3828 -1.1348 5.1839
# 5 6.2991 -2.0699 14.2488 -1.1348 27.3709 1.5903
# 6 18.8567 40.0781 -0.4070 5.1839 1.5903 46.6119
#
#
#
# Elastic Compliance Matrix: (Units=1/GPa)
#
#
# Indices 1 2 3 4 5 6 
#
# 1 0.017834 0.001149 -0.006525 -0.001636 -0.000220 -0.008070
# 2 0.001149 0.016267 -0.016944 0.004880 0.010890 -0.015514
# 3 -0.006525 -0.016944 0.042796 -0.013899 -0.023793 0.019939
# 4 -0.001636 0.004880 -0.013899 0.031256 0.009710 -0.007463
# 5 -0.000220 0.010890 -0.023793 0.009710 0.050913 -0.012299
# 6 -0.008070 -0.015514 0.019939 -0.007463 -0.012299 0.039481
#
#
# Mechanical properties :
#
#
# Convention : Reuss Voigt Hill
#
# Bulk Modulus (GPa) = 30.99998 49.21452 40.10725
# Shear Modulus (GPa) = 19.68986 34.74732 27.21859
#
# Velocity S-wave (km/s) = 2.82340 3.75070 3.31959
# Velocity P-wave (km/s) = 4.81450 6.21948 5.56154
#
# Compressibility (1/GPa) = 0.03225809
#
# Stress axis : x y z
#
# Youngs Moduli (GPa) = 56.07247 61.47527 23.36677
#
# Poissons Ratio (x) = -0.07065 0.15246
# Poissons Ratio (y) = -0.06444 0.39592
# Poissons Ratio (z) = 0.36585 1.04162
#
# Static dielectric constant tensor:
#      x y z
#    x 2.002530 0.109130 -0.197920 
#    y 0.109130 1.933900 0.072470 
#    z -0.197920 0.072470 1.686120 
# 
# From -- ./inp_files/246080.got.cif
#   From: 2010.05.17/outbox.cif.g08.bks.cpg/sg2_124_cif.got.tgz:246080.got - 2010.06.03 11:33:40.
