data_PCOD9021804
_publ_section_title
;
Structure prediction by ZEFSAII (Michael W. Deem and Ramdas Pophale) SiO2 
 PCOD9021804
Probable space group: P -1
;
_chemical_formula_sum "Si O2"
_cell_formula_units_Z 16
_cell_length_a 17.873138
_cell_length_b 13.570786
_cell_length_c 8.478727
_cell_angle_alpha 115.862812
_cell_angle_beta 67.813445
_cell_angle_gamma 158.949769
_cell_volume 661.923055
_symmetry_space_group_name_H-M "P -1"
_symmetry_group_IT_number 2
_symmetry_cell_setting 'triclinic'
loop_
_space_group_symop_operation_xyz
x,y,z
-x,-y,-z
loop_
_atom_site_type_symbol
_atom_site_label
_atom_site_fract_x
_atom_site_fract_y
_atom_site_fract_z
Si Si1 0.048478 0.475269 0.139870
Si Si2 0.900414 0.014808 0.530601
Si Si3 0.685491 0.742156 0.850870
Si Si4 0.504141 0.859331 0.713849
Si Si5 0.937410 0.746244 0.902399
Si Si6 0.365790 0.496912 0.801851
Si Si7 0.075283 0.453566 0.750537
Si Si8 0.314008 0.493133 0.368574
O O1 0.045365 0.362075 0.164997
O O2 0.917297 0.419326 0.249858
O O3 0.286329 0.815621 0.187844
O O4 0.984473 0.361530 0.933636
O O5 0.828637 0.928669 0.708978
O O6 0.741245 0.741801 0.366248
O O7 0.937350 0.190070 0.586039
O O8 0.133259 0.257763 0.484711
O O9 0.530538 0.649301 0.896902
O O10 0.586885 0.499475 0.741475
O O11 0.830143 0.920362 0.014242
O O12 0.479879 0.722277 0.748268
O O13 0.302196 0.685318 0.764587
O O14 0.485747 0.790856 0.502850
O O15 0.825605 0.639083 0.756259
O O16 0.798932 0.633224 0.067190
#
# Coordination Sequence:
#
# PCOD9021804 Si02
#       8
#     2   2   2   2   2   2   2   2
#     4  11  23  40  67  91 131 171 216 268 317 379
#     4  11  21  44  67  99 128 162 219 273 321 375
#     4  12  23  41  68  97 130 169 221 268 321 384
#     4  11  23  41  65 100 124 167 222 269 314 381
#     4  12  26  46  61  97 140 175 210 264 331 391
#     4  12  25  39  72 101 128 167 217 275 326 378
#     4  10  22  38  65  97 125 163 216 271 319 370
#     4  11  25  43  67  94 138 176 208 267 333 386
#
# _framework density 24.171993000000001
#
# number of rings (size 3 to 8) (size 9 to 14) (size 15 to 20)
#    0.000    0.750    5.000    3.000    3.500    1.000 
#    0.000    2.500    0.000    0.000    0.000    0.000 
#    0.000    0.000    0.000    0.000    0.000    0.000 
#
# Total GULP energy -89521.208086 kJ/mol
# GULP energy per Si atom -5595.075505 kJ/mol
# Density = 2.411698 g / cm^3
# Si number density = 24.171993 Si / 1000 Ang^3
#
#
#
# Elastic Constant Matrix: (Units=GPa)
#
#
# Indices 1 2 3 4 5 6 
#
# 1 168.3871 4.3775 25.2966 6.9653 -21.4006 7.5809
# 2 4.3775 45.4353 23.0520 9.1206 -10.2703 -0.3978
# 3 25.2966 23.0520 87.9548 20.6017 -4.0126 -10.8462
# 4 6.9653 9.1206 20.6017 25.7941 -9.0203 -4.5692
# 5 -21.4006 -10.2703 -4.0126 -9.0203 42.4207 12.1580
# 6 7.5809 -0.3978 -10.8462 -4.5692 12.1580 28.5432
#
#
#
# Elastic Compliance Matrix: (Units=1/GPa)
#
#
# Indices 1 2 3 4 5 6 
#
# 1 0.007286 0.001969 -0.003234 0.000920 0.005580 -0.005366
# 2 0.001969 0.028191 -0.007867 -0.002479 0.008605 -0.007182
# 3 -0.003234 -0.007867 0.017774 -0.011378 -0.006724 0.008546
# 4 0.000920 -0.002479 -0.011378 0.051876 0.009976 -0.000547
# 5 0.005580 0.008605 -0.006724 0.009976 0.034880 -0.017177
# 6 -0.005366 -0.007182 0.008546 -0.000547 -0.017177 0.046836
#
#
# Mechanical properties :
#
#
# Convention : Reuss Voigt Hill
#
# Bulk Modulus (GPa) = 28.58339 45.24770 36.91555
# Shear Modulus (GPa) = 23.06588 35.95502 29.51045
#
# Velocity S-wave (km/s) = 3.09243 3.86095 3.49786
# Velocity P-wave (km/s) = 4.95999 6.21576 5.62304
#
# Compressibility (1/GPa) = 0.03498535
#
# Stress axis : x y z
#
# Youngs Moduli (GPa) = 137.24775 35.47229 56.26265
#
# Poissons Ratio (x) = -0.06983 0.18197
# Poissons Ratio (y) = -0.27017 0.44262
# Poissons Ratio (z) = 0.44389 0.27906
#
# Static dielectric constant tensor:
#      x y z
#    x 1.952430 -0.017640 -0.003580 
#    y -0.017640 1.937210 -0.028710 
#    z -0.003580 -0.028710 1.944100 
# 
# From -- ./inp_files/306040.got.cif
#   From: 2010.05.17/outbox.cif.g08.bks.cpg/sg2_154_cif.got.tgz:306040.got - 2010.06.03 11:33:40.
