data_PCOD9021190
_publ_section_title
;
Structure prediction by ZEFSAII (Michael W. Deem and Ramdas Pophale) SiO2 
 PCOD9021190
Probable space group: P -1
;
_chemical_formula_sum "Si O2"
_cell_formula_units_Z 16
_cell_length_a 18.694951
_cell_length_b 8.100701
_cell_length_c 15.444047
_cell_angle_alpha 81.501720
_cell_angle_beta 161.443332
_cell_angle_gamma 104.925611
_cell_volume 682.967847
_symmetry_space_group_name_H-M "P -1"
_symmetry_group_IT_number 2
_symmetry_cell_setting 'triclinic'
loop_
_space_group_symop_operation_xyz
x,y,z
-x,-y,-z
loop_
_atom_site_type_symbol
_atom_site_label
_atom_site_fract_x
_atom_site_fract_y
_atom_site_fract_z
Si Si1 0.345929 0.343669 0.272235
Si Si2 0.771355 0.420474 0.001870
Si Si3 0.531665 0.092624 0.433057
Si Si4 0.251484 0.155770 0.349491
Si Si5 0.978968 0.153030 0.193123
Si Si6 0.282981 0.127438 0.822982
Si Si7 0.307321 0.986141 0.682073
Si Si8 0.102888 0.387648 0.690875
O O1 0.500000 0.500000 0.500000
O O2 0.539665 0.290526 0.443505
O O3 0.219729 0.192416 0.209812
O O4 0.176034 0.404423 0.011300
O O5 0.771238 0.483050 0.094823
O O6 0.954402 0.318228 0.203883
O O7 0.511416 0.287524 0.676925
O O8 0.500000 0.000000 0.500000
O O9 0.725490 0.038038 0.608476
O O10 0.283275 0.001885 0.101860
O O11 0.056641 0.197273 0.179569
O O12 0.168354 0.072765 0.453243
O O13 0.278020 0.307097 0.846863
O O14 0.376709 0.123982 0.833003
O O15 0.451948 0.040576 0.073574
O O16 0.000000 0.000000 0.500000
O O17 0.116160 0.789634 0.508691
O O18 0.000000 0.500000 0.500000
#
# Coordination Sequence:
#
# PCOD9021190 Si02
#       8
#     2   2   2   2   2   2   2   2
#     4   9  18  37  58  82 118 154 192 243 295 340
#     4  10  22  38  57  86 122 154 194 250 299 348
#     4   9  19  37  58  82 116 155 199 243 285 344
#     4   9  21  37  59  84 114 161 202 240 294 352
#     4  11  22  37  59  88 119 154 202 244 287 351
#     4   9  21  41  63  85 117 160 198 241 300 357
#     4  10  22  39  61  90 119 154 203 250 289 356
#     4  11  23  39  62  90 121 156 192 242 309 361
#
# _framework density 23.427163
#
# number of rings (size 3 to 8) (size 9 to 14) (size 15 to 20)
#    0.000    2.250    0.000    2.250    0.000   12.000 
#    0.000    3.750    0.000    0.000    0.000    0.000 
#    0.000    0.000    0.000    0.000    0.000    0.000 
#
# Total GULP energy -89291.710557 kJ/mol
# GULP energy per Si atom -5580.731910 kJ/mol
# Density = 2.337384 g / cm^3
# Si number density = 23.427163 Si / 1000 Ang^3
#
#
#
# Elastic Constant Matrix: (Units=GPa)
#
#
# Indices 1 2 3 4 5 6 
#
# 1 85.8725 53.8270 33.7953 -19.4302 -10.3857 -31.3123
# 2 53.8270 130.5772 49.9866 -39.3690 -0.1750 -44.2446
# 3 33.7953 49.9866 135.2153 -28.9994 -8.4305 -14.8496
# 4 -19.4302 -39.3690 -28.9994 34.9246 1.2563 2.6554
# 5 -10.3857 -0.1750 -8.4305 1.2563 41.4871 -5.1234
# 6 -31.3123 -44.2446 -14.8496 2.6554 -5.1234 51.6196
#
#
#
# Elastic Compliance Matrix: (Units=1/GPa)
#
#
# Indices 1 2 3 4 5 6 
#
# 1 0.019077 -0.002400 -0.001223 0.005980 0.005497 0.009401
# 2 -0.002400 0.019353 -0.001017 0.018562 0.000432 0.013928
# 3 -0.001223 -0.001017 0.009568 0.005985 0.001574 0.000987
# 4 0.005980 0.018562 0.005985 0.056310 0.003396 0.018699
# 5 0.005497 0.000432 0.001574 0.003396 0.026516 0.006615
# 6 0.009401 0.013928 0.000987 0.018699 0.006615 0.036991
#
#
# Mechanical properties :
#
#
# Convention : Reuss Voigt Hill
#
# Bulk Modulus (GPa) = 25.82867 69.65365 47.74116
# Shear Modulus (GPa) = 26.31568 39.87667 33.09618
#
# Velocity S-wave (km/s) = 3.35520 4.13019 3.76270
# Velocity P-wave (km/s) = 5.10479 7.24853 6.26897
#
# Compressibility (1/GPa) = 0.03871667
#
# Stress axis : x y z
#
# Youngs Moduli (GPa) = 52.42021 51.67084 104.51913
#
# Poissons Ratio (x) = 0.12401 0.12784
# Poissons Ratio (y) = 0.12581 0.10633
# Poissons Ratio (z) = 0.06412 0.05257
#
# Static dielectric constant tensor:
#      x y z
#    x 1.986290 0.068700 0.019120 
#    y 0.068700 1.956030 0.000900 
#    z 0.019120 0.000900 1.915800 
# 
# From -- ./inp_files/407368.got.cif
#   From: 2010.05.17/outbox.cif.g08.bks.cpg/sg2_204_cif.got.tgz:407368.got - 2010.06.03 11:33:40.
