data_PCOD9021396
_publ_section_title
;
Structure prediction by ZEFSAII (Michael W. Deem and Ramdas Pophale) SiO2 
 PCOD9021396
Probable space group: P -1
;
_chemical_formula_sum "Si O2"
_cell_formula_units_Z 14
_cell_length_a 28.386329
_cell_length_b 5.550799
_cell_length_c 4.883213
_cell_angle_alpha 89.138072
_cell_angle_beta 111.861998
_cell_angle_gamma 125.226525
_cell_volume 562.719787
_symmetry_space_group_name_H-M "P -1"
_symmetry_group_IT_number 2
_symmetry_cell_setting 'triclinic'
loop_
_space_group_symop_operation_xyz
x,y,z
-x,-y,-z
loop_
_atom_site_type_symbol
_atom_site_label
_atom_site_fract_x
_atom_site_fract_y
_atom_site_fract_z
Si Si1 0.846072 0.150914 0.194971
Si Si2 0.394241 0.117540 0.247245
Si Si3 0.698423 0.754069 0.985015
Si Si4 0.630098 0.348813 0.336028
Si Si5 0.914657 0.162293 0.864844
Si Si6 0.053408 0.245527 0.823406
Si Si7 0.490586 0.778994 0.722765
O O1 0.852410 0.016803 0.932028
O O2 0.879497 0.504378 0.192832
O O3 0.774719 0.967889 0.152656
O O4 0.892938 0.162116 0.514799
O O5 0.443727 0.446078 0.490112
O O6 0.439456 0.140253 0.103121
O O7 0.375453 0.888126 0.459908
O O8 0.333965 0.088438 0.002753
O O9 0.666388 0.463361 0.123136
O O10 0.674754 0.649045 0.623795
O O11 0.558055 0.255678 0.154815
O O12 0.956775 0.515374 0.068792
O O13 0.937034 0.952846 0.952047
O O14 0.000000 0.000000 0.500000
O O15 0.500000 0.000000 0.500000
#
# Coordination Sequence:
#
# PCOD9021396 Si02
#       7
#     2   2   2   2   2   2   2
#     4  10  25  41  65  96 137 179 226 274 333 399
#     4   9  19  37  61  88 121 164 204 267 323 379
#     4  11  23  41  60  90 123 167 215 258 321 388
#     4  10  22  38  61  89 121 162 212 265 321 389
#     4  10  24  43  69 100 137 176 221 277 332 394
#     4  10  24  45  73 105 137 178 224 278 335 397
#     4   8  16  36  60  88 121 155 209 263 324 382
#
# _framework density 24.879168
#
# number of rings (size 3 to 8) (size 9 to 14) (size 15 to 20)
#    0.857    1.429    0.000    1.286    2.000    6.286 
#    0.000   24.286    0.000    0.000    0.000    0.000 
#    0.000    0.000    0.000    0.000    0.000    0.000 
#
# Total GULP energy -78218.202428 kJ/mol
# GULP energy per Si atom -5587.014459 kJ/mol
# Density = 2.482254 g / cm^3
# Si number density = 24.879168 Si / 1000 Ang^3
#
#
#
# Elastic Constant Matrix: (Units=GPa)
#
#
# Indices 1 2 3 4 5 6 
#
# 1 92.6126 51.4800 10.1069 -13.4729 -0.0630 -8.4353
# 2 51.4800 128.8925 33.1863 -18.4074 15.6798 13.9789
# 3 10.1069 33.1863 107.2111 -27.4567 -0.1309 4.2778
# 4 -13.4729 -18.4074 -27.4567 20.3274 6.9731 9.9988
# 5 -0.0630 15.6798 -0.1309 6.9731 44.5347 -5.2755
# 6 -8.4353 13.9789 4.2778 9.9988 -5.2755 46.6868
#
#
#
# Elastic Compliance Matrix: (Units=1/GPa)
#
#
# Indices 1 2 3 4 5 6 
#
# 1 0.015225 -0.006854 0.001073 0.002205 0.002629 0.004529
# 2 -0.006854 0.015591 0.001685 0.021119 -0.010191 -0.011735
# 3 0.001073 0.001685 0.017585 0.033179 -0.006897 -0.009807
# 4 0.002205 0.021119 0.033179 0.149059 -0.036000 -0.044957
# 5 0.002629 -0.010191 -0.006897 -0.036000 0.033517 0.015656
# 6 0.004529 -0.011735 -0.009807 -0.044957 0.015656 0.038048
#
#
# Mechanical properties :
#
#
# Convention : Reuss Voigt Hill
#
# Bulk Modulus (GPa) = 24.86987 57.58472 41.22729
# Shear Modulus (GPa) = 17.20469 37.90599 27.55534
#
# Velocity S-wave (km/s) = 2.63255 3.90757 3.33162
# Velocity P-wave (km/s) = 4.38844 6.59961 5.60416
#
# Compressibility (1/GPa) = 0.04020930
#
# Stress axis : x y z
#
# Youngs Moduli (GPa) = 65.68031 64.14144 56.86776
#
# Poissons Ratio (x) = 0.43959 -0.06104
# Poissons Ratio (y) = 0.45014 -0.09580
# Poissons Ratio (z) = -0.07050 -0.10805
#
# Static dielectric constant tensor:
#      x y z
#    x 2.133770 -0.101870 -0.061830 
#    y -0.101870 2.067360 0.097320 
#    z -0.061830 0.097320 1.929000 
# 
# From -- ./inp_files/9956.got.cif
#   From: 2010.05.17/outbox.cif.g08.bks.cpg/sg2_5_cif.got.tgz:9956.got - 2010.06.03 11:33:40.
