data_PCOD9021806
_publ_section_title
;
Structure prediction by ZEFSAII (Michael W. Deem and Ramdas Pophale) SiO2 
 PCOD9021806
Probable space group: P -1
;
_chemical_formula_sum "Si O2"
_cell_formula_units_Z 16
_cell_length_a 7.560812
_cell_length_b 13.251962
_cell_length_c 10.957548
_cell_angle_alpha 119.503767
_cell_angle_beta 80.960748
_cell_angle_gamma 137.273462
_cell_volume 608.139622
_symmetry_space_group_name_H-M "P -1"
_symmetry_group_IT_number 2
_symmetry_cell_setting 'triclinic'
loop_
_space_group_symop_operation_xyz
x,y,z
-x,-y,-z
loop_
_atom_site_type_symbol
_atom_site_label
_atom_site_fract_x
_atom_site_fract_y
_atom_site_fract_z
Si Si1 0.277993 0.477829 0.381055
Si Si2 0.216292 0.781769 0.324490
Si Si3 0.001811 0.862965 0.942862
Si Si4 0.637752 0.692060 0.082111
Si Si5 0.194976 0.604728 0.925323
Si Si6 0.761217 0.267069 0.452831
Si Si7 0.188369 0.204340 0.616791
Si Si8 0.549584 0.052608 0.858690
O O1 0.209768 0.581721 0.438730
O O2 0.610757 0.657317 0.433363
O O3 0.209309 0.334555 0.214382
O O4 0.054430 0.348233 0.437918
O O5 0.364228 0.846660 0.477097
O O6 0.403625 0.864812 0.231891
O O7 0.979538 0.564035 0.242885
O O8 0.018487 0.793478 0.329655
O O9 0.290930 0.965130 0.916455
O O10 0.945879 0.829789 0.074862
O O11 0.000000 0.000000 0.000000
O O12 0.632644 0.736987 0.246151
O O13 0.500000 0.500000 0.000000
O O14 0.475729 0.682114 0.988476
O O15 0.221562 0.752972 0.979114
O O16 0.000000 0.500000 0.000000
O O17 0.549874 0.125211 0.280679
O O18 0.000000 0.000000 0.500000
#
# Coordination Sequence:
#
# PCOD9021806 Si02
#       8
#     2   2   2   2   2   2   2   2
#     4  10  23  44  67  99 137 179 230 290 342 408
#     4  11  23  41  64 101 135 181 230 282 341 415
#     4  11  22  39  72 103 132 181 230 281 344 411
#     4  12  23  45  69  96 138 181 227 279 348 403
#     4  10  22  38  65  97 129 171 221 279 331 406
#     4  10  23  42  70  95 133 184 230 282 351 399
#     4  12  27  42  68 101 140 181 234 286 343 410
#     4  10  22  40  66  97 133 175 232 277 331 412
#
# _framework density 26.309747999999999
#
# number of rings (size 3 to 8) (size 9 to 14) (size 15 to 20)
#    0.000    1.250    3.750    1.125    5.250    0.500 
#    2.250    0.625    0.000    0.000    0.000    0.000 
#    0.000    0.000    0.000    0.000    0.000    0.000 
#
# Total GULP energy -89069.187078 kJ/mol
# GULP energy per Si atom -5566.824192 kJ/mol
# Density = 2.624987 g / cm^3
# Si number density = 26.309748 Si / 1000 Ang^3
#
#
#
# Elastic Constant Matrix: (Units=GPa)
#
#
# Indices 1 2 3 4 5 6 
#
# 1 85.6452 25.7211 25.7596 -3.2638 -17.5692 -7.3111
# 2 25.7211 154.5982 23.6353 11.5954 -19.4256 12.2911
# 3 25.7596 23.6353 116.3445 29.6894 -28.9053 -18.1694
# 4 -3.2638 11.5954 29.6894 60.0449 1.3458 -16.3829
# 5 -17.5692 -19.4256 -28.9053 1.3458 32.2771 4.9599
# 6 -7.3111 12.2911 -18.1694 -16.3829 4.9599 40.4090
#
#
#
# Elastic Compliance Matrix: (Units=1/GPa)
#
#
# Indices 1 2 3 4 5 6 
#
# 1 0.014057 -0.001956 -0.001939 0.002795 0.004177 0.002887
# 2 -0.001956 0.007949 -0.000002 -0.002980 0.004539 -0.004538
# 3 -0.001939 -0.000002 0.013831 -0.006720 0.011340 0.001752
# 4 0.002795 -0.002980 -0.006720 0.023328 -0.008632 0.008908
# 5 0.004177 0.004539 0.011340 -0.008632 0.047243 -0.004824
# 6 0.002887 -0.004538 0.001752 0.008908 -0.004824 0.031641
#
#
# Mechanical properties :
#
#
# Convention : Reuss Voigt Hill
#
# Bulk Modulus (GPa) = 35.66324 56.31333 45.98828
# Shear Modulus (GPa) = 32.21813 45.31099 38.76456
#
# Velocity S-wave (km/s) = 3.50318 4.15446 3.84264
# Velocity P-wave (km/s) = 5.47244 6.66807 6.09962
#
# Compressibility (1/GPa) = 0.02804008
#
# Stress axis : x y z
#
# Youngs Moduli (GPa) = 71.14004 125.80483 72.30231
#
# Poissons Ratio (x) = 0.24613 0.14023
# Poissons Ratio (y) = 0.13918 0.00016
# Poissons Ratio (z) = 0.13797 0.00028
#
# Static dielectric constant tensor:
#      x y z
#    x 2.769240 0.278830 -0.025560 
#    y 0.278830 2.218970 0.089560 
#    z -0.025560 0.089560 2.287400 
# 
# From -- ./inp_files/399602.got.cif
#   From: 2010.05.17/outbox.cif.g08.bks.cpg/sg2_200_cif.got.tgz:399602.got - 2010.06.03 11:33:40.
