data_PCOD9021745
_publ_section_title
;
Structure prediction by ZEFSAII (Michael W. Deem and Ramdas Pophale) SiO2 
 PCOD9021745
Probable space group: P -1
;
_chemical_formula_sum "Si O2"
_cell_formula_units_Z 16
_cell_length_a 13.465222
_cell_length_b 6.931013
_cell_length_c 22.215291
_cell_angle_alpha 93.400806
_cell_angle_beta 158.721102
_cell_angle_gamma 86.286657
_cell_volume 750.834763
_symmetry_space_group_name_H-M "P -1"
_symmetry_group_IT_number 2
_symmetry_cell_setting 'triclinic'
loop_
_space_group_symop_operation_xyz
x,y,z
-x,-y,-z
loop_
_atom_site_type_symbol
_atom_site_label
_atom_site_fract_x
_atom_site_fract_y
_atom_site_fract_z
Si Si1 0.174822 0.027713 0.539321
Si Si2 0.313465 0.991775 0.982650
Si Si3 0.671390 0.691306 0.109233
Si Si4 0.250895 0.715185 0.482280
Si Si5 0.554564 0.775122 0.823396
Si Si6 0.869236 0.168739 0.887154
Si Si7 0.318230 0.055894 0.339331
Si Si8 0.607665 0.570565 0.335570
O O1 0.185749 0.255509 0.541984
O O2 0.124106 0.909055 0.447798
O O3 0.456233 0.921336 0.717900
O O4 0.000000 0.000000 0.500000
O O5 0.002591 0.927309 0.821658
O O6 0.309208 0.154585 0.931396
O O7 0.504702 0.811187 0.068381
O O8 0.453571 0.099621 0.119249
O O9 0.986252 0.633385 0.299058
O O10 0.500000 0.500000 0.000000
O O11 0.508439 0.769659 0.587736
O O12 0.350635 0.564816 0.585965
O O13 0.387831 0.578989 0.720092
O O14 0.871111 0.722451 0.990476
O O15 0.680220 0.314588 0.820712
O O16 0.703618 0.088174 0.733991
O O17 0.000000 0.000000 0.000000
O O18 0.500000 0.000000 0.500000
#
# Coordination Sequence:
#
# PCOD9021745 Si02
#       8
#     2   2   2   2   2   2   2   2
#     4  11  23  41  66  96 135 183 225 284 348 416
#     4  10  24  45  69  96 138 181 226 294 342 413
#     4  11  25  46  68  96 133 184 234 279 349 421
#     4  11  24  44  69 101 138 181 233 291 353 416
#     4  10  22  38  65 101 127 168 225 278 343 408
#     4  11  20  42  69  97 138 181 224 286 357 410
#     4  11  22  44  73 102 141 188 233 290 357 414
#     4  11  23  41  69 100 136 179 225 289 347 422
#
# _framework density 21.309615000000001
#
# number of rings (size 3 to 8) (size 9 to 14) (size 15 to 20)
#    0.000    1.250    3.750    1.875    0.000    8.000 
#    4.500    1.250    0.000    0.000    0.000    0.000 
#    0.000    0.000    0.000    0.000    0.000    0.000 
#
# Total GULP energy -89205.959400 kJ/mol
# GULP energy per Si atom -5575.372463 kJ/mol
# Density = 2.126111 g / cm^3
# Si number density = 21.309615 Si / 1000 Ang^3
#
#
#
# Elastic Constant Matrix: (Units=GPa)
#
#
# Indices 1 2 3 4 5 6 
#
# 1 75.7722 41.8059 15.9174 9.3850 5.2346 6.4286
# 2 41.8059 137.8453 37.7798 13.7124 5.8065 4.6356
# 3 15.9174 37.7798 91.0919 9.9826 -2.0363 0.6945
# 4 9.3850 13.7124 9.9826 29.3041 3.6747 5.4211
# 5 5.2346 5.8065 -2.0363 3.6747 40.9717 7.4695
# 6 6.4286 4.6356 0.6945 5.4211 7.4695 30.8831
#
#
#
# Elastic Compliance Matrix: (Units=1/GPa)
#
#
# Indices 1 2 3 4 5 6 
#
# 1 0.016319 -0.004390 -0.000771 -0.002411 -0.000906 -0.002078
# 2 -0.004390 0.009646 -0.003034 -0.001989 -0.000792 0.000075
# 3 -0.000771 -0.003034 0.012718 -0.002929 0.001328 0.000523
# 4 -0.002411 -0.001989 -0.002929 0.038062 -0.001997 -0.005332
# 5 -0.000906 -0.000792 0.001328 -0.001997 0.025908 -0.005638
# 6 -0.002078 0.000075 0.000523 -0.005332 -0.005638 0.035089
#
#
# Mechanical properties :
#
#
# Convention : Reuss Voigt Hill
#
# Bulk Modulus (GPa) = 44.85717 55.07953 49.96835
# Shear Modulus (GPa) = 30.94757 34.17887 32.56322
#
# Velocity S-wave (km/s) = 3.81502 4.00924 3.91333
# Velocity P-wave (km/s) = 6.36409 6.88007 6.62711
#
# Compressibility (1/GPa) = 0.02229298
#
# Stress axis : x y z
#
# Youngs Moduli (GPa) = 61.27785 103.66860 78.63111
#
# Poissons Ratio (x) = 0.45511 0.06063
# Poissons Ratio (y) = 0.26901 0.23856
# Poissons Ratio (z) = 0.04725 0.31452
#
# Static dielectric constant tensor:
#      x y z
#    x 1.877640 0.017240 0.010480 
#    y 0.017240 1.752070 0.035240 
#    z 0.010480 0.035240 1.829030 
# 
# From -- ./inp_files/473293.got.cif
#   From: 2010.05.17/outbox.cif.g08.bks.cpg/sg2_237_cif.got.tgz:473293.got - 2010.06.03 11:33:40.
