data_PCOD9021809
_publ_section_title
;
Structure prediction by ZEFSAII (Michael W. Deem and Ramdas Pophale) SiO2 
 PCOD9021809
Probable space group: P -1
;
_chemical_formula_sum "Si O2"
_cell_formula_units_Z 16
_cell_length_a 6.957585
_cell_length_b 15.154009
_cell_length_c 17.202868
_cell_angle_alpha 29.560269
_cell_angle_beta 112.873073
_cell_angle_gamma 124.559238
_cell_volume 712.009656
_symmetry_space_group_name_H-M "P -1"
_symmetry_group_IT_number 2
_symmetry_cell_setting 'triclinic'
loop_
_space_group_symop_operation_xyz
x,y,z
-x,-y,-z
loop_
_atom_site_type_symbol
_atom_site_label
_atom_site_fract_x
_atom_site_fract_y
_atom_site_fract_z
Si Si1 0.941956 0.372203 0.758221
Si Si2 0.568538 0.317156 0.464433
Si Si3 0.733180 0.930717 0.538260
Si Si4 0.560010 0.248965 0.226430
Si Si5 0.983690 0.657798 0.035319
Si Si6 0.469074 0.376726 0.668106
Si Si7 0.522628 0.101578 0.159854
Si Si8 0.030890 0.036913 0.087153
O O1 0.667825 0.306650 0.750760
O O2 0.140682 0.554583 0.597006
O O3 0.990030 0.180407 0.909803
O O4 0.997080 0.441894 0.803835
O O5 0.453220 0.241350 0.419454
O O6 0.485468 0.466225 0.374846
O O7 0.489396 0.115199 0.658692
O O8 0.669508 0.838025 0.685903
O O9 0.692623 0.125574 0.373225
O O10 0.000000 0.000000 0.500000
O O11 0.254936 0.508984 0.918063
O O12 0.507125 0.188736 0.174778
O O13 0.225885 0.738822 0.962399
O O14 0.972991 0.855491 0.913888
O O15 0.500000 0.500000 0.500000
O O16 0.198824 0.188273 0.775866
O O17 0.291226 0.059188 0.105851
#
# Coordination Sequence:
#
# PCOD9021809 Si02
#       8
#     2   2   2   2   2   2   2   2
#     4  10  25  44  69  93 135 173 223 271 327 398
#     4  11  25  44  68  97 132 176 221 277 330 395
#     4  10  22  38  65  97 133 175 220 269 331 389
#     4  10  22  40  63 100 134 173 223 269 321 399
#     4  10  23  42  66  97 138 176 218 267 334 390
#     4  12  26  44  71  98 129 174 224 279 336 389
#     4  11  24  42  69  99 141 174 219 275 330 390
#     4  10  25  43  65  99 135 171 223 275 326 394
#
# _framework density 22.471603999999999
#
# number of rings (size 3 to 8) (size 9 to 14) (size 15 to 20)
#    0.750    0.750    1.250    2.250    3.500    8.000 
#    0.000    0.000    0.000    0.000    0.000    0.000 
#    0.000    0.000    0.000    0.000    0.000    0.000 
#
# Total GULP energy -89501.995767 kJ/mol
# GULP energy per Si atom -5593.874735 kJ/mol
# Density = 2.242046 g / cm^3
# Si number density = 22.471604 Si / 1000 Ang^3
#
#
#
# Elastic Constant Matrix: (Units=GPa)
#
#
# Indices 1 2 3 4 5 6 
#
# 1 119.4475 14.0562 33.3306 -4.1302 -25.7617 19.1943
# 2 14.0562 71.5439 25.8230 -23.4890 -1.4194 0.6630
# 3 33.3306 25.8230 67.4998 -6.2356 -16.0364 6.1194
# 4 -4.1302 -23.4890 -6.2356 27.2652 5.7114 0.8992
# 5 -25.7617 -1.4194 -16.0364 5.7114 36.4261 -4.9435
# 6 19.1943 0.6630 6.1194 0.8992 -4.9435 35.2356
#
#
#
# Elastic Compliance Matrix: (Units=1/GPa)
#
#
# Indices 1 2 3 4 5 6 
#
# 1 0.011526 -0.001278 -0.003428 -0.001269 0.006145 -0.004765
# 2 -0.001278 0.023430 -0.008118 0.019508 -0.006590 0.000243
# 3 -0.003428 -0.008118 0.020953 -0.004185 0.007070 -0.000520
# 4 -0.001269 0.019508 -0.004185 0.054657 -0.010802 -0.001859
# 5 0.006145 -0.006590 0.007070 -0.010802 0.036476 0.000942
# 6 -0.004765 0.000243 -0.000520 -0.001859 0.000942 0.031241
#
#
# Mechanical properties :
#
#
# Convention : Reuss Voigt Hill
#
# Bulk Modulus (GPa) = 33.04504 44.99009 39.01757
# Shear Modulus (GPa) = 23.36241 32.13746 27.74994
#
# Velocity S-wave (km/s) = 3.22785 3.78582 3.51791
# Velocity P-wave (km/s) = 5.35062 6.25893 5.82251
#
# Compressibility (1/GPa) = 0.03026173
#
# Stress axis : x y z
#
# Youngs Moduli (GPa) = 86.76173 42.67978 47.72490
#
# Poissons Ratio (x) = 0.05453 0.16359
# Poissons Ratio (y) = 0.11086 0.38745
# Poissons Ratio (z) = 0.29741 0.34649
#
# Static dielectric constant tensor:
#      x y z
#    x 1.815230 -0.033450 0.020180 
#    y -0.033450 1.837110 0.016740 
#    z 0.020180 0.016740 1.819620 
# 
# From -- ./inp_files/484289.got.cif
#   From: 2010.05.17/outbox.cif.g08.bks.cpg/sg2_243_cif.got.tgz:484289.got - 2010.06.03 11:33:40.
