data_PCOD9021257
_publ_section_title
;
Structure prediction by ZEFSAII (Michael W. Deem and Ramdas Pophale) SiO2 
 PCOD9021257
Probable space group: P -1
;
_chemical_formula_sum "Si O2"
_cell_formula_units_Z 14
_cell_length_a 7.614226
_cell_length_b 24.177750
_cell_length_c 6.446850
_cell_angle_alpha 136.760885
_cell_angle_beta 118.058671
_cell_angle_gamma 54.059965
_cell_volume 656.295169
_symmetry_space_group_name_H-M "P -1"
_symmetry_group_IT_number 2
_symmetry_cell_setting 'triclinic'
loop_
_space_group_symop_operation_xyz
x,y,z
-x,-y,-z
loop_
_atom_site_type_symbol
_atom_site_label
_atom_site_fract_x
_atom_site_fract_y
_atom_site_fract_z
Si Si1 0.424846 0.234244 0.161129
Si Si2 0.472799 0.057053 0.841223
Si Si3 0.798602 0.610407 0.843902
Si Si4 0.716286 0.457833 0.145320
Si Si5 0.837878 0.988941 0.152864
Si Si6 0.804918 0.151612 0.839155
Si Si7 0.600787 0.304877 0.839979
O O1 0.253032 0.320774 0.189911
O O2 0.557250 0.262821 0.487365
O O3 0.355379 0.161991 0.030971
O O4 0.575735 0.179819 0.905057
O O5 0.336908 0.025720 0.837186
O O6 0.500000 0.000000 0.500000
O O7 0.717450 0.028338 0.981620
O O8 0.741831 0.530231 0.509721
O O9 0.053706 0.578467 0.950072
O O10 0.631945 0.654738 0.059415
O O11 0.500000 0.500000 0.000000
O O12 0.685659 0.379387 0.035487
O O13 0.028295 0.891813 0.998479
O O14 0.878517 0.069023 0.497862
O O15 0.768253 0.234989 0.902114
#
# Coordination Sequence:
#
# PCOD9021257 Si02
#       7
#     2   2   2   2   2   2   2
#     4  11  22  42  61  93 129 170 218 270 323 389
#     4  11  22  38  59  87 128 173 213 269 322 378
#     4  10  25  45  69  98 135 166 219 269 324 412
#     4  11  23  47  71 101 128 171 216 265 338 402
#     4  10  22  38  59  88 123 171 224 265 321 378
#     4  10  22  40  60  91 124 168 223 267 318 388
#     4  11  23  44  67  95 136 172 212 277 331 385
#
# _framework density 21.331868
#
# number of rings (size 3 to 8) (size 9 to 14) (size 15 to 20)
#    0.000    1.429    4.286    0.429    2.000    2.286 
#    5.143    0.000    0.000    0.000    0.000    0.000 
#    0.000    0.000    0.000    0.000    0.000    0.000 
#
# Total GULP energy -78065.619153 kJ/mol
# GULP energy per Si atom -5576.115654 kJ/mol
# Density = 2.128332 g / cm^3
# Si number density = 21.331868 Si / 1000 Ang^3
#
#
#
# Elastic Constant Matrix: (Units=GPa)
#
#
# Indices 1 2 3 4 5 6 
#
# 1 72.0345 55.7061 19.0135 4.2372 10.9762 -7.7043
# 2 55.7061 117.3340 40.7807 24.7107 19.1629 8.6733
# 3 19.0135 40.7807 65.3134 7.3379 6.1510 2.3315
# 4 4.2372 24.7107 7.3379 28.3779 2.1491 4.8020
# 5 10.9762 19.1629 6.1510 2.1491 20.6460 5.2568
# 6 -7.7043 8.6733 2.3315 4.8020 5.2568 40.9592
#
#
#
# Elastic Compliance Matrix: (Units=1/GPa)
#
#
# Indices 1 2 3 4 5 6 
#
# 1 0.025086 -0.013466 0.000401 0.006926 -0.003508 0.007185
# 2 -0.013466 0.022156 -0.007372 -0.014032 -0.008720 -0.004041
# 3 0.000401 -0.007372 0.019596 0.001196 0.000589 0.000305
# 4 0.006926 -0.014032 0.001196 0.046065 0.004646 -0.001791
# 5 -0.003508 -0.008720 0.000589 0.004646 0.059525 -0.007031
# 6 0.007185 -0.004041 0.000305 -0.001791 -0.007031 0.027717
#
#
# Mechanical properties :
#
#
# Convention : Reuss Voigt Hill
#
# Bulk Modulus (GPa) = 38.51501 53.96473 46.23987
# Shear Modulus (GPa) = 20.02620 27.27538 23.65079
#
# Velocity S-wave (km/s) = 3.06730 3.57966 3.33334
# Velocity P-wave (km/s) = 5.53523 6.51444 6.04469
#
# Compressibility (1/GPa) = 0.02596391
#
# Stress axis : x y z
#
# Youngs Moduli (GPa) = 39.86341 45.13447 51.03023
#
# Poissons Ratio (x) = 0.60779 -0.02046
# Poissons Ratio (y) = 0.53681 0.37619
# Poissons Ratio (z) = -0.01599 0.33272
#
# Static dielectric constant tensor:
#      x y z
#    x 1.788000 -0.039870 0.003610 
#    y -0.039870 1.936420 -0.042320 
#    z 0.003610 -0.042320 1.773990 
# 
# From -- ./inp_files/51258.got.cif
#   From: 2010.05.17/outbox.cif.g08.bks.cpg/sg2_26_cif.got.tgz:51258.got - 2010.06.03 11:33:40.
