data_PCOD9021955
_publ_section_title
;
Structure prediction by ZEFSAII (Michael W. Deem and Ramdas Pophale) SiO2 
 PCOD9021955
Probable space group: P -1
;
_chemical_formula_sum "Si O2"
_cell_formula_units_Z 16
_cell_length_a 5.409684
_cell_length_b 26.756248
_cell_length_c 11.919686
_cell_angle_alpha 30.398594
_cell_angle_beta 80.096250
_cell_angle_gamma 101.354433
_cell_volume 620.367944
_symmetry_space_group_name_H-M "P -1"
_symmetry_group_IT_number 2
_symmetry_cell_setting 'triclinic'
loop_
_space_group_symop_operation_xyz
x,y,z
-x,-y,-z
loop_
_atom_site_type_symbol
_atom_site_label
_atom_site_fract_x
_atom_site_fract_y
_atom_site_fract_z
Si Si1 0.768651 0.018717 0.789240
Si Si2 0.518770 0.391383 0.750745
Si Si3 0.811377 0.977308 0.446453
Si Si4 0.524226 0.709516 0.700926
Si Si5 0.798733 0.216012 0.270148
Si Si6 0.842223 0.750249 0.163118
Si Si7 0.840457 0.527471 0.674279
Si Si8 0.574123 0.270630 0.580164
O O1 0.641955 0.085259 0.612712
O O2 0.089643 0.138900 0.611541
O O3 0.950232 0.007836 0.696023
O O4 0.487961 0.865294 0.157659
O O5 0.500000 0.500000 0.500000
O O6 0.440263 0.310274 0.798731
O O7 0.817217 0.457627 0.694484
O O8 0.171422 0.286997 0.057021
O O9 0.434798 0.833970 0.725616
O O10 0.000000 0.000000 0.500000
O O11 0.823090 0.098939 0.196725
O O12 0.252257 0.701318 0.810447
O O13 0.405416 0.679900 0.640296
O O14 0.494772 0.596337 0.984949
O O15 0.856360 0.640165 0.402155
O O16 0.754305 0.773560 0.244393
O O17 0.128298 0.611020 0.587558
#
# Coordination Sequence:
#
# PCOD9021955 Si02
#       8
#     2   2   2   2   2   2   2   2
#     4  10  22  43  66  95 131 173 216 268 328 387
#     4  10  23  42  63  92 127 171 218 260 325 390
#     4  10  22  38  67  99 130 168 218 269 327 389
#     4  11  25  42  68 100 127 176 225 261 327 394
#     4  11  23  42  67  92 135 172 215 270 327 382
#     4  10  24  43  64  97 133 169 213 273 327 390
#     4  11  24  43  64  97 131 173 224 261 328 388
#     4  11  25  43  67  98 133 170 220 275 325 379
#
# _framework density 25.791143999999999
#
# number of rings (size 3 to 8) (size 9 to 14) (size 15 to 20)
#    0.000    1.500    1.250    2.250    5.250    8.500 
#    0.000    0.000    0.000    0.000    0.000    0.000 
#    0.000    0.000    0.000    0.000    0.000    0.000 
#
# Total GULP energy -89380.457415 kJ/mol
# GULP energy per Si atom -5586.278588 kJ/mol
# Density = 2.573244 g / cm^3
# Si number density = 25.791144 Si / 1000 Ang^3
#
#
#
# Elastic Constant Matrix: (Units=GPa)
#
#
# Indices 1 2 3 4 5 6 
#
# 1 34.0959 28.7537 0.1901 3.8732 9.6404 5.7386
# 2 28.7537 222.0439 54.0866 16.8450 -1.6047 34.4887
# 3 0.1901 54.0866 117.9170 -1.0672 22.5966 5.8694
# 4 3.8732 16.8450 -1.0672 30.9399 3.1318 1.0969
# 5 9.6404 -1.6047 22.5966 3.1318 31.2772 -4.9566
# 6 5.7386 34.4887 5.8694 1.0969 -4.9566 41.4286
#
#
#
# Elastic Compliance Matrix: (Units=1/GPa)
#
#
# Indices 1 2 3 4 5 6 
#
# 1 0.040362 -0.006490 0.006549 0.000655 -0.018093 -0.003298
# 2 -0.006490 0.007268 -0.004147 -0.003670 0.005126 -0.003854
# 3 0.006549 -0.004147 0.012707 0.003102 -0.011842 -0.000754
# 4 0.000655 -0.003670 0.003102 0.034918 -0.005987 0.000884
# 5 -0.018093 0.005126 -0.011842 -0.005987 0.047887 0.005804
# 6 -0.003298 -0.003854 -0.000754 0.000884 0.005804 0.028581
#
#
# Mechanical properties :
#
#
# Convention : Reuss Voigt Hill
#
# Bulk Modulus (GPa) = 19.17129 60.01307 39.59218
# Shear Modulus (GPa) = 25.34382 40.13091 32.73737
#
# Velocity S-wave (km/s) = 3.13814 3.94889 3.56663
# Velocity P-wave (km/s) = 4.53651 6.64161 5.68731
#
# Compressibility (1/GPa) = 0.05216132
#
# Stress axis : x y z
#
# Youngs Moduli (GPa) = 24.77559 137.58396 78.69641
#
# Poissons Ratio (x) = 0.89296 -0.51540
# Poissons Ratio (y) = 0.16080 0.32636
# Poissons Ratio (z) = -0.16226 0.57058
#
# Static dielectric constant tensor:
#      x y z
#    x 2.088990 0.038650 0.023270 
#    y 0.038650 1.999820 -0.063540 
#    z 0.023270 -0.063540 2.258700 
# 
# From -- ./inp_files/371598.got.cif
#   From: 2010.05.17/outbox.cif.g08.bks.cpg/sg2_186_cif.got.tgz:371598.got - 2010.06.03 11:33:40.
