data_PCOD9021640
_publ_section_title
;
Structure prediction by ZEFSAII (Michael W. Deem and Ramdas Pophale) SiO2 
 PCOD9021640
Probable space group: P -1
;
_chemical_formula_sum "Si O2"
_cell_formula_units_Z 13
_cell_length_a 8.986508
_cell_length_b 9.309115
_cell_length_c 16.345103
_cell_angle_alpha 46.067443
_cell_angle_beta 37.111391
_cell_angle_gamma 66.880500
_cell_volume 552.055550
_symmetry_space_group_name_H-M "P -1"
_symmetry_group_IT_number 2
_symmetry_cell_setting 'triclinic'
loop_
_space_group_symop_operation_xyz
x,y,z
-x,-y,-z
loop_
_atom_site_type_symbol
_atom_site_label
_atom_site_fract_x
_atom_site_fract_y
_atom_site_fract_z
Si Si1 0.080713 0.827005 0.362146
Si Si2 0.721782 0.727174 0.715230
Si Si3 0.731733 0.104831 0.153730
Si Si4 0.316738 0.510105 0.446346
Si Si5 0.162111 0.320331 0.754954
Si Si6 0.000000 0.500000 0.000000
Si Si7 0.763667 0.694436 0.899915
O O1 0.283207 0.705426 0.334464
O O2 0.944332 0.812008 0.516346
O O3 0.843253 0.695032 0.457229
O O4 0.217427 0.069853 0.178230
O O5 0.558016 0.885427 0.724719
O O6 0.792491 0.694857 0.789589
O O7 0.508129 0.491952 0.877394
O O8 0.887662 0.264849 0.093522
O O9 0.746949 0.870919 0.242790
O O10 0.877248 0.208663 0.964217
O O11 0.174267 0.470069 0.613449
O O12 0.620204 0.560903 0.317998
O O13 0.018490 0.375843 0.125267
#
# Coordination Sequence:
#
# PCOD9021640 Si02
#       7
#     2   2   2   2   2   1   2
#     4  11  23  44  65  98 132 172 219 277 316 397
#     4  10  23  41  68  99 127 174 215 272 330 390
#     4  10  22  41  65  97 128 174 215 265 335 378
#     4  10  24  41  63  94 129 176 221 260 328 387
#     4  10  22  43  65  89 137 174 214 265 324 400
#     4  10  22  38  64 100 128 162 216 272 316 384
#     4  10  22  40  63  97 132 165 215 264 342 373
#
# _framework density 23.548354
#
# number of rings (size 3 to 8) (size 9 to 14) (size 15 to 20)
#    0.000    1.846    0.000    2.308   10.769    0.000 
#    5.538    5.385    0.000    0.000    0.000    0.000 
#    0.000    0.000    0.000    0.000    0.000    0.000 
#
# Total GULP energy -72469.620784 kJ/mol
# GULP energy per Si atom -5574.586214 kJ/mol
# Density = 2.349476 g / cm^3
# Si number density = 23.548354 Si / 1000 Ang^3
#
#
#
# Elastic Constant Matrix: (Units=GPa)
#
#
# Indices 1 2 3 4 5 6 
#
# 1 55.1016 52.1489 -3.7909 2.8355 9.4723 13.6196
# 2 52.1489 81.2556 9.5834 -39.2306 -11.9081 2.4788
# 3 -3.7909 9.5834 48.9534 -16.7449 -9.2231 -0.7056
# 4 2.8355 -39.2306 -16.7449 37.1370 -1.6449 -0.6673
# 5 9.4723 -11.9081 -9.2231 -1.6449 15.5341 -14.4121
# 6 13.6196 2.4788 -0.7056 -0.6673 -14.4121 20.0877
#
#
#
# Elastic Compliance Matrix: (Units=1/GPa)
#
#
# Indices 1 2 3 4 5 6 
#
# 1 0.002186 0.007208 0.008506 0.012804 0.027127 0.017815
# 2 0.007208 0.004612 -0.006627 -0.000503 -0.030331 -0.027467
# 3 0.008506 -0.006627 0.023441 0.002884 0.000650 -0.003564
# 4 0.012804 -0.000503 0.002884 0.024697 -0.032922 -0.031318
# 5 0.027127 -0.030331 0.000650 -0.032922 0.020624 -0.000924
# 6 0.017815 -0.027467 -0.003564 -0.031318 -0.000924 0.039264
#
#
# Mechanical properties :
#
#
# Convention : Reuss Voigt Hill
#
# Bulk Modulus (GPa) = 20.65594 33.46592 27.06093
# Shear Modulus (GPa) = 44.33065 23.04305 33.68685
#
# Velocity S-wave (km/s) = 4.34353 3.13156 3.78635
# Velocity P-wave (km/s) = 5.82630 5.22666 5.53461
#
# Compressibility (1/GPa) = 0.04841223
#
# Stress axis : x y z
#
# Youngs Moduli (GPa) = 457.47420 216.81485 42.66010
#
# Poissons Ratio (x) = -1.56281 -0.36286
# Poissons Ratio (y) = -3.29750 0.28273
# Poissons Ratio (z) = -3.89120 1.43692
#
# Static dielectric constant tensor:
#      x y z
#    x 1.876060 0.010190 -0.061870 
#    y 0.010190 1.934340 -0.004450 
#    z -0.061870 -0.004450 1.846760 
# 
# From -- ./inp_files/491914.got.cif
#   From: 2010.05.17/outbox.cif.g08.bks.cpg/sg2_246_cif.got.tgz:491914.got - 2010.06.03 11:33:40.
