data_PCOD9021471
_publ_section_title
;
Structure prediction by ZEFSAII (Michael W. Deem and Ramdas Pophale) SiO2 
 PCOD9021471
Probable space group: P -1
;
_chemical_formula_sum "Si O2"
_cell_formula_units_Z 15
_cell_length_a 18.760686
_cell_length_b 6.605214
_cell_length_c 7.122611
_cell_angle_alpha 105.861109
_cell_angle_beta 118.914382
_cell_angle_gamma 53.519964
_cell_volume 621.092070
_symmetry_space_group_name_H-M "P -1"
_symmetry_group_IT_number 2
_symmetry_cell_setting 'triclinic'
loop_
_space_group_symop_operation_xyz
x,y,z
-x,-y,-z
loop_
_atom_site_type_symbol
_atom_site_label
_atom_site_fract_x
_atom_site_fract_y
_atom_site_fract_z
Si Si1 0.667716 0.431695 0.321789
Si Si2 0.495687 0.995307 0.719086
Si Si3 0.000000 0.500000 0.500000
Si Si4 0.826229 0.552834 0.542014
Si Si5 0.986221 0.253861 0.990467
Si Si6 0.664566 0.035144 0.954123
Si Si7 0.885664 0.748576 0.152555
Si Si8 0.650807 0.136768 0.531265
O O1 0.578396 0.714915 0.245900
O O2 0.763987 0.429421 0.401487
O O3 0.665757 0.341695 0.508401
O O4 0.656312 0.240123 0.135767
O O5 0.601246 0.922236 0.900274
O O6 0.500000 0.000000 0.500000
O O7 0.445481 0.845947 0.666833
O O8 0.099817 0.485376 0.534517
O O9 0.076021 0.196724 0.600179
O O10 0.893241 0.423688 0.781090
O O11 0.744040 0.852339 0.539975
O O12 0.081180 0.185643 0.976929
O O13 0.967352 0.438764 0.190673
O O14 0.000000 0.000000 0.000000
O O15 0.637577 0.156657 0.743349
O O16 0.778234 0.821650 0.036222
#
# Coordination Sequence:
#
# PCOD9021471 Si02
#       8
#     2   2   1   2   2   2   2   2
#     4  11  24  41  69 103 130 179 226 275 340 400
#     4   9  22  44  67  98 139 177 220 279 336 405
#     4  10  22  42  66  86 134 172 216 286 334 386
#     4  10  22  43  64  94 133 173 225 276 336 402
#     4  10  22  38  62  88 123 170 218 265 329 395
#     4  11  22  41  68  98 137 172 229 279 332 404
#     4  10  22  40  61  92 125 170 219 273 328 389
#     4  10  22  44  68  93 139 179 219 281 337 398
#
# _framework density 24.151007
#
# number of rings (size 3 to 8) (size 9 to 14) (size 15 to 20)
#    0.000    1.867    1.333    1.200    1.867    4.800 
#    0.000   14.000    0.000    0.000    0.000    0.000 
#    0.000    0.000    0.000    0.000    0.000    0.000 
#
# Total GULP energy -83700.395167 kJ/mol
# GULP energy per Si atom -5580.026344 kJ/mol
# Density = 2.409604 g / cm^3
# Si number density = 24.151007 Si / 1000 Ang^3
#
#
#
# Elastic Constant Matrix: (Units=GPa)
#
#
# Indices 1 2 3 4 5 6 
#
# 1 182.4076 32.2313 54.8012 -9.0034 31.7968 1.3979
# 2 32.2313 52.0966 -3.1467 -2.8570 8.0469 5.0983
# 3 54.8012 -3.1467 87.2226 -5.1496 13.8650 -4.2751
# 4 -9.0034 -2.8570 -5.1496 19.8864 0.0377 7.8303
# 5 31.7968 8.0469 13.8650 0.0377 52.1289 -12.5362
# 6 1.3979 5.0983 -4.2751 7.8303 -12.5362 28.6335
#
#
#
# Elastic Compliance Matrix: (Units=1/GPa)
#
#
# Indices 1 2 3 4 5 6 
#
# 1 0.008636 -0.004568 -0.004919 0.003144 -0.003963 -0.002937
# 2 -0.004568 0.023701 0.004267 0.004905 -0.003511 -0.006238
# 3 -0.004919 0.004267 0.015106 0.002115 -0.001564 0.000473
# 4 0.003144 0.004905 0.002115 0.061299 -0.008364 -0.021136
# 5 -0.003963 -0.003511 -0.001564 -0.008364 0.025992 0.014252
# 6 -0.002937 -0.006238 0.000473 -0.021136 0.014252 0.048269
#
#
# Mechanical properties :
#
#
# Convention : Reuss Voigt Hill
#
# Bulk Modulus (GPa) = 27.02515 54.38871 40.70693
# Shear Modulus (GPa) = 24.29825 35.98583 30.14204
#
# Velocity S-wave (km/s) = 3.17534 3.86428 3.53663
# Velocity P-wave (km/s) = 4.96569 6.51762 5.79386
#
# Compressibility (1/GPa) = 0.03700257
#
# Stress axis : x y z
#
# Youngs Moduli (GPa) = 115.79947 42.19280 66.19888
#
# Poissons Ratio (x) = 0.19273 0.32563
# Poissons Ratio (y) = 0.52896 -0.28247
# Poissons Ratio (z) = 0.56961 -0.18004
#
# Static dielectric constant tensor:
#      x y z
#    x 1.929150 -0.031350 -0.132810 
#    y -0.031350 1.918980 -0.038230 
#    z -0.132810 -0.038230 2.358890 
# 
# From -- ./inp_files/297099.got.cif
#   From: 2010.05.17/outbox.cif.g08.bks.cpg/sg2_149_cif.got.tgz:297099.got - 2010.06.03 11:33:40.
