data_PCOD9021591
_publ_section_title
;
Structure prediction by ZEFSAII (Michael W. Deem and Ramdas Pophale) SiO2 
 PCOD9021591
Probable space group: P -1
;
_chemical_formula_sum "Si O2"
_cell_formula_units_Z 16
_cell_length_a 16.289763
_cell_length_b 11.513222
_cell_length_c 6.450692
_cell_angle_alpha 123.891085
_cell_angle_beta 91.188160
_cell_angle_gamma 55.203114
_cell_volume 742.008782
_symmetry_space_group_name_H-M "P -1"
_symmetry_group_IT_number 2
_symmetry_cell_setting 'triclinic'
loop_
_space_group_symop_operation_xyz
x,y,z
-x,-y,-z
loop_
_atom_site_type_symbol
_atom_site_label
_atom_site_fract_x
_atom_site_fract_y
_atom_site_fract_z
Si Si1 0.408200 0.561141 0.889529
Si Si2 0.104796 0.439163 0.824565
Si Si3 0.004294 0.832423 0.101098
Si Si4 0.344164 0.106370 0.568792
Si Si5 0.530808 0.823515 0.613001
Si Si6 0.389148 0.859631 0.970972
Si Si7 0.847317 0.095615 0.724731
Si Si8 0.855825 0.832068 0.770393
O O1 0.437982 0.369098 0.642944
O O2 0.412629 0.668539 0.807643
O O3 0.500000 0.500000 0.000000
O O4 0.280838 0.713896 0.114124
O O5 0.216859 0.269833 0.781536
O O6 0.114787 0.351547 0.512329
O O7 0.087105 0.625036 0.002970
O O8 0.000000 0.500000 0.000000
O O9 0.084221 0.872030 0.097382
O O10 0.911205 0.002069 0.418803
O O11 0.940654 0.808569 0.907755
O O12 0.369292 0.194329 0.480203
O O13 0.427815 0.009574 0.666865
O O14 0.368061 0.936091 0.279198
O O15 0.484946 0.845976 0.863189
O O16 0.271675 0.019608 0.007574
O O17 0.853189 0.940499 0.683616
#
# Coordination Sequence:
#
# PCOD9021591 Si02
#       8
#     2   2   2   2   2   2   2   2
#     4  11  22  39  64  90 124 159 205 251 303 362
#     4  11  22  39  64  90 124 159 205 251 303 362
#     4  11  22  40  65  84 126 164 198 250 309 358
#     4  10  23  41  60  91 123 161 201 251 303 366
#     4  11  22  40  65  84 126 164 198 250 309 358
#     4  10  22  38  63  93 120 157 205 254 300 364
#     4  10  23  41  60  91 123 161 201 251 303 366
#     4  10  22  38  63  93 120 157 205 254 300 364
#
# _framework density 21.563086999999999
#
# number of rings (size 3 to 8) (size 9 to 14) (size 15 to 20)
#    0.000    1.500    2.500    2.250    3.500    0.000 
#    0.000    0.000    5.500    0.000    0.000    0.000 
#    0.000    0.000    0.000    0.000    0.000    0.000 
#
# Total GULP energy -89248.712333 kJ/mol
# GULP energy per Si atom -5578.044521 kJ/mol
# Density = 2.151401 g / cm^3
# Si number density = 21.563087 Si / 1000 Ang^3
#
#
#
# Elastic Constant Matrix: (Units=GPa)
#
#
# Indices 1 2 3 4 5 6 
#
# 1 93.0113 17.1528 18.7841 7.6064 -8.6429 1.2299
# 2 17.1528 60.3804 23.6331 18.7992 -11.6130 -9.5636
# 3 18.7841 23.6331 65.4136 19.8178 -7.9861 -12.6892
# 4 7.6064 18.7992 19.8178 21.2001 -3.9742 1.6443
# 5 -8.6429 -11.6130 -7.9861 -3.9742 37.6567 3.6770
# 6 1.2299 -9.5636 -12.6892 1.6443 3.6770 48.0481
#
#
#
# Elastic Compliance Matrix: (Units=1/GPa)
#
#
# Indices 1 2 3 4 5 6 
#
# 1 0.011905 -0.002567 -0.003026 0.001273 0.001607 -0.001781
# 2 -0.002567 0.025770 -0.000645 -0.020905 0.004488 0.005397
# 3 -0.003026 -0.000645 0.024419 -0.021464 0.001333 0.007030
# 4 0.001273 -0.020905 -0.021464 0.086239 -0.000357 -0.012786
# 5 0.001607 0.004488 0.001333 -0.000357 0.028649 -0.000976
# 6 -0.001781 0.005397 0.007030 -0.012786 -0.000976 0.024301
#
#
# Mechanical properties :
#
#
# Convention : Reuss Voigt Hill
#
# Bulk Modulus (GPa) = 20.15448 37.54947 28.85198
# Shear Modulus (GPa) = 21.71098 31.99667 26.85382
#
# Velocity S-wave (km/s) = 3.17655 3.85627 3.53280
# Velocity P-wave (km/s) = 4.77713 6.10568 5.48180
#
# Compressibility (1/GPa) = 0.04961675
#
# Stress axis : x y z
#
# Youngs Moduli (GPa) = 84.00047 38.80498 40.95202
#
# Poissons Ratio (x) = 0.09961 0.12393
# Poissons Ratio (y) = 0.21562 0.02642
# Poissons Ratio (z) = 0.25421 0.02504
#
# Static dielectric constant tensor:
#      x y z
#    x 1.824480 0.000960 -0.008620 
#    y 0.000960 1.796150 -0.018820 
#    z -0.008620 -0.018820 1.807470 
# 
# From -- ./inp_files/70844.got.cif
#   From: 2010.05.17/outbox.cif.g08.bks.cpg/sg2_36_cif.got.tgz:70844.got - 2010.06.03 11:33:40.
