data_PCOD9021954
_publ_section_title
;
Structure prediction by ZEFSAII (Michael W. Deem and Ramdas Pophale) SiO2 
 PCOD9021954
Probable space group: P -1
;
_chemical_formula_sum "Si O2"
_cell_formula_units_Z 14
_cell_length_a 8.698188
_cell_length_b 7.340096
_cell_length_c 15.979154
_cell_angle_alpha 108.569613
_cell_angle_beta 43.783579
_cell_angle_gamma 90.613040
_cell_volume 630.682325
_symmetry_space_group_name_H-M "P -1"
_symmetry_group_IT_number 2
_symmetry_cell_setting 'triclinic'
loop_
_space_group_symop_operation_xyz
x,y,z
-x,-y,-z
loop_
_atom_site_type_symbol
_atom_site_label
_atom_site_fract_x
_atom_site_fract_y
_atom_site_fract_z
Si Si1 0.986758 0.223767 0.905296
Si Si2 0.351153 0.392568 0.988743
Si Si3 0.219909 0.731296 0.605594
Si Si4 0.434077 0.213076 0.649094
Si Si5 0.480048 0.621236 0.662352
Si Si6 0.775792 0.893974 0.889151
Si Si7 0.454312 0.044336 0.784873
O O1 0.798991 0.444578 0.996177
O O2 0.174028 0.196352 0.750259
O O3 0.171383 0.163406 0.900099
O O4 0.500000 0.500000 0.000000
O O5 0.192484 0.312490 0.102512
O O6 0.500000 0.000000 0.000000
O O7 0.858178 0.058591 0.930058
O O8 0.395942 0.827652 0.503363
O O9 0.303624 0.705179 0.665597
O O10 0.284417 0.515607 0.499755
O O11 0.942852 0.842367 0.734692
O O12 0.401009 0.450961 0.715872
O O13 0.558722 0.076212 0.658598
O O14 0.496123 0.805440 0.739188
O O15 0.515211 0.183793 0.850000
#
# Coordination Sequence:
#
# PCOD9021954 Si02
#       7
#     2   2   2   2   2   2   2
#     4  10  22  39  63 101 123 166 213 263 325 368
#     4  12  26  44  60  91 135 178 217 264 315 400
#     4   9  18  38  63  99 133 157 214 266 324 375
#     4   8  19  35  63  99 127 155 209 277 312 361
#     4   9  17  35  60 103 125 160 200 284 318 362
#     4  12  24  42  63  94 130 181 209 252 327 393
#     4  10  22  38  67  99 124 166 221 266 331 363
#
# _framework density 22.198180000000001
#
# number of rings (size 3 to 8) (size 9 to 14) (size 15 to 20)
#    1.714    0.286    2.857    1.286    0.000    4.000 
#    0.000    0.000    0.000    5.143    0.000    0.000 
#    0.000    0.000    0.000    0.000    0.000    0.000 
#
# Total GULP energy -77948.338383 kJ/mol
# GULP energy per Si atom -5567.738456 kJ/mol
# Density = 2.214766 g / cm^3
# Si number density = 22.198180 Si / 1000 Ang^3
#
#
#
# Elastic Constant Matrix: (Units=GPa)
#
#
# Indices 1 2 3 4 5 6 
#
# 1 48.0412 28.3798 32.6835 8.6763 7.3557 29.5289
# 2 28.3798 119.9447 17.3161 -8.5033 -5.7404 30.0674
# 3 32.6835 17.3161 103.5846 -1.1890 -4.2639 7.6062
# 4 8.6763 -8.5033 -1.1890 41.3796 5.5953 4.6521
# 5 7.3557 -5.7404 -4.2639 5.5953 19.1401 5.2940
# 6 29.5289 30.0674 7.6062 4.6521 5.2940 40.7402
#
#
#
# Elastic Compliance Matrix: (Units=1/GPa)
#
#
# Indices 1 2 3 4 5 6 
#
# 1 0.058753 -0.004572 -0.016085 -0.007814 -0.016059 -0.033229
# 2 -0.004572 0.011499 0.000277 0.003224 0.006091 -0.006384
# 3 -0.016085 0.000277 0.014423 0.002070 0.006757 0.007647
# 4 -0.007814 0.003224 0.002070 0.026973 -0.003531 0.000276
# 5 -0.016059 0.006091 0.006757 -0.003531 0.063319 -0.001942
# 6 -0.033229 -0.006384 0.007647 0.000276 -0.001942 0.052135
#
#
# Mechanical properties :
#
#
# Convention : Reuss Voigt Hill
#
# Bulk Modulus (GPa) = 22.77073 47.59216 35.18144
# Shear Modulus (GPa) = 17.69897 33.13138 25.41518
#
# Velocity S-wave (km/s) = 2.82674 3.86751 3.38734
# Velocity P-wave (km/s) = 4.57539 6.43660 5.58408
#
# Compressibility (1/GPa) = 0.04391603
#
# Stress axis : x y z
#
# Youngs Moduli (GPa) = 17.02031 86.96039 69.33285
#
# Poissons Ratio (x) = 0.39760 1.11519
# Poissons Ratio (y) = 0.07782 -0.01919
# Poissons Ratio (z) = 0.27376 -0.02407
#
# Static dielectric constant tensor:
#      x y z
#    x 1.862260 -0.014550 0.042070 
#    y -0.014550 1.858540 0.021440 
#    z 0.042070 0.021440 1.861690 
# 
# From -- ./inp_files/586756.got.cif
#   From: 2010.05.17/outbox.cif.g08.bks.cpg/sg2_294_cif.got.tgz:586756.got - 2010.06.03 11:33:40.
