data_PCOD9021614
_publ_section_title
;
Structure prediction by ZEFSAII (Michael W. Deem and Ramdas Pophale) SiO2 
 PCOD9021614
Probable space group: P -1
;
_chemical_formula_sum "Si O2"
_cell_formula_units_Z 14
_cell_length_a 8.723438
_cell_length_b 7.887775
_cell_length_c 8.445015
_cell_angle_alpha 63.841994
_cell_angle_beta 86.455672
_cell_angle_gamma 92.804495
_cell_volume 518.691550
_symmetry_space_group_name_H-M "P -1"
_symmetry_group_IT_number 2
_symmetry_cell_setting 'triclinic'
loop_
_space_group_symop_operation_xyz
x,y,z
-x,-y,-z
loop_
_atom_site_type_symbol
_atom_site_label
_atom_site_fract_x
_atom_site_fract_y
_atom_site_fract_z
Si Si1 0.425966 0.133788 0.320567
Si Si2 0.790963 0.348625 0.680615
Si Si3 0.387271 0.568088 0.618700
Si Si4 0.914812 0.864868 0.193228
Si Si5 0.880065 0.777890 0.571895
Si Si6 0.871775 0.396870 0.167077
Si Si7 0.662940 0.113191 0.070139
O O1 0.498478 0.337433 0.296292
O O2 0.244236 0.136266 0.343848
O O3 0.493597 0.094743 0.161559
O O4 0.500000 0.000000 0.500000
O O5 0.714610 0.297852 0.537007
O O6 0.801687 0.576709 0.591856
O O7 0.963781 0.298135 0.735033
O O8 0.682916 0.235109 0.860694
O O9 0.500000 0.500000 0.500000
O O10 0.243735 0.476781 0.777104
O O11 0.916530 0.906480 0.364490
O O12 0.737963 0.912238 0.147963
O O13 0.000000 0.000000 0.000000
O O14 0.026499 0.715881 0.676195
O O15 0.764437 0.249359 0.130612
O O16 0.000000 0.500000 0.000000
#
# Coordination Sequence:
#
# PCOD9021614 Si02
#       7
#     2   2   2   2   2   2   2
#     4  11  24  43  65  94 136 176 215 272 339 397
#     4  11  22  40  67  97 126 172 222 272 328 387
#     4  11  24  41  66  97 133 174 223 274 331 391
#     4  10  22  38  63  95 126 166 217 274 325 386
#     4  12  22  39  70  91 130 176 220 264 336 384
#     4  11  24  41  65 103 132 169 226 276 326 402
#     4  10  23  43  66  94 137 170 217 274 336 392
#
# _framework density 26.990991000000001
#
# number of rings (size 3 to 8) (size 9 to 14) (size 15 to 20)
#    0.000    1.143    5.714    0.429    0.000    3.429 
#    0.000    0.714    0.000    0.000    0.000    0.000 
#    0.000    0.000    0.000    0.000    0.000    0.000 
#
# Total GULP energy -78145.526126 kJ/mol
# GULP energy per Si atom -5581.823295 kJ/mol
# Density = 2.692956 g / cm^3
# Si number density = 26.990991 Si / 1000 Ang^3
#
#
#
# Elastic Constant Matrix: (Units=GPa)
#
#
# Indices 1 2 3 4 5 6 
#
# 1 157.3695 54.4498 53.4878 19.6274 -34.1401 -34.2261
# 2 54.4498 110.7396 22.4407 -0.6014 -25.1488 -30.4483
# 3 53.4878 22.4407 147.2562 22.3574 -25.5265 -26.3225
# 4 19.6274 -0.6014 22.3574 25.5547 -16.8049 -5.7101
# 5 -34.1401 -25.1488 -25.5265 -16.8049 56.9753 27.7440
# 6 -34.2261 -30.4483 -26.3225 -5.7101 27.7440 59.5684
#
#
#
# Elastic Compliance Matrix: (Units=1/GPa)
#
#
# Indices 1 2 3 4 5 6 
#
# 1 0.009361 -0.003549 -0.001618 -0.004794 0.000957 0.001944
# 2 -0.003549 0.012581 -0.000422 0.006471 0.003617 0.003141
# 3 -0.001618 -0.000422 0.008724 -0.005954 -0.000058 0.002166
# 4 -0.004794 0.006471 -0.005954 0.058081 0.016487 -0.004189
# 5 0.000957 0.003617 -0.000058 0.016487 0.029272 -0.009680
# 6 0.001944 0.003141 0.002166 -0.004189 -0.009680 0.024574
#
#
# Mechanical properties :
#
#
# Convention : Reuss Voigt Hill
#
# Bulk Modulus (GPa) = 51.31605 75.12466 63.22036
# Shear Modulus (GPa) = 31.19807 47.41881 39.30844
#
# Velocity S-wave (km/s) = 3.40350 4.19601 3.82036
# Velocity P-wave (km/s) = 5.87355 7.16722 6.55239
#
# Compressibility (1/GPa) = 0.01948708
#
# Stress axis : x y z
#
# Youngs Moduli (GPa) = 106.83051 79.48624 114.62633
#
# Poissons Ratio (x) = 0.28208 0.18547
# Poissons Ratio (y) = 0.37912 0.04841
# Poissons Ratio (z) = 0.17286 0.03357
#
# Static dielectric constant tensor:
#      x y z
#    x 2.095820 0.071990 -0.125700 
#    y 0.071990 2.370140 -0.077130 
#    z -0.125700 -0.077130 2.127960 
# 
# From -- ./inp_files/156592.got.cif
#   From: 2010.05.17/outbox.cif.g08.bks.cpg/sg2_79_cif.got.tgz:156592.got - 2010.06.03 11:33:40.
