data_PCOD9021058
_publ_section_title
;
Structure prediction by ZEFSAII (Michael W. Deem and Ramdas Pophale) SiO2 
 PCOD9021058
Probable space group: P -1
;
_chemical_formula_sum "Si O2"
_cell_formula_units_Z 14
_cell_length_a 14.786890
_cell_length_b 8.310476
_cell_length_c 8.825793
_cell_angle_alpha 106.868162
_cell_angle_beta 49.096855
_cell_angle_gamma 122.000535
_cell_volume 692.434085
_symmetry_space_group_name_H-M "P -1"
_symmetry_group_IT_number 2
_symmetry_cell_setting 'triclinic'
loop_
_space_group_symop_operation_xyz
x,y,z
-x,-y,-z
loop_
_atom_site_type_symbol
_atom_site_label
_atom_site_fract_x
_atom_site_fract_y
_atom_site_fract_z
Si Si1 0.138358 0.389678 0.350663
Si Si2 0.117262 0.110585 0.028375
Si Si3 0.924132 0.109121 0.691154
Si Si4 0.568607 0.692709 0.373211
Si Si5 0.404930 0.437312 0.231073
Si Si6 0.709953 0.194993 0.824826
Si Si7 0.525888 0.856900 0.744382
O O1 0.100151 0.259752 0.203373
O O2 0.258358 0.374320 0.305713
O O3 0.192252 0.604305 0.299713
O O4 0.022158 0.322297 0.586283
O O5 0.099885 0.946770 0.123130
O O6 0.271798 0.225535 0.823616
O O7 0.000000 0.000000 0.000000
O O8 0.783844 0.074854 0.763889
O O9 0.000000 0.000000 0.500000
O O10 0.500000 0.500000 0.500000
O O11 0.470854 0.623080 0.316860
O O12 0.554615 0.846028 0.534988
O O13 0.420061 0.272670 0.260563
O O14 0.500000 0.500000 0.000000
O O15 0.600989 0.068646 0.784810
O O16 0.630412 0.226204 0.060555
#
# Coordination Sequence:
#
# PCOD9021058 Si02
#       7
#     2   2   2   2   2   2   2
#     4  11  22  41  67  96 127 180 214 266 321 398
#     4  11  24  41  67  97 131 169 221 273 321 388
#     4  10  24  41  65  89 122 174 220 260 324 398
#     4  10  22  38  66  98 129 167 218 271 318 382
#     4  11  19  39  69  96 127 167 226 263 320 381
#     4  11  22  41  65  93 136 165 223 268 331 387
#     4  10  22  37  65  97 130 171 209 278 325 384
#
# _framework density 20.218532
#
# number of rings (size 3 to 8) (size 9 to 14) (size 15 to 20)
#    0.000    1.429    2.857    3.000    8.000    0.000 
#    0.000    3.571    0.000    0.000    0.000    0.000 
#    0.000    0.000    0.000    0.000    0.000    0.000 
#
# Total GULP energy -77989.944482 kJ/mol
# GULP energy per Si atom -5570.710320 kJ/mol
# Density = 2.017251 g / cm^3
# Si number density = 20.218532 Si / 1000 Ang^3
#
#
#
# Elastic Constant Matrix: (Units=GPa)
#
#
# Indices 1 2 3 4 5 6 
#
# 1 90.8811 30.5727 32.8042 -4.7161 -3.4594 8.4453
# 2 30.5727 89.4620 36.6083 -13.0610 17.5263 12.1266
# 3 32.8042 36.6083 105.7804 -19.4032 19.2035 7.5457
# 4 -4.7161 -13.0610 -19.4032 37.9093 3.4957 -0.1468
# 5 -3.4594 17.5263 19.2035 3.4957 33.3999 5.1053
# 6 8.4453 12.1266 7.5457 -0.1468 5.1053 34.4288
#
#
#
# Elastic Compliance Matrix: (Units=1/GPa)
#
#
# Indices 1 2 3 4 5 6 
#
# 1 0.014526 -0.004634 -0.004572 -0.002798 0.007164 -0.002003
# 2 -0.004634 0.016103 -0.001553 0.004912 -0.008097 -0.002973
# 3 -0.004572 -0.001553 0.014255 0.006981 -0.008561 -0.000156
# 4 -0.002798 0.004912 0.006981 0.032225 -0.010110 -0.000937
# 5 0.007164 -0.008097 -0.008561 -0.010110 0.041402 -0.003212
# 6 -0.002003 -0.002973 -0.000156 -0.000937 -0.003212 0.031091
#
#
# Mechanical properties :
#
#
# Convention : Reuss Voigt Hill
#
# Bulk Modulus (GPa) = 42.79578 54.01044 48.40311
# Shear Modulus (GPa) = 27.94736 33.55684 30.75210
#
# Velocity S-wave (km/s) = 3.72192 4.07837 3.90421
# Velocity P-wave (km/s) = 6.29943 6.99634 6.65701
#
# Compressibility (1/GPa) = 0.02336679
#
# Stress axis : x y z
#
# Youngs Moduli (GPa) = 68.84172 62.09931 70.15196
#
# Poissons Ratio (x) = 0.28774 0.32073
# Poissons Ratio (y) = 0.31898 0.10895
# Poissons Ratio (z) = 0.31474 0.09645
#
# Static dielectric constant tensor:
#      x y z
#    x 5.290050 1.948280 -0.877610 
#    y 1.948280 2.857920 -0.471690 
#    z -0.877610 -0.471690 1.946440 
# 
# From -- ./inp_files/195814.got.cif
#   From: 2010.05.17/outbox.cif.g08.bks.cpg/sg2_98_cif.got.tgz:195814.got - 2010.06.03 11:33:40.
