data_PCOD9021629
_publ_section_title
;
Structure prediction by ZEFSAII (Michael W. Deem and Ramdas Pophale) SiO2 
 PCOD9021629
Probable space group: P -1
;
_chemical_formula_sum "Si O2"
_cell_formula_units_Z 14
_cell_length_a 13.251579
_cell_length_b 11.552250
_cell_length_c 15.846169
_cell_angle_alpha 39.957346
_cell_angle_beta 22.640260
_cell_angle_gamma 41.805469
_cell_volume 592.594200
_symmetry_space_group_name_H-M "P -1"
_symmetry_group_IT_number 2
_symmetry_cell_setting 'triclinic'
loop_
_space_group_symop_operation_xyz
x,y,z
-x,-y,-z
loop_
_atom_site_type_symbol
_atom_site_label
_atom_site_fract_x
_atom_site_fract_y
_atom_site_fract_z
Si Si1 0.111188 0.209787 0.357967
Si Si2 0.512979 0.670791 0.455663
Si Si3 0.203008 0.096795 0.604966
Si Si4 0.058006 0.155983 0.244737
Si Si5 0.078453 0.406453 0.668209
Si Si6 0.749039 0.144404 0.142948
Si Si7 0.328521 0.033564 0.952943
O O1 0.052384 0.268726 0.272769
O O2 0.023345 0.382576 0.387902
O O3 0.957520 0.046470 0.595630
O O4 0.415111 0.115846 0.172924
O O5 0.500000 0.500000 0.500000
O O6 0.207929 0.767087 0.644641
O O7 0.667390 0.617154 0.452806
O O8 0.665488 0.815989 0.208133
O O9 0.145664 0.275503 0.609211
O O10 0.465728 0.117198 0.337902
O O11 0.277482 0.914595 0.707032
O O12 0.928024 0.066660 0.794057
O O13 0.306315 0.141982 0.998476
O O14 0.837902 0.333282 0.945080
O O15 0.000000 0.000000 0.000000
#
# Coordination Sequence:
#
# PCOD9021629 Si02
#       7
#     2   2   2   2   2   2   2
#     4  10  23  44  61  90 129 176 210 263 318 373
#     4  11  23  41  65 100 128 163 215 269 320 369
#     4  10  22  38  63  97 126 168 209 257 325 379
#     4  10  23  42  65  87 129 172 218 259 316 381
#     4  11  22  40  65  94 134 164 208 267 318 378
#     4   9  20  37  60  90 128 161 204 255 314 371
#     4  11  24  41  67  94 127 172 215 258 320 386
#
# _framework density 23.624936999999999
#
# number of rings (size 3 to 8) (size 9 to 14) (size 15 to 20)
#    0.000    1.714    2.857    0.429    6.000    3.429 
#    2.571    1.429    0.000    0.000    0.000    0.000 
#    0.000    0.000    0.000    0.000    0.000    0.000 
#
# Total GULP energy -78265.787445 kJ/mol
# GULP energy per Si atom -5590.413389 kJ/mol
# Density = 2.357117 g / cm^3
# Si number density = 23.624937 Si / 1000 Ang^3
#
#
#
# Elastic Constant Matrix: (Units=GPa)
#
#
# Indices 1 2 3 4 5 6 
#
# 1 61.9662 9.4831 16.4123 13.6516 -4.9414 13.7662
# 2 9.4831 120.3438 31.8005 8.2883 3.6804 17.0012
# 3 16.4123 31.8005 88.8211 17.9299 -21.3120 -0.6335
# 4 13.6516 8.2883 17.9299 29.9188 5.1500 -2.3984
# 5 -4.9414 3.6804 -21.3120 5.1500 31.3890 4.3290
# 6 13.7662 17.0012 -0.6335 -2.3984 4.3290 33.7970
#
#
#
# Elastic Compliance Matrix: (Units=1/GPa)
#
#
# Indices 1 2 3 4 5 6 
#
# 1 0.021665 0.000505 -0.000289 -0.011849 0.006584 -0.010768
# 2 0.000505 0.010332 -0.004678 -0.000073 -0.003602 -0.005035
# 3 -0.000289 -0.004678 0.019384 -0.012916 0.015798 -0.000106
# 4 -0.011849 -0.000073 -0.012916 0.050989 -0.020491 0.010864
# 5 0.006584 -0.003602 0.015798 -0.020491 0.048542 -0.008246
# 6 -0.010768 -0.005035 -0.000106 0.010864 -0.008246 0.038332
#
#
# Mechanical properties :
#
#
# Convention : Reuss Voigt Hill
#
# Bulk Modulus (GPa) = 23.55327 42.94697 33.25012
# Shear Modulus (GPa) = 23.54921 33.24999 28.39960
#
# Velocity S-wave (km/s) = 3.16063 3.75562 3.47090
# Velocity P-wave (km/s) = 4.82812 6.08476 5.49250
#
# Compressibility (1/GPa) = 0.04245696
#
# Stress axis : x y z
#
# Youngs Moduli (GPa) = 46.15804 96.78354 51.58866
#
# Poissons Ratio (x) = -0.04889 0.01492
# Poissons Ratio (y) = -0.02332 0.24133
# Poissons Ratio (z) = 0.01335 0.45275
#
# Static dielectric constant tensor:
#      x y z
#    x 2.018000 0.037770 -0.022860 
#    y 0.037770 1.871080 0.007810 
#    z -0.022860 0.007810 1.896450 
# 
# From -- ./inp_files/68659.got.cif
#   From: 2010.05.17/outbox.cif.g08.bks.cpg/sg2_35_cif.got.tgz:68659.got - 2010.06.03 11:33:40.
