data_PCOD9021380
_publ_section_title
;
Structure prediction by ZEFSAII (Michael W. Deem and Ramdas Pophale) SiO2 
 PCOD9021380
Probable space group: P -1
;
_chemical_formula_sum "Si O2"
_cell_formula_units_Z 16
_cell_length_a 17.844017
_cell_length_b 8.459585
_cell_length_c 9.917442
_cell_angle_alpha 42.615509
_cell_angle_beta 34.138787
_cell_angle_gamma 54.203491
_cell_volume 567.692786
_symmetry_space_group_name_H-M "P -1"
_symmetry_group_IT_number 2
_symmetry_cell_setting 'triclinic'
loop_
_space_group_symop_operation_xyz
x,y,z
-x,-y,-z
loop_
_atom_site_type_symbol
_atom_site_label
_atom_site_fract_x
_atom_site_fract_y
_atom_site_fract_z
Si Si1 0.203034 0.915755 0.017092
Si Si2 0.834508 0.317840 0.234312
Si Si3 0.351488 0.362312 0.219466
Si Si4 0.931984 0.885189 0.538282
Si Si5 0.617234 0.359232 0.725990
Si Si6 0.380078 0.833560 0.576332
Si Si7 0.663577 0.863811 0.052925
Si Si8 0.080589 0.234256 0.786032
O O1 0.272798 0.010642 0.988231
O O2 0.165083 0.135252 0.845272
O O3 0.309102 0.782271 0.856872
O O4 0.058697 0.782518 0.341197
O O5 0.738210 0.456707 0.388738
O O6 0.731457 0.226654 0.331167
O O7 0.888759 0.106879 0.375505
O O8 0.973684 0.405837 0.898226
O O9 0.358105 0.544798 0.219104
O O10 0.193024 0.320058 0.456791
O O11 0.401204 0.117185 0.360255
O O12 0.461423 0.405976 0.910912
O O13 0.790068 0.747485 0.870610
O O14 0.000000 0.000000 0.500000
O O15 0.627399 0.079957 0.875847
O O16 0.522568 0.740975 0.383134
O O17 0.000000 0.000000 0.000000
#
# Coordination Sequence:
#
# PCOD9021380 Si02
#       8
#     2   2   2   2   2   2   2   2
#     4   9  16  28  46  68  96 124 154 198 238 280
#     4  10  18  30  48  75  98 119 161 205 238 276
#     4   9  18  32  48  68 101 128 158 196 236 293
#     4   8  16  27  41  64  93 126 150 189 239 280
#     4   9  19  32  47  72  99 129 159 191 241 289
#     4  10  18  29  47  76  95 120 160 202 240 271
#     4   9  17  29  45  69  97 125 158 194 236 285
#     4  10  17  31  49  74  96 120 159 200 242 274
#
# _framework density 28.184259999999998
#
# number of rings (size 3 to 8) (size 9 to 14) (size 15 to 20)
#    0.000    2.750    2.500    0.375    0.000    5.000 
#    0.000    0.000    0.000    0.750    0.000   28.875 
#    0.000    0.000    0.000    0.000    0.000    0.000 
#
# Total GULP energy -89458.250252 kJ/mol
# GULP energy per Si atom -5591.140641 kJ/mol
# Density = 2.812011 g / cm^3
# Si number density = 28.184260 Si / 1000 Ang^3
#
#
#
# Elastic Constant Matrix: (Units=GPa)
#
#
# Indices 1 2 3 4 5 6 
#
# 1 82.2495 17.8790 29.1369 3.4738 -15.4652 -10.9939
# 2 17.8790 117.5387 61.9037 28.4006 -7.5517 -23.2423
# 3 29.1369 61.9037 258.7580 64.6898 -20.4381 -19.4773
# 4 3.4738 28.4006 64.6898 60.9887 -8.9018 -12.9515
# 5 -15.4652 -7.5517 -20.4381 -8.9018 49.8211 11.9209
# 6 -10.9939 -23.2423 -19.4773 -12.9515 11.9209 40.5043
#
#
#
# Elastic Compliance Matrix: (Units=1/GPa)
#
#
# Indices 1 2 3 4 5 6 
#
# 1 0.013742 -0.001279 -0.001367 0.002193 0.003416 0.002035
# 2 -0.001279 0.011010 -0.001582 -0.002519 -0.000948 0.004683
# 3 -0.001367 -0.001582 0.005743 -0.005246 0.000862 -0.000449
# 4 0.002193 -0.002519 -0.005246 0.024053 0.001518 0.003871
# 5 0.003416 -0.000948 0.000862 0.001518 0.022920 -0.005463
# 6 0.002035 0.004683 -0.000449 0.003871 -0.005463 0.030558
#
#
# Mechanical properties :
#
#
# Convention : Reuss Voigt Hill
#
# Bulk Modulus (GPa) = 45.37404 75.15394 60.26399
# Shear Modulus (GPa) = 40.37863 53.57123 46.97493
#
# Velocity S-wave (km/s) = 3.78916 4.36449 4.08696
# Velocity P-wave (km/s) = 5.93950 7.21952 6.61057
#
# Compressibility (1/GPa) = 0.02203903
#
# Stress axis : x y z
#
# Youngs Moduli (GPa) = 72.76989 90.82973 174.12661
#
# Poissons Ratio (x) = 0.11613 0.23800
# Poissons Ratio (y) = 0.09304 0.27554
# Poissons Ratio (z) = 0.09946 0.14373
#
# Static dielectric constant tensor:
#      x y z
#    x 2.148120 -0.009000 0.052560 
#    y -0.009000 2.170930 0.017540 
#    z 0.052560 0.017540 2.354080 
# 
# From -- ./inp_files/422056.got.cif
#   From: 2010.05.17/outbox.cif.g08.bks.cpg/sg2_212_cif.got.tgz:422056.got - 2010.06.03 11:33:40.
