data_PCOD9021688
_publ_section_title
;
Structure prediction by ZEFSAII (Michael W. Deem and Ramdas Pophale) SiO2 
 PCOD9021688
Probable space group: P -1
;
_chemical_formula_sum "Si O2"
_cell_formula_units_Z 13
_cell_length_a 17.295335
_cell_length_b 20.233204
_cell_length_c 14.175168
_cell_angle_alpha 21.105916
_cell_angle_beta 157.361069
_cell_angle_gamma 160.547116
_cell_volume 554.764236
_symmetry_space_group_name_H-M "P -1"
_symmetry_group_IT_number 2
_symmetry_cell_setting 'triclinic'
loop_
_space_group_symop_operation_xyz
x,y,z
-x,-y,-z
loop_
_atom_site_type_symbol
_atom_site_label
_atom_site_fract_x
_atom_site_fract_y
_atom_site_fract_z
Si Si1 0.277111 0.705203 0.566324
Si Si2 0.067058 0.626380 0.781690
Si Si3 0.068817 0.228102 0.223690
Si Si4 0.000106 0.221044 0.698141
Si Si5 0.598762 0.551902 0.433728
Si Si6 0.378408 0.021288 0.091258
Si Si7 0.500000 0.500000 0.000000
O O1 0.425878 0.596780 0.878441
O O2 0.000000 0.500000 0.500000
O O3 0.230605 0.807290 0.469208
O O4 0.392985 0.884697 0.372631
O O5 0.354393 0.830598 0.858946
O O6 0.010784 0.713881 0.507252
O O7 0.844831 0.563857 0.683825
O O8 0.050974 0.404335 0.030332
O O9 0.364084 0.367593 0.350488
O O10 0.000000 0.000000 0.500000
O O11 0.866325 0.146647 0.022621
O O12 0.247437 0.418822 0.767320
O O13 0.000000 0.000000 0.000000
O O14 0.500000 0.500000 0.500000
O O15 0.658376 0.794545 0.154669
#
# Coordination Sequence:
#
# PCOD9021688 Si02
#       7
#     2   2   2   2   2   2   1
#     4  10  22  41  69 101 143 182 231 279 339 421
#     4  11  27  43  71 104 141 182 234 287 352 415
#     4  11  24  46  70 101 134 181 234 288 349 414
#     4  11  23  41  66 102 135 181 226 279 342 406
#     4  11  25  48  69 100 137 179 235 292 348 414
#     4  11  24  45  70 103 140 183 231 286 348 414
#     4  10  22  38  64  92 136 180 220 272 330 398
#
# _framework density 23.433378000000001
#
# number of rings (size 3 to 8) (size 9 to 14) (size 15 to 20)
#    0.000    1.231    1.538    3.692    0.000   12.923 
#    0.000    0.000    0.000    0.000    0.000    0.000 
#    0.000    0.000    0.000    0.000    0.000    0.000 
#
# Total GULP energy -72404.624942 kJ/mol
# GULP energy per Si atom -5569.586534 kJ/mol
# Density = 2.338004 g / cm^3
# Si number density = 23.433378 Si / 1000 Ang^3
#
#
#
# Elastic Constant Matrix: (Units=GPa)
#
#
# Indices 1 2 3 4 5 6 
#
# 1 96.9510 30.4505 41.7506 7.1658 17.4556 16.9345
# 2 30.4505 142.2736 34.6016 30.9161 -0.7764 -2.7901
# 3 41.7506 34.6016 99.2698 8.5235 36.4894 9.1477
# 4 7.1658 30.9161 8.5235 61.7215 2.1677 -0.3967
# 5 17.4556 -0.7764 36.4894 2.1677 53.7535 17.6028
# 6 16.9345 -2.7901 9.1477 -0.3967 17.6028 35.5925
#
#
#
# Elastic Compliance Matrix: (Units=1/GPa)
#
#
# Indices 1 2 3 4 5 6 
#
# 1 0.013923 -0.001883 -0.004915 -0.000057 0.000709 -0.005860
# 2 -0.001883 0.009092 -0.003114 -0.003993 0.002677 0.001041
# 3 -0.004915 -0.003114 0.016965 0.000195 -0.011016 0.003184
# 4 -0.000057 -0.003993 0.000195 0.018220 -0.001030 0.000376
# 5 0.000709 0.002677 -0.011016 -0.001030 0.029891 -0.012091
# 6 -0.005860 0.001041 0.003184 0.000376 -0.012091 0.036131
#
#
# Mechanical properties :
#
#
# Convention : Reuss Voigt Hill
#
# Bulk Modulus (GPa) = 49.61534 61.34441 55.47987
# Shear Modulus (GPa) = 33.16440 45.65961 39.41201
#
# Velocity S-wave (km/s) = 3.76608 4.41895 4.10552
# Velocity P-wave (km/s) = 6.33483 7.22989 6.79711
#
# Compressibility (1/GPa) = 0.02015506
#
# Stress axis : x y z
#
# Youngs Moduli (GPa) = 71.82564 109.98981 58.94414
#
# Poissons Ratio (x) = 0.20713 0.28971
# Poissons Ratio (y) = 0.13526 0.18356
# Poissons Ratio (z) = 0.35302 0.34252
#
# Static dielectric constant tensor:
#      x y z
#    x 1.926580 -0.012350 -0.006290 
#    y -0.012350 1.930330 -0.019010 
#    z -0.006290 -0.019010 1.881320 
# 
# From -- ./inp_files/539235.got.cif
#   From: 2010.05.17/outbox.cif.g08.bks.cpg/sg2_270_cif.got.tgz:539235.got - 2010.06.03 11:33:40.
