data_PCOD9021209
_publ_section_title
;
Structure prediction by ZEFSAII (Michael W. Deem and Ramdas Pophale) SiO2 
 PCOD9021209
Probable space group: P -1
;
_chemical_formula_sum "Si O2"
_cell_formula_units_Z 14
_cell_length_a 16.748113
_cell_length_b 11.548504
_cell_length_c 16.491175
_cell_angle_alpha 21.896863
_cell_angle_beta 32.166331
_cell_angle_gamma 29.435874
_cell_volume 571.602387
_symmetry_space_group_name_H-M "P -1"
_symmetry_group_IT_number 2
_symmetry_cell_setting 'triclinic'
loop_
_space_group_symop_operation_xyz
x,y,z
-x,-y,-z
loop_
_atom_site_type_symbol
_atom_site_label
_atom_site_fract_x
_atom_site_fract_y
_atom_site_fract_z
Si Si1 0.144353 0.370339 0.893151
Si Si2 0.681575 0.181151 0.552856
Si Si3 0.133074 0.247599 0.642969
Si Si4 0.843218 0.203256 0.852804
Si Si5 0.588150 0.195960 0.192731
Si Si6 0.637722 0.193387 0.399638
Si Si7 0.498053 0.772271 0.034716
O O1 0.188950 0.674337 0.624202
O O2 0.000000 0.500000 0.000000
O O3 0.102144 0.176231 0.982391
O O4 0.317442 0.083117 0.970786
O O5 0.500000 0.500000 0.500000
O O6 0.715418 0.104418 0.478604
O O7 0.645170 0.889512 0.816769
O O8 0.145221 0.572745 0.379152
O O9 0.948289 0.280686 0.782282
O O10 0.244873 0.116419 0.710341
O O11 0.215640 0.949701 0.698122
O O12 0.662307 0.311821 0.976676
O O13 0.523241 0.472375 0.141962
O O14 0.473692 0.008984 0.389384
O O15 0.525258 0.591334 0.216515
#
# Coordination Sequence:
#
# PCOD9021209 Si02
#       7
#     2   2   2   2   2   2   2
#     4  11  23  40  60  85 120 163 203 236 281 349
#     4  10  22  38  58  84 116 159 202 234 278 345
#     4  10  22  38  61  93 120 149 188 242 309 358
#     4  11  22  39  62  87 123 157 187 242 301 345
#     4  11  21  37  65  95 116 145 195 248 302 354
#     4  11  21  38  63  89 118 152 194 247 298 345
#     4  10  22  40  62  88 119 152 195 248 295 346
#
# _framework density 24.492549
#
# number of rings (size 3 to 8) (size 9 to 14) (size 15 to 20)
#    0.000    1.429    0.000    7.286    0.000    5.143 
#    0.000    4.286    0.000   14.571    0.000    0.000 
#    0.000    0.000    0.000    0.000    0.000    0.000 
#
# Total GULP energy -78335.176889 kJ/mol
# GULP energy per Si atom -5595.369778 kJ/mol
# Density = 2.443680 g / cm^3
# Si number density = 24.492549 Si / 1000 Ang^3
#
#
#
# Elastic Constant Matrix: (Units=GPa)
#
#
# Indices 1 2 3 4 5 6 
#
# 1 58.3267 -0.0771 44.7104 -9.7314 -13.3138 2.6895
# 2 -0.0771 57.3154 4.3920 9.8003 -6.7960 6.4606
# 3 44.7104 4.3920 166.9446 -0.2538 -17.0166 -14.0343
# 4 -9.7314 9.8003 -0.2538 34.6462 -6.6334 -2.4773
# 5 -13.3138 -6.7960 -17.0166 -6.6334 41.0865 3.3989
# 6 2.6895 6.4606 -14.0343 -2.4773 3.3989 25.8528
#
#
#
# Elastic Compliance Matrix: (Units=1/GPa)
#
#
# Indices 1 2 3 4 5 6 
#
# 1 0.025585 0.000849 -0.006664 0.007851 0.007495 -0.006724
# 2 0.000849 0.019458 -0.001000 -0.005198 0.002766 -0.006355
# 3 -0.006664 -0.001000 0.008294 -0.001054 0.000504 0.005278
# 4 0.007851 -0.005198 -0.001054 0.033947 0.006538 0.002303
# 5 0.007495 0.002766 0.000504 0.006538 0.028850 -0.004364
# 6 -0.006724 -0.006355 0.005278 0.002303 -0.004364 0.044628
#
#
# Mechanical properties :
#
#
# Convention : Reuss Voigt Hill
#
# Bulk Modulus (GPa) = 25.18296 42.29304 33.73800
# Shear Modulus (GPa) = 26.64843 35.88786 31.26815
#
# Velocity S-wave (km/s) = 3.30210 3.83202 3.57688
# Velocity P-wave (km/s) = 4.98424 6.07325 5.55549
#
# Compressibility (1/GPa) = 0.03970939
#
# Stress axis : x y z
#
# Youngs Moduli (GPa) = 39.08548 51.39226 120.56255
#
# Poissons Ratio (x) = -0.04364 0.80340
# Poissons Ratio (y) = -0.03319 0.12051
# Poissons Ratio (z) = 0.26046 0.05137
#
# Static dielectric constant tensor:
#      x y z
#    x 2.023170 -0.025460 0.054940 
#    y -0.025460 2.038950 -0.047760 
#    z 0.054940 -0.047760 1.959850 
# 
# From -- ./inp_files/462491.got.cif
#   From: 2010.05.17/outbox.cif.g08.bks.cpg/sg2_232_cif.got.tgz:462491.got - 2010.06.03 11:33:40.
