data_PCOD9021799
_publ_section_title
;
Structure prediction by ZEFSAII (Michael W. Deem and Ramdas Pophale) SiO2 
 PCOD9021799
Probable space group: P -1
;
_chemical_formula_sum "Si O2"
_cell_formula_units_Z 16
_cell_length_a 11.010620
_cell_length_b 15.654150
_cell_length_c 26.494120
_cell_angle_alpha 21.272569
_cell_angle_beta 33.602119
_cell_angle_gamma 26.160954
_cell_volume 730.288536
_symmetry_space_group_name_H-M "P -1"
_symmetry_group_IT_number 2
_symmetry_cell_setting 'triclinic'
loop_
_space_group_symop_operation_xyz
x,y,z
-x,-y,-z
loop_
_atom_site_type_symbol
_atom_site_label
_atom_site_fract_x
_atom_site_fract_y
_atom_site_fract_z
Si Si1 0.907346 0.244514 0.787690
Si Si2 0.078220 0.691307 0.982107
Si Si3 0.429930 0.157641 0.223472
Si Si4 0.196246 0.007247 0.468698
Si Si5 0.255778 0.837331 0.389931
Si Si6 0.293475 0.307513 0.477633
Si Si7 0.556386 0.335612 0.222315
Si Si8 0.947120 0.359966 0.141697
O O1 0.769804 0.529289 0.643004
O O2 0.759916 0.374049 0.821471
O O3 0.872324 0.015216 0.898509
O O4 0.239695 0.054260 0.775936
O O5 0.272222 0.679709 0.877294
O O6 0.281457 0.473903 0.075530
O O7 0.928107 0.556037 0.086587
O O8 0.297178 0.180208 0.311147
O O9 0.336578 0.000002 0.308355
O O10 0.011946 0.126736 0.516780
O O11 0.482863 0.710752 0.553004
O O12 0.000000 0.000000 0.500000
O O13 0.500000 0.500000 0.500000
O O14 0.181534 0.016061 0.264938
O O15 0.000000 0.500000 0.500000
O O16 0.396823 0.973171 0.619817
O O17 0.695049 0.370589 0.203781
O O18 0.000000 0.500000 0.000000
#
# Coordination Sequence:
#
# PCOD9021799 Si02
#       8
#     2   2   2   2   2   2   2   2
#     4  12  24  40  68  96 131 178 220 277 341 394
#     4  10  22  45  62  92 135 174 224 276 329 412
#     4  10  22  41  61  93 129 174 222 270 336 396
#     4  10  22  42  64  92 132 172 218 270 333 394
#     4  10  22  38  65  96 132 172 226 276 329 402
#     4  12  23  41  68  98 137 172 221 281 333 401
#     4  11  24  40  67  97 130 172 225 277 337 396
#     4   9  21  43  64  91 138 174 216 284 335 396
#
# _framework density 21.909147999999998
#
# number of rings (size 3 to 8) (size 9 to 14) (size 15 to 20)
#    0.000    1.500    2.500    1.500    3.500    1.000 
#    6.750    0.000    0.000    0.000    0.000    0.000 
#    0.000    0.000    0.000    0.000    0.000    0.000 
#
# Total GULP energy -89187.338489 kJ/mol
# GULP energy per Si atom -5574.208656 kJ/mol
# Density = 2.185928 g / cm^3
# Si number density = 21.909148 Si / 1000 Ang^3
#
#
#
# Elastic Constant Matrix: (Units=GPa)
#
#
# Indices 1 2 3 4 5 6 
#
# 1 61.1313 32.6189 33.7540 -1.6661 4.0572 -9.3836
# 2 32.6189 119.0969 42.2625 -18.0238 1.0269 -1.2989
# 3 33.7540 42.2625 129.8664 -21.9564 12.7463 7.7399
# 4 -1.6661 -18.0238 -21.9564 14.5456 -3.4077 -5.4912
# 5 4.0572 1.0269 12.7463 -3.4077 42.0694 -4.0765
# 6 -9.3836 -1.2989 7.7399 -5.4912 -4.0765 37.3509
#
#
#
# Elastic Compliance Matrix: (Units=1/GPa)
#
#
# Indices 1 2 3 4 5 6 
#
# 1 0.023734 -0.006054 -0.006640 -0.013027 -0.000687 0.005138
# 2 -0.006054 0.012436 -0.000106 0.015481 0.001702 0.001395
# 3 -0.006640 -0.000106 0.012646 0.016965 -0.002010 -0.002018
# 4 -0.013027 0.015481 0.016965 0.118013 0.006441 0.011803
# 5 -0.000687 0.001702 -0.002010 0.006441 0.025315 0.004013
# 6 0.005138 0.001395 -0.002018 0.011803 0.004013 0.030704
#
#
# Mechanical properties :
#
#
# Convention : Reuss Voigt Hill
#
# Bulk Modulus (GPa) = 43.07377 58.59615 50.83496
# Shear Modulus (GPa) = 19.51708 32.22378 25.87043
#
# Velocity S-wave (km/s) = 2.98790 3.83925 3.44001
# Velocity P-wave (km/s) = 5.62194 6.81588 6.24750
#
# Compressibility (1/GPa) = 0.02321599
#
# Stress axis : x y z
#
# Youngs Moduli (GPa) = 42.13388 80.41402 79.07389
#
# Poissons Ratio (x) = 0.48679 0.52505
# Poissons Ratio (y) = 0.25506 0.00841
# Poissons Ratio (z) = 0.27977 0.00855
#
# Static dielectric constant tensor:
#      x y z
#    x 1.923170 0.017440 0.036300 
#    y 0.017440 1.860180 0.061540 
#    z 0.036300 0.061540 1.854800 
# 
# From -- ./inp_files/623153.got.cif
#   From: 2010.05.17/outbox.cif.g08.bks.cpg/sg2_312_cif.got.tgz:623153.got - 2010.06.03 11:33:40.
