data_PCOD9021431
_publ_section_title
;
Structure prediction by ZEFSAII (Michael W. Deem and Ramdas Pophale) SiO2 
 PCOD9021431
Probable space group: P -1
;
_chemical_formula_sum "Si O2"
_cell_formula_units_Z 15
_cell_length_a 12.350493
_cell_length_b 7.106604
_cell_length_c 12.216449
_cell_angle_alpha 66.746839
_cell_angle_beta 133.646003
_cell_angle_gamma 96.817351
_cell_volume 693.532325
_symmetry_space_group_name_H-M "P -1"
_symmetry_group_IT_number 2
_symmetry_cell_setting 'triclinic'
loop_
_space_group_symop_operation_xyz
x,y,z
-x,-y,-z
loop_
_atom_site_type_symbol
_atom_site_label
_atom_site_fract_x
_atom_site_fract_y
_atom_site_fract_z
Si Si1 0.653396 0.199551 0.554023
Si Si2 0.936816 0.860183 0.899719
Si Si3 0.514856 0.972070 0.332190
Si Si4 0.790629 0.600681 0.546443
Si Si5 0.741912 0.392163 0.207879
Si Si6 0.905242 0.456538 0.084784
Si Si7 0.480747 0.161731 0.048194
Si Si8 0.000000 0.500000 0.500000
O O1 0.570165 0.159500 0.617206
O O2 0.694693 0.422170 0.529255
O O3 0.811130 0.018978 0.704349
O O4 0.551454 0.156338 0.391258
O O5 0.070734 0.723363 0.949163
O O6 0.861368 0.685860 0.945836
O O7 0.000000 0.000000 0.000000
O O8 0.672699 0.820426 0.435469
O O9 0.423076 0.064213 0.138797
O O10 0.875246 0.574780 0.495184
O O11 0.926225 0.559031 0.740827
O O12 0.797455 0.418531 0.116440
O O13 0.641266 0.220321 0.177886
O O14 0.886130 0.360904 0.395603
O O15 0.633728 0.618523 0.111695
O O16 0.500000 0.000000 0.000000
#
# Coordination Sequence:
#
# PCOD9021431 Si02
#       8
#     2   2   2   2   2   2   2   1
#     4  11  23  40  64  94 126 174 214 269 330 389
#     4  11  21  39  61  91 127 165 211 266 325 393
#     4  11  24  41  63  92 130 169 222 269 320 399
#     4  11  21  42  60  95 129 166 216 267 330 387
#     4  10  23  44  66  96 131 173 218 278 329 393
#     4  10  22  38  61  92 131 164 213 270 326 391
#     4  11  24  45  67  96 132 178 231 272 331 397
#     4  10  22  42  70  94 132 174 210 276 334 390
#
# _framework density 21.628406999999999
#
# number of rings (size 3 to 8) (size 9 to 14) (size 15 to 20)
#    0.000    1.333    2.667    2.800    0.000    3.200 
#    2.400    4.000    0.000    0.000    0.000    0.000 
#    0.000    0.000    0.000    0.000    0.000    0.000 
#
# Total GULP energy -83632.074799 kJ/mol
# GULP energy per Si atom -5575.471653 kJ/mol
# Density = 2.157918 g / cm^3
# Si number density = 21.628407 Si / 1000 Ang^3
#
#
#
# Elastic Constant Matrix: (Units=GPa)
#
#
# Indices 1 2 3 4 5 6 
#
# 1 98.2540 63.4839 -3.8201 20.8042 -12.2253 -7.8926
# 2 63.4839 121.6565 24.8832 13.9521 -10.1255 -18.7914
# 3 -3.8201 24.8832 37.8708 7.9543 -3.8363 0.2590
# 4 20.8042 13.9521 7.9543 29.0724 -1.8189 -3.2755
# 5 -12.2253 -10.1255 -3.8363 -1.8189 19.3455 10.0657
# 6 -7.8926 -18.7914 0.2590 -3.2755 10.0657 26.0354
#
#
#
# Elastic Compliance Matrix: (Units=1/GPa)
#
#
# Indices 1 2 3 4 5 6 
#
# 1 0.025315 -0.015536 0.017809 -0.015869 0.016121 -0.011946
# 2 -0.015536 0.020644 -0.017712 0.007142 -0.009658 0.014999
# 3 0.017809 -0.017712 0.045475 -0.017470 0.018253 -0.017092
# 4 -0.015869 0.007142 -0.017470 0.047632 -0.010845 0.010704
# 5 0.016121 -0.009658 0.018253 -0.010845 0.076752 -0.033303
# 6 -0.011946 0.014999 -0.017092 0.010704 -0.033303 0.060006
#
#
# Mechanical properties :
#
#
# Convention : Reuss Voigt Hill
#
# Bulk Modulus (GPa) = 16.51367 47.43057 31.97212
# Shear Modulus (GPa) = 15.29581 26.43963 20.86772
#
# Velocity S-wave (km/s) = 2.66223 3.50015 3.10954
# Velocity P-wave (km/s) = 4.13542 6.18967 5.26373
#
# Compressibility (1/GPa) = 0.06055587
#
# Stress axis : x y z
#
# Youngs Moduli (GPa) = 39.50268 48.44105 21.99003
#
# Poissons Ratio (x) = 0.75258 -0.39163
# Poissons Ratio (y) = 0.61372 0.38949
# Poissons Ratio (z) = -0.70352 0.85800
#
# Static dielectric constant tensor:
#      x y z
#    x 1.781090 0.001560 -0.001820 
#    y 0.001560 1.743600 -0.008210 
#    z -0.001820 -0.008210 1.809210 
# 
# From -- ./inp_files/69307.got.cif
#   From: 2010.05.17/outbox.cif.g08.bks.cpg/sg2_35_cif.got.tgz:69307.got - 2010.06.03 11:33:40.
