data_PCOD9021496
_publ_section_title
;
Structure prediction by ZEFSAII (Michael W. Deem and Ramdas Pophale) SiO2 
 PCOD9021496
Probable space group: P -1
;
_chemical_formula_sum "Si O2"
_cell_formula_units_Z 16
_cell_length_a 8.970835
_cell_length_b 20.945963
_cell_length_c 11.664165
_cell_angle_alpha 43.372014
_cell_angle_beta 143.000845
_cell_angle_gamma 139.699595
_cell_volume 813.100540
_symmetry_space_group_name_H-M "P -1"
_symmetry_group_IT_number 2
_symmetry_cell_setting 'triclinic'
loop_
_space_group_symop_operation_xyz
x,y,z
-x,-y,-z
loop_
_atom_site_type_symbol
_atom_site_label
_atom_site_fract_x
_atom_site_fract_y
_atom_site_fract_z
Si Si1 0.586520 0.423671 0.320972
Si Si2 0.337274 0.846913 0.792177
Si Si3 0.914397 0.827975 0.361181
Si Si4 0.350125 0.017602 0.994584
Si Si5 0.464223 0.592561 0.416224
Si Si6 0.005955 0.660482 0.269445
Si Si7 0.027684 0.667728 0.019181
Si Si8 0.108635 0.168023 0.914415
O O1 0.534848 0.419755 0.430569
O O2 0.788627 0.542515 0.262874
O O3 0.747151 0.352405 0.496654
O O4 0.299310 0.384474 0.130986
O O5 0.148804 0.851009 0.568299
O O6 0.454833 0.944655 0.822518
O O7 0.159360 0.751655 0.891040
O O8 0.595389 0.831673 0.920130
O O9 0.741736 0.891441 0.203108
O O10 0.705616 0.705969 0.388052
O O11 0.023141 0.859860 0.257200
O O12 0.500000 0.000000 0.000000
O O13 0.080461 0.916589 0.000244
O O14 0.500000 0.500000 0.500000
O O15 0.175579 0.592040 0.202506
O O16 0.878339 0.722833 0.181573
O O17 0.098677 0.712596 0.133437
#
# Coordination Sequence:
#
# PCOD9021496 Si02
#       8
#     2   2   2   2   2   2   2   2
#     4  10  22  38  62  92 126 174 209 263 316 376
#     4  11  23  41  66  96 127 168 209 265 320 375
#     4  11  23  43  64  93 133 162 212 266 313 379
#     4  11  25  44  69  93 125 170 212 263 322 373
#     4  11  22  37  63  94 128 169 207 259 317 375
#     4  10  23  41  61  91 132 166 217 261 315 375
#     4  11  21  39  65  90 128 168 215 261 317 376
#     4  11  24  41  66  93 128 167 208 265 317 376
#
# _framework density 19.677762999999999
#
# number of rings (size 3 to 8) (size 9 to 14) (size 15 to 20)
#    0.000    1.250    3.750    3.375    1.750    5.000 
#    0.000    0.000    0.000    0.000    0.000    0.000 
#    0.000    0.000    0.000    0.000    0.000    0.000 
#
# Total GULP energy -89390.482229 kJ/mol
# GULP energy per Si atom -5586.905139 kJ/mol
# Density = 1.963298 g / cm^3
# Si number density = 19.677763 Si / 1000 Ang^3
#
#
#
# Elastic Constant Matrix: (Units=GPa)
#
#
# Indices 1 2 3 4 5 6 
#
# 1 128.2382 37.8786 41.0363 -6.7992 6.2872 -2.1097
# 2 37.8786 76.2994 47.7304 2.9779 18.6336 2.8149
# 3 41.0363 47.7304 111.7463 25.3611 -0.7309 -0.6352
# 4 -6.7992 2.9779 25.3611 34.7358 5.6356 4.9329
# 5 6.2872 18.6336 -0.7309 5.6356 27.5118 -7.9800
# 6 -2.1097 2.8149 -0.6352 4.9329 -7.9800 29.5145
#
#
#
# Elastic Compliance Matrix: (Units=1/GPa)
#
#
# Indices 1 2 3 4 5 6 
#
# 1 0.010143 -0.002001 -0.004193 0.005735 -0.002482 -0.000804
# 2 -0.002001 0.031021 -0.016247 0.015294 -0.028061 -0.013594
# 3 -0.004193 -0.016247 0.022237 -0.020357 0.019761 0.010474
# 4 0.005735 0.015294 -0.020357 0.050402 -0.027572 -0.017366
# 5 -0.002482 -0.028061 0.019761 -0.027572 0.069748 0.026391
# 6 -0.000804 -0.013594 0.010474 -0.017366 0.026391 0.045384
#
#
# Mechanical properties :
#
#
# Convention : Reuss Voigt Hill
#
# Bulk Modulus (GPa) = 53.99618 63.28603 58.64111
# Shear Modulus (GPa) = 17.85783 30.99500 24.42642
#
# Velocity S-wave (km/s) = 3.01576 3.97309 3.52706
# Velocity P-wave (km/s) = 6.29494 7.29920 6.81559
#
# Compressibility (1/GPa) = 0.01851983
#
# Stress axis : x y z
#
# Youngs Moduli (GPa) = 98.58878 32.23669 44.97016
#
# Poissons Ratio (x) = 0.06449 0.18855
# Poissons Ratio (y) = 0.19724 0.73063
# Poissons Ratio (z) = 0.41335 0.52375
#
# Static dielectric constant tensor:
#      x y z
#    x 1.690150 0.032120 -0.014480 
#    y 0.032120 1.714800 -0.018580 
#    z -0.014480 -0.018580 1.687320 
# 
# From -- ./inp_files/405457.got.cif
#   From: 2010.05.17/outbox.cif.g08.bks.cpg/sg2_203_cif.got.tgz:405457.got - 2010.06.03 11:33:40.
