data_PCOD9021866
_publ_section_title
;
Structure prediction by ZEFSAII (Michael W. Deem and Ramdas Pophale) SiO2 
 PCOD9021866
Probable space group: P -1
;
_chemical_formula_sum "Si O2"
_cell_formula_units_Z 14
_cell_length_a 6.571493
_cell_length_b 9.506661
_cell_length_c 18.184277
_cell_angle_alpha 76.927518
_cell_angle_beta 63.107205
_cell_angle_gamma 48.078498
_cell_volume 748.896901
_symmetry_space_group_name_H-M "P -1"
_symmetry_group_IT_number 2
_symmetry_cell_setting 'triclinic'
loop_
_space_group_symop_operation_xyz
x,y,z
-x,-y,-z
loop_
_atom_site_type_symbol
_atom_site_label
_atom_site_fract_x
_atom_site_fract_y
_atom_site_fract_z
Si Si1 0.290002 0.223525 0.788768
Si Si2 0.656474 0.506135 0.797467
Si Si3 0.760142 0.786563 0.803138
Si Si4 0.347021 0.908187 0.537707
Si Si5 0.364031 0.751135 0.399966
Si Si6 0.415139 0.618861 0.661157
Si Si7 0.887600 0.469217 0.094925
O O1 0.458531 0.236428 0.693777
O O2 0.232568 0.361121 0.847560
O O3 0.967859 0.310381 0.798211
O O4 0.495343 0.008471 0.807770
O O5 0.674191 0.667050 0.797362
O O6 0.601772 0.521242 0.717227
O O7 0.378219 0.535387 0.874901
O O8 0.068526 0.719166 0.723636
O O9 0.848737 0.721248 0.881096
O O10 0.434832 0.785850 0.464012
O O11 0.430578 0.773692 0.609050
O O12 0.500000 0.000000 0.500000
O O13 0.989273 0.079982 0.575114
O O14 0.457603 0.546780 0.398986
O O15 0.000000 0.500000 0.000000
#
# Coordination Sequence:
#
# PCOD9021866 Si02
#       7
#     2   2   2   2   2   2   2
#     4  11  22  41  66  91 127 161 207 256 308 366
#     4  10  22  38  66  94 116 168 205 250 305 375
#     4  10  22  39  65  93 121 165 203 256 307 364
#     4  11  27  39  61  92 126 165 209 261 307 363
#     4  11  23  42  60  90 125 162 209 262 306 356
#     4  11  22  42  63  87 127 163 211 256 308 363
#     4  10  23  44  64  95 130 158 201 255 308 370
#
# _framework density 18.694161999999999
#
# number of rings (size 3 to 8) (size 9 to 14) (size 15 to 20)
#    0.000    1.429    5.714    0.429    4.000    5.714 
#    0.000    1.429    0.000    0.000    0.000    0.000 
#    0.000    0.000    0.000    0.000    0.000    0.000 
#
# Total GULP energy -78206.964960 kJ/mol
# GULP energy per Si atom -5586.211783 kJ/mol
# Density = 1.865161 g / cm^3
# Si number density = 18.694162 Si / 1000 Ang^3
#
#
#
# Elastic Constant Matrix: (Units=GPa)
#
#
# Indices 1 2 3 4 5 6 
#
# 1 112.1756 45.5943 41.0758 -4.5700 -13.0829 -4.8961
# 2 45.5943 141.8156 32.4337 -15.9985 -4.1685 -13.4527
# 3 41.0758 32.4337 112.1160 -20.5226 -9.2921 -1.1684
# 4 -4.5700 -15.9985 -20.5226 18.4669 3.0972 -4.2460
# 5 -13.0829 -4.1685 -9.2921 3.0972 10.6602 -6.4199
# 6 -4.8961 -13.4527 -1.1684 -4.2460 -6.4199 22.6493
#
#
#
# Elastic Compliance Matrix: (Units=1/GPa)
#
#
# Indices 1 2 3 4 5 6 
#
# 1 0.013376 -0.003157 -0.003508 -0.005019 0.016301 0.004515
# 2 -0.003157 0.009839 0.000284 0.009451 0.002001 0.007515
# 3 -0.003508 0.000284 0.013242 0.014119 0.005905 0.004414
# 4 -0.005019 0.009451 0.014119 0.081704 -0.001815 0.020059
# 5 0.016301 0.002001 0.005905 -0.001815 0.148421 0.046746
# 6 0.004515 0.007515 0.004414 0.020059 0.046746 0.066830
#
#
# Mechanical properties :
#
#
# Convention : Reuss Voigt Hill
#
# Bulk Modulus (GPa) = 42.20042 67.14609 54.67325
# Shear Modulus (GPa) = 14.12142 26.82217 20.47180
#
# Velocity S-wave (km/s) = 2.75142 3.79197 3.31280
# Velocity P-wave (km/s) = 5.71987 7.42753 6.62892
#
# Compressibility (1/GPa) = 0.02369645
#
# Stress axis : x y z
#
# Youngs Moduli (GPa) = 74.76061 101.63348 75.51666
#
# Poissons Ratio (x) = 0.32085 0.26491
# Poissons Ratio (y) = 0.23601 -0.02148
# Poissons Ratio (z) = 0.26226 -0.02891
#
# Static dielectric constant tensor:
#      x y z
#    x 1.643790 -0.002430 0.001420 
#    y -0.002430 1.640940 0.001050 
#    z 0.001420 0.001050 1.629380 
# 
# From -- ./inp_files/39115.got.cif
#   From: 2010.05.17/outbox.cif.g08.bks.cpg/sg2_20_cif.got.tgz:39115.got - 2010.06.03 11:33:40.
