data_PCOD9021616
_publ_section_title
;
Structure prediction by ZEFSAII (Michael W. Deem and Ramdas Pophale) SiO2 
 PCOD9021616
Probable space group: P -1
;
_chemical_formula_sum "Si O2"
_cell_formula_units_Z 16
_cell_length_a 13.159201
_cell_length_b 11.264108
_cell_length_c 12.046483
_cell_angle_alpha 75.692962
_cell_angle_beta 59.153940
_cell_angle_gamma 30.749425
_cell_volume 703.525069
_symmetry_space_group_name_H-M "P -1"
_symmetry_group_IT_number 2
_symmetry_cell_setting 'triclinic'
loop_
_space_group_symop_operation_xyz
x,y,z
-x,-y,-z
loop_
_atom_site_type_symbol
_atom_site_label
_atom_site_fract_x
_atom_site_fract_y
_atom_site_fract_z
Si Si1 0.429493 0.019918 0.197485
Si Si2 0.274819 0.735704 0.455907
Si Si3 0.102256 0.274076 0.962991
Si Si4 0.714666 0.172557 0.335440
Si Si5 0.268063 0.629170 0.059478
Si Si6 0.670785 0.932757 0.497123
Si Si7 0.645664 0.565573 0.172032
Si Si8 0.113293 0.507974 0.206679
O O1 0.213455 0.278556 0.186891
O O2 0.612859 0.970237 0.111756
O O3 0.382772 0.032233 0.350517
O O4 0.542226 0.792510 0.136675
O O5 0.443982 0.469233 0.377150
O O6 0.243144 0.773482 0.596984
O O7 0.442866 0.698720 0.336939
O O8 0.000000 0.000000 0.500000
O O9 0.054593 0.304346 0.850761
O O10 0.000000 0.500000 0.000000
O O11 0.925158 0.339723 0.109411
O O12 0.662568 0.081571 0.426497
O O13 0.980041 0.933653 0.175972
O O14 0.276130 0.482629 0.136283
O O15 0.500000 0.500000 0.000000
O O16 0.315620 0.565349 0.917528
O O17 0.500000 0.000000 0.500000
O O18 0.952945 0.640058 0.377091
#
# Coordination Sequence:
#
# PCOD9021616 Si02
#       8
#     2   2   2   2   2   2   2   2
#     4  11  21  40  65  94 130 167 216 267 325 389
#     4  11  23  44  68  96 123 172 221 268 323 385
#     4   9  20  37  57  89 126 160 207 257 315 379
#     4  10  24  44  66  92 134 166 216 276 319 387
#     4  10  22  43  63  96 135 172 217 265 322 392
#     4  11  21  41  64  93 131 169 210 270 333 387
#     4  10  22  40  66  92 130 164 215 266 317 388
#     4  10  22  38  63  95 130 170 216 263 320 389
#
# _framework density 22.742616000000002
#
# number of rings (size 3 to 8) (size 9 to 14) (size 15 to 20)
#    0.000    1.750    2.500    1.125    0.000    7.000 
#    6.750    2.500    0.000    0.000    0.000    0.000 
#    0.000    0.000    0.000    0.000    0.000    0.000 
#
# Total GULP energy -89109.092893 kJ/mol
# GULP energy per Si atom -5569.318306 kJ/mol
# Density = 2.269085 g / cm^3
# Si number density = 22.742616 Si / 1000 Ang^3
#
#
#
# Elastic Constant Matrix: (Units=GPa)
#
#
# Indices 1 2 3 4 5 6 
#
# 1 92.4169 9.5577 40.5449 3.4704 -3.8255 10.8334
# 2 9.5577 101.5462 22.9997 15.4872 -1.4820 20.1072
# 3 40.5449 22.9997 129.2795 12.5360 -2.1506 2.4604
# 4 3.4704 15.4872 12.5360 18.8806 9.9941 4.4352
# 5 -3.8255 -1.4820 -2.1506 9.9941 39.0193 0.9726
# 6 10.8334 20.1072 2.4604 4.4352 0.9726 24.5656
#
#
#
# Elastic Compliance Matrix: (Units=1/GPa)
#
#
# Indices 1 2 3 4 5 6 
#
# 1 0.013369 0.000900 -0.004265 0.000526 0.001133 -0.006346
# 2 0.000900 0.013560 -0.001513 -0.009723 0.003252 -0.009718
# 3 -0.004265 -0.001513 0.009901 -0.006118 0.001558 0.003170
# 4 0.000526 -0.009723 -0.006118 0.076694 -0.020181 -0.004709
# 5 0.001133 0.003252 0.001558 -0.020181 0.031141 -0.000907
# 6 -0.006346 -0.009718 0.003170 -0.004709 -0.000907 0.052029
#
#
# Mechanical properties :
#
#
# Convention : Reuss Voigt Hill
#
# Bulk Modulus (GPa) = 36.93321 52.16081 44.54701
# Shear Modulus (GPa) = 23.20473 33.16913 28.18693
#
# Velocity S-wave (km/s) = 3.19771 3.82312 3.52431
# Velocity P-wave (km/s) = 5.46888 6.51716 6.01590
#
# Compressibility (1/GPa) = 0.02707591
#
# Stress axis : x y z
#
# Youngs Moduli (GPa) = 74.79813 73.74481 101.00345
#
# Poissons Ratio (x) = -0.06639 0.43073
# Poissons Ratio (y) = -0.06734 0.15281
# Poissons Ratio (z) = 0.31898 0.11157
#
# Static dielectric constant tensor:
#      x y z
#    x 1.878560 -0.057820 -0.022960 
#    y -0.057820 2.026020 0.060880 
#    z -0.022960 0.060880 1.952810 
# 
# From -- ./inp_files/531800.got.cif
#   From: 2010.05.17/outbox.cif.g08.bks.cpg/sg2_266_cif.got.tgz:531800.got - 2010.06.03 11:33:40.
