data_PCOD9021131
_publ_section_title
;
Structure prediction by ZEFSAII (Michael W. Deem and Ramdas Pophale) SiO2 
 PCOD9021131
Probable space group: P -1
;
_chemical_formula_sum "Si O2"
_cell_formula_units_Z 16
_cell_length_a 14.834734
_cell_length_b 5.775183
_cell_length_c 8.607131
_cell_angle_alpha 105.501258
_cell_angle_beta 111.141099
_cell_angle_gamma 79.670472
_cell_volume 659.926154
_symmetry_space_group_name_H-M "P -1"
_symmetry_group_IT_number 2
_symmetry_cell_setting 'triclinic'
loop_
_space_group_symop_operation_xyz
x,y,z
-x,-y,-z
loop_
_atom_site_type_symbol
_atom_site_label
_atom_site_fract_x
_atom_site_fract_y
_atom_site_fract_z
Si Si1 0.136979 0.591365 0.160139
Si Si2 0.237120 0.894100 0.101982
Si Si3 0.952851 0.568182 0.242615
Si Si4 0.667295 0.649196 0.637312
Si Si5 0.121293 0.886991 0.710522
Si Si6 0.687424 0.285551 0.356436
Si Si7 0.484384 0.895841 0.640866
Si Si8 0.420944 0.717178 0.029480
O O1 0.146885 0.861060 0.155638
O O2 0.245361 0.526525 0.272551
O O3 0.060637 0.539632 0.232893
O O4 0.112438 0.468378 0.959196
O O5 0.326157 0.691298 0.075084
O O6 0.294310 0.098814 0.249156
O O7 0.183061 0.944694 0.913468
O O8 0.932745 0.350416 0.310392
O O9 0.932080 0.852160 0.326243
O O10 0.667015 0.566467 0.442811
O O11 0.561842 0.658846 0.651991
O O12 0.200515 0.796594 0.614034
O O13 0.626231 0.156356 0.422509
O O14 0.631032 0.223678 0.155567
O O15 0.500000 0.000000 0.500000
O O16 0.520205 0.076177 0.823225
O O17 0.500000 0.500000 0.000000
#
# Coordination Sequence:
#
# PCOD9021131 Si02
#       8
#     2   2   2   2   2   2   2   2
#     4  10  22  37  69 100 126 180 222 298 329 411
#     4   9  21  38  63  94 132 172 231 275 341 397
#     4  10  22  41  72  98 137 173 239 282 354 403
#     4  11  23  40  63  95 136 168 233 273 343 400
#     4  10  22  44  65 100 133 183 224 289 341 424
#     4  11  25  42  64  97 135 184 220 282 347 412
#     4  11  25  42  67  98 134 180 229 282 332 412
#     4  10  22  40  63  92 132 180 224 275 343 409
#
# _framework density 24.245135999999999
#
# number of rings (size 3 to 8) (size 9 to 14) (size 15 to 20)
#    0.000    1.750    1.250    1.500    7.000    5.500 
#    0.000    1.250    0.000    0.000    0.000    0.000 
#    0.000    0.000    0.000    0.000    0.000    0.000 
#
# Total GULP energy -89204.730881 kJ/mol
# GULP energy per Si atom -5575.295680 kJ/mol
# Density = 2.418995 g / cm^3
# Si number density = 24.245136 Si / 1000 Ang^3
#
#
#
# Elastic Constant Matrix: (Units=GPa)
#
#
# Indices 1 2 3 4 5 6 
#
# 1 121.3553 57.2558 27.1945 7.9481 -25.2683 40.4433
# 2 57.2558 96.8404 29.0917 17.5599 -20.5221 3.9946
# 3 27.1945 29.0917 98.8537 24.5165 5.7776 11.7258
# 4 7.9481 17.5599 24.5165 39.5216 1.0281 -0.0265
# 5 -25.2683 -20.5221 5.7776 1.0281 45.0860 -0.5346
# 6 40.4433 3.9946 11.7258 -0.0265 -0.5346 32.0510
#
#
#
# Elastic Compliance Matrix: (Units=1/GPa)
#
#
# Indices 1 2 3 4 5 6 
#
# 1 0.026653 -0.012446 -0.000479 0.000212 0.008952 -0.031756
# 2 -0.012446 0.019299 -0.003068 -0.004223 0.002470 0.014459
# 3 -0.000479 -0.003068 0.013516 -0.006842 -0.003288 -0.004019
# 4 0.000212 -0.004223 -0.006842 0.031425 -0.001610 0.002761
# 5 0.008952 0.002470 -0.003288 -0.001610 0.028662 -0.009924
# 6 -0.031756 0.014459 -0.004019 0.002761 -0.009924 0.070776
#
#
# Mechanical properties :
#
#
# Convention : Reuss Voigt Hill
#
# Bulk Modulus (GPa) = 36.38498 60.45927 48.42212
# Shear Modulus (GPa) = 21.60050 36.89887 29.24968
#
# Velocity S-wave (km/s) = 2.98807 3.90540 3.47712
# Velocity P-wave (km/s) = 5.19080 6.73253 6.01130
#
# Compressibility (1/GPa) = 0.02748387
#
# Stress axis : x y z
#
# Youngs Moduli (GPa) = 37.51987 51.81578 73.98440
#
# Poissons Ratio (x) = 0.64489 0.03540
# Poissons Ratio (y) = 0.46696 0.22697
# Poissons Ratio (z) = 0.01795 0.15896
#
# Static dielectric constant tensor:
#      x y z
#    x 1.975190 -0.012000 -0.003320 
#    y -0.012000 2.096170 -0.036910 
#    z -0.003320 -0.036910 1.951610 
# 
# From -- ./inp_files/289205.got.cif
#   From: 2010.05.17/outbox.cif.g08.bks.cpg/sg2_145_cif.got.tgz:289205.got - 2010.06.03 11:33:40.
