data_PCOD9021953
_publ_section_title
;
Structure prediction by ZEFSAII (Michael W. Deem and Ramdas Pophale) SiO2 
 PCOD9021953
Probable space group: P -1
;
_chemical_formula_sum "Si O2"
_cell_formula_units_Z 12
_cell_length_a 10.743316
_cell_length_b 15.395289
_cell_length_c 4.988067
_cell_angle_alpha 85.530976
_cell_angle_beta 82.245995
_cell_angle_gamma 37.475565
_cell_volume 496.782667
_symmetry_space_group_name_H-M "P -1"
_symmetry_group_IT_number 2
_symmetry_cell_setting 'triclinic'
loop_
_space_group_symop_operation_xyz
x,y,z
-x,-y,-z
loop_
_atom_site_type_symbol
_atom_site_label
_atom_site_fract_x
_atom_site_fract_y
_atom_site_fract_z
Si Si1 0.312516 0.551457 0.904406
Si Si2 0.835397 0.638605 0.822848
Si Si3 0.196549 0.512404 0.471234
Si Si4 0.804752 0.071893 0.285207
Si Si5 0.995030 0.855285 0.657441
Si Si6 0.587173 0.128549 0.841272
O O1 0.347849 0.459649 0.681569
O O2 0.169254 0.695470 0.741505
O O3 0.500000 0.500000 0.000000
O O4 0.209088 0.563630 0.189403
O O5 0.775670 0.600552 0.623075
O O6 0.967702 0.639885 0.637279
O O7 0.639097 0.773239 0.024860
O O8 0.000000 0.500000 0.000000
O O9 0.635673 0.150976 0.547473
O O10 0.933089 0.089285 0.267120
O O11 0.952905 0.906388 0.346436
O O12 0.672874 0.144141 0.041868
O O13 0.768182 0.955724 0.812007
#
# Coordination Sequence:
#
# PCOD9021953 Si02
#       6
#     2   2   2   2   2   2
#     4  12  27  45  70 101 149 180 219 277 361 417
#     4  11  25  47  76  94 138 177 249 287 321 406
#     4  11  27  46  67 103 133 189 227 282 343 404
#     4   9  21  38  65  99 132 176 231 274 331 399
#     4   9  23  40  67  96 140 177 226 274 341 408
#     4  10  22  38  67  99 123 175 232 287 329 378
#
# _framework density 24.155435000000001
#
# number of rings (size 3 to 8) (size 9 to 14) (size 15 to 20)
#    1.000    0.667    1.667    1.000    9.333    0.000 
#    0.000    1.667    0.000    0.000    0.000    0.000 
#    0.000    0.000    0.000    0.000    0.000    0.000 
#
# Total GULP energy -66906.821871 kJ/mol
# GULP energy per Si atom -5575.568489 kJ/mol
# Density = 2.410046 g / cm^3
# Si number density = 24.155435 Si / 1000 Ang^3
#
#
#
# Elastic Constant Matrix: (Units=GPa)
#
#
# Indices 1 2 3 4 5 6 
#
# 1 89.5962 34.4034 32.5100 -10.7278 3.2888 -5.6602
# 2 34.4034 97.8105 14.0124 -4.0619 -5.5268 -16.9697
# 3 32.5100 14.0124 135.0571 -16.9719 0.9585 0.2570
# 4 -10.7278 -4.0619 -16.9719 30.8388 -6.4684 0.5808
# 5 3.2888 -5.5268 0.9585 -6.4684 53.5462 -2.7951
# 6 -5.6602 -16.9697 0.2570 0.5808 -2.7951 25.2944
#
#
#
# Elastic Compliance Matrix: (Units=1/GPa)
#
#
# Indices 1 2 3 4 5 6 
#
# 1 0.014221 -0.004577 -0.002601 0.002709 -0.000974 -0.000032
# 2 -0.004577 0.013435 -0.000283 0.000315 0.002140 0.008221
# 3 -0.002601 -0.000283 0.008544 0.003860 0.000397 -0.000904
# 4 0.002709 0.000315 0.003860 0.036412 0.004217 0.000409
# 5 -0.000974 0.002140 0.000397 0.004217 0.019630 0.003286
# 6 -0.000032 0.008221 -0.000904 0.000409 0.003286 0.045406
#
#
# Mechanical properties :
#
#
# Convention : Reuss Voigt Hill
#
# Bulk Modulus (GPa) = 47.00068 53.81282 50.40675
# Shear Modulus (GPa) = 31.31624 38.03839 34.67731
#
# Velocity S-wave (km/s) = 3.60453 3.97260 3.79303
# Velocity P-wave (km/s) = 6.06822 6.58545 6.33212
#
# Compressibility (1/GPa) = 0.02127629
#
# Stress axis : x y z
#
# Youngs Moduli (GPa) = 70.32052 74.43344 117.04545
#
# Poissons Ratio (x) = 0.34071 0.30441
# Poissons Ratio (y) = 0.32189 0.03315
# Poissons Ratio (z) = 0.18289 0.02108
#
# Static dielectric constant tensor:
#      x y z
#    x 1.933600 -0.008340 0.040170 
#    y -0.008340 2.062490 0.044830 
#    z 0.040170 0.044830 2.020580 
# 
# From -- ./inp_files/79769.got.cif
#   From: 2010.05.17/outbox.cif.g08.bks.cpg/sg2_40_cif.got.tgz:79769.got - 2010.06.03 11:33:40.
