data_PCOD9021863
_publ_section_title
;
Structure prediction by ZEFSAII (Michael W. Deem and Ramdas Pophale) SiO2 
 PCOD9021863
Probable space group: P -1
;
_chemical_formula_sum "Si O2"
_cell_formula_units_Z 14
_cell_length_a 10.887322
_cell_length_b 10.712296
_cell_length_c 9.547063
_cell_angle_alpha 137.662438
_cell_angle_beta 52.533631
_cell_angle_gamma 111.095216
_cell_volume 586.766926
_symmetry_space_group_name_H-M "P -1"
_symmetry_group_IT_number 2
_symmetry_cell_setting 'triclinic'
loop_
_space_group_symop_operation_xyz
x,y,z
-x,-y,-z
loop_
_atom_site_type_symbol
_atom_site_label
_atom_site_fract_x
_atom_site_fract_y
_atom_site_fract_z
Si Si1 0.953901 0.019688 0.384994
Si Si2 0.588089 0.670719 0.112985
Si Si3 0.266054 0.446769 0.523209
Si Si4 0.910354 0.453761 0.750954
Si Si5 0.751880 0.702444 0.285331
Si Si6 0.506719 0.853556 0.054673
Si Si7 0.297108 0.847545 0.947448
O O1 0.831929 0.878384 0.331275
O O2 0.117911 0.943855 0.130752
O O3 0.898459 0.235937 0.561444
O O4 0.000000 0.000000 0.500000
O O5 0.772886 0.595517 0.887239
O O6 0.509096 0.834627 0.203260
O O7 0.500000 0.500000 0.000000
O O8 0.597154 0.708215 0.303033
O O9 0.266972 0.315625 0.552112
O O10 0.382109 0.331586 0.237044
O O11 0.086731 0.482487 0.624040
O O12 0.316361 0.638256 0.700571
O O13 0.865909 0.515291 0.994000
O O14 0.586113 0.029465 0.101741
O O15 0.345562 0.850699 0.080982
#
# Coordination Sequence:
#
# PCOD9021863 Si02
#       7
#     2   2   2   2   2   2   2
#     4  12  20  37  67  99 121 161 217 264 304 363
#     4  10  24  45  64  88 134 168 199 261 322 375
#     4  12  20  41  67  94 123 163 218 258 306 368
#     4  10  22  38  66  93 125 163 210 256 316 363
#     4  10  22  39  67  97 123 164 211 260 310 367
#     4  11  25  42  61  94 127 170 206 254 320 374
#     4  11  23  39  64  91 129 161 212 264 305 369
#
# _framework density 23.859559999999998
#
# number of rings (size 3 to 8) (size 9 to 14) (size 15 to 20)
#    0.857    0.286    4.286    2.571    2.000    0.571 
#    2.571    2.143    0.000    0.000    0.000    0.000 
#    0.000    0.000    0.000    0.000    0.000    0.000 
#
# Total GULP energy -78348.484230 kJ/mol
# GULP energy per Si atom -5596.320302 kJ/mol
# Density = 2.380525 g / cm^3
# Si number density = 23.859560 Si / 1000 Ang^3
#
#
#
# Elastic Constant Matrix: (Units=GPa)
#
#
# Indices 1 2 3 4 5 6 
#
# 1 117.6353 28.7780 3.8637 7.8519 -0.0095 14.6574
# 2 28.7780 74.9024 10.2604 28.1260 2.0544 23.8454
# 3 3.8637 10.2604 104.6983 18.2343 -11.1475 9.3238
# 4 7.8519 28.1260 18.2343 37.9865 3.6284 10.7763
# 5 -0.0095 2.0544 -11.1475 3.6284 20.7883 12.2503
# 6 14.6574 23.8454 9.3238 10.7763 12.2503 36.6786
#
#
#
# Elastic Compliance Matrix: (Units=1/GPa)
#
#
# Indices 1 2 3 4 5 6 
#
# 1 0.009558 -0.003242 0.000247 0.000882 0.001870 -0.002658
# 2 -0.003242 0.024238 0.002770 -0.015613 0.010020 -0.013926
# 3 0.000247 0.002770 0.012374 -0.007222 0.011635 -0.006810
# 4 0.000882 -0.015613 -0.007222 0.041322 -0.011508 0.003336
# 5 0.001870 0.010020 0.011635 -0.011508 0.073946 -0.031535
# 6 -0.002658 -0.013926 -0.006810 0.003336 -0.031535 0.048663
#
#
# Mechanical properties :
#
#
# Convention : Reuss Voigt Hill
#
# Bulk Modulus (GPa) = 21.87198 42.56001 32.21600
# Shear Modulus (GPa) = 22.14443 36.04627 29.09535
#
# Velocity S-wave (km/s) = 3.04980 3.89108 3.49584
# Velocity P-wave (km/s) = 4.64635 6.16958 5.46134
#
# Compressibility (1/GPa) = 0.04572059
#
# Stress axis : x y z
#
# Youngs Moduli (GPa) = 104.61938 41.25752 80.81759
#
# Poissons Ratio (x) = 0.13378 -0.01998
# Poissons Ratio (y) = 0.33922 -0.22390
# Poissons Ratio (z) = -0.02587 -0.11430
#
# Static dielectric constant tensor:
#      x y z
#    x 1.903310 -0.008990 -0.017920 
#    y -0.008990 1.876930 -0.016390 
#    z -0.017920 -0.016390 1.935620 
# 
# From -- ./inp_files/425326.got.cif
#   From: 2010.05.17/outbox.cif.g08.bks.cpg/sg2_213_cif.got.tgz:425326.got - 2010.06.03 11:33:40.
