data_PCOD9021850
_publ_section_title
;
Structure prediction by ZEFSAII (Michael W. Deem and Ramdas Pophale) SiO2 
 PCOD9021850
Probable space group: P -1
;
_chemical_formula_sum "Si O2"
_cell_formula_units_Z 15
_cell_length_a 6.945629
_cell_length_b 15.094292
_cell_length_c 17.468198
_cell_angle_alpha 24.943455
_cell_angle_beta 129.918063
_cell_angle_gamma 128.286430
_cell_volume 588.295543
_symmetry_space_group_name_H-M "P -1"
_symmetry_group_IT_number 2
_symmetry_cell_setting 'triclinic'
loop_
_space_group_symop_operation_xyz
x,y,z
-x,-y,-z
loop_
_atom_site_type_symbol
_atom_site_label
_atom_site_fract_x
_atom_site_fract_y
_atom_site_fract_z
Si Si1 0.007038 0.426303 0.827912
Si Si2 0.693129 0.336056 0.157584
Si Si3 0.556523 0.452708 0.873505
Si Si4 0.426587 0.057417 0.062290
Si Si5 0.575839 0.679610 0.472920
Si Si6 0.012731 0.035420 0.846821
Si Si7 0.000000 0.500000 0.500000
Si Si8 0.287960 0.105161 0.498391
O O1 0.780172 0.511886 0.656468
O O2 0.066389 0.573884 0.801704
O O3 0.263562 0.458271 0.817914
O O4 0.981691 0.175923 0.035433
O O5 0.575686 0.097728 0.331900
O O6 0.500000 0.500000 0.000000
O O7 0.712411 0.351868 0.058844
O O8 0.657239 0.693996 0.698033
O O9 0.555446 0.294875 0.925052
O O10 0.583952 0.859600 0.268248
O O11 0.268057 0.053623 0.947852
O O12 0.214693 0.020027 0.105489
O O13 0.294857 0.558743 0.500791
O O14 0.635909 0.816946 0.458351
O O15 0.977679 0.269574 0.628116
O O16 0.000000 0.000000 0.500000
#
# Coordination Sequence:
#
# PCOD9021850 Si02
#       8
#     2   2   2   2   2   2   1   2
#     4  10  22  41  65  97 141 175 222 286 328 408
#     4  10  22  42  66  99 135 177 217 283 332 398
#     4  10  22  42  70  93 135 185 218 275 346 389
#     4   9  18  38  63  91 124 175 224 273 322 402
#     4  11  22  41  66  98 138 173 230 278 335 397
#     4   9  19  37  63  91 129 170 224 271 333 392
#     4  10  22  38  66  90 126 182 214 274 332 394
#     4  12  24  43  68  99 136 178 229 275 330 416
#
# _framework density 25.497387
#
# number of rings (size 3 to 8) (size 9 to 14) (size 15 to 20)
#    0.000    1.867    2.667    0.800    1.867    4.800 
#    0.000    0.000    8.800    0.000    0.000    0.000 
#    0.000    0.000    0.000    0.000    0.000    0.000 
#
# Total GULP energy -83664.994775 kJ/mol
# GULP energy per Si atom -5577.666318 kJ/mol
# Density = 2.543935 g / cm^3
# Si number density = 25.497387 Si / 1000 Ang^3
#
#
#
# Elastic Constant Matrix: (Units=GPa)
#
#
# Indices 1 2 3 4 5 6 
#
# 1 76.4960 22.4944 30.3677 -14.2185 21.0783 17.6525
# 2 22.4944 113.3724 46.9963 -35.9545 -5.2272 15.4891
# 3 30.3677 46.9963 159.0161 -38.7056 11.8623 21.5306
# 4 -14.2185 -35.9545 -38.7056 67.0059 1.4409 1.5753
# 5 21.0783 -5.2272 11.8623 1.4409 38.0057 -7.2576
# 6 17.6525 15.4891 21.5306 1.5753 -7.2576 37.2305
#
#
#
# Elastic Compliance Matrix: (Units=1/GPa)
#
#
# Indices 1 2 3 4 5 6 
#
# 1 0.021247 -0.001982 0.000356 0.004261 -0.014717 -0.012505
# 2 -0.001982 0.012038 -0.001779 0.005020 0.002596 -0.002746
# 3 0.000356 -0.001779 0.008950 0.004520 -0.004490 -0.005671
# 4 0.004261 0.005020 0.004520 0.021458 -0.005562 -0.008715
# 5 -0.014717 0.002596 -0.004490 -0.005562 0.039584 0.016446
# 6 -0.012505 -0.002746 -0.005671 -0.008715 0.016446 0.040785
#
#
# Mechanical properties :
#
#
# Convention : Reuss Voigt Hill
#
# Bulk Modulus (GPa) = 28.22885 60.95571 44.59228
# Shear Modulus (GPa) = 30.73531 45.05016 37.89273
#
# Velocity S-wave (km/s) = 3.47570 4.20796 3.85923
# Velocity P-wave (km/s) = 5.21561 6.89694 6.11434
#
# Compressibility (1/GPa) = 0.03542475
#
# Stress axis : x y z
#
# Youngs Moduli (GPa) = 47.06574 83.06944 111.73776
#
# Poissons Ratio (x) = 0.16465 -0.03983
# Poissons Ratio (y) = 0.09329 0.19881
# Poissons Ratio (z) = -0.01678 0.14780
#
# Static dielectric constant tensor:
#      x y z
#    x 1.867170 0.045180 0.210110 
#    y 0.045180 2.008370 -0.002000 
#    z 0.210110 -0.002000 1.987870 
# 
# From -- ./inp_files/591193.got.cif
#   From: 2010.05.17/outbox.cif.g08.bks.cpg/sg2_296_cif.got.tgz:591193.got - 2010.06.03 11:33:40.
