data_PCOD9021856
_publ_section_title
;
Structure prediction by ZEFSAII (Michael W. Deem and Ramdas Pophale) SiO2 
 PCOD9021856
Probable space group: P -1
;
_chemical_formula_sum "Si O2"
_cell_formula_units_Z 16
_cell_length_a 16.375929
_cell_length_b 11.630381
_cell_length_c 20.223995
_cell_angle_alpha 150.525137
_cell_angle_beta 22.049541
_cell_angle_gamma 141.298537
_cell_volume 704.145311
_symmetry_space_group_name_H-M "P -1"
_symmetry_group_IT_number 2
_symmetry_cell_setting 'triclinic'
loop_
_space_group_symop_operation_xyz
x,y,z
-x,-y,-z
loop_
_atom_site_type_symbol
_atom_site_label
_atom_site_fract_x
_atom_site_fract_y
_atom_site_fract_z
Si Si1 0.888106 0.828988 0.312136
Si Si2 0.182976 0.633833 0.791093
Si Si3 0.496546 0.294509 0.003983
Si Si4 0.846731 0.018477 0.688116
Si Si5 0.320266 0.468903 0.456403
Si Si6 0.288009 0.824579 0.927615
Si Si7 0.494553 0.787554 0.196137
Si Si8 0.003648 0.111147 0.125090
O O1 0.026435 0.948033 0.323684
O O2 0.873303 0.578915 0.230037
O O3 0.038006 0.820755 0.131634
O O4 0.647693 0.972184 0.552632
O O5 0.235179 0.542978 0.632160
O O6 0.363604 0.738849 0.753846
O O7 0.006042 0.870425 0.042793
O O8 0.432619 0.574991 0.182552
O O9 0.661384 0.232490 0.910865
O O10 0.581719 0.241117 0.837369
O O11 0.338935 0.092830 0.030998
O O12 0.759812 0.768596 0.628816
O O13 0.000000 0.000000 0.500000
O O14 0.576273 0.372361 0.225336
O O15 0.202629 0.686047 0.610289
O O16 0.759161 0.791959 0.998255
O O17 0.000000 0.000000 0.000000
#
# Coordination Sequence:
#
# PCOD9021856 Si02
#       8
#     2   2   2   2   2   2   2   2
#     4  12  26  38  64  95 132 168 202 260 318 377
#     4  11  22  41  64  90 123 169 215 254 304 374
#     4  10  22  38  66  92 122 167 212 259 305 368
#     4  11  19  39  64  93 121 161 215 258 309 366
#     4  10  22  39  69  89 119 166 213 266 303 367
#     4  11  24  43  60  95 130 169 206 254 322 373
#     4  11  22  40  65  95 121 160 215 262 308 371
#     4  10  23  38  67  95 119 157 215 267 306 360
#
# _framework density 22.722583
#
# number of rings (size 3 to 8) (size 9 to 14) (size 15 to 20)
#    0.000    1.250    3.750    2.250    7.000    2.500 
#    0.000    1.875    0.000    0.000    0.000    0.000 
#    0.000    0.000    0.000    0.000    0.000    0.000 
#
# Total GULP energy -89119.916533 kJ/mol
# GULP energy per Si atom -5569.994783 kJ/mol
# Density = 2.267087 g / cm^3
# Si number density = 22.722583 Si / 1000 Ang^3
#
#
#
# Elastic Constant Matrix: (Units=GPa)
#
#
# Indices 1 2 3 4 5 6 
#
# 1 76.3176 -4.3706 0.9476 2.2640 -2.6969 6.7227
# 2 -4.3706 89.0768 49.9735 33.7761 -1.6101 -16.7086
# 3 0.9476 49.9735 98.9788 34.0322 -14.6357 -22.9569
# 4 2.2640 33.7761 34.0322 40.5472 -10.4652 -7.8918
# 5 -2.6969 -1.6101 -14.6357 -10.4652 22.2631 3.2127
# 6 6.7227 -16.7086 -22.9569 -7.8918 3.2127 29.3140
#
#
#
# Elastic Compliance Matrix: (Units=1/GPa)
#
#
# Indices 1 2 3 4 5 6 
#
# 1 0.013572 0.000964 -0.000885 -0.001264 0.001074 -0.003714
# 2 0.000964 0.020441 -0.006114 -0.013592 -0.009393 0.004011
# 3 -0.000885 -0.006114 0.018677 -0.006989 0.007192 0.008675
# 4 -0.001264 -0.013592 -0.006989 0.045594 0.016050 -0.002415
# 5 0.001074 -0.009393 0.007192 0.016050 0.056913 -0.001884
# 6 -0.003714 0.004011 0.008675 -0.002415 -0.001884 0.043601
#
#
# Mechanical properties :
#
#
# Convention : Reuss Voigt Hill
#
# Bulk Modulus (GPa) = 24.61829 39.71937 32.16883
# Shear Modulus (GPa) = 22.28088 32.94637 27.61362
#
# Velocity S-wave (km/s) = 3.13479 3.81194 3.48983
# Velocity P-wave (km/s) = 4.89493 6.07393 5.51602
#
# Compressibility (1/GPa) = 0.04062021
#
# Stress axis : x y z
#
# Youngs Moduli (GPa) = 73.68140 48.92244 53.54112
#
# Poissons Ratio (x) = -0.04718 0.04737
# Poissons Ratio (y) = -0.07106 0.32737
# Poissons Ratio (z) = 0.06519 0.29913
#
# Static dielectric constant tensor:
#      x y z
#    x 2.743100 0.123490 -0.206020 
#    y 0.123490 1.970780 0.022580 
#    z -0.206020 0.022580 1.948880 
# 
# From -- ./inp_files/613195.got.cif
#   From: 2010.05.17/outbox.cif.g08.bks.cpg/sg2_307_cif.got.tgz:613195.got - 2010.06.03 11:33:40.
