data_PCOD9021142
_publ_section_title
;
Structure prediction by ZEFSAII (Michael W. Deem and Ramdas Pophale) SiO2 
 PCOD9021142
Probable space group: P -1
;
_chemical_formula_sum "Si O2"
_cell_formula_units_Z 14
_cell_length_a 11.294202
_cell_length_b 9.980909
_cell_length_c 9.172514
_cell_angle_alpha 110.874969
_cell_angle_beta 41.838814
_cell_angle_gamma 117.432792
_cell_volume 612.000391
_symmetry_space_group_name_H-M "P -1"
_symmetry_group_IT_number 2
_symmetry_cell_setting 'triclinic'
loop_
_space_group_symop_operation_xyz
x,y,z
-x,-y,-z
loop_
_atom_site_type_symbol
_atom_site_label
_atom_site_fract_x
_atom_site_fract_y
_atom_site_fract_z
Si Si1 0.086271 0.622706 0.219070
Si Si2 0.402725 0.844451 0.447356
Si Si3 0.460161 0.531516 0.342739
Si Si4 0.027617 0.269029 0.158594
Si Si5 0.176671 0.366401 0.783900
Si Si6 0.517012 0.155870 0.969270
Si Si7 0.225094 0.305983 0.280049
O O1 0.298608 0.717263 0.091706
O O2 0.029276 0.444270 0.231998
O O3 0.011493 0.628929 0.125225
O O4 0.963243 0.691573 0.466340
O O5 0.440671 0.699173 0.434599
O O6 0.182465 0.822312 0.646047
O O7 0.464647 0.849571 0.224326
O O8 0.500000 0.000000 0.500000
O O9 0.318550 0.410428 0.533946
O O10 0.666663 0.536518 0.204386
O O11 0.377996 0.468428 0.236420
O O12 0.174976 0.263784 0.143206
O O13 0.086375 0.231521 0.928749
O O14 0.329826 0.193378 0.197467
O O15 0.500000 0.000000 0.000000
#
# Coordination Sequence:
#
# PCOD9021142 Si02
#       7
#     2   2   2   2   2   2   2
#     4  11  23  44  73 105 138 180 235 294 335 422
#     4  12  27  45  67 101 150 183 228 294 346 421
#     4  10  22  45  69 111 135 179 239 282 351 409
#     4  12  22  43  71 108 139 181 239 282 352 409
#     4  10  22  37  71 103 139 179 227 289 339 412
#     4  12  29  48  71 103 139 189 233 289 362 407
#     4  11  23  46  76 100 137 181 236 295 339 411
#
# _framework density 22.875803999999999
#
# number of rings (size 3 to 8) (size 9 to 14) (size 15 to 20)
#    0.000    0.857    4.286    3.429    2.000    5.714 
#    2.571    1.429    0.000    0.000    0.000    0.000 
#    0.000    0.000    0.000    0.000    0.000    0.000 
#
# Total GULP energy -78018.561269 kJ/mol
# GULP energy per Si atom -5572.754376 kJ/mol
# Density = 2.282374 g / cm^3
# Si number density = 22.875804 Si / 1000 Ang^3
#
#
#
# Elastic Constant Matrix: (Units=GPa)
#
#
# Indices 1 2 3 4 5 6 
#
# 1 162.1931 42.7719 19.5974 4.6239 -0.3815 14.5601
# 2 42.7719 74.1184 13.3548 7.9049 1.5103 6.9976
# 3 19.5974 13.3548 100.3167 -8.6990 10.9985 -5.9792
# 4 4.6239 7.9049 -8.6990 19.6649 -1.0279 -0.9742
# 5 -0.3815 1.5103 10.9985 -1.0279 33.7874 4.4994
# 6 14.5601 6.9976 -5.9792 -0.9742 4.4994 34.4396
#
#
#
# Elastic Compliance Matrix: (Units=1/GPa)
#
#
# Indices 1 2 3 4 5 6 
#
# 1 0.007616 -0.003805 -0.001347 -0.000944 0.001045 -0.002844
# 2 -0.003805 0.017094 -0.002303 -0.007115 0.000055 -0.002473
# 3 -0.001347 -0.002303 0.011765 0.006423 -0.004052 0.003791
# 4 -0.000944 -0.007115 0.006423 0.056971 -0.000671 0.004659
# 5 0.001045 0.000055 -0.004052 -0.000671 0.031611 -0.005305
# 6 -0.002844 -0.002473 0.003791 0.004659 -0.005305 0.032224
#
#
# Mechanical properties :
#
#
# Convention : Reuss Voigt Hill
#
# Bulk Modulus (GPa) = 46.36955 54.23071 50.30013
# Shear Modulus (GPa) = 27.87385 34.97199 31.42292
#
# Velocity S-wave (km/s) = 3.49447 3.91420 3.71027
# Velocity P-wave (km/s) = 6.04945 6.64725 6.35539
#
# Compressibility (1/GPa) = 0.02156588
#
# Stress axis : x y z
#
# Youngs Moduli (GPa) = 131.29856 58.50173 84.99540
#
# Poissons Ratio (x) = 0.22257 0.11451
# Poissons Ratio (y) = 0.49953 0.19573
# Poissons Ratio (z) = 0.17689 0.13472
#
# Static dielectric constant tensor:
#      x y z
#    x 1.881220 -0.028690 0.011280 
#    y -0.028690 1.846210 0.021900 
#    z 0.011280 0.021900 1.981020 
# 
# From -- ./inp_files/244848.got.cif
#   From: 2010.05.17/outbox.cif.g08.bks.cpg/sg2_123_cif.got.tgz:244848.got - 2010.06.03 11:33:40.
