data_PCOD9021186
_publ_section_title
;
Structure prediction by ZEFSAII (Michael W. Deem and Ramdas Pophale) SiO2 
 PCOD9021186
Probable space group: P -1
;
_chemical_formula_sum "Si O2"
_cell_formula_units_Z 16
_cell_length_a 20.719662
_cell_length_b 23.799817
_cell_length_c 8.648944
_cell_angle_alpha 139.026943
_cell_angle_beta 29.886835
_cell_angle_gamma 158.366596
_cell_volume 752.787515
_symmetry_space_group_name_H-M "P -1"
_symmetry_group_IT_number 2
_symmetry_cell_setting 'triclinic'
loop_
_space_group_symop_operation_xyz
x,y,z
-x,-y,-z
loop_
_atom_site_type_symbol
_atom_site_label
_atom_site_fract_x
_atom_site_fract_y
_atom_site_fract_z
Si Si1 0.452258 0.447641 0.247392
Si Si2 0.772193 0.764189 0.422223
Si Si3 0.313724 0.831597 0.970147
Si Si4 0.256891 0.869085 0.831538
Si Si5 0.282266 0.063895 0.099172
Si Si6 0.769472 0.553705 0.536938
Si Si7 0.820077 0.328665 0.575556
Si Si8 0.243270 0.641812 0.888832
O O1 0.628338 0.618273 0.309200
O O2 0.326686 0.320466 0.377451
O O3 0.265267 0.394328 0.415249
O O4 0.609758 0.481715 0.869414
O O5 0.730852 0.842632 0.639253
O O6 0.064006 0.921656 0.138636
O O7 0.283868 0.831327 0.852086
O O8 0.400882 0.786657 0.748305
O O9 0.046539 0.701983 0.318056
O O10 0.500000 0.000000 0.000000
O O11 0.087772 0.715041 0.755445
O O12 0.500000 0.000000 0.500000
O O13 0.225809 0.952711 0.102722
O O14 0.562397 0.206013 0.777631
O O15 0.688888 0.418127 0.349388
O O16 0.000000 0.500000 0.500000
O O17 0.784245 0.323186 0.821017
O O18 0.000000 0.500000 0.000000
#
# Coordination Sequence:
#
# PCOD9021186 Si02
#       8
#     2   2   2   2   2   2   2   2
#     4  10  22  40  63  86 113 157 204 249 299 353
#     4  10  22  40  64  88 114 154 204 255 296 349
#     4  11  22  38  60  88 123 159 196 244 300 361
#     4  10  22  38  59  88 123 160 199 243 298 358
#     4  10  22  38  59  89 122 150 193 249 302 350
#     4  10  22  40  59  85 120 155 196 244 301 360
#     4  11  22  38  63  91 122 160 200 246 300 362
#     4  10  22  38  57  85 121 157 197 241 295 359
#
# _framework density 21.254338000000001
#
# number of rings (size 3 to 8) (size 9 to 14) (size 15 to 20)
#    0.000    1.750    0.000    4.500    0.000   10.000 
#    0.000    1.250    0.000    9.000    0.000    0.000 
#    0.000    0.000    0.000    0.000    0.000    0.000 
#
# Total GULP energy -89082.113409 kJ/mol
# GULP energy per Si atom -5567.632088 kJ/mol
# Density = 2.120596 g / cm^3
# Si number density = 21.254338 Si / 1000 Ang^3
#
#
#
# Elastic Constant Matrix: (Units=GPa)
#
#
# Indices 1 2 3 4 5 6 
#
# 1 81.4589 30.0584 46.3426 13.7746 7.5273 -16.3032
# 2 30.0584 146.7978 35.6366 9.4930 -4.7737 -11.4315
# 3 46.3426 35.6366 52.4691 2.1198 1.3582 0.7788
# 4 13.7746 9.4930 2.1198 37.0073 9.2369 -7.1032
# 5 7.5273 -4.7737 1.3582 9.2369 23.0282 -0.8060
# 6 -16.3032 -11.4315 0.7788 -7.1032 -0.8060 43.3908
#
#
#
# Elastic Compliance Matrix: (Units=1/GPa)
#
#
# Indices 1 2 3 4 5 6 
#
# 1 0.032739 0.001790 -0.029879 -0.007328 -0.005208 0.012012
# 2 0.001790 0.008751 -0.007531 -0.002664 0.002837 0.002730
# 3 -0.029879 -0.007531 0.050415 0.007219 0.001885 -0.012899
# 4 -0.007328 -0.002664 0.007219 0.033301 -0.011883 0.001646
# 5 -0.005208 0.002837 0.001885 -0.011883 0.050292 -0.002254
# 6 0.012012 0.002730 -0.012899 0.001646 -0.002254 0.028738
#
#
# Mechanical properties :
#
#
# Convention : Reuss Voigt Hill
#
# Bulk Modulus (GPa) = 48.39201 56.08901 52.24051
# Shear Modulus (GPa) = 17.70766 31.93111 24.81938
#
# Velocity S-wave (km/s) = 2.88953 3.88020 3.42092
# Velocity P-wave (km/s) = 5.82667 6.82065 6.34316
#
# Compressibility (1/GPa) = 0.02066457
#
# Stress axis : x y z
#
# Youngs Moduli (GPa) = 30.54481 114.27458 19.83536
#
# Poissons Ratio (x) = -0.20453 0.59266
# Poissons Ratio (y) = -0.05467 0.14937
# Poissons Ratio (z) = 0.91265 0.86056
#
# Static dielectric constant tensor:
#      x y z
#    x 1.823990 0.064710 0.023370 
#    y 0.064710 1.948440 0.128580 
#    z 0.023370 0.128580 1.913600 
# 
# From -- ./inp_files/350011.got.cif
#   From: 2010.05.17/outbox.cif.g08.bks.cpg/sg2_176_cif.got.tgz:350011.got - 2010.06.03 11:33:40.
