data_PCOD9021147
_publ_section_title
;
Structure prediction by ZEFSAII (Michael W. Deem and Ramdas Pophale) SiO2 
 PCOD9021147
Probable space group: P -1
;
_chemical_formula_sum "Si O2"
_cell_formula_units_Z 15
_cell_length_a 7.385744
_cell_length_b 11.567842
_cell_length_c 10.399422
_cell_angle_alpha 111.373401
_cell_angle_beta 94.738616
_cell_angle_gamma 42.943069
_cell_volume 539.402104
_symmetry_space_group_name_H-M "P -1"
_symmetry_group_IT_number 2
_symmetry_cell_setting 'triclinic'
loop_
_space_group_symop_operation_xyz
x,y,z
-x,-y,-z
loop_
_atom_site_type_symbol
_atom_site_label
_atom_site_fract_x
_atom_site_fract_y
_atom_site_fract_z
Si Si1 0.400814 0.286208 0.071458
Si Si2 0.500000 0.500000 0.000000
Si Si3 0.001830 0.461389 0.334233
Si Si4 0.036205 0.656230 0.079897
Si Si5 0.175976 0.883293 0.637628
Si Si6 0.588807 0.288609 0.667405
Si Si7 0.593713 0.966354 0.347425
Si Si8 0.868037 0.894620 0.817831
O O1 0.266815 0.380660 0.240445
O O2 0.346915 0.433334 0.031662
O O3 0.684961 0.065386 0.981144
O O4 0.162073 0.321779 0.008519
O O5 0.153592 0.713804 0.040560
O O6 0.471299 0.576723 0.178455
O O7 0.000000 0.500000 0.500000
O O8 0.030205 0.299146 0.244068
O O9 0.648644 0.079333 0.347887
O O10 0.891098 0.754713 0.244270
O O11 0.864313 0.074411 0.644646
O O12 0.114790 0.849214 0.754827
O O13 0.325824 0.717038 0.474757
O O14 0.305967 0.354498 0.665648
O O15 0.374315 0.008793 0.263372
O O16 0.500000 0.000000 0.500000
#
# Coordination Sequence:
#
# PCOD9021147 Si02
#       8
#     2   1   2   2   2   2   2   2
#     4  10  23  44  68 101 139 188 243 292 359 428
#     4  12  20  40  66 106 134 178 228 310 354 408
#     4  12  27  46  72 103 152 197 238 290 372 453
#     4  10  22  37  73 103 136 176 243 308 356 412
#     4  11  24  45  72 108 141 185 251 308 356 427
#     4  11  24  42  71 101 143 181 243 302 355 425
#     4  11  23  40  73 107 144 188 243 306 365 419
#     4  11  26  45  70 101 147 196 236 299 367 438
#
# _framework density 27.808565999999999
#
# number of rings (size 3 to 8) (size 9 to 14) (size 15 to 20)
#    0.000    1.067    2.667    3.600    7.467    0.533 
#    0.000    1.333    0.000    8.000    0.000    0.000 
#    0.000    0.000    0.000    0.000    0.000    0.000 
#
# Total GULP energy -83758.727898 kJ/mol
# GULP energy per Si atom -5583.915193 kJ/mol
# Density = 2.774527 g / cm^3
# Si number density = 27.808566 Si / 1000 Ang^3
#
#
#
# Elastic Constant Matrix: (Units=GPa)
#
#
# Indices 1 2 3 4 5 6 
#
# 1 190.1411 22.5846 76.7926 2.4779 -24.6288 5.7119
# 2 22.5846 81.3582 37.5583 19.8423 -13.9246 3.5252
# 3 76.7926 37.5583 236.6815 12.6204 -31.8842 2.8131
# 4 2.4779 19.8423 12.6204 24.2395 -8.2430 -5.3727
# 5 -24.6288 -13.9246 -31.8842 -8.2430 62.0347 -4.7540
# 6 5.7119 3.5252 2.8131 -5.3727 -4.7540 40.4106
#
#
#
# Elastic Compliance Matrix: (Units=1/GPa)
#
#
# Indices 1 2 3 4 5 6 
#
# 1 0.006276 -0.001048 -0.001743 0.001588 0.001550 -0.000281
# 2 -0.001048 0.016731 -0.001495 -0.013253 0.000588 -0.002900
# 3 -0.001743 -0.001495 0.005283 -0.000788 0.001590 0.000091
# 4 0.001588 -0.013253 -0.000788 0.056210 0.005417 0.009097
# 5 0.001550 0.000588 0.001590 0.005417 0.018598 0.002527
# 6 -0.000281 -0.002900 0.000091 0.009097 0.002527 0.026539
#
#
# Mechanical properties :
#
#
# Convention : Reuss Voigt Hill
#
# Bulk Modulus (GPa) = 50.71005 86.89464 68.80235
# Shear Modulus (GPa) = 34.53512 50.08664 42.31088
#
# Velocity S-wave (km/s) = 3.52787 4.24857 3.90488
# Velocity P-wave (km/s) = 5.90504 7.44193 6.71758
#
# Compressibility (1/GPa) = 0.01971995
#
# Stress axis : x y z
#
# Youngs Moduli (GPa) = 159.33700 59.77021 189.29378
#
# Poissons Ratio (x) = 0.06261 0.32985
# Poissons Ratio (y) = 0.16692 0.28293
# Poissons Ratio (z) = 0.27765 0.08934
#
# Static dielectric constant tensor:
#      x y z
#    x 2.250660 0.050920 0.016040 
#    y 0.050920 2.342320 -0.009980 
#    z 0.016040 -0.009980 2.154740 
# 
# From -- ./inp_files/341126.got.cif
#   From: 2010.05.17/outbox.cif.g08.bks.cpg/sg2_171_cif.got.tgz:341126.got - 2010.06.03 11:33:40.
