data_PCOD9021895
_publ_section_title
;
Structure prediction by ZEFSAII (Michael W. Deem and Ramdas Pophale) SiO2 
 PCOD9021895
Probable space group: P -1
;
_chemical_formula_sum "Si O2"
_cell_formula_units_Z 15
_cell_length_a 12.188816
_cell_length_b 11.693010
_cell_length_c 12.267166
_cell_angle_alpha 81.908087
_cell_angle_beta 114.028802
_cell_angle_gamma 40.312387
_cell_volume 666.940244
_symmetry_space_group_name_H-M "P -1"
_symmetry_group_IT_number 2
_symmetry_cell_setting 'triclinic'
loop_
_space_group_symop_operation_xyz
x,y,z
-x,-y,-z
loop_
_atom_site_type_symbol
_atom_site_label
_atom_site_fract_x
_atom_site_fract_y
_atom_site_fract_z
Si Si1 0.295857 0.469337 0.045643
Si Si2 0.168304 0.261927 0.838251
Si Si3 0.647752 0.020023 0.659459
Si Si4 0.000000 0.500000 0.500000
Si Si5 0.750978 0.228794 0.956943
Si Si6 0.708576 0.516738 0.384431
Si Si7 0.317959 0.263542 0.272067
Si Si8 0.858984 0.961082 0.211085
O O1 0.339801 0.560100 0.095862
O O2 0.313440 0.360357 0.163301
O O3 0.543690 0.224389 0.095515
O O4 0.983630 0.741396 0.831178
O O5 0.040126 0.409061 0.650359
O O6 0.107180 0.178147 0.837276
O O7 0.996853 0.472095 0.837859
O O8 0.500000 0.000000 0.000000
O O9 0.581357 0.951469 0.696169
O O10 0.510452 0.237004 0.649458
O O11 0.514583 0.130008 0.470849
O O12 0.121218 0.522340 0.589362
O O13 0.480899 0.387342 0.791064
O O14 0.876142 0.065560 0.140423
O O15 0.000000 0.000000 0.000000
O O16 0.920134 0.249183 0.573103
#
# Coordination Sequence:
#
# PCOD9021895 Si02
#       8
#     2   2   2   1   2   2   2   2
#     4  12  27  45  71 101 141 183 231 292 341 411
#     4  11  22  37  65  96 134 178 224 278 341 410
#     4  11  24  43  69 104 143 179 230 287 342 414
#     4  10  22  38  66  98 136 168 224 276 338 392
#     4  12  26  47  75  99 137 187 238 280 345 416
#     4  11  25  44  73 103 140 184 227 287 345 414
#     4  11  25  42  68 104 138 184 233 279 353 412
#     4  11  26  45  66 103 137 177 235 283 346 404
#
# _framework density 22.490769
#
# number of rings (size 3 to 8) (size 9 to 14) (size 15 to 20)
#    0.000    0.800    4.000    3.200    5.600    3.200 
#    0.000    0.000    0.000    0.000    0.000    0.000 
#    0.000    0.000    0.000    0.000    0.000    0.000 
#
# Total GULP energy -83789.569825 kJ/mol
# GULP energy per Si atom -5585.971322 kJ/mol
# Density = 2.243958 g / cm^3
# Si number density = 22.490769 Si / 1000 Ang^3
#
#
#
# Elastic Constant Matrix: (Units=GPa)
#
#
# Indices 1 2 3 4 5 6 
#
# 1 100.5178 18.2095 50.0721 1.0965 -8.1333 -0.4066
# 2 18.2095 46.8577 30.2324 -8.5934 -2.4366 8.3839
# 3 50.0721 30.2324 99.6226 -18.9655 -4.7410 5.4234
# 4 1.0965 -8.5934 -18.9655 28.4211 3.9609 6.6685
# 5 -8.1333 -2.4366 -4.7410 3.9609 36.5654 13.3265
# 6 -0.4066 8.3839 5.4234 6.6685 13.3265 35.0059
#
#
#
# Elastic Compliance Matrix: (Units=1/GPa)
#
#
# Indices 1 2 3 4 5 6 
#
# 1 0.014689 -0.002180 -0.008227 -0.007613 0.001898 0.002695
# 2 -0.002180 0.028782 -0.005806 0.006461 0.003045 -0.008409
# 3 -0.008227 -0.005806 0.018392 0.011707 0.000324 -0.003908
# 4 -0.007613 0.006461 0.011707 0.048230 -0.000422 -0.012476
# 5 0.001898 0.003045 0.000324 -0.000422 0.032868 -0.013190
# 6 0.002695 -0.008409 -0.003908 -0.012476 -0.013190 0.038615
#
#
# Mechanical properties :
#
#
# Convention : Reuss Voigt Hill
#
# Bulk Modulus (GPa) = 33.97119 49.33624 41.65372
# Shear Modulus (GPa) = 22.33980 29.89742 26.11861
#
# Velocity S-wave (km/s) = 3.15507 3.64994 3.41149
# Velocity P-wave (km/s) = 5.33009 6.30449 5.83766
#
# Compressibility (1/GPa) = 0.02943671
#
# Stress axis : x y z
#
# Youngs Moduli (GPa) = 68.07721 34.74357 54.37218
#
# Poissons Ratio (x) = 0.07574 0.44733
# Poissons Ratio (y) = 0.14840 0.31569
# Poissons Ratio (z) = 0.56008 0.20173
#
# Static dielectric constant tensor:
#      x y z
#    x 1.837300 0.013480 0.033080 
#    y 0.013480 1.875550 -0.036760 
#    z 0.033080 -0.036760 1.840580 
# 
# From -- ./inp_files/389838.got.cif
#   From: 2010.05.17/outbox.cif.g08.bks.cpg/sg2_195_cif.got.tgz:389838.got - 2010.06.03 11:33:40.
