data_PCOD9021963
_publ_section_title
;
Structure prediction by ZEFSAII (Michael W. Deem and Ramdas Pophale) SiO2 
 PCOD9021963
Probable space group: P -1
;
_chemical_formula_sum "Si O2"
_cell_formula_units_Z 13
_cell_length_a 9.169520
_cell_length_b 13.413578
_cell_length_c 9.934152
_cell_angle_alpha 114.475315
_cell_angle_beta 105.531709
_cell_angle_gamma 31.498172
_cell_volume 571.556381
_symmetry_space_group_name_H-M "P -1"
_symmetry_group_IT_number 2
_symmetry_cell_setting 'triclinic'
loop_
_space_group_symop_operation_xyz
x,y,z
-x,-y,-z
loop_
_atom_site_type_symbol
_atom_site_label
_atom_site_fract_x
_atom_site_fract_y
_atom_site_fract_z
Si Si1 0.500000 0.500000 0.500000
Si Si2 0.517116 0.722275 0.314250
Si Si3 0.255948 0.667128 0.234563
Si Si4 0.940128 0.665937 0.066199
Si Si5 0.565218 0.009422 0.668564
Si Si6 0.842581 0.691870 0.760164
Si Si7 0.333445 0.847145 0.647210
O O1 0.313155 0.616190 0.378042
O O2 0.365070 0.703380 0.620294
O O3 0.491552 0.609728 0.210854
O O4 0.385227 0.816658 0.481851
O O5 0.847749 0.551256 0.307788
O O6 0.376693 0.897366 0.281153
O O7 0.211988 0.575109 0.108889
O O8 0.965408 0.911595 0.268796
O O9 0.706228 0.838902 0.216917
O O10 0.829413 0.755169 0.938360
O O11 0.000000 0.500000 0.000000
O O12 0.813735 0.793114 0.685067
O O13 0.500000 0.000000 0.500000
O O14 0.592019 0.758207 0.722869
#
# Coordination Sequence:
#
# PCOD9021963 Si02
#       7
#     1   2   2   2   2   2   2
#     4  10  22  38  68 100 136 182 238 286 354 406
#     4  11  24  42  67 106 141 180 241 298 347 412
#     4  11  25  45  68 102 145 187 237 296 351 422
#     4  12  25  48  75 102 145 194 238 283 362 438
#     4  12  25  44  73 104 140 185 243 291 344 417
#     4  12  25  43  73 103 143 188 235 290 361 423
#     4  11  23  42  71 104 143 185 239 291 354 423
#
# _framework density 22.744913
#
# number of rings (size 3 to 8) (size 9 to 14) (size 15 to 20)
#    0.000    0.615    4.615    3.692    0.000    6.769 
#    0.000    0.769    0.000    0.000    0.000    0.000 
#    0.000    0.000    0.000    0.000    0.000    0.000 
#
# Total GULP energy -72455.335753 kJ/mol
# GULP energy per Si atom -5573.487366 kJ/mol
# Density = 2.269314 g / cm^3
# Si number density = 22.744913 Si / 1000 Ang^3
#
#
#
# Elastic Constant Matrix: (Units=GPa)
#
#
# Indices 1 2 3 4 5 6 
#
# 1 75.1281 34.1382 43.8741 -28.0752 35.1116 16.5027
# 2 34.1382 94.6286 0.5215 -9.2108 5.0242 22.9663
# 3 43.8741 0.5215 100.1391 -15.8779 7.3285 5.6181
# 4 -28.0752 -9.2108 -15.8779 36.9852 -10.9605 -3.5738
# 5 35.1116 5.0242 7.3285 -10.9605 37.9959 4.1099
# 6 16.5027 22.9663 5.6181 -3.5738 4.1099 39.2133
#
#
#
# Elastic Compliance Matrix: (Units=1/GPa)
#
#
# Indices 1 2 3 4 5 6 
#
# 1 0.064399 -0.016771 -0.020946 0.021269 -0.046307 -0.007486
# 2 -0.016771 0.016958 0.006241 -0.002839 0.011802 -0.005264
# 3 -0.020946 0.006241 0.017645 -0.002438 0.014326 0.000908
# 4 0.021269 -0.002839 -0.002438 0.039022 -0.007269 -0.002621
# 5 -0.046307 0.011802 0.014326 -0.007269 0.062330 0.003328
# 6 -0.007486 -0.005264 0.000908 -0.002621 0.003328 0.031017
#
#
# Mechanical properties :
#
#
# Convention : Reuss Voigt Hill
#
# Bulk Modulus (GPa) = 27.74029 47.44037 37.59033
# Shear Modulus (GPa) = 16.32171 35.59634 25.95903
#
# Velocity S-wave (km/s) = 2.68171 3.96033 3.38199
# Velocity P-wave (km/s) = 4.67028 6.46646 5.64033
#
# Compressibility (1/GPa) = 0.03604865
#
# Stress axis : x y z
#
# Youngs Moduli (GPa) = 15.52829 58.96877 56.67333
#
# Poissons Ratio (x) = 0.98898 1.18710
# Poissons Ratio (y) = 0.26043 -0.35370
# Poissons Ratio (z) = 0.32526 -0.36803
#
# Static dielectric constant tensor:
#      x y z
#    x 1.909930 -0.012270 0.017100 
#    y -0.012270 1.829930 0.027580 
#    z 0.017100 0.027580 1.853680 
# 
# From -- ./inp_files/203236.got.cif
#   From: 2010.05.17/outbox.cif.g08.bks.cpg/sg2_102_cif.got.tgz:203236.got - 2010.06.03 11:33:40.
