data_PCOD9021004
_publ_section_title
;
Structure prediction by ZEFSAII (Michael W. Deem and Ramdas Pophale) SiO2 
 PCOD9021004
Probable space group: P -1
;
_chemical_formula_sum "Si O2"
_cell_formula_units_Z 10
_cell_length_a 23.089754
_cell_length_b 9.532751
_cell_length_c 9.062857
_cell_angle_alpha 149.717535
_cell_angle_beta 25.260106
_cell_angle_gamma 156.498429
_cell_volume 332.532355
_symmetry_space_group_name_H-M "P -1"
_symmetry_group_IT_number 2
_symmetry_cell_setting 'triclinic'
loop_
_space_group_symop_operation_xyz
x,y,z
-x,-y,-z
loop_
_atom_site_type_symbol
_atom_site_label
_atom_site_fract_x
_atom_site_fract_y
_atom_site_fract_z
Si Si1 0.284395 0.382334 0.107629
Si Si2 0.822939 0.936855 0.324239
Si Si3 0.017105 0.484566 0.764884
Si Si4 0.500878 0.162936 0.350405
Si Si5 0.296586 0.492111 0.524448
O O1 0.099920 0.276169 0.387430
O O2 0.300975 0.398948 0.262155
O O3 0.445311 0.800527 0.081259
O O4 0.330370 0.138113 0.722672
O O5 0.670800 0.545268 0.248282
O O6 0.755386 0.853891 0.573748
O O7 0.869395 0.254475 0.403808
O O8 0.000000 0.000000 0.000000
O O9 0.000000 0.500000 0.000000
O O10 0.844298 0.442780 0.088241
O O11 0.547150 0.198530 0.449326
#
# Coordination Sequence:
#
# PCOD9021004 Si02
#       5
#     2   2   2   2   2
#     4  11  21  38  61  93 117 153 195 245 292 339
#     4   8  17  36  60  82 121 153 200 233 296 348
#     4   9  18  36  62  86 120 157 197 242 293 349
#     4  10  22  37  64  86 122 152 197 241 291 347
#     4   8  18  37  60  85 120 160 193 236 289 359
#
# _framework density 30.072263
#
# number of rings (size 3 to 8) (size 9 to 14) (size 15 to 20)
#    1.200    1.600    0.000    1.200    0.000    1.600 
#    0.000   12.000    0.000    0.000    0.000    0.000 
#    0.000    0.000    0.000    0.000    0.000    0.000 
#
# Total GULP energy -55811.928325 kJ/mol
# GULP energy per Si atom -5581.192832 kJ/mol
# Density = 3.000382 g / cm^3
# Si number density = 30.072263 Si / 1000 Ang^3
#
#
#
# Elastic Constant Matrix: (Units=GPa)
#
#
# Indices 1 2 3 4 5 6 
#
# 1 230.5849 44.4497 35.5366 6.2980 -32.6381 -29.5688
# 2 44.4497 106.2512 15.4043 -0.9356 6.5820 -40.1487
# 3 35.5366 15.4043 123.1464 8.2158 -33.3613 15.8206
# 4 6.2980 -0.9356 8.2158 35.4013 3.0167 7.7680
# 5 -32.6381 6.5820 -33.3613 3.0167 46.1569 0.7721
# 6 -29.5688 -40.1487 15.8206 7.7680 0.7721 34.4476
#
#
#
# Elastic Compliance Matrix: (Units=1/GPa)
#
#
# Indices 1 2 3 4 5 6 
#
# 1 0.005865 -0.000317 -0.001351 -0.002273 0.003269 0.005724
# 2 -0.000317 0.024635 -0.010271 -0.003430 -0.011509 0.034188
# 3 -0.001351 -0.010271 0.015782 -0.000219 0.012275 -0.020605
# 4 -0.002273 -0.003430 -0.000219 0.031716 -0.003133 -0.012930
# 5 0.003269 -0.011509 0.012275 -0.003133 0.034968 -0.016323
# 6 0.005724 0.034188 -0.020605 -0.012930 -0.016323 0.086534
#
#
# Mechanical properties :
#
#
# Convention : Reuss Voigt Hill
#
# Bulk Modulus (GPa) = 44.63620 72.30705 58.47162
# Shear Modulus (GPa) = 21.65942 47.50728 34.58335
#
# Velocity S-wave (km/s) = 2.68665 3.97894 3.39486
# Velocity P-wave (km/s) = 4.94968 6.72354 5.90361
#
# Compressibility (1/GPa) = 0.02240334
#
# Stress axis : x y z
#
# Youngs Moduli (GPa) = 170.50417 40.59322 63.36230
#
# Poissons Ratio (x) = 0.01287 0.08561
# Poissons Ratio (y) = 0.05407 0.65080
# Poissons Ratio (z) = 0.23036 0.41694
#
# Static dielectric constant tensor:
#      x y z
#    x 2.325980 -0.019130 0.094200 
#    y -0.019130 2.698760 -0.096840 
#    z 0.094200 -0.096840 2.208160 
# 
# From -- ./inp_files/18008.got.cif
#   From: 2010.05.17/outbox.cif.g08.bks.cpg/sg2_10_cif.got.tgz:18008.got - 2010.06.03 11:33:40.
