data_PCOD9021904
_publ_section_title
;
Structure prediction by ZEFSAII (Michael W. Deem and Ramdas Pophale) SiO2 
 PCOD9021904
Probable space group: P -1
;
_chemical_formula_sum "Si O2"
_cell_formula_units_Z 14
_cell_length_a 11.844036
_cell_length_b 14.792655
_cell_length_c 5.238788
_cell_angle_alpha 85.524375
_cell_angle_beta 63.314211
_cell_angle_gamma 124.310795
_cell_volume 605.354026
_symmetry_space_group_name_H-M "P -1"
_symmetry_group_IT_number 2
_symmetry_cell_setting 'triclinic'
loop_
_space_group_symop_operation_xyz
x,y,z
-x,-y,-z
loop_
_atom_site_type_symbol
_atom_site_label
_atom_site_fract_x
_atom_site_fract_y
_atom_site_fract_z
Si Si1 0.966716 0.904692 0.763638
Si Si2 0.870784 0.353766 0.704838
Si Si3 0.262835 0.051445 0.818803
Si Si4 0.016732 0.794290 0.338176
Si Si5 0.675795 0.659908 0.518370
Si Si6 0.655110 0.277333 0.452671
Si Si7 0.478269 0.603049 0.214244
O O1 0.936192 0.795104 0.677786
O O2 0.807084 0.881381 0.057312
O O3 0.000000 0.000000 0.500000
O O4 0.151753 0.984438 0.691722
O O5 0.961452 0.301552 0.677781
O O6 0.758791 0.281239 0.578677
O O7 0.000000 0.500000 0.500000
O O8 0.759209 0.324483 0.073673
O O9 0.465640 0.149586 0.607971
O O10 0.190632 0.933834 0.088427
O O11 0.879568 0.766421 0.280632
O O12 0.592008 0.628771 0.335312
O O13 0.641964 0.541277 0.681406
O O14 0.582365 0.674170 0.831298
O O15 0.627043 0.363325 0.581752
#
# Coordination Sequence:
#
# PCOD9021904 Si02
#       7
#     2   2   2   2   2   2   2
#     4   9  21  41  69 108 145 180 227 282 363 432
#     4  12  30  51  73  99 137 198 247 292 343 410
#     4  10  24  42  71 110 140 185 227 293 367 424
#     4  11  25  42  71  98 145 185 235 290 350 423
#     4  10  22  38  67 100 133 176 224 293 357 414
#     4  12  27  47  73  99 144 185 239 294 344 423
#     4  10  22  41  65 101 134 173 231 289 356 408
#
# _framework density 23.126963
#
# number of rings (size 3 to 8) (size 9 to 14) (size 15 to 20)
#    0.000    1.429    0.000    3.000   14.000    3.429 
#    0.000    0.000    0.000    0.000    0.000    0.000 
#    0.000    0.000    0.000    0.000    0.000    0.000 
#
# Total GULP energy -78154.146838 kJ/mol
# GULP energy per Si atom -5582.439060 kJ/mol
# Density = 2.307432 g / cm^3
# Si number density = 23.126963 Si / 1000 Ang^3
#
#
#
# Elastic Constant Matrix: (Units=GPa)
#
#
# Indices 1 2 3 4 5 6 
#
# 1 88.5083 22.0952 48.6367 -7.4314 -12.5933 12.0748
# 2 22.0952 95.9834 46.7154 7.2570 -14.2300 -12.6040
# 3 48.6367 46.7154 138.9975 14.9192 -4.7027 12.5823
# 4 -7.4314 7.2570 14.9192 24.2652 4.2945 2.1887
# 5 -12.5933 -14.2300 -4.7027 4.2945 28.4693 7.8759
# 6 12.0748 -12.6040 12.5823 2.1887 7.8759 53.7841
#
#
#
# Elastic Compliance Matrix: (Units=1/GPa)
#
#
# Indices 1 2 3 4 5 6 
#
# 1 0.016889 -0.001385 -0.005813 0.008521 0.005619 -0.003926
# 2 -0.001385 0.014322 -0.004142 -0.003456 0.005275 0.004004
# 3 -0.005813 -0.004142 0.011535 -0.007265 -0.001113 -0.001905
# 4 0.008521 -0.003456 -0.007265 0.050613 -0.006191 -0.002176
# 5 0.005619 0.005275 -0.001113 -0.006191 0.042589 -0.005749
# 6 -0.003926 0.004004 -0.001905 -0.002176 -0.005749 0.021789
#
#
# Mechanical properties :
#
#
# Convention : Reuss Voigt Hill
#
# Bulk Modulus (GPa) = 49.83569 62.04264 55.93916
# Shear Modulus (GPa) = 26.72269 35.03983 30.88126
#
# Velocity S-wave (km/s) = 3.40292 3.89666 3.65813
# Velocity P-wave (km/s) = 6.08567 6.86517 6.48713
#
# Compressibility (1/GPa) = 0.02006594
#
# Stress axis : x y z
#
# Youngs Moduli (GPa) = 59.20962 69.82024 86.69160
#
# Poissons Ratio (x) = 0.09672 0.50395
# Poissons Ratio (y) = 0.08202 0.35907
# Poissons Ratio (z) = 0.34420 0.28919
#
# Static dielectric constant tensor:
#      x y z
#    x 1.900860 0.050240 0.066140 
#    y 0.050240 1.958250 -0.047150 
#    z 0.066140 -0.047150 2.078640 
# 
# From -- ./inp_files/77746.got.cif
#   From: 2010.05.17/outbox.cif.g08.bks.cpg/sg2_39_cif.got.tgz:77746.got - 2010.06.03 11:33:40.
