data_PCOD9021908
_publ_section_title
;
Structure prediction by ZEFSAII (Michael W. Deem and Ramdas Pophale) SiO2 
 PCOD9021908
Probable space group: P -1
;
_chemical_formula_sum "Si O2"
_cell_formula_units_Z 16
_cell_length_a 9.185314
_cell_length_b 14.218012
_cell_length_c 8.602688
_cell_angle_alpha 126.262450
_cell_angle_beta 64.041802
_cell_angle_gamma 78.666333
_cell_volume 633.718840
_symmetry_space_group_name_H-M "P -1"
_symmetry_group_IT_number 2
_symmetry_cell_setting 'triclinic'
loop_
_space_group_symop_operation_xyz
x,y,z
-x,-y,-z
loop_
_atom_site_type_symbol
_atom_site_label
_atom_site_fract_x
_atom_site_fract_y
_atom_site_fract_z
Si Si1 0.459573 0.889045 0.970285
Si Si2 0.681792 0.894180 0.121599
Si Si3 0.834241 0.596372 0.341355
Si Si4 0.080034 0.668759 0.493871
Si Si5 0.268306 0.795505 0.330026
Si Si6 0.388635 0.226325 0.682972
Si Si7 0.265219 0.587020 0.639949
Si Si8 0.114646 0.876730 0.139729
O O1 0.622987 0.728955 0.661314
O O2 0.508239 0.884113 0.123047
O O3 0.234422 0.940416 0.100817
O O4 0.500000 0.000000 0.000000
O O5 0.715906 0.822327 0.203489
O O6 0.571482 0.069547 0.356400
O O7 0.874370 0.795094 0.816481
O O8 0.776949 0.651416 0.244778
O O9 0.845542 0.456324 0.240240
O O10 0.007767 0.598623 0.343235
O O11 0.174526 0.732438 0.414763
O O12 0.241383 0.557573 0.444101
O O13 0.491750 0.726692 0.232001
O O14 0.227229 0.783952 0.156114
O O15 0.121538 0.977383 0.590518
O O16 0.500000 0.500000 0.500000
O O17 0.153322 0.761948 0.882282
#
# Coordination Sequence:
#
# PCOD9021908 Si02
#       8
#     2   2   2   2   2   2   2   2
#     4  11  19  38  66  98 131 174 220 274 337 389
#     4  10  22  38  67 101 140 173 226 289 337 403
#     4  11  24  42  69  96 138 178 228 275 339 414
#     4  11  26  44  69 100 133 180 232 281 344 401
#     4  11  25  42  70 103 140 173 229 292 335 399
#     4  11  22  40  67 103 137 177 228 281 348 399
#     4  12  25  46  70  99 139 183 227 280 342 419
#     4  11  24  43  66 100 141 179 223 280 346 400
#
# _framework density 25.247789000000001
#
# number of rings (size 3 to 8) (size 9 to 14) (size 15 to 20)
#    0.000    1.000    3.750    3.375    0.000    3.000 
#    0.000    7.500    0.000    0.000    0.000    0.000 
#    0.000    0.000    0.000    0.000    0.000    0.000 
#
# Total GULP energy -89596.996264 kJ/mol
# GULP energy per Si atom -5599.812266 kJ/mol
# Density = 2.519032 g / cm^3
# Si number density = 25.247789 Si / 1000 Ang^3
#
#
#
# Elastic Constant Matrix: (Units=GPa)
#
#
# Indices 1 2 3 4 5 6 
#
# 1 187.1953 79.7235 29.4515 -6.6449 7.8033 -19.1538
# 2 79.7235 157.0346 0.6946 -20.0504 4.0726 -2.8840
# 3 29.4515 0.6946 62.9335 -3.9194 1.6962 2.1607
# 4 -6.6449 -20.0504 -3.9194 31.8658 -4.9768 -2.3029
# 5 7.8033 4.0726 1.6962 -4.9768 33.2454 -5.0482
# 6 -19.1538 -2.8840 2.1607 -2.3029 -5.0482 51.8686
#
#
#
# Elastic Compliance Matrix: (Units=1/GPa)
#
#
# Indices 1 2 3 4 5 6 
#
# 1 0.007976 -0.004131 -0.003839 -0.001362 -0.000961 0.002721
# 2 -0.004131 0.009084 0.002171 0.005120 0.000384 -0.000846
# 3 -0.003839 0.002171 0.017896 0.002597 -0.000184 -0.001945
# 4 -0.001362 0.005120 0.002597 0.035570 0.005151 0.001754
# 5 -0.000961 0.000384 -0.000184 0.005151 0.031489 0.002968
# 6 0.002721 -0.000846 -0.001945 0.001754 0.002968 0.020685
#
#
# Mechanical properties :
#
#
# Convention : Reuss Voigt Hill
#
# Bulk Modulus (GPa) = 42.81526 69.65584 56.23555
# Shear Modulus (GPa) = 35.19043 43.21555 39.20299
#
# Velocity S-wave (km/s) = 3.73742 4.14171 3.94474
# Velocity P-wave (km/s) = 5.96818 7.10777 6.56276
#
# Compressibility (1/GPa) = 0.02335616
#
# Stress axis : x y z
#
# Youngs Moduli (GPa) = 125.38352 110.08477 55.87859
#
# Poissons Ratio (x) = 0.45476 0.21453
# Poissons Ratio (y) = 0.51796 -0.12129
# Poissons Ratio (z) = 0.48136 -0.23894
#
# Static dielectric constant tensor:
#      x y z
#    x 1.997980 -0.066800 -0.010040 
#    y -0.066800 2.014480 -0.020630 
#    z -0.010040 -0.020630 1.994310 
# 
# From -- ./inp_files/208902.got.cif
#   From: 2010.05.17/outbox.cif.g08.bks.cpg/sg2_105_cif.got.tgz:208902.got - 2010.06.03 11:33:40.
