data_PCOD9021846
_publ_section_title
;
Structure prediction by ZEFSAII (Michael W. Deem and Ramdas Pophale) SiO2 
 PCOD9021846
Probable space group: P -1
;
_chemical_formula_sum "Si O2"
_cell_formula_units_Z 16
_cell_length_a 11.859398
_cell_length_b 9.530416
_cell_length_c 10.846733
_cell_angle_alpha 62.002840
_cell_angle_beta 128.935500
_cell_angle_gamma 114.041956
_cell_volume 830.660121
_symmetry_space_group_name_H-M "P -1"
_symmetry_group_IT_number 2
_symmetry_cell_setting 'triclinic'
loop_
_space_group_symop_operation_xyz
x,y,z
-x,-y,-z
loop_
_atom_site_type_symbol
_atom_site_label
_atom_site_fract_x
_atom_site_fract_y
_atom_site_fract_z
Si Si1 0.077693 0.156710 0.063086
Si Si2 0.384433 0.260148 0.103445
Si Si3 0.126661 0.704642 0.522506
Si Si4 0.214577 0.078338 0.450238
Si Si5 0.463201 0.927880 0.367380
Si Si6 0.634326 0.520641 0.232506
Si Si7 0.157269 0.337255 0.483692
Si Si8 0.839330 0.322387 0.733573
O O1 0.220394 0.235566 0.052644
O O2 0.136555 0.112472 0.254317
O O3 0.953572 0.268618 0.929667
O O4 0.000000 0.000000 0.000000
O O5 0.494106 0.382828 0.213608
O O6 0.432016 0.084479 0.205701
O O7 0.393478 0.352141 0.942040
O O8 0.238853 0.581768 0.679599
O O9 0.107163 0.699598 0.362500
O O10 0.976834 0.664850 0.511945
O O11 0.194777 0.886429 0.529263
O O12 0.389788 0.136875 0.543706
O O13 0.146929 0.171328 0.473501
O O14 0.318600 0.792472 0.320953
O O15 0.500000 0.000000 0.500000
O O16 0.695029 0.618334 0.353763
O O17 0.162961 0.488656 0.333967
#
# Coordination Sequence:
#
# PCOD9021846 Si02
#       8
#     2   2   2   2   2   2   2   2
#     4  12  21  37  65  94 116 157 212 256 293 361
#     4  11  20  37  66  93 116 155 216 255 291 354
#     4  11  19  41  64  86 121 165 209 245 297 371
#     4  12  25  38  65  93 124 167 198 254 316 359
#     4  12  19  40  64  91 122 157 211 251 292 375
#     4  10  22  38  66  90 119 162 209 252 297 363
#     4  11  25  40  58  93 133 157 202 252 316 363
#     4  11  22  39  67  91 116 166 207 252 303 355
#
# _framework density 19.261789
#
# number of rings (size 3 to 8) (size 9 to 14) (size 15 to 20)
#    0.000    0.750    6.250    4.125    0.000    1.000 
#    0.000    0.625    2.750    0.000    0.000    0.000 
#    0.000    0.000    0.000    0.000    0.000    0.000 
#
# Total GULP energy -89360.317315 kJ/mol
# GULP energy per Si atom -5585.019832 kJ/mol
# Density = 1.921795 g / cm^3
# Si number density = 19.261789 Si / 1000 Ang^3
#
#
#
# Elastic Constant Matrix: (Units=GPa)
#
#
# Indices 1 2 3 4 5 6 
#
# 1 59.2960 36.5278 19.3272 9.0328 14.0776 20.5364
# 2 36.5278 81.7002 22.3506 -3.0336 -0.2462 4.3675
# 3 19.3272 22.3506 100.4057 -12.1675 14.9331 5.5925
# 4 9.0328 -3.0336 -12.1675 31.1654 9.4005 8.1840
# 5 14.0776 -0.2462 14.9331 9.4005 19.4050 4.4849
# 6 20.5364 4.3675 5.5925 8.1840 4.4849 37.7733
#
#
#
# Elastic Compliance Matrix: (Units=1/GPa)
#
#
# Indices 1 2 3 4 5 6 
#
# 1 0.038283 -0.016573 0.000739 -0.000865 -0.024454 -0.015916
# 2 -0.016573 0.020421 -0.003827 -0.000448 0.014143 0.005634
# 3 0.000739 -0.003827 0.014536 0.010678 -0.016370 -0.002481
# 4 -0.000865 -0.000448 0.010678 0.047165 -0.028623 -0.007879
# 5 -0.024454 0.014143 -0.016370 -0.028623 0.093803 0.009148
# 6 -0.015916 0.005634 -0.002481 -0.007879 0.009148 0.035464
#
#
# Mechanical properties :
#
#
# Convention : Reuss Voigt Hill
#
# Bulk Modulus (GPa) = 29.48329 44.20143 36.84236
# Shear Modulus (GPa) = 16.64992 28.54849 22.59920
#
# Velocity S-wave (km/s) = 2.94326 3.85402 3.42901
# Velocity P-wave (km/s) = 5.18558 6.54234 5.90307
#
# Compressibility (1/GPa) = 0.03391752
#
# Stress axis : x y z
#
# Youngs Moduli (GPa) = 26.12125 48.96801 68.79385
#
# Poissons Ratio (x) = 0.81156 -0.05083
# Poissons Ratio (y) = 0.43291 0.26329
# Poissons Ratio (z) = -0.01930 0.18741
#
# Static dielectric constant tensor:
#      x y z
#    x 1.672990 0.015310 0.018090 
#    y 0.015310 1.678420 -0.011290 
#    z 0.018090 -0.011290 1.702080 
# 
# From -- ./inp_files/357814.got.cif
#   From: 2010.05.17/outbox.cif.g08.bks.cpg/sg2_179_cif.got.tgz:357814.got - 2010.06.03 11:33:40.
