data_PCOD9021172
_publ_section_title
;
Structure prediction by ZEFSAII (Michael W. Deem and Ramdas Pophale) SiO2 
 PCOD9021172
Probable space group: P -1
;
_chemical_formula_sum "Si O2"
_cell_formula_units_Z 14
_cell_length_a 10.079657
_cell_length_b 11.874004
_cell_length_c 7.956977
_cell_angle_alpha 94.952159
_cell_angle_beta 96.450696
_cell_angle_gamma 36.979931
_cell_volume 569.228579
_symmetry_space_group_name_H-M "P -1"
_symmetry_group_IT_number 2
_symmetry_cell_setting 'triclinic'
loop_
_space_group_symop_operation_xyz
x,y,z
-x,-y,-z
loop_
_atom_site_type_symbol
_atom_site_label
_atom_site_fract_x
_atom_site_fract_y
_atom_site_fract_z
Si Si1 0.477102 0.617948 0.874876
Si Si2 0.923222 0.210549 0.362368
Si Si3 0.826011 0.020723 0.932713
Si Si4 0.958869 0.344074 0.909715
Si Si5 0.675960 0.759168 0.555923
Si Si6 0.129724 0.496562 0.735498
Si Si7 0.225319 0.099254 0.626933
O O1 0.291530 0.714063 0.720152
O O2 0.720897 0.470326 0.817587
O O3 0.500000 0.500000 0.000000
O O4 0.396155 0.780992 0.993133
O O5 0.868656 0.375089 0.316334
O O6 0.023464 0.153124 0.556269
O O7 0.136113 0.021879 0.264250
O O8 0.920523 0.843267 0.005310
O O9 0.000000 0.000000 0.000000
O O10 0.140797 0.238774 0.778404
O O11 0.892161 0.474935 0.064574
O O12 0.677975 0.689645 0.372511
O O13 0.715044 0.863195 0.520230
O O14 0.903496 0.584301 0.662752
O O15 0.463237 0.881921 0.657124
#
# Coordination Sequence:
#
# PCOD9021172 Si02
#       7
#     2   2   2   2   2   2   2
#     4  11  19  36  62  86 117 157 190 236 283 350
#     4   9  19  35  59  84 118 153 196 227 289 360
#     4   9  18  36  57  82 114 153 198 226 275 352
#     4  11  22  37  60  92 119 146 200 240 283 341
#     4   9  20  40  60  77 118 155 193 239 299 341
#     4   9  18  37  62  84 105 157 200 235 283 356
#     4  10  22  38  56  88 118 152 189 247 294 337
#
# _framework density 24.594688000000001
#
# number of rings (size 3 to 8) (size 9 to 14) (size 15 to 20)
#    0.000    2.286    4.286    0.000    2.000    1.714 
#    7.714    2.857    0.000    0.000    0.000    0.000 
#    0.000    0.000    0.000    0.000    0.000    0.000 
#
# Total GULP energy -78033.875311 kJ/mol
# GULP energy per Si atom -5573.848236 kJ/mol
# Density = 2.453871 g / cm^3
# Si number density = 24.594688 Si / 1000 Ang^3
#
#
#
# Elastic Constant Matrix: (Units=GPa)
#
#
# Indices 1 2 3 4 5 6 
#
# 1 38.6504 21.8217 23.6059 10.3804 2.9031 -14.9156
# 2 21.8217 138.3391 49.4318 37.9876 2.9337 -33.9830
# 3 23.6059 49.4318 100.7114 29.5732 25.4812 -29.2365
# 4 10.3804 37.9876 29.5732 43.2123 3.8727 -4.2924
# 5 2.9031 2.9337 25.4812 3.8727 26.3533 6.1681
# 6 -14.9156 -33.9830 -29.2365 -4.2924 6.1681 41.0236
#
#
#
# Elastic Compliance Matrix: (Units=1/GPa)
#
#
# Indices 1 2 3 4 5 6 
#
# 1 0.032886 -0.000684 -0.002852 -0.004216 -0.002338 0.009268
# 2 -0.000684 0.012260 0.000389 -0.009710 -0.002471 0.009540
# 3 -0.002852 0.000389 0.029624 -0.014739 -0.031736 0.023627
# 4 -0.004216 -0.009710 -0.014739 0.039712 0.014188 -0.018059
# 5 -0.002338 -0.002471 -0.031736 0.014188 0.075356 -0.035361
# 6 0.009268 0.009540 0.023627 -0.018059 -0.035361 0.055914
#
#
# Mechanical properties :
#
#
# Convention : Reuss Voigt Hill
#
# Bulk Modulus (GPa) = 14.60410 51.93551 33.26981
# Shear Modulus (GPa) = 18.19032 34.30726 26.24879
#
# Velocity S-wave (km/s) = 2.72252 3.73889 3.27043
# Velocity P-wave (km/s) = 3.97914 6.30884 5.27423
#
# Compressibility (1/GPa) = 0.06847390
#
# Stress axis : x y z
#
# Youngs Moduli (GPa) = 30.40828 81.56708 33.75687
#
# Poissons Ratio (x) = 0.05582 0.09629
# Poissons Ratio (y) = 0.02081 -0.01313
# Poissons Ratio (z) = 0.08673 -0.03173
#
# Static dielectric constant tensor:
#      x y z
#    x 1.984250 0.045270 -0.004430 
#    y 0.045270 2.020890 -0.075850 
#    z -0.004430 -0.075850 2.022670 
# 
# From -- ./inp_files/273783.got.cif
#   From: 2010.05.17/outbox.cif.g08.bks.cpg/sg2_137_cif.got.tgz:273783.got - 2010.06.03 11:33:40.
