data_PCOD9021710
_publ_section_title
;
Structure prediction by ZEFSAII (Michael W. Deem and Ramdas Pophale) SiO2 
 PCOD9021710
Probable space group: P -1
;
_chemical_formula_sum "Si O2"
_cell_formula_units_Z 14
_cell_length_a 7.968155
_cell_length_b 14.187959
_cell_length_c 6.895033
_cell_angle_alpha 117.620575
_cell_angle_beta 60.182211
_cell_angle_gamma 87.248153
_cell_volume 558.508041
_symmetry_space_group_name_H-M "P -1"
_symmetry_group_IT_number 2
_symmetry_cell_setting 'triclinic'
loop_
_space_group_symop_operation_xyz
x,y,z
-x,-y,-z
loop_
_atom_site_type_symbol
_atom_site_label
_atom_site_fract_x
_atom_site_fract_y
_atom_site_fract_z
Si Si1 0.605451 0.654976 0.172290
Si Si2 0.311907 0.971396 0.276724
Si Si3 0.949348 0.306069 0.601955
Si Si4 0.576399 0.816830 0.679051
Si Si5 0.644762 0.494712 0.690169
Si Si6 0.066271 0.587246 0.912427
Si Si7 0.926490 0.074147 0.305168
O O1 0.514933 0.756282 0.475965
O O2 0.532639 0.559329 0.231997
O O3 0.562070 0.621812 0.947530
O O4 0.841208 0.652871 0.009869
O O5 0.260134 0.947753 0.500606
O O6 0.422977 0.062784 0.288953
O O7 0.430348 0.855001 0.984669
O O8 0.109695 0.031078 0.317835
O O9 0.197697 0.262186 0.444539
O O10 0.836445 0.419121 0.649266
O O11 0.891501 0.207250 0.437986
O O12 0.880268 0.329911 0.889097
O O13 0.752995 0.473311 0.399715
O O14 0.000000 0.500000 0.000000
O O15 0.000000 0.000000 0.000000
#
# Coordination Sequence:
#
# PCOD9021710 Si02
#       7
#     2   2   2   2   2   2   2
#     4  10  23  41  65  98 124 174 209 262 321 376
#     4   9  20  42  63  89 129 164 210 267 309 380
#     4  10  23  41  62  96 124 172 210 255 330 376
#     4   9  20  41  67  91 127 170 212 257 326 374
#     4  11  24  43  64  96 135 162 218 269 309 385
#     4  11  23  44  66  90 131 174 209 261 319 382
#     4  10  22  38  64  95 123 164 213 261 318 376
#
# _framework density 25.066782
#
# number of rings (size 3 to 8) (size 9 to 14) (size 15 to 20)
#    0.000    2.000    1.429    0.429    4.000    4.000 
#    2.571    6.429    0.000    0.000    0.000    0.000 
#    0.000    0.000    0.000    0.000    0.000    0.000 
#
# Total GULP energy -78177.288455 kJ/mol
# GULP energy per Si atom -5584.092033 kJ/mol
# Density = 2.500973 g / cm^3
# Si number density = 25.066782 Si / 1000 Ang^3
#
#
#
# Elastic Constant Matrix: (Units=GPa)
#
#
# Indices 1 2 3 4 5 6 
#
# 1 92.8165 10.4203 13.3724 8.8801 7.1699 -2.9632
# 2 10.4203 62.1376 38.8791 18.4769 10.2966 6.7515
# 3 13.3724 38.8791 225.5113 12.9379 12.4961 26.2633
# 4 8.8801 18.4769 12.9379 43.7825 15.4897 9.9343
# 5 7.1699 10.2966 12.4961 15.4897 40.7497 10.4735
# 6 -2.9632 6.7515 26.2633 9.9343 10.4735 34.8580
#
#
#
# Elastic Compliance Matrix: (Units=1/GPa)
#
#
# Indices 1 2 3 4 5 6 
#
# 1 0.011345 -0.001031 -0.000611 -0.001720 -0.001558 0.002583
# 2 -0.001031 0.020483 -0.003062 -0.007160 -0.001526 0.000752
# 3 -0.000611 -0.003062 0.005394 0.000691 -0.000086 -0.003694
# 4 -0.001720 -0.007160 0.000691 0.030121 -0.008158 -0.005413
# 5 -0.001558 -0.001526 -0.000086 -0.008158 0.029987 -0.006457
# 6 0.002583 0.000752 -0.003694 -0.005413 -0.006457 0.035027
#
#
# Mechanical properties :
#
#
# Convention : Reuss Voigt Hill
#
# Bulk Modulus (GPa) = 35.95441 56.20099 46.07770
# Shear Modulus (GPa) = 33.10442 45.06428 39.08435
#
# Velocity S-wave (km/s) = 3.63802 4.24461 3.95297
# Velocity P-wave (km/s) = 5.65875 6.81847 6.26550
#
# Compressibility (1/GPa) = 0.02781300
#
# Stress axis : x y z
#
# Youngs Moduli (GPa) = 88.14362 48.82144 185.39651
#
# Poissons Ratio (x) = 0.05035 0.11322
# Poissons Ratio (y) = 0.09091 0.56774
# Poissons Ratio (z) = 0.05383 0.14951
#
# Static dielectric constant tensor:
#      x y z
#    x 2.103230 -0.078220 -0.048330 
#    y -0.078220 2.083430 0.047700 
#    z -0.048330 0.047700 1.987140 
# 
# From -- ./inp_files/39602.got.cif
#   From: 2010.05.17/outbox.cif.g08.bks.cpg/sg2_20_cif.got.tgz:39602.got - 2010.06.03 11:33:40.
