data_PCOD9021931
_publ_section_title
;
Structure prediction by ZEFSAII (Michael W. Deem and Ramdas Pophale) SiO2 
 PCOD9021931
Probable space group: P -1
;
_chemical_formula_sum "Si O2"
_cell_formula_units_Z 14
_cell_length_a 11.909025
_cell_length_b 9.332422
_cell_length_c 12.702254
_cell_angle_alpha 69.527894
_cell_angle_beta 115.018679
_cell_angle_gamma 53.999501
_cell_volume 598.000285
_symmetry_space_group_name_H-M "P -1"
_symmetry_group_IT_number 2
_symmetry_cell_setting 'triclinic'
loop_
_space_group_symop_operation_xyz
x,y,z
-x,-y,-z
loop_
_atom_site_type_symbol
_atom_site_label
_atom_site_fract_x
_atom_site_fract_y
_atom_site_fract_z
Si Si1 0.435805 0.802482 0.396151
Si Si2 0.230092 0.388437 0.571821
Si Si3 0.413797 0.242925 0.078347
Si Si4 0.232956 0.948259 0.839285
Si Si5 0.224513 0.337190 0.194645
Si Si6 0.930722 0.625940 0.196316
Si Si7 0.092032 0.905322 0.180076
O O1 0.546694 0.742753 0.344680
O O2 0.191461 0.964039 0.241387
O O3 0.656797 0.465676 0.617656
O O4 0.378539 0.022688 0.374413
O O5 0.121772 0.407285 0.424791
O O6 0.994799 0.749758 0.405276
O O7 0.361434 0.120339 0.761981
O O8 0.360729 0.290801 0.170896
O O9 0.514667 0.297157 0.062797
O O10 0.187003 0.404625 0.884942
O O11 0.260884 0.044898 0.919148
O O12 0.113293 0.936033 0.859153
O O13 0.083833 0.548967 0.185640
O O14 0.000000 0.500000 0.000000
O O15 0.000000 0.000000 0.000000
#
# Coordination Sequence:
#
# PCOD9021931 Si02
#       7
#     2   2   2   2   2   2   2
#     4   9  19  35  51  79 103 137 179 221 251 310
#     4   8  18  29  51  75 105 130 166 211 266 309
#     4  10  17  31  50  75 110 137 158 217 273 307
#     4   9  19  33  49  79 106 129 180 214 258 314
#     4   9  19  32  57  80 110 138 168 213 275 319
#     4   9  19  32  47  83 107 131 169 206 261 327
#     4  10  21  35  53  75 105 142 184 221 250 298
#
# _framework density 23.411360999999999
#
# number of rings (size 3 to 8) (size 9 to 14) (size 15 to 20)
#    0.857    2.000    0.000    0.857    6.000    2.286 
#    0.000    0.000    0.000    3.429    0.000    6.000 
#    0.000    0.000    0.000    0.000    0.000    0.000 
#
# Total GULP energy -77950.251480 kJ/mol
# GULP energy per Si atom -5567.875106 kJ/mol
# Density = 2.335808 g / cm^3
# Si number density = 23.411361 Si / 1000 Ang^3
#
#
#
# Elastic Constant Matrix: (Units=GPa)
#
#
# Indices 1 2 3 4 5 6 
#
# 1 216.7424 33.6107 42.8253 8.5204 26.4353 -24.4078
# 2 33.6107 54.1469 18.0275 0.6548 -0.7176 -18.2214
# 3 42.8253 18.0275 79.2402 6.4080 4.1842 4.1182
# 4 8.5204 0.6548 6.4080 20.8118 6.5336 7.3704
# 5 26.4353 -0.7176 4.1842 6.5336 34.1497 -6.0875
# 6 -24.4078 -18.2214 4.1182 7.3704 -6.0875 33.8481
#
#
#
# Elastic Compliance Matrix: (Units=1/GPa)
#
#
# Indices 1 2 3 4 5 6 
#
# 1 0.006401 -0.001753 -0.002916 -0.001880 -0.003600 0.003789
# 2 -0.001753 0.027399 -0.006007 -0.006433 0.006905 0.016859
# 3 -0.002916 -0.006007 0.016049 -0.000642 -0.001020 -0.007332
# 4 -0.001880 -0.006433 -0.000642 0.060836 -0.013893 -0.020486
# 5 -0.003600 0.006905 -0.001020 -0.013893 0.036943 0.010914
# 6 0.003789 0.016859 -0.007332 -0.020486 0.010914 0.048668
#
#
# Mechanical properties :
#
#
# Convention : Reuss Voigt Hill
#
# Bulk Modulus (GPa) = 35.08881 59.89515 47.49198
# Shear Modulus (GPa) = 22.01234 34.80632 28.40933
#
# Velocity S-wave (km/s) = 3.06966 3.85999 3.48729
# Velocity P-wave (km/s) = 5.25207 6.74577 6.04523
#
# Compressibility (1/GPa) = 0.02849912
#
# Stress axis : x y z
#
# Youngs Moduli (GPa) = 156.21847 36.49801 62.30915
#
# Poissons Ratio (x) = 0.06397 0.18167
# Poissons Ratio (y) = 0.27379 0.37427
# Poissons Ratio (z) = 0.45548 0.21923
#
# Static dielectric constant tensor:
#      x y z
#    x 1.976100 -0.004100 -0.021820 
#    y -0.004100 1.974320 -0.052380 
#    z -0.021820 -0.052380 1.920550 
# 
# From -- ./inp_files/516808.got.cif
#   From: 2010.05.17/outbox.cif.g08.bks.cpg/sg2_259_cif.got.tgz:516808.got - 2010.06.03 11:33:40.
