data_PCOD9021606
_publ_section_title
;
Structure prediction by ZEFSAII (Michael W. Deem and Ramdas Pophale) SiO2 
 PCOD9021606
Probable space group: P -1
;
_chemical_formula_sum "Si O2"
_cell_formula_units_Z 14
_cell_length_a 8.904118
_cell_length_b 9.664842
_cell_length_c 16.838875
_cell_angle_alpha 90.067075
_cell_angle_beta 132.139086
_cell_angle_gamma 129.860373
_cell_volume 538.442443
_symmetry_space_group_name_H-M "P -1"
_symmetry_group_IT_number 2
_symmetry_cell_setting 'triclinic'
loop_
_space_group_symop_operation_xyz
x,y,z
-x,-y,-z
loop_
_atom_site_type_symbol
_atom_site_label
_atom_site_fract_x
_atom_site_fract_y
_atom_site_fract_z
Si Si1 0.082301 0.889471 0.555503
Si Si2 0.774696 0.736075 0.678809
Si Si3 0.300729 0.465033 0.066216
Si Si4 0.106264 0.531928 0.134988
Si Si5 0.747943 0.432701 0.629440
Si Si6 0.139716 0.044474 0.139815
Si Si7 0.922749 0.619382 0.356711
O O1 0.665473 0.581661 0.443532
O O2 0.177197 0.852159 0.511929
O O3 0.492994 0.145461 0.750836
O O4 0.000000 0.000000 0.500000
O O5 0.971755 0.715680 0.710724
O O6 0.657298 0.769341 0.565274
O O7 0.973487 0.927583 0.825278
O O8 0.118267 0.397884 0.088503
O O9 0.686637 0.600155 0.224438
O O10 0.282818 0.603633 0.018583
O O11 0.031883 0.209428 0.914030
O O12 0.194409 0.563559 0.257675
O O13 0.891963 0.381353 0.636136
O O14 0.615646 0.343976 0.299634
O O15 0.000000 0.000000 0.000000
#
# Coordination Sequence:
#
# PCOD9021606 Si02
#       7
#     2   2   2   2   2   2   2
#     4  11  20  41  68  90 119 166 212 254 292 381
#     4  10  23  41  63  94 126 161 208 255 317 361
#     4  10  22  42  65  89 121 173 213 245 302 381
#     4  11  23  41  67  91 126 164 209 255 311 365
#     4  11  23  40  60  95 132 155 199 271 316 357
#     4   9  19  40  65  86 122 168 209 248 292 382
#     4  10  22  38  63  94 124 158 210 257 306 365
#
# _framework density 26.000921999999999
#
# number of rings (size 3 to 8) (size 9 to 14) (size 15 to 20)
#    0.000    1.714    2.857    1.714    4.000    2.286 
#    0.000    6.429    6.286    0.000    0.000    0.000 
#    0.000    0.000    0.000    0.000    0.000    0.000 
#
# Total GULP energy -78080.562603 kJ/mol
# GULP energy per Si atom -5577.183043 kJ/mol
# Density = 2.594174 g / cm^3
# Si number density = 26.000922 Si / 1000 Ang^3
#
#
#
# Elastic Constant Matrix: (Units=GPa)
#
#
# Indices 1 2 3 4 5 6 
#
# 1 174.1176 55.5187 55.7041 -10.7567 -47.0611 -48.4861
# 2 55.5187 85.5893 45.4969 -9.1956 -11.0576 -16.9877
# 3 55.7041 45.4969 105.0678 -7.0494 -46.6332 -23.0090
# 4 -10.7567 -9.1956 -7.0494 48.7393 -9.4786 -0.2182
# 5 -47.0611 -11.0576 -46.6332 -9.4786 61.7735 5.5330
# 6 -48.4861 -16.9877 -23.0090 -0.2182 5.5330 53.8705
#
#
#
# Elastic Compliance Matrix: (Units=1/GPa)
#
#
# Indices 1 2 3 4 5 6 
#
# 1 0.012406 -0.005959 0.002985 0.004114 0.010418 0.009509
# 2 -0.005959 0.018786 -0.009072 -0.000630 -0.007898 -0.002505
# 3 0.002985 -0.009072 0.021307 0.005350 0.016910 0.007211
# 4 0.004114 -0.000630 0.005350 0.024110 0.010327 0.004826
# 5 0.010418 -0.007898 0.016910 0.010327 0.036126 0.010440
# 6 0.009509 -0.002505 0.007211 0.004826 0.010440 0.028359
#
#
# Mechanical properties :
#
#
# Convention : Reuss Voigt Hill
#
# Bulk Modulus (GPa) = 35.20157 75.35712 55.27935
# Shear Modulus (GPa) = 28.62803 46.74700 37.68751
#
# Velocity S-wave (km/s) = 3.32179 4.24476 3.81132
# Velocity P-wave (km/s) = 5.31793 7.28488 6.37769
#
# Compressibility (1/GPa) = 0.02840782
#
# Stress axis : x y z
#
# Youngs Moduli (GPa) = 80.60595 53.23085 46.93351
#
# Poissons Ratio (x) = 0.31720 -0.14011
# Poissons Ratio (y) = 0.48033 0.42577
# Poissons Ratio (z) = -0.24063 0.48289
#
# Static dielectric constant tensor:
#      x y z
#    x 2.124010 0.081210 0.084200 
#    y 0.081210 2.175950 0.043410 
#    z 0.084200 0.043410 2.089720 
# 
# From -- ./inp_files/557333.got.cif
#   From: 2010.05.17/outbox.cif.g08.bks.cpg/sg2_279_cif.got.tgz:557333.got - 2010.06.03 11:33:40.
