data_PCOD9021249
_publ_section_title
;
Structure prediction by ZEFSAII (Michael W. Deem and Ramdas Pophale) SiO2 
 PCOD9021249
Probable space group: P -1
;
_chemical_formula_sum "Si O2"
_cell_formula_units_Z 14
_cell_length_a 5.926497
_cell_length_b 17.152155
_cell_length_c 13.019057
_cell_angle_alpha 141.745388
_cell_angle_beta 108.080328
_cell_angle_gamma 92.550921
_cell_volume 679.163757
_symmetry_space_group_name_H-M "P -1"
_symmetry_group_IT_number 2
_symmetry_cell_setting 'triclinic'
loop_
_space_group_symop_operation_xyz
x,y,z
-x,-y,-z
loop_
_atom_site_type_symbol
_atom_site_label
_atom_site_fract_x
_atom_site_fract_y
_atom_site_fract_z
Si Si1 0.773217 0.410310 0.459664
Si Si2 0.363999 0.381445 0.215719
Si Si3 0.839096 0.611351 0.374517
Si Si4 0.896437 0.878546 0.238894
Si Si5 0.738553 0.453489 0.991377
Si Si6 0.635388 0.816199 0.459252
Si Si7 0.672632 0.046411 0.467127
O O1 0.495815 0.331140 0.273433
O O2 0.755934 0.527812 0.651797
O O3 0.000000 0.500000 0.500000
O O4 0.884053 0.324130 0.453873
O O5 0.600625 0.493503 0.290248
O O6 0.168421 0.249196 0.979622
O O7 0.741073 0.723705 0.440999
O O8 0.863365 0.522286 0.189615
O O9 0.025616 0.861599 0.346484
O O10 0.650412 0.907279 0.263576
O O11 0.108002 0.032194 0.377996
O O12 0.548477 0.284805 0.765017
O O13 0.500000 0.500000 0.000000
O O14 0.000000 0.500000 0.000000
O O15 0.424235 0.864319 0.525008
O O16 0.500000 0.000000 0.500000
#
# Coordination Sequence:
#
# PCOD9021249 Si02
#       7
#     2   2   2   2   2   2   2
#     4   9  21  41  64  90 119 153 221 272 323 382
#     4  10  22  40  66  91 117 165 215 271 323 380
#     4  10  23  37  62  90 125 167 210 270 321 371
#     4  10  22  38  59  85 126 165 208 255 323 377
#     4  10  24  38  58  95 135 174 210 256 324 394
#     4  10  23  37  56  91 127 164 203 256 310 388
#     4   9  21  35  54  82 126 168 205 247 306 393
#
# _framework density 20.613583999999999
#
# number of rings (size 3 to 8) (size 9 to 14) (size 15 to 20)
#    0.000    2.286    0.000    0.000   16.000    3.429 
#    0.000    0.714    0.000    8.571    0.000    0.000 
#    0.000    0.000    0.000    0.000    0.000    0.000 
#
# Total GULP energy -77934.704029 kJ/mol
# GULP energy per Si atom -5566.764574 kJ/mol
# Density = 2.056667 g / cm^3
# Si number density = 20.613584 Si / 1000 Ang^3
#
#
#
# Elastic Constant Matrix: (Units=GPa)
#
#
# Indices 1 2 3 4 5 6 
#
# 1 106.5074 44.9472 26.1432 -7.7208 -18.4900 -4.2138
# 2 44.9472 94.8173 30.3905 -5.8664 5.3724 -23.9240
# 3 26.1432 30.3905 66.9115 -3.0027 -8.0088 6.1178
# 4 -7.7208 -5.8664 -3.0027 30.9937 4.3669 4.8340
# 5 -18.4900 5.3724 -8.0088 4.3669 33.8000 -10.5039
# 6 -4.2138 -23.9240 6.1178 4.8340 -10.5039 47.2873
#
#
#
# Elastic Compliance Matrix: (Units=1/GPa)
#
#
# Indices 1 2 3 4 5 6 
#
# 1 0.014033 -0.006657 -0.001414 0.000975 0.008208 -0.000211
# 2 -0.006657 0.018491 -0.007223 0.000655 -0.005784 0.008345
# 3 -0.001414 -0.007223 0.019709 0.000626 0.003197 -0.005684
# 4 0.000975 0.000655 0.000626 0.034089 -0.005161 -0.004294
# 5 0.008208 -0.005784 0.003197 -0.005161 0.038425 0.006455
# 6 -0.000211 0.008345 -0.005684 -0.004294 0.006455 0.027959
#
#
# Mechanical properties :
#
#
# Convention : Reuss Voigt Hill
#
# Bulk Modulus (GPa) = 46.20110 52.35532 49.27821
# Shear Modulus (GPa) = 26.24555 33.53324 29.88939
#
# Velocity S-wave (km/s) = 3.57209 4.03768 3.81200
# Velocity P-wave (km/s) = 6.28289 6.86955 6.58276
#
# Compressibility (1/GPa) = 0.02164451
#
# Stress axis : x y z
#
# Youngs Moduli (GPa) = 71.26295 54.07969 50.73879
#
# Poissons Ratio (x) = 0.36000 0.07173
# Poissons Ratio (y) = 0.47438 0.36651
# Poissons Ratio (z) = 0.10075 0.39064
#
# Static dielectric constant tensor:
#      x y z
#    x 1.946420 -0.027110 0.037250 
#    y -0.027110 1.786350 -0.012090 
#    z 0.037250 -0.012090 1.730770 
# 
# From -- ./inp_files/369189.got.cif
#   From: 2010.05.17/outbox.cif.g08.bks.cpg/sg2_185_cif.got.tgz:369189.got - 2010.06.03 11:33:40.
