data_PCOD9021482
_publ_section_title
;
Structure prediction by ZEFSAII (Michael W. Deem and Ramdas Pophale) SiO2 
 PCOD9021482
Probable space group: P -1
;
_chemical_formula_sum "Si O2"
_cell_formula_units_Z 15
_cell_length_a 18.667751
_cell_length_b 6.746146
_cell_length_c 7.934499
_cell_angle_alpha 54.370009
_cell_angle_beta 109.671279
_cell_angle_gamma 71.877103
_cell_volume 572.771351
_symmetry_space_group_name_H-M "P -1"
_symmetry_group_IT_number 2
_symmetry_cell_setting 'triclinic'
loop_
_space_group_symop_operation_xyz
x,y,z
-x,-y,-z
loop_
_atom_site_type_symbol
_atom_site_label
_atom_site_fract_x
_atom_site_fract_y
_atom_site_fract_z
Si Si1 0.500000 0.500000 0.500000
Si Si2 0.410349 0.263186 0.578623
Si Si3 0.973595 0.795472 0.942172
Si Si4 0.389638 0.801055 0.605629
Si Si5 0.813133 0.813202 0.961368
Si Si6 0.145084 0.767027 0.662839
Si Si7 0.631899 0.670560 0.096637
Si Si8 0.099633 0.351908 0.541589
O O1 0.387174 0.581161 0.342604
O O2 0.474145 0.580972 0.641540
O O3 0.370166 0.303503 0.714748
O O4 0.391241 0.066319 0.553525
O O5 0.536065 0.047892 0.783970
O O6 0.874780 0.923561 0.908129
O O7 0.065412 0.618868 0.236898
O O8 0.000000 0.500000 0.000000
O O9 0.931809 0.071872 0.635258
O O10 0.398667 0.545090 0.859682
O O11 0.282510 0.996271 0.330361
O O12 0.873095 0.437322 0.144253
O O13 0.816688 0.777232 0.185072
O O14 0.262406 0.507670 0.820491
O O15 0.131136 0.042562 0.618856
O O16 0.000000 0.500000 0.500000
#
# Coordination Sequence:
#
# PCOD9021482 Si02
#       8
#     1   2   2   2   2   2   2   2
#     4  10  22  38  62  90 130 168 214 260 316 394
#     4  10  22  40  63  94 130 176 214 267 325 378
#     4   9  20  42  63  88 127 163 213 266 325 384
#     4  11  22  39  62  91 133 171 218 270 323 381
#     4  11  23  40  63  97 127 165 219 267 320 393
#     4  11  22  40  67  93 128 170 215 270 324 388
#     4  10  22  40  61  92 129 170 222 265 318 391
#     4   9  22  41  63  92 126 164 212 271 323 383
#
# _framework density 26.188458000000001
#
# number of rings (size 3 to 8) (size 9 to 14) (size 15 to 20)
#    0.000    1.867    1.333    1.600    0.000    9.600 
#    0.000    0.000    0.000    0.000    0.000    0.000 
#    0.000    0.000    0.000    0.000    0.000    0.000 
#
# Total GULP energy -83633.288800 kJ/mol
# GULP energy per Si atom -5575.552587 kJ/mol
# Density = 2.612885 g / cm^3
# Si number density = 26.188458 Si / 1000 Ang^3
#
#
#
# Elastic Constant Matrix: (Units=GPa)
#
#
# Indices 1 2 3 4 5 6 
#
# 1 96.9156 29.3388 7.5386 -1.5570 -0.4073 -1.5546
# 2 29.3388 136.2956 -0.1191 10.1123 30.9452 10.8351
# 3 7.5386 -0.1191 125.1570 -10.0303 15.1094 -12.4528
# 4 -1.5570 10.1123 -10.0303 34.0258 7.9954 2.6735
# 5 -0.4073 30.9452 15.1094 7.9954 30.8377 -4.1749
# 6 -1.5546 10.8351 -12.4528 2.6735 -4.1749 40.3365
#
#
#
# Elastic Compliance Matrix: (Units=1/GPa)
#
#
# Indices 1 2 3 4 5 6 
#
# 1 0.011552 -0.003646 -0.001082 0.000108 0.004524 0.001551
# 2 -0.003646 0.011310 0.001367 0.000171 -0.012664 -0.004079
# 3 -0.001082 0.001367 0.009320 0.003750 -0.006719 0.001524
# 4 0.000108 0.000171 0.003750 0.033187 -0.010912 -0.002213
# 5 0.004524 -0.012664 -0.006719 -0.010912 0.052351 0.007644
# 6 0.001551 -0.004079 0.001524 -0.002213 0.007644 0.027355
#
#
# Mechanical properties :
#
#
# Convention : Reuss Voigt Hill
#
# Bulk Modulus (GPa) = 39.27895 47.98720 43.63308
# Shear Modulus (GPa) = 31.19469 42.48067 36.83768
#
# Velocity S-wave (km/s) = 3.45507 4.03192 3.75459
# Velocity P-wave (km/s) = 5.56307 6.32762 5.95762
#
# Compressibility (1/GPa) = 0.02545893
#
# Stress axis : x y z
#
# Youngs Moduli (GPa) = 86.56644 88.41892 107.29875
#
# Poissons Ratio (x) = 0.32238 0.11613
# Poissons Ratio (y) = 0.31562 -0.14669
# Poissons Ratio (z) = 0.09369 -0.12088
#
# Static dielectric constant tensor:
#      x y z
#    x 2.180420 -0.145020 0.225590 
#    y -0.145020 1.756970 0.270870 
#    z 0.225590 0.270870 1.831470 
# 
# From -- ./inp_files/339629.got.cif
#   From: 2010.05.17/outbox.cif.g08.bks.cpg/sg2_170_cif.got.tgz:339629.got - 2010.06.03 11:33:40.
