data_PCOD9021421
_publ_section_title
;
Structure prediction by ZEFSAII (Michael W. Deem and Ramdas Pophale) SiO2 
 PCOD9021421
Probable space group: P -1
;
_chemical_formula_sum "Si O2"
_cell_formula_units_Z 14
_cell_length_a 19.938965
_cell_length_b 15.890033
_cell_length_c 9.438028
_cell_angle_alpha 41.524161
_cell_angle_beta 45.233099
_cell_angle_gamma 19.031490
_cell_volume 646.333673
_symmetry_space_group_name_H-M "P -1"
_symmetry_group_IT_number 2
_symmetry_cell_setting 'triclinic'
loop_
_space_group_symop_operation_xyz
x,y,z
-x,-y,-z
loop_
_atom_site_type_symbol
_atom_site_label
_atom_site_fract_x
_atom_site_fract_y
_atom_site_fract_z
Si Si1 0.960640 0.772852 0.461600
Si Si2 0.626818 0.796769 0.348478
Si Si3 0.088043 0.162139 0.860186
Si Si4 0.248524 0.582929 0.842129
Si Si5 0.488072 0.816810 0.814075
Si Si6 0.508128 0.727125 0.413307
Si Si7 0.878279 0.162582 0.747980
O O1 0.973747 0.707327 0.363322
O O2 0.041984 0.820197 0.293111
O O3 0.125459 0.500554 0.654819
O O4 0.724820 0.041592 0.518816
O O5 0.575248 0.773171 0.595108
O O6 0.526998 0.845787 0.301895
O O7 0.545379 0.031401 0.213959
O O8 0.272105 0.013886 0.846565
O O9 0.892304 0.375035 0.983509
O O10 0.158352 0.932646 0.012214
O O11 0.406687 0.386630 0.727951
O O12 0.327458 0.547731 0.389818
O O13 0.075743 0.898353 0.685705
O O14 0.638187 0.540085 0.019552
#
# Coordination Sequence:
#
# PCOD9021421 Si02
#       7
#     2   2   2   2   2   2   2
#     4  11  21  40  63  92 120 162 201 251 298 353
#     4  10  23  41  63  92 119 155 215 246 293 367
#     4  10  22  38  61  92 122 156 202 247 300 351
#     4  10  24  41  60  94 126 154 204 246 302 365
#     4  11  22  41  65  88 121 163 201 253 299 355
#     4  11  23  41  64  90 125 162 194 252 308 349
#     4   9  23  38  63  88 126 156 207 240 297 371
#
# _framework density 21.660640000000001
#
# number of rings (size 3 to 8) (size 9 to 14) (size 15 to 20)
#    0.857    0.857    2.857    0.857    2.000    5.714 
#    0.000    1.429    0.000    0.000    0.000    0.000 
#    0.000    0.000    0.000    0.000    0.000    0.000 
#
# Total GULP energy -78107.761996 kJ/mol
# GULP energy per Si atom -5579.125857 kJ/mol
# Density = 2.161134 g / cm^3
# Si number density = 21.660640 Si / 1000 Ang^3
#
#
#
# Elastic Constant Matrix: (Units=GPa)
#
#
# Indices 1 2 3 4 5 6 
#
# 1 57.3395 4.0473 -7.4401 -9.6624 -14.9196 -9.5352
# 2 4.0473 15.8661 -1.4801 -17.8022 -29.5236 -21.0073
# 3 -7.4401 -1.4801 15.8323 -4.8299 -1.7079 -8.5919
# 4 -9.6624 -17.8022 -4.8299 11.6345 -5.7451 0.4699
# 5 -14.9196 -29.5236 -1.7079 -5.7451 13.4513 0.8875
# 6 -9.5352 -21.0073 -8.5919 0.4699 0.8875 46.2192
#
#
#
# Elastic Compliance Matrix: (Units=1/GPa)
#
#
# Indices 1 2 3 4 5 6 
#
# 1 0.018128 -0.011022 0.006974 -0.000635 -0.003476 0.000100
# 2 -0.011022 0.002151 -0.015312 -0.021066 -0.018210 -0.003579
# 3 0.006974 -0.015312 0.067724 0.001788 -0.016995 0.007377
# 4 -0.000635 -0.021066 0.001788 0.039967 -0.029035 -0.009222
# 5 -0.003476 -0.018210 -0.016995 -0.029035 0.016764 -0.012180
# 6 0.000100 -0.003579 0.007377 -0.009222 -0.012180 0.021729
#
#
# Mechanical properties :
#
#
# Convention : Reuss Voigt Hill
#
# Bulk Modulus (GPa) = 20.29026 8.81023 14.55024
# Shear Modulus (GPa) = 22.56225 20.52172 21.54198
#
# Velocity S-wave (km/s) = 3.23092 3.08136 3.15703
# Velocity P-wave (km/s) = 4.82764 4.09095 4.47449
#
# Compressibility (1/GPa) = 0.04928473
#
# Stress axis : x y z
#
# Youngs Moduli (GPa) = 55.16304 464.95036 14.76586
#
# Poissons Ratio (x) = 5.12455 -0.10298
# Poissons Ratio (y) = 0.60799 0.22609
# Poissons Ratio (z) = -0.38472 7.11909
#
# Static dielectric constant tensor:
#      x y z
#    x 1.761820 0.027850 -0.016330 
#    y 0.027850 1.817480 -0.030200 
#    z -0.016330 -0.030200 1.803100 
# 
# From -- ./inp_files/348797.got.cif
#   From: 2010.05.17/outbox.cif.g08.bks.cpg/sg2_175_cif.got.tgz:348797.got - 2010.06.03 11:33:40.
