data_PCOD9021093
_publ_section_title
;
Structure prediction by ZEFSAII (Michael W. Deem and Ramdas Pophale) SiO2 
 PCOD9021093
Probable space group: P -1
;
_chemical_formula_sum "Si O2"
_cell_formula_units_Z 16
_cell_length_a 21.952173
_cell_length_b 11.982431
_cell_length_c 16.186090
_cell_angle_alpha 45.617916
_cell_angle_beta 152.342534
_cell_angle_gamma 153.520199
_cell_volume 786.422875
_symmetry_space_group_name_H-M "P -1"
_symmetry_group_IT_number 2
_symmetry_cell_setting 'triclinic'
loop_
_space_group_symop_operation_xyz
x,y,z
-x,-y,-z
loop_
_atom_site_type_symbol
_atom_site_label
_atom_site_fract_x
_atom_site_fract_y
_atom_site_fract_z
Si Si1 0.149153 0.265990 0.870055
Si Si2 0.157311 0.334530 0.651597
Si Si3 0.337725 0.637245 0.042071
Si Si4 0.514989 0.681577 0.767846
Si Si5 0.026106 0.182552 0.344153
Si Si6 0.982420 0.303955 0.053413
Si Si7 0.719683 0.617683 0.735075
Si Si8 0.201232 0.844454 0.777244
O O1 0.135011 0.301367 0.739645
O O2 0.170765 0.431405 0.871320
O O3 0.376971 0.379731 0.091790
O O4 0.937037 0.949192 0.810752
O O5 0.415576 0.581729 0.793906
O O6 0.035317 0.367459 0.450781
O O7 0.021917 0.049844 0.598036
O O8 0.322589 0.486695 0.169513
O O9 0.593226 0.903554 0.169369
O O10 0.259436 0.727225 0.936061
O O11 0.286836 0.479675 0.539787
O O12 0.735878 0.019481 0.857534
O O13 0.838744 0.084354 0.228911
O O14 0.992868 0.212064 0.196778
O O15 0.000000 0.500000 0.000000
O O16 0.201559 0.457283 0.183440
O O17 0.500000 0.500000 0.500000
#
# Coordination Sequence:
#
# PCOD9021093 Si02
#       8
#     2   2   2   2   2   2   2   2
#     4  11  22  38  65  92 124 166 218 265 308 391
#     4  11  20  39  65  99 126 159 220 267 327 379
#     4  11  23  40  61  90 132 169 212 259 323 387
#     4  10  22  37  66  98 124 166 209 273 330 374
#     4  11  21  41  69  95 128 164 218 275 317 388
#     4  11  25  44  65  97 132 171 219 272 324 385
#     4  11  24  44  62  90 126 178 218 259 318 389
#     4  10  23  39  62  93 130 167 203 270 327 379
#
# _framework density 20.345289999999999
#
# number of rings (size 3 to 8) (size 9 to 14) (size 15 to 20)
#    0.000    1.250    2.500    5.250    3.500    1.000 
#    4.500    0.000    0.000    0.000    0.000    0.000 
#    0.000    0.000    0.000    0.000    0.000    0.000 
#
# Total GULP energy -89335.155043 kJ/mol
# GULP energy per Si atom -5583.447190 kJ/mol
# Density = 2.029898 g / cm^3
# Si number density = 20.345290 Si / 1000 Ang^3
#
#
#
# Elastic Constant Matrix: (Units=GPa)
#
#
# Indices 1 2 3 4 5 6 
#
# 1 92.2222 12.5958 35.1665 3.7885 -5.0567 8.2332
# 2 12.5958 35.7695 20.8411 8.0743 7.6388 8.9412
# 3 35.1665 20.8411 78.4031 9.5619 11.2714 7.0719
# 4 3.7885 8.0743 9.5619 18.9002 6.2380 -8.9674
# 5 -5.0567 7.6388 11.2714 6.2380 27.7191 -0.1698
# 6 8.2332 8.9412 7.0719 -8.9674 -0.1698 31.0518
#
#
#
# Elastic Compliance Matrix: (Units=1/GPa)
#
#
# Indices 1 2 3 4 5 6 
#
# 1 0.014087 -0.001464 -0.006307 -0.002162 0.006009 -0.002469
# 2 -0.001464 0.041579 -0.005703 -0.020717 -0.004844 -0.016295
# 3 -0.006307 -0.005703 0.018802 -0.004941 -0.006127 -0.002428
# 4 -0.002162 -0.020717 -0.004941 0.083451 -0.011262 0.031702
# 5 0.006009 -0.004844 -0.006127 -0.011262 0.043522 -0.001817
# 6 -0.002469 -0.016295 -0.002428 0.031702 -0.001817 0.047249
#
#
# Mechanical properties :
#
#
# Convention : Reuss Voigt Hill
#
# Bulk Modulus (GPa) = 21.04377 38.17798 29.61087
# Shear Modulus (GPa) = 17.15389 24.72033 20.93711
#
# Velocity S-wave (km/s) = 2.90683 3.48952 3.21142
# Velocity P-wave (km/s) = 4.65102 5.91958 5.32323
#
# Compressibility (1/GPa) = 0.04752001
#
# Stress axis : x y z
#
# Youngs Moduli (GPa) = 70.98726 24.05040 53.18589
#
# Poissons Ratio (x) = 0.03521 0.33544
# Poissons Ratio (y) = 0.10393 0.30333
# Poissons Ratio (z) = 0.44771 0.13717
#
# Static dielectric constant tensor:
#      x y z
#    x 1.753380 0.000300 0.037080 
#    y 0.000300 1.739340 0.023160 
#    z 0.037080 0.023160 1.778070 
# 
# From -- ./inp_files/540965.got.cif
#   From: 2010.05.17/outbox.cif.g08.bks.cpg/sg2_271_cif.got.tgz:540965.got - 2010.06.03 11:33:40.
