data_PCOD9021498
_publ_section_title
;
Structure prediction by ZEFSAII (Michael W. Deem and Ramdas Pophale) SiO2 
 PCOD9021498
Probable space group: P -1
;
_chemical_formula_sum "Si O2"
_cell_formula_units_Z 16
_cell_length_a 5.820704
_cell_length_b 16.309596
_cell_length_c 9.591415
_cell_angle_alpha 114.544114
_cell_angle_beta 48.894452
_cell_angle_gamma 95.372310
_cell_volume 602.326005
_symmetry_space_group_name_H-M "P -1"
_symmetry_group_IT_number 2
_symmetry_cell_setting 'triclinic'
loop_
_space_group_symop_operation_xyz
x,y,z
-x,-y,-z
loop_
_atom_site_type_symbol
_atom_site_label
_atom_site_fract_x
_atom_site_fract_y
_atom_site_fract_z
Si Si1 0.286886 0.473366 0.192821
Si Si2 0.207352 0.526009 0.810997
Si Si3 0.104615 0.911887 0.795923
Si Si4 0.126662 0.965236 0.272688
Si Si5 0.066534 0.320580 0.423872
Si Si6 0.582200 0.687229 0.445472
Si Si7 0.712566 0.822050 0.315332
Si Si8 0.706053 0.806663 0.995862
O O1 0.534861 0.431572 0.187490
O O2 0.072565 0.569796 0.412376
O O3 0.036782 0.427772 0.180348
O O4 0.500000 0.500000 0.000000
O O5 0.386085 0.421875 0.614400
O O6 0.000000 0.500000 0.000000
O O7 0.457168 0.877762 0.569452
O O8 0.042105 0.829799 0.858994
O O9 0.920473 0.947996 0.750836
O O10 0.000000 0.000000 0.000000
O O11 0.931856 0.891320 0.253274
O O12 0.478499 0.901678 0.094652
O O13 0.000000 0.000000 0.500000
O O14 0.738013 0.289364 0.507924
O O15 0.296193 0.281213 0.433672
O O16 0.266340 0.279143 0.177956
O O17 0.828540 0.720350 0.267582
O O18 0.602023 0.802196 0.191700
#
# Coordination Sequence:
#
# PCOD9021498 Si02
#       8
#     2   2   2   2   2   2   2   2
#     4   8  14  28  52  86 121 151 202 253 296 366
#     4   8  14  28  52  86 120 154 202 249 298 367
#     4  12  24  45  64  83 119 162 219 265 324 387
#     4  12  26  43  64  87 119 168 215 272 327 384
#     4  10  22  38  62  93 125 167 209 257 319 378
#     4  10  22  38  62  92 129 163 208 262 315 376
#     4  12  26  43  61  92 129 160 216 271 328 383
#     4  12  26  42  63  89 125 166 216 267 327 384
#
# _framework density 26.563690999999999
#
# number of rings (size 3 to 8) (size 9 to 14) (size 15 to 20)
#    0.000    1.500    3.750    1.500    7.000    0.000 
#    0.000    0.000    0.000    0.000    0.000   28.000 
#    0.000    0.000    0.000    0.000    0.000    0.000 
#
# Total GULP energy -89195.169878 kJ/mol
# GULP energy per Si atom -5574.698117 kJ/mol
# Density = 2.650323 g / cm^3
# Si number density = 26.563691 Si / 1000 Ang^3
#
#
#
# Elastic Constant Matrix: (Units=GPa)
#
#
# Indices 1 2 3 4 5 6 
#
# 1 222.7141 39.4109 49.4160 -0.0765 16.9452 -13.1945
# 2 39.4109 84.8313 23.1470 -14.3185 11.1768 -3.9760
# 3 49.4160 23.1470 141.3683 -12.2874 22.3554 0.7811
# 4 -0.0765 -14.3185 -12.2874 25.4060 0.1123 4.1692
# 5 16.9452 11.1768 22.3554 0.1123 46.1988 1.6639
# 6 -13.1945 -3.9760 0.7811 4.1692 1.6639 43.9642
#
#
#
# Elastic Compliance Matrix: (Units=1/GPa)
#
#
# Indices 1 2 3 4 5 6 
#
# 1 0.005407 -0.002293 -0.001616 -0.002332 -0.000702 0.001692
# 2 -0.002293 0.014674 -0.000511 0.008030 -0.002481 -0.000020
# 3 -0.001616 -0.000511 0.008622 0.004046 -0.003432 -0.000938
# 4 -0.002332 0.008030 0.004046 0.046563 -0.003002 -0.004348
# 5 -0.000702 -0.002481 -0.003432 -0.003002 0.024207 -0.001006
# 6 0.001692 -0.000020 -0.000938 -0.004348 -0.001006 0.023719
#
#
# Mechanical properties :
#
#
# Convention : Reuss Voigt Hill
#
# Bulk Modulus (GPa) = 50.34226 74.76240 62.55233
# Shear Modulus (GPa) = 36.06136 45.57645 40.81890
#
# Velocity S-wave (km/s) = 3.68848 4.14665 3.92426
# Velocity P-wave (km/s) = 6.09365 7.15066 6.64321
#
# Compressibility (1/GPa) = 0.01986403
#
# Stress axis : x y z
#
# Youngs Moduli (GPa) = 184.94008 68.14727 115.98662
#
# Poissons Ratio (x) = 0.15626 0.18740
# Poissons Ratio (y) = 0.42407 0.05924
# Poissons Ratio (z) = 0.29880 0.03481
#
# Static dielectric constant tensor:
#      x y z
#    x 2.127520 0.024070 -0.077320 
#    y 0.024070 2.186680 0.093660 
#    z -0.077320 0.093660 2.118420 
# 
# From -- ./inp_files/15031.got.cif
#   From: 2010.05.17/outbox.cif.g08.bks.cpg/sg2_8_cif.got.tgz:15031.got - 2010.06.03 11:33:40.
