data_PCOD9021036
_publ_section_title
;
Structure prediction by ZEFSAII (Michael W. Deem and Ramdas Pophale) SiO2 
 PCOD9021036
Probable space group: P -1
;
_chemical_formula_sum "Si O2"
_cell_formula_units_Z 14
_cell_length_a 11.857886
_cell_length_b 9.239009
_cell_length_c 18.641714
_cell_angle_alpha 37.894403
_cell_angle_beta 27.342094
_cell_angle_gamma 47.340243
_cell_volume 574.171292
_symmetry_space_group_name_H-M "P -1"
_symmetry_group_IT_number 2
_symmetry_cell_setting 'triclinic'
loop_
_space_group_symop_operation_xyz
x,y,z
-x,-y,-z
loop_
_atom_site_type_symbol
_atom_site_label
_atom_site_fract_x
_atom_site_fract_y
_atom_site_fract_z
Si Si1 0.884516 0.356673 0.393019
Si Si2 0.261439 0.704516 0.283993
Si Si3 0.875736 0.214058 0.835604
Si Si4 0.611898 0.866704 0.765470
Si Si5 0.733629 0.805452 0.562341
Si Si6 0.827795 0.329049 0.269632
Si Si7 0.759792 0.733781 0.046307
O O1 0.914668 0.598060 0.326398
O O2 0.150331 0.248843 0.292239
O O3 0.835674 0.401879 0.319468
O O4 0.682659 0.150016 0.613478
O O5 0.196738 0.726517 0.228067
O O6 0.308894 0.427220 0.370620
O O7 0.507201 0.833970 0.125282
O O8 0.024973 0.794496 0.421584
O O9 0.635041 0.214612 0.021421
O O10 0.931732 0.940579 0.907079
O O11 0.589919 0.791640 0.723617
O O12 0.711495 0.058011 0.439802
O O13 0.711222 0.517128 0.211967
O O14 0.099746 0.329902 0.080318
#
# Coordination Sequence:
#
# PCOD9021036 Si02
#       7
#     2   2   2   2   2   2   2
#     4  10  22  39  66  90 136 165 209 270 324 378
#     4  11  23  39  68 100 126 165 218 276 316 380
#     4  12  23  39  67 103 123 168 221 270 319 386
#     4  10  22  37  65 100 130 163 209 275 331 374
#     4  10  22  41  66  97 129 166 215 270 331 371
#     4  10  23  45  61  92 130 179 207 264 325 390
#     4  11  25  40  65  91 134 171 219 256 323 392
#
# _framework density 24.382968000000002
#
# number of rings (size 3 to 8) (size 9 to 14) (size 15 to 20)
#    0.000    1.429    2.857    1.714    8.000    1.143 
#    0.000    2.857    0.000    0.000    0.000    0.000 
#    0.000    0.000    0.000    0.000    0.000    0.000 
#
# Total GULP energy -78353.918125 kJ/mol
# GULP energy per Si atom -5596.708437 kJ/mol
# Density = 2.432747 g / cm^3
# Si number density = 24.382968 Si / 1000 Ang^3
#
#
#
# Elastic Constant Matrix: (Units=GPa)
#
#
# Indices 1 2 3 4 5 6 
#
# 1 59.2493 15.2576 34.3604 -13.8706 25.8801 14.4376
# 2 15.2576 75.0351 21.8487 -25.6443 6.5072 21.8374
# 3 34.3604 21.8487 84.3192 -5.3957 24.3542 15.5832
# 4 -13.8706 -25.6443 -5.3957 60.5685 8.0576 1.7438
# 5 25.8801 6.5072 24.3542 8.0576 43.8906 -4.7084
# 6 14.4376 21.8374 15.5832 1.7438 -4.7084 30.5264
#
#
#
# Elastic Compliance Matrix: (Units=1/GPa)
#
#
# Indices 1 2 3 4 5 6 
#
# 1 0.042102 0.010995 -0.003941 0.019002 -0.031153 -0.031656
# 2 0.010995 0.026101 -0.000617 0.016407 -0.015914 -0.026949
# 3 -0.003941 -0.000617 0.017752 0.001803 -0.008645 -0.008193
# 4 0.019002 0.016407 0.001803 0.031860 -0.023391 -0.027072
# 5 -0.031153 -0.015914 -0.008645 -0.023391 0.056965 0.040653
# 6 -0.031656 -0.026949 -0.008193 -0.027072 0.040653 0.079008
#
#
# Mechanical properties :
#
#
# Convention : Reuss Voigt Hill
#
# Bulk Modulus (GPa) = 10.11850 40.17080 25.14465
# Shear Modulus (GPa) = 18.25764 36.80622 27.53193
#
# Velocity S-wave (km/s) = 2.73937 3.88945 3.36392
# Velocity P-wave (km/s) = 3.76355 6.05650 5.04210
#
# Compressibility (1/GPa) = 0.09882889
#
# Stress axis : x y z
#
# Youngs Moduli (GPa) = 23.75189 38.31219 56.33079
#
# Poissons Ratio (x) = -0.42125 0.22202
# Poissons Ratio (y) = -0.26116 0.03477
# Poissons Ratio (z) = 0.09362 0.02365
#
# Static dielectric constant tensor:
#      x y z
#    x 1.880390 0.011720 -0.005590 
#    y 0.011720 1.990250 -0.045150 
#    z -0.005590 -0.045150 1.981890 
# 
# From -- ./inp_files/149550.got.cif
#   From: 2010.05.17/outbox.cif.g08.bks.cpg/sg2_75_cif.got.tgz:149550.got - 2010.06.03 11:33:40.
