data_PCOD9021944
_publ_section_title
;
Structure prediction by ZEFSAII (Michael W. Deem and Ramdas Pophale) SiO2 
 PCOD9021944
Probable space group: P -1
;
_chemical_formula_sum "Si O2"
_cell_formula_units_Z 16
_cell_length_a 9.004584
_cell_length_b 15.993200
_cell_length_c 11.452096
_cell_angle_alpha 128.828736
_cell_angle_beta 68.897919
_cell_angle_gamma 69.401426
_cell_volume 727.616946
_symmetry_space_group_name_H-M "P -1"
_symmetry_group_IT_number 2
_symmetry_cell_setting 'triclinic'
loop_
_space_group_symop_operation_xyz
x,y,z
-x,-y,-z
loop_
_atom_site_type_symbol
_atom_site_label
_atom_site_fract_x
_atom_site_fract_y
_atom_site_fract_z
Si Si1 0.004457 0.771488 0.201698
Si Si2 0.921340 0.418462 0.599468
Si Si3 0.240849 0.789121 0.745853
Si Si4 0.899698 0.813996 0.007259
Si Si5 0.436035 0.656402 0.110364
Si Si6 0.210621 0.476628 0.521100
Si Si7 0.574628 0.648126 0.308926
Si Si8 0.683169 0.828830 0.532737
O O1 0.169825 0.778602 0.220848
O O2 0.773375 0.855456 0.424188
O O3 0.197317 0.563815 0.951173
O O4 0.904929 0.851142 0.170693
O O5 0.802093 0.453960 0.537866
O O6 0.117224 0.404870 0.485108
O O7 0.114213 0.255757 0.493554
O O8 0.665661 0.574185 0.888010
O O9 0.497828 0.681384 0.651503
O O10 0.353739 0.721220 0.523667
O O11 0.119710 0.755504 0.819621
O O12 0.000000 0.000000 0.000000
O O13 0.001153 0.639120 0.813304
O O14 0.613865 0.985893 0.186775
O O15 0.447818 0.722627 0.281001
O O16 0.500000 0.500000 0.000000
O O17 0.679577 0.705812 0.381109
#
# Coordination Sequence:
#
# PCOD9021944 Si02
#       8
#     2   2   2   2   2   2   2   2
#     4  11  23  42  67  98 129 172 221 270 327 380
#     4  11  22  43  65  93 135 168 225 261 328 386
#     4  12  23  43  67  95 130 166 222 264 327 394
#     4  12  25  40  66  97 135 169 220 272 323 386
#     4  10  22  38  67  96 122 170 220 270 316 388
#     4  11  25  40  67  96 128 180 210 274 327 387
#     4  11  22  40  70  94 122 178 219 260 329 387
#     4  12  23  42  67  97 132 174 222 266 318 394
#
# _framework density 21.989594
#
# number of rings (size 3 to 8) (size 9 to 14) (size 15 to 20)
#    0.000    0.750    6.250    1.875    5.250    0.500 
#    0.000    3.125    0.000    0.000    0.000    0.000 
#    0.000    0.000    0.000    0.000    0.000    0.000 
#
# Total GULP energy -89240.132535 kJ/mol
# GULP energy per Si atom -5577.508283 kJ/mol
# Density = 2.193954 g / cm^3
# Si number density = 21.989594 Si / 1000 Ang^3
#
#
#
# Elastic Constant Matrix: (Units=GPa)
#
#
# Indices 1 2 3 4 5 6 
#
# 1 -5.6185 50.4057 80.3133 13.3927 -18.8700 -52.2342
# 2 50.4057 87.2486 7.8600 -36.9946 -3.3714 -29.3639
# 3 80.3133 7.8600 29.3582 -28.2494 -26.0746 22.2294
# 4 13.3927 -36.9946 -28.2494 47.8745 7.3954 5.0266
# 5 -18.8700 -3.3714 -26.0746 7.3954 27.9955 -7.1043
# 6 -52.2342 -29.3639 22.2294 5.0266 -7.1043 18.0166
#
#
#
# Elastic Compliance Matrix: (Units=1/GPa)
#
#
# Indices 1 2 3 4 5 6 
#
# 1 0.002739 -0.005529 0.010462 0.001110 0.007785 -0.011217
# 2 -0.005529 0.044141 0.000718 0.029819 0.006927 0.049438
# 3 0.010462 0.000718 0.018962 0.002363 0.028963 0.018866
# 4 0.001110 0.029819 0.002363 0.039825 0.006233 0.040248
# 5 0.007785 0.006927 0.028963 0.006233 0.073575 0.025397
# 6 -0.011217 0.049438 0.018866 0.040248 0.025397 0.079067
#
#
# Mechanical properties :
#
#
# Convention : Reuss Voigt Hill
#
# Bulk Modulus (GPa) = 12.96261 43.12737 28.04499
# Shear Modulus (GPa) = 18.33364 16.93793 17.63579
#
# Velocity S-wave (km/s) = 2.89059 2.77839 2.83504
# Velocity P-wave (km/s) = 4.12897 5.47246 4.84748
#
# Compressibility (1/GPa) = 0.07714494
#
# Stress axis : x y z
#
# Youngs Moduli (GPa) = 365.06338 22.65478 52.73619
#
# Poissons Ratio (x) = 0.12525 -0.55170
# Poissons Ratio (y) = 2.01832 -0.03789
# Poissons Ratio (z) = -3.81914 -0.01628
#
# Static dielectric constant tensor:
#      x y z
#    x 1.938590 -0.016680 0.050080 
#    y -0.016680 1.844340 -0.006410 
#    z 0.050080 -0.006410 1.747940 
# 
# From -- ./inp_files/390910.got.cif
#   From: 2010.05.17/outbox.cif.g08.bks.cpg/sg2_196_cif.got.tgz:390910.got - 2010.06.03 11:33:40.
