data_PCOD9021050
_publ_section_title
;
Structure prediction by ZEFSAII (Michael W. Deem and Ramdas Pophale) SiO2 
 PCOD9021050
Probable space group: P -1
;
_chemical_formula_sum "Si O2"
_cell_formula_units_Z 15
_cell_length_a 21.970425
_cell_length_b 5.043412
_cell_length_c 9.518650
_cell_angle_alpha 122.859766
_cell_angle_beta 41.046044
_cell_angle_gamma 107.353761
_cell_volume 569.896859
_symmetry_space_group_name_H-M "P -1"
_symmetry_group_IT_number 2
_symmetry_cell_setting 'triclinic'
loop_
_space_group_symop_operation_xyz
x,y,z
-x,-y,-z
loop_
_atom_site_type_symbol
_atom_site_label
_atom_site_fract_x
_atom_site_fract_y
_atom_site_fract_z
Si Si1 0.690967 0.143910 0.011855
Si Si2 0.235322 0.138258 0.453300
Si Si3 0.915816 0.307316 0.112466
Si Si4 0.069007 0.795652 0.608449
Si Si5 0.797228 0.709984 0.931181
Si Si6 0.546259 0.692682 0.738187
Si Si7 0.500000 0.500000 0.500000
Si Si8 0.324847 0.919975 0.517643
O O1 0.725442 0.457987 0.982887
O O2 0.593660 0.223902 0.287865
O O3 0.768764 0.980672 0.941420
O O4 0.694548 0.887950 0.806394
O O5 0.184820 0.486078 0.699870
O O6 0.144053 0.023460 0.515535
O O7 0.287077 0.918695 0.424135
O O8 0.911317 0.269743 0.277697
O O9 0.000000 0.500000 0.000000
O O10 0.960256 0.983936 0.856043
O O11 0.103700 0.505983 0.357373
O O12 0.765209 0.893702 0.185019
O O13 0.474016 0.538609 0.728451
O O14 0.617627 0.417216 0.619169
O O15 0.599592 0.840528 0.558424
O O16 0.500000 0.000000 0.000000
#
# Coordination Sequence:
#
# PCOD9021050 Si02
#       8
#     2   2   2   2   2   2   1   2
#     4  11  23  39  64  91 123 171 228 264 334 395
#     4  10  22  37  65  93 130 178 215 276 337 399
#     4   9  17  35  60  98 125 162 223 274 323 395
#     4   9  19  34  65  93 128 167 224 270 324 402
#     4  11  21  42  61  94 129 170 213 271 325 400
#     4  12  28  46  68 100 136 178 231 292 340 406
#     4  12  24  46  70  94 136 178 228 282 348 390
#     4  12  25  45  64  98 137 173 223 278 344 402
#
# _framework density 26.320550999999998
#
# number of rings (size 3 to 8) (size 9 to 14) (size 15 to 20)
#    0.000    1.333    4.000    1.200    1.867    4.267 
#    0.000    0.667    0.000    7.200    0.000    0.000 
#    0.000    0.000    0.000    0.000    0.000    0.000 
#
# Total GULP energy -83576.257206 kJ/mol
# GULP energy per Si atom -5571.750480 kJ/mol
# Density = 2.626064 g / cm^3
# Si number density = 26.320551 Si / 1000 Ang^3
#
#
#
# Elastic Constant Matrix: (Units=GPa)
#
#
# Indices 1 2 3 4 5 6 
#
# 1 34.5005 5.9695 21.8924 11.0932 2.1143 -13.3370
# 2 5.9695 65.0317 53.2451 11.8932 -7.6631 -3.0945
# 3 21.8924 53.2451 239.1156 18.4484 7.4526 -20.4583
# 4 11.0932 11.8932 18.4484 44.7777 -7.6194 -5.4633
# 5 2.1143 -7.6631 7.4526 -7.6194 51.0444 -3.6964
# 6 -13.3370 -3.0945 -20.4583 -5.4633 -3.6964 35.8787
#
#
#
# Elastic Compliance Matrix: (Units=1/GPa)
#
#
# Indices 1 2 3 4 5 6 
#
# 1 0.036996 -0.000292 -0.001733 -0.007242 -0.001573 0.011474
# 2 -0.000292 0.019822 -0.004339 -0.003001 0.003100 -0.001010
# 3 -0.001733 -0.004339 0.005567 -0.000711 -0.001360 0.001908
# 4 -0.007242 -0.003001 -0.000711 0.026004 0.003908 0.001006
# 5 -0.001573 0.003100 -0.001360 0.003908 0.021024 0.001668
# 6 0.011474 -0.001010 0.001908 0.001006 0.001668 0.033463
#
#
# Mechanical properties :
#
#
# Convention : Reuss Voigt Hill
#
# Bulk Modulus (GPa) = 20.13784 55.65129 37.89457
# Shear Modulus (GPa) = 29.04335 43.50954 36.27644
#
# Velocity S-wave (km/s) = 3.32542 4.07020 3.71651
# Velocity P-wave (km/s) = 4.73415 6.57862 5.73107
#
# Compressibility (1/GPa) = 0.04965777
#
# Stress axis : x y z
#
# Youngs Moduli (GPa) = 27.03021 50.44814 179.61996
#
# Poissons Ratio (x) = 0.01475 0.31121
# Poissons Ratio (y) = 0.00790 0.77933
# Poissons Ratio (z) = 0.04683 0.21888
#
# Static dielectric constant tensor:
#      x y z
#    x 0.634250 -0.797550 -0.103820 
#    y -0.797550 1.595420 0.022740 
#    z -0.103820 0.022740 2.236480 
# 
# From -- ./inp_files/51470.got.cif
#   From: 2010.05.17/outbox.cif.g08.bks.cpg/sg2_26_cif.got.tgz:51470.got - 2010.06.03 11:33:40.
