data_PCOD9021388
_publ_section_title
;
Structure prediction by ZEFSAII (Michael W. Deem and Ramdas Pophale) SiO2 
 PCOD9021388
Probable space group: P -1
;
_chemical_formula_sum "Si O2"
_cell_formula_units_Z 16
_cell_length_a 10.002304
_cell_length_b 7.848419
_cell_length_c 14.248998
_cell_angle_alpha 43.592359
_cell_angle_beta 130.293821
_cell_angle_gamma 114.321544
_cell_volume 584.880764
_symmetry_space_group_name_H-M "P -1"
_symmetry_group_IT_number 2
_symmetry_cell_setting 'triclinic'
loop_
_space_group_symop_operation_xyz
x,y,z
-x,-y,-z
loop_
_atom_site_type_symbol
_atom_site_label
_atom_site_fract_x
_atom_site_fract_y
_atom_site_fract_z
Si Si1 0.150104 0.327637 0.690784
Si Si2 0.864256 0.852089 0.594059
Si Si3 0.669996 0.980298 0.276347
Si Si4 0.368499 0.286323 0.956526
Si Si5 0.661018 0.227830 0.835459
Si Si6 0.512405 0.736662 0.557105
Si Si7 0.142849 0.939709 0.289116
Si Si8 0.942106 0.661757 0.058361
O O1 0.244776 0.158111 0.720323
O O2 0.285828 0.458083 0.766876
O O3 0.000000 0.500000 0.500000
O O4 0.024788 0.196145 0.758503
O O5 0.824150 0.974259 0.425413
O O6 0.678344 0.735113 0.565856
O O7 0.865605 0.026907 0.615623
O O8 0.010590 0.627792 0.777630
O O9 0.497622 0.835596 0.280727
O O10 0.569535 0.253949 0.097039
O O11 0.232079 0.273265 0.984540
O O12 0.353790 0.011725 0.010630
O O13 0.579681 0.485153 0.743486
O O14 0.860315 0.241613 0.882994
O O15 0.500000 0.000000 0.500000
O O16 0.317230 0.756509 0.419040
O O17 0.121494 0.209803 0.121729
#
# Coordination Sequence:
#
# PCOD9021388 Si02
#       8
#     2   2   2   2   2   2   2   2
#     4  12  24  39  61  87 116 157 204 247 290 347
#     4  10  22  38  61  88 120 158 192 242 300 358
#     4  10  22  39  57  84 121 158 203 238 282 349
#     4  10  22  38  62  88 122 150 193 251 299 347
#     4   9  20  35  60  86 118 152 191 242 303 346
#     4   9  19  35  56  88 118 150 189 238 297 360
#     4  11  22  38  60  87 122 156 195 244 298 354
#     4  11  20  37  61  94 120 149 192 245 308 359
#
# _framework density 27.356003999999999
#
# number of rings (size 3 to 8) (size 9 to 14) (size 15 to 20)
#    0.750    1.000    1.250    3.375    0.000    2.500 
#    0.000    0.000    0.000    1.500    0.000    0.000 
#    0.000    0.000    0.000    0.000    0.000    0.000 
#
# Total GULP energy -89092.019628 kJ/mol
# GULP energy per Si atom -5568.251227 kJ/mol
# Density = 2.729374 g / cm^3
# Si number density = 27.356004 Si / 1000 Ang^3
#
#
#
# Elastic Constant Matrix: (Units=GPa)
#
#
# Indices 1 2 3 4 5 6 
#
# 1 126.8473 27.0861 51.5822 8.7411 39.2102 -1.0982
# 2 27.0861 27.7690 33.3649 4.7452 1.8069 0.7152
# 3 51.5822 33.3649 167.8041 17.3745 26.1174 -18.4451
# 4 8.7411 4.7452 17.3745 57.4621 -3.3486 4.7100
# 5 39.2102 1.8069 26.1174 -3.3486 62.4110 3.5342
# 6 -1.0982 0.7152 -18.4451 4.7100 3.5342 37.7933
#
#
#
# Elastic Compliance Matrix: (Units=1/GPa)
#
#
# Indices 1 2 3 4 5 6 
#
# 1 0.013041 -0.011882 -0.000075 -0.001569 -0.007988 0.001510
# 2 -0.011882 0.060102 -0.011030 0.001474 0.010877 -0.008067
# 3 -0.000075 -0.011030 0.009733 -0.002730 -0.004175 0.005688
# 4 -0.001569 0.001474 -0.002730 0.018873 0.003329 -0.004069
# 5 -0.007988 0.010877 -0.004175 0.003329 0.022937 -0.005036
# 6 0.001510 -0.008067 0.005688 -0.004069 -0.005036 0.030410
#
#
# Mechanical properties :
#
#
# Convention : Reuss Voigt Hill
#
# Bulk Modulus (GPa) = 27.09780 60.72074 43.90927
# Shear Modulus (GPa) = 23.43331 45.55909 34.49620
#
# Velocity S-wave (km/s) = 2.92996 4.08538 3.55492
# Velocity P-wave (km/s) = 4.62313 6.67071 5.73898
#
# Compressibility (1/GPa) = 0.03690337
#
# Stress axis : x y z
#
# Youngs Moduli (GPa) = 76.67881 16.63835 102.74168
#
# Poissons Ratio (x) = 0.19770 0.00767
# Poissons Ratio (y) = 0.91110 1.13324
# Poissons Ratio (z) = 0.00572 0.18352
#
# Static dielectric constant tensor:
#      x y z
#    x 2.335380 0.183030 -0.144110 
#    y 0.183030 2.363270 -0.042260 
#    z -0.144110 -0.042260 2.638980 
# 
# From -- ./inp_files/515085.got.cif
#   From: 2010.05.17/outbox.cif.g08.bks.cpg/sg2_258_cif.got.tgz:515085.got - 2010.06.03 11:33:40.
