data_PCOD9021024
_publ_section_title
;
Structure prediction by ZEFSAII (Michael W. Deem and Ramdas Pophale) SiO2 
 PCOD9021024
Probable space group: P -1
;
_chemical_formula_sum "Si O2"
_cell_formula_units_Z 16
_cell_length_a 11.068140
_cell_length_b 13.731006
_cell_length_c 5.029776
_cell_angle_alpha 107.892291
_cell_angle_beta 119.336267
_cell_angle_gamma 78.224162
_cell_volume 632.828383
_symmetry_space_group_name_H-M "P -1"
_symmetry_group_IT_number 2
_symmetry_cell_setting 'triclinic'
loop_
_space_group_symop_operation_xyz
x,y,z
-x,-y,-z
loop_
_atom_site_type_symbol
_atom_site_label
_atom_site_fract_x
_atom_site_fract_y
_atom_site_fract_z
Si Si1 0.620868 0.241075 0.951464
Si Si2 0.234074 0.571934 0.844395
Si Si3 0.094696 0.753617 0.572855
Si Si4 0.447565 0.924799 0.602428
Si Si5 0.643798 0.770045 0.000785
Si Si6 0.790072 0.956475 0.296122
Si Si7 0.657274 0.538101 0.645185
Si Si8 0.992046 0.117926 0.899146
O O1 0.655238 0.145433 0.723221
O O2 0.649597 0.345081 0.923120
O O3 0.740490 0.236468 0.298739
O O4 0.469190 0.241029 0.901968
O O5 0.104816 0.641255 0.632662
O O6 0.296343 0.492506 0.626733
O O7 0.231660 0.519567 0.081965
O O8 0.025771 0.786596 0.249270
O O9 0.042449 0.834660 0.811393
O O10 0.564155 0.841855 0.757576
O O11 0.500000 0.000000 0.500000
O O12 0.359376 0.981773 0.787754
O O13 0.671574 0.657794 0.818604
O O14 0.762487 0.842905 0.284746
O O15 0.855556 0.933413 0.056990
O O16 0.893220 0.028834 0.621684
O O17 0.500000 0.500000 0.500000
#
# Coordination Sequence:
#
# PCOD9021024 Si02
#       8
#     2   2   2   2   2   2   2   2
#     4  10  22  37  64  95 124 171 209 258 319 393
#     4  10  23  37  67  93 126 165 210 259 318 387
#     4  10  22  42  70  95 121 168 220 264 319 377
#     4  12  24  39  62  92 135 173 206 260 327 393
#     4  12  26  38  62  94 137 168 211 265 319 392
#     4  11  25  42  60  96 125 176 214 264 318 374
#     4  12  22  39  62  96 133 167 207 258 324 385
#     4  11  24  43  68  91 129 167 222 268 307 379
#
# _framework density 25.283315999999999
#
# number of rings (size 3 to 8) (size 9 to 14) (size 15 to 20)
#    0.750    0.250    3.750    3.000    3.500    3.000 
#    0.000    0.000    0.000    4.500    0.000    0.000 
#    0.000    0.000    0.000    0.000    0.000    0.000 
#
# Total GULP energy -89399.270772 kJ/mol
# GULP energy per Si atom -5587.454423 kJ/mol
# Density = 2.522577 g / cm^3
# Si number density = 25.283316 Si / 1000 Ang^3
#
#
#
# Elastic Constant Matrix: (Units=GPa)
#
#
# Indices 1 2 3 4 5 6 
#
# 1 93.0129 18.7875 13.4668 16.5519 -3.9578 -10.7956
# 2 18.7875 159.5466 26.3647 3.6033 -0.7927 -11.8327
# 3 13.4668 26.3647 49.5149 -5.1342 -10.8760 -5.9178
# 4 16.5519 3.6033 -5.1342 48.0637 -7.9382 -9.7482
# 5 -3.9578 -0.7927 -10.8760 -7.9382 40.2250 0.6615
# 6 -10.7956 -11.8327 -5.9178 -9.7482 0.6615 25.8747
#
#
#
# Elastic Compliance Matrix: (Units=1/GPa)
#
#
# Indices 1 2 3 4 5 6 
#
# 1 0.012362 -0.000635 -0.003260 -0.004122 -0.000534 0.002582
# 2 -0.000635 0.007098 -0.003643 -0.000468 -0.001033 0.001998
# 3 -0.003260 -0.003643 0.026044 0.006527 0.007852 0.005189
# 4 -0.004122 -0.000468 0.006527 0.025852 0.006301 0.009137
# 5 -0.000534 -0.001033 0.007852 0.006301 0.028108 0.002756
# 6 0.002582 0.001998 0.005189 0.009137 0.002756 0.045198
#
#
# Mechanical properties :
#
#
# Convention : Reuss Voigt Hill
#
# Bulk Modulus (GPa) = 32.86509 46.59029 39.72769
# Shear Modulus (GPa) = 29.43229 39.06304 34.24767
#
# Velocity S-wave (km/s) = 3.41559 3.93493 3.68442
# Velocity P-wave (km/s) = 5.34621 6.25397 5.81782
#
# Compressibility (1/GPa) = 0.03042743
#
# Stress axis : x y z
#
# Youngs Moduli (GPa) = 80.89278 140.88036 38.39636
#
# Poissons Ratio (x) = 0.08946 0.12517
# Poissons Ratio (y) = 0.05137 0.13989
# Poissons Ratio (z) = 0.26371 0.51329
#
# Static dielectric constant tensor:
#      x y z
#    x 2.028440 0.016180 0.107920 
#    y 0.016180 2.072280 -0.004890 
#    z 0.107920 -0.004890 2.088050 
# 
# From -- ./inp_files/71504.got.cif
#   From: 2010.05.17/outbox.cif.g08.bks.cpg/sg2_36_cif.got.tgz:71504.got - 2010.06.03 11:33:40.
