data_PCOD9021538
_publ_section_title
;
Structure prediction by ZEFSAII (Michael W. Deem and Ramdas Pophale) SiO2 
 PCOD9021538
Probable space group: P -1
;
_chemical_formula_sum "Si O2"
_cell_formula_units_Z 12
_cell_length_a 5.021641
_cell_length_b 17.143580
_cell_length_c 10.922238
_cell_angle_alpha 148.463035
_cell_angle_beta 72.783171
_cell_angle_gamma 100.903779
_cell_volume 466.013235
_symmetry_space_group_name_H-M "P -1"
_symmetry_group_IT_number 2
_symmetry_cell_setting 'triclinic'
loop_
_space_group_symop_operation_xyz
x,y,z
-x,-y,-z
loop_
_atom_site_type_symbol
_atom_site_label
_atom_site_fract_x
_atom_site_fract_y
_atom_site_fract_z
Si Si1 0.048150 0.733865 0.762423
Si Si2 0.037173 0.700504 0.005107
Si Si3 0.685956 0.625914 0.488439
Si Si4 0.178315 0.051437 0.153623
Si Si5 0.025900 0.829729 0.426458
Si Si6 0.584606 0.658709 0.170494
O O1 0.075616 0.732518 0.902176
O O2 0.352920 0.667290 0.579167
O O3 0.800843 0.637515 0.628152
O O4 0.997896 0.909649 0.958085
O O5 0.212125 0.538759 0.794854
O O6 0.714921 0.673669 0.038762
O O7 0.082909 0.829267 0.270955
O O8 0.845527 0.764937 0.606416
O O9 0.147383 0.045243 0.300493
O O10 0.500000 0.000000 0.000000
O O11 0.841104 0.691247 0.263543
O O12 0.324874 0.786911 0.391994
O O13 0.500000 0.500000 0.000000
#
# Coordination Sequence:
#
# PCOD9021538 Si02
#       6
#     2   2   2   2   2   2
#     4  11  25  42  64  95 131 174 212 259 324 381
#     4  10  25  40  69  95 133 160 218 270 323 375
#     4  11  24  40  69  92 129 171 217 264 316 378
#     4  10  24  46  66  94 131 174 218 262 317 391
#     4  10  24  39  66  96 126 167 215 265 324 372
#     4  10  22  38  62  97 130 160 209 264 323 375
#
# _framework density 25.750342
#
# number of rings (size 3 to 8) (size 9 to 14) (size 15 to 20)
#    1.000    0.667    0.000    3.000    7.000    6.000 
#    0.000    0.833    0.000    0.000    0.000    0.000 
#    0.000    0.000    0.000    0.000    0.000    0.000 
#
# Total GULP energy -66882.473763 kJ/mol
# GULP energy per Si atom -5573.539480 kJ/mol
# Density = 2.569173 g / cm^3
# Si number density = 25.750342 Si / 1000 Ang^3
#
#
#
# Elastic Constant Matrix: (Units=GPa)
#
#
# Indices 1 2 3 4 5 6 
#
# 1 147.3289 42.1725 66.2717 -36.8143 23.4693 -32.8272
# 2 42.1725 83.3292 73.0549 -22.7240 17.7534 -22.6713
# 3 66.2717 73.0549 170.3337 -38.4646 34.1665 -25.5330
# 4 -36.8143 -22.7240 -38.4646 66.3484 -22.4413 25.5882
# 5 23.4693 17.7534 34.1665 -22.4413 63.2175 -31.7763
# 6 -32.8272 -22.6713 -25.5330 25.5882 -31.7763 44.3366
#
#
#
# Elastic Compliance Matrix: (Units=1/GPa)
#
#
# Indices 1 2 3 4 5 6 
#
# 1 0.009553 -0.001270 -0.002207 0.002148 0.001145 0.004733
# 2 -0.001270 0.020982 -0.007938 0.000015 0.002333 0.006881
# 3 -0.002207 -0.007938 0.010916 0.002476 -0.003739 -0.003516
# 4 0.002148 0.000015 0.002476 0.021368 0.001198 -0.008450
# 5 0.001145 0.002333 -0.003739 0.001198 0.026229 0.017994
# 6 0.004733 0.006881 -0.003516 -0.008450 0.017994 0.045326
#
#
# Mechanical properties :
#
#
# Convention : Reuss Voigt Hill
#
# Bulk Modulus (GPa) = 53.70396 84.88779 69.29587
# Shear Modulus (GPa) = 30.59750 49.41334 40.00542
#
# Velocity S-wave (km/s) = 3.45082 4.38532 3.94583
# Velocity P-wave (km/s) = 6.06452 7.66020 6.90859
#
# Compressibility (1/GPa) = 0.01862060
#
# Stress axis : x y z
#
# Youngs Moduli (GPa) = 104.68039 47.66084 91.60601
#
# Poissons Ratio (x) = 0.06053 0.20218
# Poissons Ratio (y) = 0.13295 0.72716
# Poissons Ratio (z) = 0.23104 0.37833
#
# Static dielectric constant tensor:
#      x y z
#    x 2.071130 -0.230040 0.069940 
#    y -0.230040 2.374820 -0.096360 
#    z 0.069940 -0.096360 2.025700 
# 
# From -- ./inp_files/369236.got.cif
#   From: 2010.05.17/outbox.cif.g08.bks.cpg/sg2_185_cif.got.tgz:369236.got - 2010.06.03 11:33:40.
