data_PCOD9021139
_publ_section_title
;
Structure prediction by ZEFSAII (Michael W. Deem and Ramdas Pophale) SiO2 
 PCOD9021139
Probable space group: P -1
;
_chemical_formula_sum "Si O2"
_cell_formula_units_Z 14
_cell_length_a 9.281195
_cell_length_b 9.975451
_cell_length_c 19.997769
_cell_angle_alpha 43.656253
_cell_angle_beta 145.618489
_cell_angle_gamma 113.401300
_cell_volume 619.611496
_symmetry_space_group_name_H-M "P -1"
_symmetry_group_IT_number 2
_symmetry_cell_setting 'triclinic'
loop_
_space_group_symop_operation_xyz
x,y,z
-x,-y,-z
loop_
_atom_site_type_symbol
_atom_site_label
_atom_site_fract_x
_atom_site_fract_y
_atom_site_fract_z
Si Si1 0.688483 0.697157 0.224131
Si Si2 0.122085 0.162379 0.879029
Si Si3 0.373500 0.208235 0.426481
Si Si4 0.794557 0.659749 0.013042
Si Si5 0.822576 0.031920 0.353326
Si Si6 0.394715 0.933608 0.286236
Si Si7 0.170338 0.721008 0.491487
O O1 0.826245 0.682252 0.209310
O O2 0.697172 0.474191 0.331972
O O3 0.904848 0.728238 0.346109
O O4 0.361373 0.913759 0.031893
O O5 0.193529 0.211644 0.962229
O O6 0.800650 0.184136 0.750659
O O7 0.447242 0.121882 0.561582
O O8 0.577235 0.316361 0.449425
O O9 0.042902 0.402565 0.211108
O O10 0.500000 0.000000 0.500000
O O11 0.458239 0.717155 0.853481
O O12 0.824682 0.798176 0.911848
O O13 0.657283 0.884571 0.351754
O O14 0.000000 0.000000 0.500000
O O15 0.027594 0.949946 0.397106
#
# Coordination Sequence:
#
# PCOD9021139 Si02
#       7
#     2   2   2   2   2   2   2
#     4  10  22  37  70 102 140 173 217 293 349 404
#     4  11  20  42  66 106 136 173 232 279 352 415
#     4  12  26  46  68 102 139 184 237 277 336 416
#     4  10  25  42  71  98 137 183 227 286 344 398
#     4  10  23  46  66  95 136 184 229 278 334 407
#     4  10  23  42  71 100 137 176 229 282 342 406
#     4  11  22  44  66 100 138 178 222 286 351 396
#
# _framework density 22.594805000000001
#
# number of rings (size 3 to 8) (size 9 to 14) (size 15 to 20)
#    0.857    0.571    2.857    2.143    2.000    3.429 
#    2.571    2.857    0.000    0.000    0.000    0.000 
#    0.000    0.000    0.000    0.000    0.000    0.000 
#
# Total GULP energy -78141.090602 kJ/mol
# GULP energy per Si atom -5581.506472 kJ/mol
# Density = 2.254338 g / cm^3
# Si number density = 22.594805 Si / 1000 Ang^3
#
#
#
# Elastic Constant Matrix: (Units=GPa)
#
#
# Indices 1 2 3 4 5 6 
#
# 1 103.4130 5.6874 58.3901 -7.9613 -11.5531 18.0556
# 2 5.6874 28.4412 34.8305 6.7274 3.5041 1.3144
# 3 58.3901 34.8305 142.2446 7.5541 -18.8006 -18.4753
# 4 -7.9613 6.7274 7.5541 27.8734 5.8377 -1.4765
# 5 -11.5531 3.5041 -18.8006 5.8377 42.3169 2.6670
# 6 18.0556 1.3144 -18.4753 -1.4765 2.6670 30.3408
#
#
#
# Elastic Compliance Matrix: (Units=1/GPa)
#
#
# Indices 1 2 3 4 5 6 
#
# 1 0.023055 0.016409 -0.017277 0.006449 -0.002089 -0.024453
# 2 0.016409 0.072033 -0.029709 -0.003668 -0.012283 -0.030075
# 3 -0.017277 -0.029709 0.026240 -0.005239 0.008451 0.026549
# 4 0.006449 -0.003668 -0.005239 0.040973 -0.005640 -0.004379
# 5 -0.002089 -0.012283 0.008451 -0.005640 0.028349 0.004155
# 6 -0.024453 -0.030075 0.026549 -0.004379 0.004155 0.064402
#
#
# Mechanical properties :
#
#
# Convention : Reuss Voigt Hill
#
# Bulk Modulus (GPa) = 16.61800 52.43498 34.52649
# Shear Modulus (GPa) = 14.86936 31.78562 23.32749
#
# Velocity S-wave (km/s) = 2.56810 3.75476 3.21663
# Velocity P-wave (km/s) = 4.02049 6.48495 5.39532
#
# Compressibility (1/GPa) = 0.06017572
#
# Stress axis : x y z
#
# Youngs Moduli (GPa) = 43.37454 13.88256 38.10960
#
# Poissons Ratio (x) = -0.22781 0.65840
# Poissons Ratio (y) = -0.71175 1.13220
# Poissons Ratio (z) = 0.74936 0.41244
#
# Static dielectric constant tensor:
#      x y z
#    x 1.833430 0.079010 -0.004930 
#    y 0.079010 1.873730 -0.048310 
#    z -0.004930 -0.048310 1.870390 
# 
# From -- ./inp_files/589498.got.cif
#   From: 2010.05.17/outbox.cif.g08.bks.cpg/sg2_295_cif.got.tgz:589498.got - 2010.06.03 11:33:40.
