data_PCOD9021699
_publ_section_title
;
Structure prediction by ZEFSAII (Michael W. Deem and Ramdas Pophale) SiO2 
 PCOD9021699
Probable space group: P -1
;
_chemical_formula_sum "Si O2"
_cell_formula_units_Z 11
_cell_length_a 4.880874
_cell_length_b 11.144629
_cell_length_c 11.323287
_cell_angle_alpha 114.333573
_cell_angle_beta 128.957292
_cell_angle_gamma 79.378795
_cell_volume 433.975282
_symmetry_space_group_name_H-M "P -1"
_symmetry_group_IT_number 2
_symmetry_cell_setting 'triclinic'
loop_
_space_group_symop_operation_xyz
x,y,z
-x,-y,-z
loop_
_atom_site_type_symbol
_atom_site_label
_atom_site_fract_x
_atom_site_fract_y
_atom_site_fract_z
Si Si1 0.500000 0.000000 0.000000
Si Si2 0.258198 0.143385 0.500881
Si Si3 0.030066 0.416604 0.228307
Si Si4 0.285169 0.287164 0.036998
Si Si5 0.672585 0.302047 0.487726
Si Si6 0.717341 0.885616 0.233397
O O1 0.572196 0.058020 0.906751
O O2 0.642475 0.855817 0.949107
O O3 0.541950 0.184803 0.494804
O O4 0.380078 0.136734 0.666698
O O5 0.977463 0.252356 0.469256
O O6 0.035342 0.003995 0.355098
O O7 0.011998 0.361992 0.067841
O O8 0.333206 0.338380 0.338792
O O9 0.169022 0.568639 0.346288
O O10 0.654273 0.380240 0.172639
O O11 0.186862 0.246496 0.859444
#
# Coordination Sequence:
#
# PCOD9021699 Si02
#       6
#     1   2   2   2   2   2
#     4   8  18  40  60  94 112 160 194 248 302 354
#     4  11  23  43  61  94 129 157 207 248 319 360
#     4  11  22  41  62  92 124 159 220 242 301 364
#     4  10  22  38  64  94 118 158 207 261 295 362
#     4  11  24  39  65  87 125 174 196 257 298 373
#     4   9  22  40  66  94 124 162 199 262 305 370
#
# _framework density 25.347065000000001
#
# number of rings (size 3 to 8) (size 9 to 14) (size 15 to 20)
#    1.091    0.727    0.000    4.364    0.000    9.455 
#    0.000    5.455    0.000    0.000    0.000    0.000 
#    0.000    0.000    0.000    0.000    0.000    0.000 
#
# Total GULP energy -61330.729019 kJ/mol
# GULP energy per Si atom -5575.520820 kJ/mol
# Density = 2.528937 g / cm^3
# Si number density = 25.347065 Si / 1000 Ang^3
#
#
#
# Elastic Constant Matrix: (Units=GPa)
#
#
# Indices 1 2 3 4 5 6 
#
# 1 86.7618 5.2645 9.2196 10.0178 -1.9332 6.6797
# 2 5.2645 50.0122 6.9537 1.4555 8.0499 -5.9517
# 3 9.2196 6.9537 81.5654 20.2861 -12.1210 2.6214
# 4 10.0178 1.4555 20.2861 30.3981 -5.1455 1.1910
# 5 -1.9332 8.0499 -12.1210 -5.1455 26.7674 5.7909
# 6 6.6797 -5.9517 2.6214 1.1910 5.7909 26.5213
#
#
#
# Elastic Compliance Matrix: (Units=1/GPa)
#
#
# Indices 1 2 3 4 5 6 
#
# 1 0.012376 -0.001899 0.000009 -0.003579 0.001588 -0.003730
# 2 -0.001899 0.023420 -0.003578 -0.000244 -0.010671 0.008429
# 3 0.000009 -0.003578 0.016051 -0.009156 0.007361 -0.003588
# 4 -0.003579 -0.000244 -0.009156 0.040863 0.003717 -0.000895
# 5 0.001588 -0.010671 0.007361 0.003717 0.047786 -0.014123
# 6 -0.003730 0.008429 -0.003588 -0.000895 -0.014123 0.044015
#
#
# Mechanical properties :
#
#
# Convention : Reuss Voigt Hill
#
# Bulk Modulus (GPa) = 24.44379 29.02390 26.73384
# Shear Modulus (GPa) = 23.91385 29.86414 26.88900
#
# Velocity S-wave (km/s) = 3.07491 3.43623 3.26058
# Velocity P-wave (km/s) = 4.71925 5.21718 4.97445
#
# Compressibility (1/GPa) = 0.04091018
#
# Stress axis : x y z
#
# Youngs Moduli (GPa) = 80.80241 42.69795 62.30315
#
# Poissons Ratio (x) = 0.08110 -0.00056
# Poissons Ratio (y) = 0.15347 0.22291
# Poissons Ratio (z) = -0.00072 0.15277
#
# Static dielectric constant tensor:
#      x y z
#    x 1.857460 -0.082900 0.069780 
#    y -0.082900 1.965630 -0.059820 
#    z 0.069780 -0.059820 2.073540 
# 
# From -- ./inp_files/62338.got.cif
#   From: 2010.05.17/outbox.cif.g08.bks.cpg/sg2_32_cif.got.tgz:62338.got - 2010.06.03 11:33:40.
