data_PCOD9021600
_publ_section_title
;
Structure prediction by ZEFSAII (Michael W. Deem and Ramdas Pophale) SiO2 
 PCOD9021600
Probable space group: P -1
;
_chemical_formula_sum "Si O2"
_cell_formula_units_Z 16
_cell_length_a 25.126040
_cell_length_b 8.564629
_cell_length_c 7.906959
_cell_angle_alpha 125.712084
_cell_angle_beta 48.884122
_cell_angle_gamma 147.717992
_cell_volume 683.017588
_symmetry_space_group_name_H-M "P -1"
_symmetry_group_IT_number 2
_symmetry_cell_setting 'triclinic'
loop_
_space_group_symop_operation_xyz
x,y,z
-x,-y,-z
loop_
_atom_site_type_symbol
_atom_site_label
_atom_site_fract_x
_atom_site_fract_y
_atom_site_fract_z
Si Si1 0.686514 0.630750 0.968143
Si Si2 0.109059 0.622079 0.518029
Si Si3 0.974563 0.845056 0.133774
Si Si4 0.126425 0.729571 0.175294
Si Si5 0.194462 0.179669 0.850308
Si Si6 0.479300 0.685663 0.152965
Si Si7 0.788875 0.472963 0.505598
Si Si8 0.338122 0.707532 0.655396
O O1 0.567882 0.389947 0.985697
O O2 0.729396 0.505805 0.764344
O O3 0.766845 0.941694 0.898712
O O4 0.709267 0.706369 0.165547
O O5 0.141408 0.657591 0.279280
O O6 0.167639 0.606032 0.517708
O O7 0.979754 0.355445 0.636308
O O8 0.145659 0.913125 0.668460
O O9 0.892623 0.779067 0.388551
O O10 0.913366 0.516850 0.025035
O O11 0.000000 0.000000 0.000000
O O12 0.092320 0.041333 0.085608
O O13 0.238722 0.437731 0.804683
O O14 0.390047 0.615709 0.412230
O O15 0.583437 0.013306 0.209469
O O16 0.500000 0.500000 0.000000
O O17 0.703452 0.256456 0.395690
#
# Coordination Sequence:
#
# PCOD9021600 Si02
#       8
#     2   2   2   2   2   2   2   2
#     4  11  25  42  67  94 130 168 219 271 325 387
#     4  10  22  38  63  93 130 171 218 253 318 385
#     4  11  23  37  63  94 132 177 212 250 322 385
#     4  10  23  40  60  90 130 175 212 263 310 386
#     4  11  23  42  63  98 134 170 213 266 319 396
#     4  10  24  45  73  95 123 175 222 275 341 387
#     4  11  23  39  64  97 134 172 215 264 321 389
#     4  10  23  46  69  96 136 166 218 282 326 391
#
# _framework density 23.425457999999999
#
# number of rings (size 3 to 8) (size 9 to 14) (size 15 to 20)
#    0.000    1.500    1.250    3.000    8.750    3.500 
#    2.250    0.625    0.000    0.000    0.000    0.000 
#    0.000    0.000    0.000    0.000    0.000    0.000 
#
# Total GULP energy -89424.427803 kJ/mol
# GULP energy per Si atom -5589.026738 kJ/mol
# Density = 2.337214 g / cm^3
# Si number density = 23.425458 Si / 1000 Ang^3
#
#
#
# Elastic Constant Matrix: (Units=GPa)
#
#
# Indices 1 2 3 4 5 6 
#
# 1 144.4531 34.7418 16.7345 8.6602 6.7290 21.5930
# 2 34.7418 81.9521 9.4219 26.0314 5.3026 18.4856
# 3 16.7345 9.4219 36.8666 11.3229 -6.4980 7.5238
# 4 8.6602 26.0314 11.3229 30.9334 6.4978 8.2570
# 5 6.7290 5.3026 -6.4980 6.4978 39.0328 5.6269
# 6 21.5930 18.4856 7.5238 8.2570 5.6269 36.3568
#
#
#
# Elastic Compliance Matrix: (Units=1/GPa)
#
#
# Indices 1 2 3 4 5 6 
#
# 1 0.008488 -0.003312 -0.003562 0.002866 -0.001649 -0.003016
# 2 -0.003312 0.019164 0.002591 -0.015126 0.001657 -0.005134
# 3 -0.003562 0.002591 0.035177 -0.014784 0.009236 -0.004554
# 4 0.002866 -0.015126 -0.014784 0.051982 -0.009365 -0.001308
# 5 -0.001649 0.001657 0.009236 -0.009365 0.029380 -0.004195
# 6 -0.003016 -0.005134 -0.004554 -0.001308 -0.004195 0.033795
#
#
# Mechanical properties :
#
#
# Convention : Reuss Voigt Hill
#
# Bulk Modulus (GPa) = 18.42847 42.78537 30.60692
# Shear Modulus (GPa) = 24.43327 34.75618 29.59472
#
# Velocity S-wave (km/s) = 3.23309 3.85605 3.55823
# Velocity P-wave (km/s) = 4.67130 6.17492 5.47498
#
# Compressibility (1/GPa) = 0.05426388
#
# Stress axis : x y z
#
# Youngs Moduli (GPa) = 117.81898 52.18141 28.42747
#
# Poissons Ratio (x) = 0.17283 0.10125
# Poissons Ratio (y) = 0.39023 -0.07366
# Poissons Ratio (z) = 0.41962 -0.13522
#
# Static dielectric constant tensor:
#      x y z
#    x 1.945430 0.027450 -0.030270 
#    y 0.027450 1.845810 -0.004480 
#    z -0.030270 -0.004480 1.924250 
# 
# From -- ./inp_files/352415.got.cif
#   From: 2010.05.17/outbox.cif.g08.bks.cpg/sg2_177_cif.got.tgz:352415.got - 2010.06.03 11:33:40.
