data_PCOD9021492
_publ_section_title
;
Structure prediction by ZEFSAII (Michael W. Deem and Ramdas Pophale) SiO2 
 PCOD9021492
Probable space group: P -1
;
_chemical_formula_sum "Si O2"
_cell_formula_units_Z 16
_cell_length_a 17.250047
_cell_length_b 7.215955
_cell_length_c 14.882212
_cell_angle_alpha 44.981147
_cell_angle_beta 143.527163
_cell_angle_gamma 111.298692
_cell_volume 678.888557
_symmetry_space_group_name_H-M "P -1"
_symmetry_group_IT_number 2
_symmetry_cell_setting 'triclinic'
loop_
_space_group_symop_operation_xyz
x,y,z
-x,-y,-z
loop_
_atom_site_type_symbol
_atom_site_label
_atom_site_fract_x
_atom_site_fract_y
_atom_site_fract_z
Si Si1 0.000122 0.815839 0.381733
Si Si2 0.439866 0.281662 0.484615
Si Si3 0.665773 0.299900 0.914038
Si Si4 0.972073 0.735538 0.626538
Si Si5 0.229991 0.483699 0.567507
Si Si6 0.307625 0.389183 0.006326
Si Si7 0.250885 0.308999 0.463347
Si Si8 0.550841 0.835341 0.966224
O O1 0.851962 0.721098 0.451943
O O2 0.116265 0.756697 0.429777
O O3 0.034207 0.952984 0.456867
O O4 0.832680 0.068228 0.116488
O O5 0.500000 0.500000 0.500000
O O6 0.389759 0.397129 0.298040
O O7 0.304727 0.335500 0.406666
O O8 0.571804 0.943578 0.735109
O O9 0.664724 0.380393 0.988885
O O10 0.575278 0.123113 0.878256
O O11 0.912440 0.654746 0.690596
O O12 0.137560 0.481381 0.840772
O O13 0.252584 0.531793 0.467454
O O14 0.000000 0.500000 0.500000
O O15 0.381385 0.310735 0.824917
O O16 0.344035 0.390661 0.935150
O O17 0.377606 0.976640 0.731121
#
# Coordination Sequence:
#
# PCOD9021492 Si02
#       8
#     2   2   2   2   2   2   2   2
#     4  11  22  41  66  96 129 174 216 264 316 392
#     4  11  21  42  70  91 125 170 224 266 314 389
#     4  11  22  39  67  97 122 166 224 266 316 372
#     4   9  23  41  61  98 133 165 215 266 324 378
#     4  10  22  38  62  91 134 171 207 259 326 376
#     4  10  22  39  64  95 127 166 220 265 315 383
#     4   9  22  42  62  92 136 166 212 270 322 383
#     4  11  20  41  64  92 129 170 215 263 312 389
#
# _framework density 23.567931000000002
#
# number of rings (size 3 to 8) (size 9 to 14) (size 15 to 20)
#    0.750    1.000    3.750    1.500    0.000    1.500 
#    4.500    5.625    0.000    0.000    0.000    0.000 
#    0.000    0.000    0.000    0.000    0.000    0.000 
#
# Total GULP energy -89318.341976 kJ/mol
# GULP energy per Si atom -5582.396374 kJ/mol
# Density = 2.351429 g / cm^3
# Si number density = 23.567931 Si / 1000 Ang^3
#
#
#
# Elastic Constant Matrix: (Units=GPa)
#
#
# Indices 1 2 3 4 5 6 
#
# 1 84.3023 22.2313 29.6294 -5.9370 21.7247 -17.5368
# 2 22.2313 93.5938 7.4595 -9.3444 3.4976 -30.6415
# 3 29.6294 7.4595 83.6689 -17.5969 20.4067 -3.4391
# 4 -5.9370 -9.3444 -17.5969 32.8784 -8.8420 4.5000
# 5 21.7247 3.4976 20.4067 -8.8420 44.0414 -12.5512
# 6 -17.5368 -30.6415 -3.4391 4.5000 -12.5512 23.5805
#
#
#
# Elastic Compliance Matrix: (Units=1/GPa)
#
#
# Indices 1 2 3 4 5 6 
#
# 1 0.016455 -0.000527 -0.004971 -0.002066 -0.003522 0.009347
# 2 -0.000527 0.021006 -0.001953 0.003004 0.008868 0.030767
# 3 -0.004971 -0.001953 0.016458 0.006880 -0.006017 -0.008350
# 4 -0.002066 0.003004 0.006880 0.035937 0.004495 -0.001095
# 5 -0.003522 0.008868 -0.006017 0.004495 0.034742 0.025660
# 6 0.009347 0.030767 -0.008350 -0.001095 0.025660 0.101989
#
#
# Mechanical properties :
#
#
# Convention : Reuss Voigt Hill
#
# Bulk Modulus (GPa) = 25.62940 42.24504 33.93722
# Shear Modulus (GPa) = 19.64679 33.58304 26.61492
#
# Velocity S-wave (km/s) = 2.89039 3.77894 3.36413
# Velocity P-wave (km/s) = 4.69440 6.08311 5.43331
#
# Compressibility (1/GPa) = 0.03901769
#
# Stress axis : x y z
#
# Youngs Moduli (GPa) = 60.77201 47.60443 60.76171
#
# Poissons Ratio (x) = 0.02507 0.30206
# Poissons Ratio (y) = 0.03201 0.11865
# Poissons Ratio (z) = 0.30212 0.09296
#
# Static dielectric constant tensor:
#      x y z
#    x 2.015670 -0.010350 0.008620 
#    y -0.010350 1.933700 0.044310 
#    z 0.008620 0.044310 1.919480 
# 
# From -- ./inp_files/529409.got.cif
#   From: 2010.05.17/outbox.cif.g08.bks.cpg/sg2_265_cif.got.tgz:529409.got - 2010.06.03 11:33:40.
