data_PCOD9021810
_publ_section_title
;
Structure prediction by ZEFSAII (Michael W. Deem and Ramdas Pophale) SiO2 
 PCOD9021810
Probable space group: P -1
;
_chemical_formula_sum "Si O2"
_cell_formula_units_Z 16
_cell_length_a 11.011314
_cell_length_b 12.619914
_cell_length_c 7.754963
_cell_angle_alpha 66.726923
_cell_angle_beta 56.903329
_cell_angle_gamma 50.344106
_cell_volume 693.235714
_symmetry_space_group_name_H-M "P -1"
_symmetry_group_IT_number 2
_symmetry_cell_setting 'triclinic'
loop_
_space_group_symop_operation_xyz
x,y,z
-x,-y,-z
loop_
_atom_site_type_symbol
_atom_site_label
_atom_site_fract_x
_atom_site_fract_y
_atom_site_fract_z
Si Si1 0.706334 0.425055 0.873642
Si Si2 0.886874 0.771531 0.907933
Si Si3 0.224251 0.384320 0.114580
Si Si4 0.249652 0.178178 0.492471
Si Si5 0.984246 0.143249 0.913621
Si Si6 0.547136 0.906065 0.257784
Si Si7 0.229458 0.605295 0.544221
Si Si8 0.507023 0.682376 0.286829
O O1 0.804315 0.472125 0.895907
O O2 0.788763 0.265412 0.948556
O O3 0.757188 0.442230 0.631788
O O4 0.500000 0.500000 0.000000
O O5 0.859329 0.645294 0.966936
O O6 0.038394 0.722841 0.680671
O O7 0.680991 0.891500 0.015214
O O8 0.960879 0.813687 0.982548
O O9 0.189996 0.316835 0.346660
O O10 0.427545 0.304520 0.959051
O O11 0.332495 0.170007 0.618597
O O12 0.102782 0.148831 0.669223
O O13 0.399117 0.056583 0.337482
O O14 0.000000 0.000000 0.000000
O O15 0.471433 0.814716 0.329698
O O16 0.346399 0.668348 0.420734
O O17 0.331278 0.464870 0.669546
#
# Coordination Sequence:
#
# PCOD9021810 Si02
#       8
#     2   2   2   2   2   2   2   2
#     4  12  26  45  72 108 143 191 240 299 360 423
#     4  10  24  42  69 100 136 184 233 290 352 420
#     4  11  23  45  71 102 139 182 244 296 346 430
#     4  10  22  43  70 101 136 191 239 295 356 419
#     4  11  27  48  71 107 149 188 239 295 362 434
#     4   9  21  41  65  97 135 191 235 280 359 424
#     4  11  23  41  63 104 138 182 238 285 367 405
#     4  10  22  38  65  97 140 187 225 298 346 429
#
# _framework density 23.080171
#
# number of rings (size 3 to 8) (size 9 to 14) (size 15 to 20)
#    0.000    1.500    1.250    2.250    3.500   12.500 
#    2.250    1.250    0.000    0.000    0.000    0.000 
#    0.000    0.000    0.000    0.000    0.000    0.000 
#
# Total GULP energy -89165.884622 kJ/mol
# GULP energy per Si atom -5572.867789 kJ/mol
# Density = 2.302764 g / cm^3
# Si number density = 23.080171 Si / 1000 Ang^3
#
#
#
# Elastic Constant Matrix: (Units=GPa)
#
#
# Indices 1 2 3 4 5 6 
#
# 1 101.1697 38.5656 32.7871 -0.0105 -15.1246 24.2703
# 2 38.5656 102.6970 33.1829 -4.0255 -17.3948 9.5637
# 3 32.7871 33.1829 116.9328 11.6278 -26.1557 9.5191
# 4 -0.0105 -4.0255 11.6278 43.8808 4.8626 -6.5816
# 5 -15.1246 -17.3948 -26.1557 4.8626 35.0197 3.2380
# 6 24.2703 9.5637 9.5191 -6.5816 3.2380 31.7737
#
#
#
# Elastic Compliance Matrix: (Units=1/GPa)
#
#
# Indices 1 2 3 4 5 6 
#
# 1 0.014990 -0.003479 -0.000840 -0.002381 0.005485 -0.011204
# 2 -0.003479 0.012272 -0.001902 0.001211 0.003053 -0.000527
# 3 -0.000840 -0.001902 0.012174 -0.005043 0.008891 -0.004384
# 4 -0.002381 0.001211 -0.005043 0.026612 -0.008755 0.009370
# 5 0.005485 0.003053 0.008891 -0.008755 0.041575 -0.013823
# 6 -0.011204 -0.000527 -0.004384 0.009370 -0.013823 0.044852
#
#
# Mechanical properties :
#
#
# Convention : Reuss Voigt Hill
#
# Bulk Modulus (GPa) = 37.04331 58.87450 47.95891
# Shear Modulus (GPa) = 28.74966 36.55243 32.65104
#
# Velocity S-wave (km/s) = 3.53320 3.98391 3.76530
# Velocity P-wave (km/s) = 5.72095 6.83565 6.30299
#
# Compressibility (1/GPa) = 0.02699543
#
# Stress axis : x y z
#
# Youngs Moduli (GPa) = 66.71001 81.48662 82.14011
#
# Poissons Ratio (x) = 0.28347 0.06901
# Poissons Ratio (y) = 0.23206 0.15620
# Poissons Ratio (z) = 0.05605 0.15496
#
# Static dielectric constant tensor:
#      x y z
#    x 1.904420 -0.027170 0.051430 
#    y -0.027170 1.871280 0.009890 
#    z 0.051430 0.009890 1.895300 
# 
# From -- ./inp_files/261954.got.cif
#   From: 2010.05.17/outbox.cif.g08.bks.cpg/sg2_131_cif.got.tgz:261954.got - 2010.06.03 11:33:40.
