data_PCOD9021914
_publ_section_title
;
Structure prediction by ZEFSAII (Michael W. Deem and Ramdas Pophale) SiO2 
 PCOD9021914
Probable space group: P -1
;
_chemical_formula_sum "Si O2"
_cell_formula_units_Z 16
_cell_length_a 5.174222
_cell_length_b 28.419784
_cell_length_c 15.439611
_cell_angle_alpha 18.871209
_cell_angle_beta 81.806449
_cell_angle_gamma 84.719751
_cell_volume 720.312411
_symmetry_space_group_name_H-M "P -1"
_symmetry_group_IT_number 2
_symmetry_cell_setting 'triclinic'
loop_
_space_group_symop_operation_xyz
x,y,z
-x,-y,-z
loop_
_atom_site_type_symbol
_atom_site_label
_atom_site_fract_x
_atom_site_fract_y
_atom_site_fract_z
Si Si1 0.766922 0.598291 0.345889
Si Si2 0.081914 0.670919 0.675824
Si Si3 0.334906 0.193941 0.647799
Si Si4 0.862474 0.105148 0.561021
Si Si5 0.060544 0.794814 0.111959
Si Si6 0.579660 0.075771 0.998259
Si Si7 0.527853 0.189988 0.083454
Si Si8 0.805289 0.103942 0.373501
O O1 0.500000 0.500000 0.500000
O O2 0.000000 0.500000 0.500000
O O3 0.812016 0.678553 0.297500
O O4 0.735975 0.734244 0.046034
O O5 0.385435 0.716621 0.552617
O O6 0.044382 0.772229 0.585521
O O7 0.895025 0.719428 0.524698
O O8 0.000000 0.500000 0.000000
O O9 0.298813 0.035485 0.877577
O O10 0.371251 0.152947 0.817692
O O11 0.892961 0.164082 0.358898
O O12 0.571682 0.030800 0.736267
O O13 0.004726 0.960071 0.809753
O O14 0.202786 0.803394 0.181968
O O15 0.283377 0.765925 0.082561
O O16 0.692341 0.216270 0.117926
O O17 0.445965 0.016660 0.383085
O O18 0.000000 0.000000 0.500000
#
# Coordination Sequence:
#
# PCOD9021914 Si02
#       8
#     2   2   2   2   2   2   2   2
#     4  12  25  42  65  91 132 179 220 277 349 406
#     4  11  24  45  69  98 141 182 216 270 355 419
#     4  10  23  41  69 100 136 171 219 287 342 400
#     4  11  22  38  69 101 133 178 231 286 337 403
#     4  12  20  41  66  98 131 175 236 276 331 405
#     4  10  22  38  67 105 130 166 233 287 339 392
#     4  11  22  39  63  95 132 176 226 285 339 393
#     4  11  21  37  63  98 134 171 231 290 330 389
#
# _framework density 22.212586000000002
#
# number of rings (size 3 to 8) (size 9 to 14) (size 15 to 20)
#    0.000    1.000    6.250    0.375    1.750    1.500 
#    0.000    2.500    0.000    0.000    0.000    0.000 
#    0.000    0.000    0.000    0.000    0.000    0.000 
#
# Total GULP energy -89267.753643 kJ/mol
# GULP energy per Si atom -5579.234603 kJ/mol
# Density = 2.216203 g / cm^3
# Si number density = 22.212586 Si / 1000 Ang^3
#
#
#
# Elastic Constant Matrix: (Units=GPa)
#
#
# Indices 1 2 3 4 5 6 
#
# 1 121.7017 47.9702 33.7556 -5.0474 10.1112 23.0215
# 2 47.9702 132.9457 44.8249 0.3823 5.5766 36.1032
# 3 33.7556 44.8249 92.8412 -15.5144 6.6316 17.3743
# 4 -5.0474 0.3823 -15.5144 35.8796 10.1421 -0.1164
# 5 10.1112 5.5766 6.6316 10.1421 46.3702 1.0948
# 6 23.0215 36.1032 17.3743 -0.1164 1.0948 41.1829
#
#
#
# Elastic Compliance Matrix: (Units=1/GPa)
#
#
# Indices 1 2 3 4 5 6 
#
# 1 0.010381 -0.002247 -0.001774 0.001257 -0.001943 -0.003030
# 2 -0.002247 0.011595 -0.003798 -0.002187 0.000290 -0.007321
# 3 -0.001774 -0.003798 0.014985 0.007055 -0.002798 -0.001907
# 4 0.001257 -0.002187 0.007055 0.033465 -0.008305 -0.001446
# 5 -0.001943 0.000290 -0.002798 -0.008305 0.024139 0.001347
# 6 -0.003030 -0.007321 -0.001907 -0.001446 0.001347 0.033158
#
#
# Mechanical properties :
#
#
# Convention : Reuss Voigt Hill
#
# Bulk Modulus (GPa) = 46.89376 66.73223 56.81299
# Shear Modulus (GPa) = 33.22954 39.41571 36.32263
#
# Velocity S-wave (km/s) = 3.87198 4.21702 4.04818
# Velocity P-wave (km/s) = 6.41458 7.33613 6.89078
#
# Compressibility (1/GPa) = 0.02132480
#
# Stress axis : x y z
#
# Youngs Moduli (GPa) = 96.32831 86.24215 66.73262
#
# Poissons Ratio (x) = 0.19379 0.11836
# Poissons Ratio (y) = 0.21646 0.25342
# Poissons Ratio (z) = 0.17086 0.32751
#
# Static dielectric constant tensor:
#      x y z
#    x 1.951580 0.008310 -0.037010 
#    y 0.008310 1.883040 0.034250 
#    z -0.037010 0.034250 1.922910 
# 
# From -- ./inp_files/486139.got.cif
#   From: 2010.05.17/outbox.cif.g08.bks.cpg/sg2_244_cif.got.tgz:486139.got - 2010.06.03 11:33:40.
