data_PCOD9021811
_publ_section_title
;
Structure prediction by ZEFSAII (Michael W. Deem and Ramdas Pophale) SiO2 
 PCOD9021811
Probable space group: P -1
;
_chemical_formula_sum "Si O2"
_cell_formula_units_Z 16
_cell_length_a 11.365052
_cell_length_b 19.214357
_cell_length_c 9.154956
_cell_angle_alpha 69.849960
_cell_angle_beta 90.824586
_cell_angle_gamma 150.110107
_cell_volume 742.827537
_symmetry_space_group_name_H-M "P -1"
_symmetry_group_IT_number 2
_symmetry_cell_setting 'triclinic'
loop_
_space_group_symop_operation_xyz
x,y,z
-x,-y,-z
loop_
_atom_site_type_symbol
_atom_site_label
_atom_site_fract_x
_atom_site_fract_y
_atom_site_fract_z
Si Si1 0.419577 0.216963 0.364064
Si Si2 0.817004 0.027204 0.714394
Si Si3 0.644013 0.646793 0.715919
Si Si4 0.968080 0.466498 0.696486
Si Si5 0.099300 0.994735 0.799834
Si Si6 0.378181 0.879757 0.952214
Si Si7 0.597718 0.780664 0.089269
Si Si8 0.041085 0.241758 0.076644
O O1 0.354611 0.125463 0.293644
O O2 0.440012 0.317082 0.266428
O O3 0.715975 0.358235 0.346373
O O4 0.154071 0.052015 0.595055
O O5 0.640574 0.999334 0.769236
O O6 0.789381 0.962606 0.906265
O O7 0.142608 0.227460 0.511172
O O8 0.331699 0.424836 0.851467
O O9 0.828071 0.710256 0.800175
O O10 0.000000 0.500000 0.500000
O O11 0.796287 0.290741 0.856949
O O12 0.748034 0.402860 0.802905
O O13 0.762405 0.811715 0.981990
O O14 0.158979 0.942364 0.847404
O O15 0.321560 0.172010 0.773351
O O16 0.156808 0.799843 0.906104
O O17 0.500000 0.000000 0.000000
#
# Coordination Sequence:
#
# PCOD9021811 Si02
#       8
#     2   2   2   2   2   2   2   2
#     4  12  22  43  72  97 132 171 228 281 319 395
#     4  11  23  42  68  99 126 175 226 268 335 389
#     4  11  23  42  66  99 133 169 222 275 328 394
#     4  11  23  43  67 100 130 175 226 275 329 387
#     4  11  21  41  68  94 130 176 220 274 331 393
#     4  11  26  47  67  94 142 179 214 272 340 404
#     4  10  22  38  65  98 129 169 229 272 330 385
#     4  11  23  43  63  95 139 174 210 271 342 390
#
# _framework density 21.539318999999999
#
# number of rings (size 3 to 8) (size 9 to 14) (size 15 to 20)
#    0.000    1.000    5.000    2.625    0.000    2.500 
#    6.750    1.250    0.000    0.000    0.000    0.000 
#    0.000    0.000    0.000    0.000    0.000    0.000 
#
# Total GULP energy -89350.440040 kJ/mol
# GULP energy per Si atom -5584.402502 kJ/mol
# Density = 2.149030 g / cm^3
# Si number density = 21.539319 Si / 1000 Ang^3
#
#
#
# Elastic Constant Matrix: (Units=GPa)
#
#
# Indices 1 2 3 4 5 6 
#
# 1 121.6266 15.3960 21.4817 2.0293 -13.0875 17.8515
# 2 15.3960 54.1894 -1.0095 3.1078 -7.1101 6.5450
# 3 21.4817 -1.0095 71.4055 0.1440 -8.9266 -1.2251
# 4 2.0293 3.1078 0.1440 30.7961 1.3574 -1.5383
# 5 -13.0875 -7.1101 -8.9266 1.3574 37.4192 -4.3841
# 6 17.8515 6.5450 -1.2251 -1.5383 -4.3841 38.5125
#
#
#
# Elastic Compliance Matrix: (Units=1/GPa)
#
#
# Indices 1 2 3 4 5 6 
#
# 1 0.009795 -0.002049 -0.002805 -0.000714 0.001914 -0.004092
# 2 -0.002049 0.019854 0.001264 -0.002120 0.003187 -0.002106
# 3 -0.002805 0.001264 0.015291 -0.000056 0.003135 0.001927
# 4 -0.000714 -0.002120 -0.000056 0.032896 -0.001647 0.001816
# 5 0.001914 0.003187 0.003135 -0.001647 0.029031 0.001910
# 6 -0.004092 -0.002106 0.001927 0.001816 0.001910 0.028571
#
#
# Mechanical properties :
#
#
# Convention : Reuss Voigt Hill
#
# Bulk Modulus (GPa) = 26.48361 35.43977 30.96169
# Shear Modulus (GPa) = 32.21530 35.43578 33.82554
#
# Velocity S-wave (km/s) = 3.87156 4.06047 3.96714
# Velocity P-wave (km/s) = 5.68397 6.20261 5.94895
#
# Compressibility (1/GPa) = 0.03775920
#
# Stress axis : x y z
#
# Youngs Moduli (GPa) = 102.09122 50.36861 65.39638
#
# Poissons Ratio (x) = 0.10320 0.18345
# Poissons Ratio (y) = 0.20918 -0.08264
# Poissons Ratio (z) = 0.28639 -0.06365
#
# Static dielectric constant tensor:
#      x y z
#    x 1.813000 0.033120 -0.011990 
#    y 0.033120 1.789250 0.009660 
#    z -0.011990 0.009660 1.790050 
# 
# From -- ./inp_files/281860.got.cif
#   From: 2010.05.17/outbox.cif.g08.bks.cpg/sg2_141_cif.got.tgz:281860.got - 2010.06.03 11:33:40.
