data_PCOD9021934
_publ_section_title
;
Structure prediction by ZEFSAII (Michael W. Deem and Ramdas Pophale) SiO2 
 PCOD9021934
Probable space group: P -1
;
_chemical_formula_sum "Si O2"
_cell_formula_units_Z 16
_cell_length_a 24.849036
_cell_length_b 14.763602
_cell_length_c 6.594345
_cell_angle_alpha 102.933470
_cell_angle_beta 77.057119
_cell_angle_gamma 161.082010
_cell_volume 763.869856
_symmetry_space_group_name_H-M "P -1"
_symmetry_group_IT_number 2
_symmetry_cell_setting 'triclinic'
loop_
_space_group_symop_operation_xyz
x,y,z
-x,-y,-z
loop_
_atom_site_type_symbol
_atom_site_label
_atom_site_fract_x
_atom_site_fract_y
_atom_site_fract_z
Si Si1 0.451189 0.650847 0.964155
Si Si2 0.093528 0.361785 0.095097
Si Si3 0.616918 0.729320 0.684978
Si Si4 0.787937 0.844173 0.838934
Si Si5 0.793241 0.277745 0.048257
Si Si6 0.942084 0.352974 0.672306
Si Si7 0.201231 0.353170 0.752217
Si Si8 0.954482 0.806118 0.553751
O O1 0.310387 0.400996 0.119984
O O2 0.600710 0.948400 0.077970
O O3 0.526172 0.672298 0.835636
O O4 0.365019 0.563651 0.801418
O O5 0.100616 0.360584 0.328805
O O6 0.184253 0.592648 0.033294
O O7 0.162967 0.377032 0.947153
O O8 0.902284 0.063750 0.034068
O O9 0.500000 0.500000 0.500000
O O10 0.664077 0.725946 0.806100
O O11 0.791437 0.043209 0.603803
O O12 0.912086 0.016871 0.636506
O O13 0.906124 0.456169 0.243899
O O14 0.866757 0.310711 0.866554
O O15 0.000000 0.500000 0.500000
O O16 0.193280 0.383965 0.548988
O O17 0.052564 0.041267 0.714821
#
# Coordination Sequence:
#
# PCOD9021934 Si02
#       8
#     2   2   2   2   2   2   2   2
#     4  11  24  43  61  94 136 164 203 267 319 370
#     4  11  22  41  68  90 123 170 215 256 304 377
#     4  11  24  40  64 100 125 163 211 260 318 372
#     4  11  23  39  66  94 126 160 214 262 311 373
#     4  10  24  43  62  90 129 171 206 251 316 381
#     4  10  23  42  64  89 129 169 208 251 313 382
#     4  10  22  39  63  94 126 161 213 261 314 366
#     4  10  22  38  67  94 121 164 212 265 313 361
#
# _framework density 20.945978
#
# number of rings (size 3 to 8) (size 9 to 14) (size 15 to 20)
#    0.000    1.500    2.500    1.500    7.000    0.500 
#    0.000    0.625    0.000    0.000    0.000    0.000 
#    0.000    0.000    0.000    0.000    0.000    0.000 
#
# Total GULP energy -89454.757839 kJ/mol
# GULP energy per Si atom -5590.922365 kJ/mol
# Density = 2.089830 g / cm^3
# Si number density = 20.945978 Si / 1000 Ang^3
#
#
#
# Elastic Constant Matrix: (Units=GPa)
#
#
# Indices 1 2 3 4 5 6 
#
# 1 109.3099 35.2566 41.2261 11.5834 27.4365 9.7505
# 2 35.2566 108.3678 43.8015 14.2121 19.1551 -17.0910
# 3 41.2261 43.8015 74.4958 1.4232 24.3976 -8.4281
# 4 11.5834 14.2121 1.4232 23.8154 -0.9131 8.5113
# 5 27.4365 19.1551 24.3976 -0.9131 37.8044 -3.6856
# 6 9.7505 -17.0910 -8.4281 8.5113 -3.6856 38.7120
#
#
#
# Elastic Compliance Matrix: (Units=1/GPa)
#
#
# Indices 1 2 3 4 5 6 
#
# 1 0.014220 -0.001609 -0.005226 -0.004050 -0.006735 -0.005181
# 2 -0.001609 0.015390 -0.006389 -0.010966 -0.001989 0.008031
# 3 -0.005226 -0.006389 0.022581 0.004075 -0.007266 0.001824
# 4 -0.004050 -0.010966 0.004075 0.055711 0.005785 -0.014632
# 5 -0.006735 -0.001989 -0.007266 0.005785 0.037325 0.001518
# 6 -0.005181 0.008031 0.001824 -0.014632 0.001518 0.034441
#
#
# Mechanical properties :
#
#
# Convention : Reuss Voigt Hill
#
# Bulk Modulus (GPa) = 38.84752 59.19355 49.02053
# Shear Modulus (GPa) = 23.28860 31.52563 27.40711
#
# Velocity S-wave (km/s) = 3.33805 3.88376 3.62120
# Velocity P-wave (km/s) = 5.78304 6.95938 6.39830
#
# Compressibility (1/GPa) = 0.02574167
#
# Stress axis : x y z
#
# Youngs Moduli (GPa) = 70.32204 64.97729 44.28590
#
# Poissons Ratio (x) = 0.10458 0.23145
# Poissons Ratio (y) = 0.11318 0.28294
# Poissons Ratio (z) = 0.36752 0.41513
#
# Static dielectric constant tensor:
#      x y z
#    x 1.765090 0.006310 -0.006970 
#    y 0.006310 1.746720 -0.009400 
#    z -0.006970 -0.009400 1.767350 
# 
# From -- ./inp_files/124304.got.cif
#   From: 2010.05.17/outbox.cif.g08.bks.cpg/sg2_63_cif.got.tgz:124304.got - 2010.06.03 11:33:40.
