data_PCOD9021284
_publ_section_title
;
Structure prediction by ZEFSAII (Michael W. Deem and Ramdas Pophale) SiO2 
 PCOD9021284
Probable space group: P -1
;
_chemical_formula_sum "Si O2"
_cell_formula_units_Z 16
_cell_length_a 15.053085
_cell_length_b 21.952327
_cell_length_c 11.526918
_cell_angle_alpha 45.653280
_cell_angle_beta 151.749960
_cell_angle_gamma 151.371262
_cell_volume 816.292319
_symmetry_space_group_name_H-M "P -1"
_symmetry_group_IT_number 2
_symmetry_cell_setting 'triclinic'
loop_
_space_group_symop_operation_xyz
x,y,z
-x,-y,-z
loop_
_atom_site_type_symbol
_atom_site_label
_atom_site_fract_x
_atom_site_fract_y
_atom_site_fract_z
Si Si1 0.607222 0.631769 0.967779
Si Si2 0.616396 0.307015 0.548257
Si Si3 0.230416 0.889971 0.421321
Si Si4 0.179962 0.550436 0.759283
Si Si5 0.608291 0.789494 0.333459
Si Si6 0.790845 0.044525 0.279428
Si Si7 0.891968 0.007608 0.683269
Si Si8 0.449468 0.795578 0.889634
O O1 0.484631 0.646600 0.703078
O O2 0.483273 0.617731 0.969738
O O3 0.500000 0.500000 0.000000
O O4 0.956681 0.761543 0.202224
O O5 0.581704 0.306799 0.646612
O O6 0.385547 0.153334 0.442859
O O7 0.960990 0.416340 0.764313
O O8 0.315405 0.843441 0.669726
O O9 0.500000 0.000000 0.500000
O O10 0.144139 0.949398 0.301171
O O11 0.260952 0.666507 0.762233
O O12 0.000000 0.500000 0.500000
O O13 0.703807 0.918640 0.308105
O O14 0.467505 0.756536 0.088630
O O15 0.902863 0.833839 0.600419
O O16 0.880799 0.070960 0.481209
O O17 0.500000 0.000000 0.000000
O O18 0.214357 0.078729 0.941890
#
# Coordination Sequence:
#
# PCOD9021284 Si02
#       8
#     2   2   2   2   2   2   2   2
#     4  11  24  42  61  87 125 162 207 254 309 374
#     4  10  22  41  64  89 122 164 208 255 306 364
#     4  12  25  35  63  96 122 161 206 254 305 363
#     4  10  22  41  63  82 124 170 201 247 314 366
#     4   9  20  37  61  91 120 160 207 251 301 364
#     4   9  17  34  59  86 127 165 192 243 313 364
#     4  10  22  38  59  95 127 155 200 259 302 361
#     4  11  22  42  64  89 130 163 200 253 313 364
#
# _framework density 19.600821
#
# number of rings (size 3 to 8) (size 9 to 14) (size 15 to 20)
#    0.000    1.750    1.250    3.750    5.250    2.500 
#    2.250    0.000    0.000    1.500    0.000    0.000 
#    0.000    0.000    0.000    0.000    0.000    0.000 
#
# Total GULP energy -89184.663873 kJ/mol
# GULP energy per Si atom -5574.041492 kJ/mol
# Density = 1.955621 g / cm^3
# Si number density = 19.600821 Si / 1000 Ang^3
#
#
#
# Elastic Constant Matrix: (Units=GPa)
#
#
# Indices 1 2 3 4 5 6 
#
# 1 98.0389 40.7724 17.5606 -1.6662 -5.4598 16.9484
# 2 40.7724 82.5238 12.9959 12.3408 3.1659 9.5676
# 3 17.5606 12.9959 71.6226 -3.1266 4.7672 9.8089
# 4 -1.6662 12.3408 -3.1266 34.9086 -0.8868 3.3687
# 5 -5.4598 3.1659 4.7672 -0.8868 28.1028 3.0985
# 6 16.9484 9.5676 9.8089 3.3687 3.0985 38.1362
#
#
#
# Elastic Compliance Matrix: (Units=1/GPa)
#
#
# Indices 1 2 3 4 5 6 
#
# 1 0.014650 -0.007106 -0.001769 0.003650 0.004610 -0.004970
# 2 -0.007106 0.016943 -0.001416 -0.006550 -0.003268 0.000116
# 3 -0.001769 -0.001416 0.015279 0.001991 -0.002408 -0.002768
# 4 0.003650 -0.006550 0.001991 0.031715 0.002495 -0.003495
# 5 0.004610 -0.003268 -0.002408 0.002495 0.037764 -0.003898
# 6 -0.004970 0.000116 -0.002768 -0.003495 -0.003898 0.029739
#
#
# Mechanical properties :
#
#
# Convention : Reuss Voigt Hill
#
# Bulk Modulus (GPa) = 38.03877 43.87147 40.95512
# Shear Modulus (GPa) = 28.50025 32.28661 30.39343
#
# Velocity S-wave (km/s) = 3.81732 4.06298 3.94206
# Velocity P-wave (km/s) = 6.23523 6.66645 6.45444
#
# Compressibility (1/GPa) = 0.02628897
#
# Stress axis : x y z
#
# Youngs Moduli (GPa) = 68.25887 59.02134 65.44836
#
# Poissons Ratio (x) = 0.41940 0.11581
# Poissons Ratio (y) = 0.48504 0.09269
# Poissons Ratio (z) = 0.12078 0.08359
#
# Static dielectric constant tensor:
#      x y z
#    x 1.746270 0.016690 0.016650 
#    y 0.016690 1.695490 0.047880 
#    z 0.016650 0.047880 1.811580 
# 
# From -- ./inp_files/455525.got.cif
#   From: 2010.05.17/outbox.cif.g08.bks.cpg/sg2_228_cif.got.tgz:455525.got - 2010.06.03 11:33:40.
