data_PCOD9021790
_publ_section_title
;
Structure prediction by ZEFSAII (Michael W. Deem and Ramdas Pophale) SiO2 
 PCOD9021790
Probable space group: P -1
;
_chemical_formula_sum "Si O2"
_cell_formula_units_Z 16
_cell_length_a 11.323941
_cell_length_b 11.944838
_cell_length_c 9.651330
_cell_angle_alpha 59.010090
_cell_angle_beta 131.341101
_cell_angle_gamma 133.581405
_cell_volume 705.737411
_symmetry_space_group_name_H-M "P -1"
_symmetry_group_IT_number 2
_symmetry_cell_setting 'triclinic'
loop_
_space_group_symop_operation_xyz
x,y,z
-x,-y,-z
loop_
_atom_site_type_symbol
_atom_site_label
_atom_site_fract_x
_atom_site_fract_y
_atom_site_fract_z
Si Si1 0.699248 0.421629 0.257216
Si Si2 0.014329 0.602429 0.161702
Si Si3 0.016870 0.857335 0.143234
Si Si4 0.205608 0.155951 0.575877
Si Si5 0.325573 0.872669 0.531783
Si Si6 0.922010 0.636550 0.766441
Si Si7 0.667483 0.063241 0.196514
Si Si8 0.349013 0.329647 0.861975
O O1 0.888286 0.515988 0.253459
O O2 0.711594 0.293075 0.431324
O O3 0.645051 0.513219 0.262484
O O4 0.536611 0.358553 0.054619
O O5 0.113918 0.510454 0.258332
O O6 0.096300 0.784827 0.143312
O O7 0.903436 0.583898 0.944698
O O8 0.148104 0.886182 0.358407
O O9 0.802758 0.733710 0.092474
O O10 0.000000 0.000000 0.000000
O O11 0.265836 0.212896 0.744181
O O12 0.203863 0.294184 0.409886
O O13 0.327109 0.088532 0.665175
O O14 0.000000 0.000000 0.500000
O O15 0.368064 0.884326 0.719143
O O16 0.500000 0.000000 0.500000
O O17 0.136485 0.786194 0.806083
O O18 0.500000 0.000000 0.000000
#
# Coordination Sequence:
#
# PCOD9021790 Si02
#       8
#     2   2   2   2   2   2   2   2
#     4  10  22  44  66  96 133 170 222 276 337 402
#     4  10  23  40  68  93 132 179 220 273 335 397
#     4  11  25  39  67  97 134 171 224 275 340 393
#     4  10  22  38  65  95 127 170 222 272 325 398
#     4  12  26  43  69 102 133 172 225 277 334 405
#     4  10  22  42  66  91 134 174 229 262 334 401
#     4  11  24  42  71  96 138 175 219 277 337 393
#     4  10  22  41  67  93 131 176 213 278 339 390
#
# _framework density 22.671323000000001
#
# number of rings (size 3 to 8) (size 9 to 14) (size 15 to 20)
#    0.000    1.500    1.250    3.000    8.750    1.000 
#    0.000    0.625    0.000    0.000    0.000    0.000 
#    0.000    0.000    0.000    0.000    0.000    0.000 
#
# Total GULP energy -89225.336264 kJ/mol
# GULP energy per Si atom -5576.583517 kJ/mol
# Density = 2.261972 g / cm^3
# Si number density = 22.671323 Si / 1000 Ang^3
#
#
#
# Elastic Constant Matrix: (Units=GPa)
#
#
# Indices 1 2 3 4 5 6 
#
# 1 40.1079 26.1392 7.8819 -8.1562 9.5476 -13.2539
# 2 26.1392 101.8186 40.9802 -13.9206 13.3004 -35.5912
# 3 7.8819 40.9802 76.3785 -11.0544 26.4446 -13.2802
# 4 -8.1562 -13.9206 -11.0544 57.0657 -15.0448 6.3584
# 5 9.5476 13.3004 26.4446 -15.0448 35.1107 -6.5315
# 6 -13.2539 -35.5912 -13.2802 6.3584 -6.5315 47.4313
#
#
#
# Elastic Compliance Matrix: (Units=1/GPa)
#
#
# Indices 1 2 3 4 5 6 
#
# 1 0.032302 -0.007707 0.004299 0.001094 -0.008039 0.003193
# 2 -0.007707 0.018242 -0.008513 0.001723 0.004100 0.009485
# 3 0.004299 -0.008513 0.022194 -0.001093 -0.015302 -0.000933
# 4 0.001094 0.001723 -0.001093 0.020146 0.008460 -0.000243
# 5 -0.008039 0.004100 -0.015302 0.008460 0.044553 0.001547
# 6 0.003193 0.009485 -0.000933 -0.000243 0.001547 0.029077
#
#
# Mechanical properties :
#
#
# Convention : Reuss Voigt Hill
#
# Bulk Modulus (GPa) = 20.45187 40.92306 30.68746
# Shear Modulus (GPa) = 24.19489 37.47514 30.83501
#
# Velocity S-wave (km/s) = 3.27035 4.07009 3.69194
# Velocity P-wave (km/s) = 4.82710 6.33856 5.63374
#
# Compressibility (1/GPa) = 0.04889529
#
# Stress axis : x y z
#
# Youngs Moduli (GPa) = 30.95771 54.81934 45.05626
#
# Poissons Ratio (x) = 0.42249 -0.19368
# Poissons Ratio (y) = 0.23859 0.38357
# Poissons Ratio (z) = -0.13308 0.46669
#
# Static dielectric constant tensor:
#      x y z
#    x -0.251870 -2.803900 3.101600 
#    y -2.803900 -1.578550 4.088200 
#    z 3.101600 4.088200 -2.792610 
# 
# From -- ./inp_files/206452.got.cif
#   From: 2010.05.17/outbox.cif.g08.bks.cpg/sg2_104_cif.got.tgz:206452.got - 2010.06.03 11:33:40.
