data_PCOD9021437
_publ_section_title
;
Structure prediction by ZEFSAII (Michael W. Deem and Ramdas Pophale) SiO2 
 PCOD9021437
Probable space group: P -1
;
_chemical_formula_sum "Si O2"
_cell_formula_units_Z 16
_cell_length_a 7.918513
_cell_length_b 11.443419
_cell_length_c 14.892602
_cell_angle_alpha 59.185354
_cell_angle_beta 81.625145
_cell_angle_gamma 37.954321
_cell_volume 621.792016
_symmetry_space_group_name_H-M "P -1"
_symmetry_group_IT_number 2
_symmetry_cell_setting 'triclinic'
loop_
_space_group_symop_operation_xyz
x,y,z
-x,-y,-z
loop_
_atom_site_type_symbol
_atom_site_label
_atom_site_fract_x
_atom_site_fract_y
_atom_site_fract_z
Si Si1 0.818286 0.476653 0.515255
Si Si2 0.699887 0.698276 0.688419
Si Si3 0.926382 0.396364 0.076550
Si Si4 0.727795 0.093039 0.738896
Si Si5 0.025843 0.733569 0.219195
Si Si6 0.872371 0.876691 0.539962
Si Si7 0.404106 0.480611 0.769511
Si Si8 0.388992 0.785961 0.849147
O O1 0.468352 0.740747 0.400889
O O2 0.859618 0.366537 0.647273
O O3 0.000000 0.500000 0.500000
O O4 0.977091 0.278877 0.503078
O O5 0.997267 0.401359 0.766449
O O6 0.770474 0.807600 0.626668
O O7 0.443278 0.836329 0.576398
O O8 0.539361 0.775963 0.763719
O O9 0.753041 0.493873 0.146894
O O10 0.229622 0.096295 0.176501
O O11 0.678008 0.509958 0.976949
O O12 0.000000 0.500000 0.000000
O O13 0.543996 0.285949 0.759689
O O14 0.084970 0.911077 0.785441
O O15 0.303061 0.621330 0.186368
O O16 0.739704 0.028052 0.135475
O O17 0.143564 0.748939 0.633780
#
# Coordination Sequence:
#
# PCOD9021437 Si02
#       8
#     2   2   2   2   2   2   2   2
#     4  11  22  41  69 100 140 169 218 269 335 401
#     4  11  22  37  62  97 128 179 210 270 326 388
#     4  12  27  45  72  94 131 180 227 274 319 391
#     4  10  26  44  69  98 133 176 216 277 331 386
#     4  11  24  39  68  98 129 177 208 272 331 389
#     4  10  22  38  61  93 141 166 217 269 323 393
#     4  10  25  44  63 100 130 169 224 268 329 394
#     4  11  25  44  66  96 138 171 227 267 328 390
#
# _framework density 25.732078999999999
#
# number of rings (size 3 to 8) (size 9 to 14) (size 15 to 20)
#    0.000    1.250    2.500    1.875    5.250    5.500 
#    0.000    0.000    0.000    0.000    0.000    0.000 
#    0.000    0.000    0.000    0.000    0.000    0.000 
#
# Total GULP energy -89646.176988 kJ/mol
# GULP energy per Si atom -5602.886062 kJ/mol
# Density = 2.567351 g / cm^3
# Si number density = 25.732079 Si / 1000 Ang^3
#
#
#
# Elastic Constant Matrix: (Units=GPa)
#
#
# Indices 1 2 3 4 5 6 
#
# 1 82.8209 -2.6150 14.8183 6.5546 -1.7372 -4.7716
# 2 -2.6150 69.3775 9.3801 1.6010 -0.3236 -6.2900
# 3 14.8183 9.3801 79.7818 2.3580 5.0120 -12.3432
# 4 6.5546 1.6010 2.3580 45.8416 -4.6981 -4.9369
# 5 -1.7372 -0.3236 5.0120 -4.6981 45.9080 -6.2769
# 6 -4.7716 -6.2900 -12.3432 -4.9369 -6.2769 30.1555
#
#
#
# Elastic Compliance Matrix: (Units=1/GPa)
#
#
# Indices 1 2 3 4 5 6 
#
# 1 0.012718 0.000934 -0.002292 -0.001531 0.000742 0.001173
# 2 0.000934 0.014913 -0.001540 -0.000214 0.000660 0.002731
# 3 -0.002292 -0.001540 0.013947 0.000088 -0.000949 0.004842
# 4 -0.001531 -0.000214 0.000088 0.022762 0.002816 0.004062
# 5 0.000742 0.000660 -0.000949 0.002816 0.022904 0.005095
# 6 0.001173 0.002731 0.004842 0.004062 0.005095 0.037624
#
#
# Mechanical properties :
#
#
# Convention : Reuss Voigt Hill
#
# Bulk Modulus (GPa) = 27.94566 30.57189 29.25878
# Shear Modulus (GPa) = 35.06558 38.40749 36.73653
#
# Velocity S-wave (km/s) = 3.69551 3.86760 3.78253
# Velocity P-wave (km/s) = 5.39378 5.64368 5.52014
#
# Compressibility (1/GPa) = 0.03578373
#
# Stress axis : x y z
#
# Youngs Moduli (GPa) = 78.62795 67.05630 71.69997
#
# Poissons Ratio (x) = -0.06266 0.16433
# Poissons Ratio (y) = -0.07347 0.11039
# Poissons Ratio (z) = 0.18021 0.10324
#
# Static dielectric constant tensor:
#      x y z
#    x 2.138520 0.021920 0.013050 
#    y 0.021920 2.045470 -0.021220 
#    z 0.013050 -0.021220 1.967050 
# 
# From -- ./inp_files/559012.got.cif
#   From: 2010.05.17/outbox.cif.g08.bks.cpg/sg2_280_cif.got.tgz:559012.got - 2010.06.03 11:33:40.
