data_PCOD9021835
_publ_section_title
;
Structure prediction by ZEFSAII (Michael W. Deem and Ramdas Pophale) SiO2 
 PCOD9021835
Probable space group: P -1
;
_chemical_formula_sum "Si O2"
_cell_formula_units_Z 14
_cell_length_a 12.760912
_cell_length_b 7.265449
_cell_length_c 12.321880
_cell_angle_alpha 129.569837
_cell_angle_beta 134.714827
_cell_angle_gamma 49.737522
_cell_volume 583.432234
_symmetry_space_group_name_H-M "P -1"
_symmetry_group_IT_number 2
_symmetry_cell_setting 'triclinic'
loop_
_space_group_symop_operation_xyz
x,y,z
-x,-y,-z
loop_
_atom_site_type_symbol
_atom_site_label
_atom_site_fract_x
_atom_site_fract_y
_atom_site_fract_z
Si Si1 0.005790 0.305921 0.335887
Si Si2 0.089610 0.871840 0.405661
Si Si3 0.486216 0.754690 0.152602
Si Si4 0.345890 0.618892 0.199061
Si Si5 0.344350 0.061358 0.480173
Si Si6 0.864115 0.604542 0.143185
Si Si7 0.388754 0.898071 0.752895
O O1 0.175857 0.229198 0.373210
O O2 0.000000 0.500000 0.500000
O O3 0.878526 0.442436 0.204176
O O4 0.017072 0.058118 0.320654
O O5 0.029532 0.639124 0.256852
O O6 0.268218 0.847022 0.558334
O O7 0.000000 0.000000 0.500000
O O8 0.354403 0.780844 0.158170
O O9 0.631563 0.772773 0.339289
O O10 0.484098 0.984711 0.158079
O O11 0.500000 0.500000 0.000000
O O12 0.338250 0.775831 0.361964
O O13 0.198073 0.532538 0.045890
O O14 0.507708 0.371557 0.220649
O O15 0.500000 0.000000 0.500000
O O16 0.727299 0.881543 0.171586
#
# Coordination Sequence:
#
# PCOD9021835 Si02
#       7
#     2   2   2   2   2   2   2
#     4  12  22  44  72  97 141 184 245 290 345 432
#     4  10  22  38  66 103 132 178 235 287 352 402
#     4  11  22  41  70 100 133 182 240 284 348 414
#     4  11  26  44  65 102 151 179 233 297 356 429
#     4  10  25  45  70 104 142 191 229 293 374 412
#     4  11  24  39  66 105 134 188 235 295 345 416
#     4  11  22  41  69 102 136 186 238 288 353 415
#
# _framework density 23.995933000000001
#
# number of rings (size 3 to 8) (size 9 to 14) (size 15 to 20)
#    0.000    1.143    5.714    0.429    4.000    4.571 
#    0.000    0.714    0.000    0.000    0.000    0.000 
#    0.000    0.000    0.000    0.000    0.000    0.000 
#
# Total GULP energy -77973.682671 kJ/mol
# GULP energy per Si atom -5569.548762 kJ/mol
# Density = 2.394132 g / cm^3
# Si number density = 23.995933 Si / 1000 Ang^3
#
#
#
# Elastic Constant Matrix: (Units=GPa)
#
#
# Indices 1 2 3 4 5 6 
#
# 1 83.6019 21.7825 34.3083 8.0388 6.5764 5.1658
# 2 21.7825 95.0699 34.5019 -1.5362 5.9306 8.0502
# 3 34.3083 34.5019 207.3820 5.9123 16.9925 10.6650
# 4 8.0388 -1.5362 5.9123 15.5757 3.0575 1.8029
# 5 6.5764 5.9306 16.9925 3.0575 41.8635 10.3607
# 6 5.1658 8.0502 10.6650 1.8029 10.3607 33.8590
#
#
#
# Elastic Compliance Matrix: (Units=1/GPa)
#
#
# Indices 1 2 3 4 5 6 
#
# 1 0.014040 -0.002664 -0.001617 -0.006730 -0.000564 -0.000468
# 2 -0.002664 0.011926 -0.001504 0.003436 -0.000414 -0.002012
# 3 -0.001617 -0.001504 0.005528 -0.001037 -0.001551 -0.000607
# 4 -0.006730 0.003436 -0.001037 0.069347 -0.003562 -0.002066
# 5 -0.000564 -0.000414 -0.001551 -0.003562 0.026735 -0.007318
# 6 -0.000468 -0.002012 -0.000607 -0.002066 -0.007318 0.032625
#
#
# Mechanical properties :
#
#
# Convention : Reuss Voigt Hill
#
# Bulk Modulus (GPa) = 50.19221 63.02656 56.60939
# Shear Modulus (GPa) = 28.02504 37.95704 32.99104
#
# Velocity S-wave (km/s) = 3.42117 3.98151 3.71193
# Velocity P-wave (km/s) = 6.04717 6.88906 6.48180
#
# Compressibility (1/GPa) = 0.01992341
#
# Stress axis : x y z
#
# Youngs Moduli (GPa) = 71.22693 83.84740 180.90852
#
# Poissons Ratio (x) = 0.22335 0.29258
# Poissons Ratio (y) = 0.18973 0.27211
# Poissons Ratio (z) = 0.11520 0.12612
#
# Static dielectric constant tensor:
#      x y z
#    x 1.987310 0.117280 0.039770 
#    y 0.117280 1.873090 -0.006820 
#    z 0.039770 -0.006820 1.956490 
# 
# From -- ./inp_files/527953.got.cif
#   From: 2010.05.17/outbox.cif.g08.bks.cpg/sg2_264_cif.got.tgz:527953.got - 2010.06.03 11:33:40.
