data_PCOD9021715
_publ_section_title
;
Structure prediction by ZEFSAII (Michael W. Deem and Ramdas Pophale) SiO2 
 PCOD9021715
Probable space group: P -1
;
_chemical_formula_sum "Si O2"
_cell_formula_units_Z 16
_cell_length_a 11.393278
_cell_length_b 11.250774
_cell_length_c 11.115739
_cell_angle_alpha 113.629709
_cell_angle_beta 32.980594
_cell_angle_gamma 115.567574
_cell_volume 697.486122
_symmetry_space_group_name_H-M "P -1"
_symmetry_group_IT_number 2
_symmetry_cell_setting 'triclinic'
loop_
_space_group_symop_operation_xyz
x,y,z
-x,-y,-z
loop_
_atom_site_type_symbol
_atom_site_label
_atom_site_fract_x
_atom_site_fract_y
_atom_site_fract_z
Si Si1 0.823751 0.646169 0.200493
Si Si2 0.724711 0.479010 0.855475
Si Si3 0.019210 0.976946 0.614134
Si Si4 0.759758 0.246102 0.580358
Si Si5 0.987782 0.750932 0.853261
Si Si6 0.534739 0.830445 0.612231
Si Si7 0.757044 0.357982 0.033512
Si Si8 0.303009 0.057384 0.913088
O O1 0.616169 0.717196 0.418546
O O2 0.750187 0.492700 0.168521
O O3 0.976833 0.712599 0.985929
O O4 0.989860 0.660933 0.176870
O O5 0.813712 0.393603 0.641935
O O6 0.850065 0.620787 0.851906
O O7 0.500000 0.500000 0.000000
O O8 0.700905 0.386219 0.956872
O O9 0.068030 0.832167 0.539476
O O10 0.812213 0.988692 0.879580
O O11 0.000000 0.000000 0.500000
O O12 0.234158 0.076312 0.515859
O O13 0.516780 0.171627 0.793973
O O14 0.787925 0.231321 0.407026
O O15 0.869918 0.875403 0.984511
O O16 0.410847 0.758282 0.805586
O O17 0.386473 0.932444 0.732879
#
# Coordination Sequence:
#
# PCOD9021715 Si02
#       8
#     2   2   2   2   2   2   2   2
#     4  10  23  45  65  95 132 172 217 268 315 381
#     4  11  22  41  68  96 130 167 213 272 327 388
#     4  10  24  39  63  93 134 173 211 265 320 389
#     4  10  22  38  64  96 127 169 211 264 328 380
#     4  10  22  43  64  94 134 168 219 266 319 383
#     4  11  23  40  67  94 130 173 216 262 325 375
#     4  10  24  43  66  97 131 167 220 267 319 388
#     4  10  22  41  61  96 129 161 217 262 319 382
#
# _framework density 22.939525
#
# number of rings (size 3 to 8) (size 9 to 14) (size 15 to 20)
#    0.000    1.750    1.250    1.500    5.250    2.500 
#    6.750    8.750    0.000    0.000    0.000    0.000 
#    0.000    0.000    0.000    0.000    0.000    0.000 
#
# Total GULP energy -89444.254041 kJ/mol
# GULP energy per Si atom -5590.265878 kJ/mol
# Density = 2.288731 g / cm^3
# Si number density = 22.939525 Si / 1000 Ang^3
#
#
#
# Elastic Constant Matrix: (Units=GPa)
#
#
# Indices 1 2 3 4 5 6 
#
# 1 92.7874 20.3657 30.0302 2.7963 7.5643 -12.0279
# 2 20.3657 111.4390 54.6356 12.3593 -7.7958 -12.4360
# 3 30.0302 54.6356 105.9347 7.1761 -5.0856 -6.7242
# 4 2.7963 12.3593 7.1761 55.4088 -10.0869 -4.5121
# 5 7.5643 -7.7958 -5.0856 -10.0869 18.2526 -4.8210
# 6 -12.0279 -12.4360 -6.7242 -4.5121 -4.8210 31.3101
#
#
#
# Elastic Compliance Matrix: (Units=1/GPa)
#
#
# Indices 1 2 3 4 5 6 
#
# 1 0.012943 -0.000750 -0.003344 -0.000991 -0.006417 0.002825
# 2 -0.000750 0.012893 -0.005882 -0.000860 0.004809 0.004186
# 3 -0.003344 -0.005882 0.013519 0.000194 0.002674 -0.000278
# 4 -0.000991 -0.000860 0.000194 0.020948 0.012813 0.004311
# 5 -0.006417 0.004809 0.002674 0.012813 0.070694 0.012751
# 6 0.002825 0.004186 -0.000278 0.004311 0.012751 0.037212
#
#
# Mechanical properties :
#
#
# Convention : Reuss Voigt Hill
#
# Bulk Modulus (GPa) = 51.53650 57.80268 54.66959
# Shear Modulus (GPa) = 25.68983 34.66961 30.17972
#
# Velocity S-wave (km/s) = 3.35011 3.89182 3.63108
# Velocity P-wave (km/s) = 6.12204 6.74148 6.43921
#
# Compressibility (1/GPa) = 0.01940372
#
# Stress axis : x y z
#
# Youngs Moduli (GPa) = 77.25899 77.55857 73.96876
#
# Poissons Ratio (x) = 0.05814 0.24737
# Poissons Ratio (y) = 0.05791 0.43512
# Poissons Ratio (z) = 0.25837 0.45623
#
# Static dielectric constant tensor:
#      x y z
#    x 1.853230 -0.024440 -0.025570 
#    y -0.024440 1.889640 0.035500 
#    z -0.025570 0.035500 1.908350 
# 
# From -- ./inp_files/69771.got.cif
#   From: 2010.05.17/outbox.cif.g08.bks.cpg/sg2_35_cif.got.tgz:69771.got - 2010.06.03 11:33:40.
