data_PCOD9021040
_publ_section_title
;
Structure prediction by ZEFSAII (Michael W. Deem and Ramdas Pophale) SiO2 
 PCOD9021040
Probable space group: P -1
;
_chemical_formula_sum "Si O2"
_cell_formula_units_Z 16
_cell_length_a 9.709416
_cell_length_b 9.525097
_cell_length_c 13.326822
_cell_angle_alpha 123.790346
_cell_angle_beta 45.868038
_cell_angle_gamma 105.962703
_cell_volume 722.051476
_symmetry_space_group_name_H-M "P -1"
_symmetry_group_IT_number 2
_symmetry_cell_setting 'triclinic'
loop_
_space_group_symop_operation_xyz
x,y,z
-x,-y,-z
loop_
_atom_site_type_symbol
_atom_site_label
_atom_site_fract_x
_atom_site_fract_y
_atom_site_fract_z
Si Si1 0.510239 0.351313 0.017146
Si Si2 0.947307 0.753871 0.549882
Si Si3 0.412852 0.945560 0.655887
Si Si4 0.198459 0.955054 0.580049
Si Si5 0.191432 0.801642 0.042587
Si Si6 0.944580 0.818304 0.992063
Si Si7 0.921409 0.607006 0.718487
Si Si8 0.511593 0.953735 0.825244
O O1 0.303002 0.398923 0.196600
O O2 0.500000 0.500000 0.000000
O O3 0.693826 0.334589 0.991914
O O4 0.511263 0.157454 0.899136
O O5 0.964410 0.586624 0.407265
O O6 0.989272 0.694063 0.620224
O O7 0.732942 0.864816 0.697536
O O8 0.126587 0.852023 0.483016
O O9 0.298160 0.863406 0.594975
O O10 0.445162 0.876632 0.724463
O O11 0.626247 0.957384 0.512826
O O12 0.263901 0.127630 0.824246
O O13 0.997926 0.080554 0.764365
O O14 0.353702 0.914234 0.970795
O O15 0.103822 0.734672 0.959430
O O16 0.931053 0.709630 0.856474
O O17 0.000000 0.000000 0.000000
#
# Coordination Sequence:
#
# PCOD9021040 Si02
#       8
#     2   2   2   2   2   2   2   2
#     4  12  25  41  67  99 138 178 229 288 345 402
#     4  11  24  40  68  96 144 176 223 284 346 406
#     4  10  22  37  65 104 132 170 231 279 336 412
#     4  10  22  40  64  99 138 175 221 281 348 407
#     4  11  22  42  73 100 128 185 237 280 336 416
#     4  11  20  39  74  99 131 178 234 280 341 405
#     4  11  24  42  62 105 136 176 226 288 340 409
#     4  12  22  42  73 102 128 182 243 278 335 421
#
# _framework density 22.159084
#
# number of rings (size 3 to 8) (size 9 to 14) (size 15 to 20)
#    0.000    1.000    5.000    2.625    1.750    1.500 
#    0.000    2.500    0.000    0.000    0.000    0.000 
#    0.000    0.000    0.000    0.000    0.000    0.000 
#
# Total GULP energy -89309.200355 kJ/mol
# GULP energy per Si atom -5581.825022 kJ/mol
# Density = 2.210865 g / cm^3
# Si number density = 22.159084 Si / 1000 Ang^3
#
#
#
# Elastic Constant Matrix: (Units=GPa)
#
#
# Indices 1 2 3 4 5 6 
#
# 1 163.1461 39.2818 44.3641 2.7441 -16.7641 -0.7581
# 2 39.2818 57.8940 40.9457 -0.1518 -16.7140 -4.6721
# 3 44.3641 40.9457 101.6861 2.1064 -17.2179 14.5410
# 4 2.7441 -0.1518 2.1064 29.4399 4.8299 -5.5106
# 5 -16.7641 -16.7140 -17.2179 4.8299 42.2670 -7.2921
# 6 -0.7581 -4.6721 14.5410 -5.5106 -7.2921 26.9994
#
#
#
# Elastic Compliance Matrix: (Units=1/GPa)
#
#
# Indices 1 2 3 4 5 6 
#
# 1 0.007590 -0.003492 -0.001815 -0.000634 0.001092 0.000752
# 2 -0.003492 0.031777 -0.011988 0.002702 0.008527 0.014711
# 3 -0.001815 -0.011988 0.017233 -0.003373 -0.000148 -0.012135
# 4 -0.000634 0.002702 -0.003373 0.036462 -0.003198 0.008844
# 5 0.001092 0.008527 -0.000148 -0.003198 0.029295 0.008845
# 6 0.000752 0.014711 -0.012135 0.008844 0.008845 0.050334
#
#
# Mechanical properties :
#
#
# Convention : Reuss Voigt Hill
#
# Bulk Modulus (GPa) = 45.43249 63.54548 54.48898
# Shear Modulus (GPa) = 23.29723 32.95024 28.12374
#
# Velocity S-wave (km/s) = 3.24599 3.86033 3.56641
# Velocity P-wave (km/s) = 5.88183 6.97199 6.44999
#
# Compressibility (1/GPa) = 0.02201068
#
# Stress axis : x y z
#
# Youngs Moduli (GPa) = 131.74898 31.46946 58.02814
#
# Poissons Ratio (x) = 0.10990 0.10530
# Poissons Ratio (y) = 0.46010 0.69563
# Poissons Ratio (z) = 0.23908 0.37725
#
# Static dielectric constant tensor:
#      x y z
#    x 1.853060 0.014550 0.037960 
#    y 0.014550 1.927990 -0.008460 
#    z 0.037960 -0.008460 1.826860 
# 
# From -- ./inp_files/499373.got.cif
#   From: 2010.05.17/outbox.cif.g08.bks.cpg/sg2_250_cif.got.tgz:499373.got - 2010.06.03 11:33:40.
