data_PCOD9021470
_publ_section_title
;
Structure prediction by ZEFSAII (Michael W. Deem and Ramdas Pophale) SiO2 
 PCOD9021470
Probable space group: P -1
;
_chemical_formula_sum "Si O2"
_cell_formula_units_Z 12
_cell_length_a 9.487427
_cell_length_b 13.881789
_cell_length_c 7.007290
_cell_angle_alpha 60.207721
_cell_angle_beta 101.023104
_cell_angle_gamma 137.793489
_cell_volume 512.704657
_symmetry_space_group_name_H-M "P -1"
_symmetry_group_IT_number 2
_symmetry_cell_setting 'triclinic'
loop_
_space_group_symop_operation_xyz
x,y,z
-x,-y,-z
loop_
_atom_site_type_symbol
_atom_site_label
_atom_site_fract_x
_atom_site_fract_y
_atom_site_fract_z
Si Si1 0.840032 0.316349 0.542934
Si Si2 0.449609 0.228076 0.646709
Si Si3 0.888624 0.830110 0.536894
Si Si4 0.187160 0.948916 0.150562
Si Si5 0.006412 0.348077 0.132156
Si Si6 0.644285 0.296369 0.010826
O O1 0.595973 0.225814 0.572560
O O2 0.833947 0.192413 0.760487
O O3 0.923310 0.332965 0.337991
O O4 0.000000 0.500000 0.500000
O O5 0.363721 0.281420 0.453225
O O6 0.595625 0.338724 0.764002
O O7 0.241003 0.045595 0.874665
O O8 0.988929 0.869351 0.312440
O O9 0.940542 0.750100 0.749961
O O10 0.000000 0.000000 0.500000
O O11 0.407896 0.104178 0.180917
O O12 0.232336 0.549112 0.965899
O O13 0.811399 0.292294 0.018705
#
# Coordination Sequence:
#
# PCOD9021470 Si02
#       6
#     2   2   2   2   2   2
#     4  11  20  37  62  96 115 154 205 248 291 357
#     4  10  22  38  62  88 121 157 197 242 306 353
#     4  11  25  39  59  91 124 156 202 245 304 350
#     4   9  22  40  61  83 123 164 193 246 294 358
#     4  10  22  41  62  89 123 157 196 258 286 355
#     4   9  21  41  64  83 122 157 208 233 305 341
#
# _framework density 23.405287999999999
#
# number of rings (size 3 to 8) (size 9 to 14) (size 15 to 20)
#    1.000    1.000    1.667    1.000    4.667    2.000 
#    0.000    0.833    0.000    0.000    0.000    0.000 
#    0.000    0.000    0.000    0.000    0.000    0.000 
#
# Total GULP energy -66917.814913 kJ/mol
# GULP energy per Si atom -5576.484576 kJ/mol
# Density = 2.335202 g / cm^3
# Si number density = 23.405288 Si / 1000 Ang^3
#
#
#
# Elastic Constant Matrix: (Units=GPa)
#
#
# Indices 1 2 3 4 5 6 
#
# 1 172.0818 39.6727 25.4987 -13.3363 36.8501 -3.0764
# 2 39.6727 55.0842 0.1726 -6.3655 12.7413 -7.3965
# 3 25.4987 0.1726 54.8237 -11.7486 15.0465 -10.5287
# 4 -13.3363 -6.3655 -11.7486 29.4625 -8.5265 8.6902
# 5 36.8501 12.7413 15.0465 -8.5265 45.6112 6.3637
# 6 -3.0764 -7.3965 -10.5287 8.6902 6.3637 39.6023
#
#
#
# Elastic Compliance Matrix: (Units=1/GPa)
#
#
# Indices 1 2 3 4 5 6 
#
# 1 0.008300 -0.004971 -0.002634 0.000509 -0.004296 -0.000405
# 2 -0.004971 0.023805 0.005042 0.001826 -0.004759 0.005764
# 3 -0.002634 0.005042 0.023908 0.005263 -0.007172 0.007091
# 4 0.000509 0.001826 0.005263 0.040844 0.006118 -0.008166
# 5 -0.004296 -0.004759 -0.007172 0.006118 0.031566 -0.009544
# 6 -0.000405 0.005764 0.007091 -0.008166 -0.009544 0.031507
#
#
# Mechanical properties :
#
#
# Convention : Reuss Voigt Hill
#
# Bulk Modulus (GPa) = 19.65248 45.85309 32.75279
# Shear Modulus (GPa) = 27.46971 37.37824 32.42398
#
# Velocity S-wave (km/s) = 3.42958 4.00058 3.72604
# Velocity P-wave (km/s) = 4.90892 6.40102 5.70397
#
# Compressibility (1/GPa) = 0.05088415
#
# Stress axis : x y z
#
# Youngs Moduli (GPa) = 120.48416 42.00867 41.82740
#
# Poissons Ratio (x) = 0.20884 0.11019
# Poissons Ratio (y) = 0.59897 -0.21088
# Poissons Ratio (z) = 0.31741 -0.21180
#
# Static dielectric constant tensor:
#      x y z
#    x 1.861580 0.038570 -0.004780 
#    y 0.038570 1.940990 0.052400 
#    z -0.004780 0.052400 1.989530 
# 
# From -- ./inp_files/175230.got.cif
#   From: 2010.05.17/outbox.cif.g08.bks.cpg/sg2_88_cif.got.tgz:175230.got - 2010.06.03 11:33:40.
