data_PCOD9021976
_publ_section_title
;
Structure prediction by ZEFSAII (Michael W. Deem and Ramdas Pophale) SiO2 
 PCOD9021976
Probable space group: P -1
;
_chemical_formula_sum "Si O2"
_cell_formula_units_Z 15
_cell_length_a 9.528503
_cell_length_b 6.655884
_cell_length_c 11.465621
_cell_angle_alpha 98.966516
_cell_angle_beta 115.448905
_cell_angle_gamma 87.106543
_cell_volume 648.465011
_symmetry_space_group_name_H-M "P -1"
_symmetry_group_IT_number 2
_symmetry_cell_setting 'triclinic'
loop_
_space_group_symop_operation_xyz
x,y,z
-x,-y,-z
loop_
_atom_site_type_symbol
_atom_site_label
_atom_site_fract_x
_atom_site_fract_y
_atom_site_fract_z
Si Si1 0.500000 0.000000 0.500000
Si Si2 0.121135 0.687482 0.554229
Si Si3 0.138506 0.789494 0.317738
Si Si4 0.522506 0.327759 0.328844
Si Si5 0.573551 0.229996 0.715260
Si Si6 0.879930 0.080980 0.182317
Si Si7 0.325184 0.066929 0.090475
Si Si8 0.932055 0.619741 0.876965
O O1 0.465442 0.214579 0.415465
O O2 0.423862 0.112948 0.603056
O O3 0.090520 0.806499 0.434813
O O4 0.297038 0.616822 0.592361
O O5 0.123459 0.821943 0.683130
O O6 0.000000 0.500000 0.500000
O O7 0.318534 0.862334 0.363288
O O8 0.128673 0.557449 0.248550
O O9 0.018938 0.920067 0.214197
O O10 0.439756 0.535312 0.282797
O O11 0.483797 0.183572 0.190840
O O12 0.653921 0.144147 0.849787
O O13 0.931374 0.258101 0.128103
O O14 0.726627 0.975285 0.063255
O O15 0.193523 0.213110 0.112858
O O16 0.000000 0.500000 0.000000
#
# Coordination Sequence:
#
# PCOD9021976 Si02
#       8
#     1   2   2   2   2   2   2   2
#     4  10  22  38  68 104 138 180 226 306 354 404
#     4  12  28  50  70  99 146 201 234 285 354 440
#     4  12  23  43  73 103 140 184 236 295 355 420
#     4  11  25  45  71 107 141 183 242 292 365 417
#     4  11  22  40  71 108 141 177 234 309 352 412
#     4  12  26  45  69 103 150 188 236 281 357 440
#     4  11  24  42  71 110 140 182 235 302 362 405
#     4  12  22  40  74 106 140 179 239 303 355 407
#
# _framework density 23.131550000000001
#
# number of rings (size 3 to 8) (size 9 to 14) (size 15 to 20)
#    0.000    0.533    6.667    2.000    0.000    1.600 
#    4.800    0.667    0.000    0.000    0.000    0.000 
#    0.000    0.000    0.000    0.000    0.000    0.000 
#
# Total GULP energy -83605.975515 kJ/mol
# GULP energy per Si atom -5573.731701 kJ/mol
# Density = 2.307890 g / cm^3
# Si number density = 23.131550 Si / 1000 Ang^3
#
#
#
# Elastic Constant Matrix: (Units=GPa)
#
#
# Indices 1 2 3 4 5 6 
#
# 1 53.8172 26.4382 22.7050 -0.9263 8.6639 12.4470
# 2 26.4382 149.0166 57.5909 -18.2947 5.1426 -4.1220
# 3 22.7050 57.5909 161.9732 10.1202 12.4872 2.6577
# 4 -0.9263 -18.2947 10.1202 48.1048 -2.7368 4.7357
# 5 8.6639 5.1426 12.4872 -2.7368 35.0315 6.0484
# 6 12.4470 -4.1220 2.6577 4.7357 6.0484 26.5232
#
#
#
# Elastic Compliance Matrix: (Units=1/GPa)
#
#
# Indices 1 2 3 4 5 6 
#
# 1 0.024217 -0.003836 -0.001643 0.000291 -0.002886 -0.011190
# 2 -0.003836 0.009075 -0.003009 0.003772 0.000514 0.002721
# 3 -0.001643 -0.003009 0.007828 -0.003009 -0.002277 0.000575
# 4 0.000291 0.003772 -0.003009 0.023436 0.002988 -0.004115
# 5 -0.002886 0.000514 -0.002277 0.002988 0.031265 -0.006001
# 6 -0.011190 0.002721 0.000575 -0.004115 -0.006001 0.045423
#
#
# Mechanical properties :
#
#
# Convention : Reuss Voigt Hill
#
# Bulk Modulus (GPa) = 41.41759 64.25279 52.83519
# Shear Modulus (GPa) = 30.07232 39.13675 34.60454
#
# Velocity S-wave (km/s) = 3.60954 4.11776 3.87200
# Velocity P-wave (km/s) = 5.94271 7.10249 6.54833
#
# Compressibility (1/GPa) = 0.02414433
#
# Stress axis : x y z
#
# Youngs Moduli (GPa) = 41.29415 110.19787 127.74620
#
# Poissons Ratio (x) = 0.42270 0.20987
# Poissons Ratio (y) = 0.15840 0.38436
# Poissons Ratio (z) = 0.06784 0.33156
#
# Static dielectric constant tensor:
#      x y z
#    x 1.950340 0.040090 0.080310 
#    y 0.040090 1.929400 0.057150 
#    z 0.080310 0.057150 2.021520 
# 
# From -- ./inp_files/409527.got.cif
#   From: 2010.05.17/outbox.cif.g08.bks.cpg/sg2_205_cif.got.tgz:409527.got - 2010.06.03 11:33:40.
