data_PCOD9021541
_publ_section_title
;
Structure prediction by ZEFSAII (Michael W. Deem and Ramdas Pophale) SiO2 
 PCOD9021541
Probable space group: P -1
;
_chemical_formula_sum "Si O2"
_cell_formula_units_Z 16
_cell_length_a 8.773595
_cell_length_b 10.610340
_cell_length_c 7.761358
_cell_angle_alpha 87.134339
_cell_angle_beta 82.323840
_cell_angle_gamma 70.996106
_cell_volume 676.993880
_symmetry_space_group_name_H-M "P -1"
_symmetry_group_IT_number 2
_symmetry_cell_setting 'triclinic'
loop_
_space_group_symop_operation_xyz
x,y,z
-x,-y,-z
loop_
_atom_site_type_symbol
_atom_site_label
_atom_site_fract_x
_atom_site_fract_y
_atom_site_fract_z
Si Si1 0.009971 0.942264 0.274540
Si Si2 0.328262 0.336855 0.764045
Si Si3 0.675166 0.226526 0.644789
Si Si4 0.420221 0.610349 0.707700
Si Si5 0.864976 0.208676 0.091503
Si Si6 0.888516 0.729218 0.490246
Si Si7 0.876652 0.656948 0.867596
Si Si8 0.207790 0.548967 0.311802
O O1 0.178151 0.909778 0.357379
O O2 0.910469 0.859369 0.391746
O O3 0.916775 0.095590 0.240788
O O4 0.063788 0.873326 0.084805
O O5 0.502693 0.223039 0.731617
O O6 0.366630 0.477310 0.738144
O O7 0.221016 0.322590 0.619288
O O8 0.242105 0.318405 0.954141
O O9 0.641304 0.307850 0.464451
O O10 0.734523 0.326078 0.751648
O O11 0.615876 0.562239 0.681346
O O12 0.325566 0.710883 0.863709
O O13 0.961475 0.312813 0.104478
O O14 0.824128 0.742536 0.693448
O O15 0.069400 0.616928 0.470283
O O16 0.886103 0.510648 0.808819
#
# Coordination Sequence:
#
# PCOD9021541 Si02
#       8
#     2   2   2   2   2   2   2   2
#     4  10  24  45  67  88 128 166 221 276 309 368
#     4  11  24  41  66 104 136 165 208 260 322 384
#     4  10  22  42  65  94 133 171 204 266 316 374
#     4  11  23  40  66  94 132 169 213 254 318 389
#     4  11  24  44  66  94 121 171 222 266 317 378
#     4  11  22  43  66  97 134 167 211 263 316 379
#     4  12  24  38  68  97 129 173 206 261 321 382
#     4  10  22  38  62  98 130 166 202 259 314 379
#
# _framework density 23.633891999999999
#
# number of rings (size 3 to 8) (size 9 to 14) (size 15 to 20)
#    0.000    1.250    1.250    5.625    5.250    4.000 
#    0.000    1.875    0.000    3.000    0.000    0.000 
#    0.000    0.000    0.000    0.000    0.000    0.000 
#
# Total GULP energy -89403.023545 kJ/mol
# GULP energy per Si atom -5587.688972 kJ/mol
# Density = 2.358010 g / cm^3
# Si number density = 23.633892 Si / 1000 Ang^3
#
#
#
# Elastic Constant Matrix: (Units=GPa)
#
#
# Indices 1 2 3 4 5 6 
#
# 1 107.1081 49.2559 21.2863 -2.2233 -22.6196 -0.2510
# 2 49.2559 107.6178 36.9237 -12.9682 -6.0879 -12.5367
# 3 21.2863 36.9237 150.9663 -23.1356 -19.5102 11.4677
# 4 -2.2233 -12.9682 -23.1356 43.8990 4.3744 4.6412
# 5 -22.6196 -6.0879 -19.5102 4.3744 29.4527 -3.0175
# 6 -0.2510 -12.5367 11.4677 4.6412 -3.0175 18.8421
#
#
#
# Elastic Compliance Matrix: (Units=1/GPa)
#
#
# Indices 1 2 3 4 5 6 
#
# 1 0.014430 -0.006884 0.000966 -0.001498 0.010217 -0.002971
# 2 -0.006884 0.015027 -0.003865 0.001228 -0.003760 0.011354
# 3 0.000966 -0.003865 0.009334 0.004270 0.004615 -0.008552
# 4 -0.001498 0.001228 0.004270 0.026538 -0.002911 -0.008805
# 5 0.010217 -0.003760 0.004615 -0.002911 0.044790 0.002715
# 6 -0.002971 0.011354 -0.008552 -0.008805 0.002715 0.068396
#
#
# Mechanical properties :
#
#
# Convention : Reuss Voigt Hill
#
# Bulk Modulus (GPa) = 52.02020 64.51379 58.26699
# Shear Modulus (GPa) = 24.45106 35.65386 30.05246
#
# Velocity S-wave (km/s) = 3.21997 3.88827 3.56979
# Velocity P-wave (km/s) = 5.99024 6.89308 6.45746
#
# Compressibility (1/GPa) = 0.01922330
#
# Stress axis : x y z
#
# Youngs Moduli (GPa) = 69.30004 66.54647 107.13920
#
# Poissons Ratio (x) = 0.45814 -0.10346
# Poissons Ratio (y) = 0.47709 0.41409
# Poissons Ratio (z) = -0.06692 0.25720
#
# Static dielectric constant tensor:
#      x y z
#    x 1.891800 -0.024740 0.041010 
#    y -0.024740 1.925050 -0.012970 
#    z 0.041010 -0.012970 1.988460 
# 
# From -- ./inp_files/178818.got.cif
#   From: 2010.05.17/outbox.cif.g08.bks.cpg/sg2_90_cif.got.tgz:178818.got - 2010.06.03 11:33:40.
