data_PCOD9021089
_publ_section_title
;
Structure prediction by ZEFSAII (Michael W. Deem and Ramdas Pophale) SiO2 
 PCOD9021089
Probable space group: P -1
;
_chemical_formula_sum "Si O2"
_cell_formula_units_Z 16
_cell_length_a 13.533837
_cell_length_b 8.134627
_cell_length_c 27.380227
_cell_angle_alpha 39.910310
_cell_angle_beta 159.232554
_cell_angle_gamma 130.046251
_cell_volume 648.648266
_symmetry_space_group_name_H-M "P -1"
_symmetry_group_IT_number 2
_symmetry_cell_setting 'triclinic'
loop_
_space_group_symop_operation_xyz
x,y,z
-x,-y,-z
loop_
_atom_site_type_symbol
_atom_site_label
_atom_site_fract_x
_atom_site_fract_y
_atom_site_fract_z
Si Si1 0.022921 0.932557 0.139546
Si Si2 0.540549 0.817443 0.108081
Si Si3 0.942879 0.007845 0.681473
Si Si4 0.383734 0.998899 0.374881
Si Si5 0.340908 0.743668 0.676985
Si Si6 0.348096 0.086502 0.688512
Si Si7 0.303274 0.562475 0.183072
Si Si8 0.697497 0.573215 0.032251
O O1 0.307124 0.886913 0.314464
O O2 0.971176 0.666869 0.155538
O O3 0.743473 0.051599 0.019863
O O4 0.961498 0.174445 0.016502
O O5 0.597945 0.501715 0.199865
O O6 0.839042 0.830632 0.268992
O O7 0.500000 0.000000 0.000000
O O8 0.741689 0.122969 0.609567
O O9 0.158946 0.711428 0.862236
O O10 0.720335 0.976426 0.544522
O O11 0.218741 0.325385 0.224318
O O12 0.535206 0.598813 0.753729
O O13 0.001111 0.830381 0.484552
O O14 0.395400 0.988133 0.676360
O O15 0.483813 0.320125 0.713230
O O16 0.506937 0.832206 0.854727
O O17 0.500000 0.500000 0.000000
#
# Coordination Sequence:
#
# PCOD9021089 Si02
#       8
#     2   2   2   2   2   2   2   2
#     4  10  22  40  64  94 118 167 215 254 325 379
#     4  11  19  37  67  92 122 161 213 265 314 374
#     4  11  24  40  64  95 126 168 211 265 324 380
#     4  11  24  42  62  91 131 171 212 253 321 401
#     4  10  22  37  66  96 128 168 210 274 326 370
#     4  10  22  40  60 100 126 161 224 267 321 382
#     4  10  22  41  64  87 132 172 211 261 317 390
#     4  11  23  39  65  94 126 163 213 277 322 372
#
# _framework density 24.666682999999999
#
# number of rings (size 3 to 8) (size 9 to 14) (size 15 to 20)
#    0.000    1.500    2.500    2.250    3.500    0.500 
#    2.250    1.250    0.000    0.000    0.000    0.000 
#    0.000    0.000    0.000    0.000    0.000    0.000 
#
# Total GULP energy -89518.905407 kJ/mol
# GULP energy per Si atom -5594.931588 kJ/mol
# Density = 2.461054 g / cm^3
# Si number density = 24.666683 Si / 1000 Ang^3
#
#
#
# Elastic Constant Matrix: (Units=GPa)
#
#
# Indices 1 2 3 4 5 6 
#
# 1 54.4024 18.6545 11.5692 9.8463 3.0999 2.0752
# 2 18.6545 123.2622 12.2409 19.7657 -8.9547 -25.5137
# 3 11.5692 12.2409 74.5635 29.0564 -15.3708 -1.7152
# 4 9.8463 19.7657 29.0564 46.6880 -3.4009 -10.5785
# 5 3.0999 -8.9547 -15.3708 -3.4009 34.2020 1.3482
# 6 2.0752 -25.5137 -1.7152 -10.5785 1.3482 33.5293
#
#
#
# Elastic Compliance Matrix: (Units=1/GPa)
#
#
# Indices 1 2 3 4 5 6 
#
# 1 0.021171 -0.003869 -0.002583 -0.002669 -0.004159 -0.005061
# 2 -0.003869 0.010790 0.000387 -0.002038 0.002843 0.007712
# 3 -0.002583 0.000387 0.020129 -0.012151 0.008279 -0.002683
# 4 -0.002669 -0.002038 -0.012151 0.032059 -0.002889 0.008224
# 5 -0.004159 0.002843 0.008279 -0.002889 0.033770 0.000575
# 6 -0.005061 0.007712 -0.002683 0.008224 0.000575 0.038441
#
#
# Mechanical properties :
#
#
# Convention : Reuss Voigt Hill
#
# Bulk Modulus (GPa) = 25.02692 37.46191 31.24442
# Shear Modulus (GPa) = 27.50126 36.86810 32.18468
#
# Velocity S-wave (km/s) = 3.34266 3.87027 3.61610
# Velocity P-wave (km/s) = 5.00658 5.93230 5.48899
#
# Compressibility (1/GPa) = 0.03995697
#
# Stress axis : x y z
#
# Youngs Moduli (GPa) = 47.23498 92.68175 49.68045
#
# Poissons Ratio (x) = 0.35861 0.12834
# Poissons Ratio (y) = 0.18277 -0.01921
# Poissons Ratio (z) = 0.12203 -0.03584
#
# Static dielectric constant tensor:
#      x y z
#    x 2.042390 -0.017990 -0.061360 
#    y -0.017990 1.961630 0.048960 
#    z -0.061360 0.048960 1.971610 
# 
# From -- ./inp_files/404595.got.cif
#   From: 2010.05.17/outbox.cif.g08.bks.cpg/sg2_203_cif.got.tgz:404595.got - 2010.06.03 11:33:40.
