data_PCOD9021635
_publ_section_title
;
Structure prediction by ZEFSAII (Michael W. Deem and Ramdas Pophale) SiO2 
 PCOD9021635
Probable space group: P -1
;
_chemical_formula_sum "Si O2"
_cell_formula_units_Z 14
_cell_length_a 12.305728
_cell_length_b 8.030452
_cell_length_c 12.148783
_cell_angle_alpha 94.874693
_cell_angle_beta 35.468155
_cell_angle_gamma 77.538297
_cell_volume 603.909670
_symmetry_space_group_name_H-M "P -1"
_symmetry_group_IT_number 2
_symmetry_cell_setting 'triclinic'
loop_
_space_group_symop_operation_xyz
x,y,z
-x,-y,-z
loop_
_atom_site_type_symbol
_atom_site_label
_atom_site_fract_x
_atom_site_fract_y
_atom_site_fract_z
Si Si1 0.761858 0.013751 0.168575
Si Si2 0.914331 0.701080 0.863229
Si Si3 0.286725 0.096253 0.568042
Si Si4 0.676490 0.479609 0.762549
Si Si5 0.258251 0.596436 0.751613
Si Si6 0.480523 0.318118 0.742764
Si Si7 0.101683 0.363687 0.532048
O O1 0.802369 0.871747 0.232330
O O2 0.501782 0.113479 0.386037
O O3 0.814615 0.180913 0.158660
O O4 0.854709 0.912048 0.968899
O O5 0.095089 0.579095 0.801271
O O6 0.017371 0.578071 0.663123
O O7 0.676760 0.726121 0.058146
O O8 0.145005 0.227105 0.593052
O O9 0.366281 0.872421 0.463203
O O10 0.617443 0.385675 0.704238
O O11 0.693621 0.663180 0.710321
O O12 0.911010 0.363695 0.619671
O O13 0.500000 0.500000 0.000000
O O14 0.500000 0.500000 0.500000
O O15 0.304111 0.485359 0.821259
#
# Coordination Sequence:
#
# PCOD9021635 Si02
#       7
#     2   2   2   2   2   2   2
#     4  10  22  38  63  98 146 171 219 266 329 414
#     4  11  24  39  63 100 136 177 218 270 338 400
#     4  10  22  40  62 102 133 180 217 266 336 402
#     4  11  24  48  72  96 125 178 233 281 337 388
#     4  12  22  39  64  99 134 180 218 268 332 402
#     4  11  23  41  68  94 137 175 225 278 327 396
#     4  11  25  44  73  95 135 177 224 281 333 393
#
# _framework density 23.182274
#
# number of rings (size 3 to 8) (size 9 to 14) (size 15 to 20)
#    0.000    1.143    2.857    3.429    6.000    0.571 
#    0.000    2.143    6.286    0.000    0.000    0.000 
#    0.000    0.000    0.000    0.000    0.000    0.000 
#
# Total GULP energy -78076.693388 kJ/mol
# GULP energy per Si atom -5576.906671 kJ/mol
# Density = 2.312951 g / cm^3
# Si number density = 23.182274 Si / 1000 Ang^3
#
#
#
# Elastic Constant Matrix: (Units=GPa)
#
#
# Indices 1 2 3 4 5 6 
#
# 1 166.7915 22.6935 15.9543 -3.0241 -30.6473 6.1617
# 2 22.6935 63.5043 8.0291 7.4828 0.5669 -4.0653
# 3 15.9543 8.0291 82.0457 -6.6355 -8.0444 10.2081
# 4 -3.0241 7.4828 -6.6355 16.8740 8.0286 -5.6660
# 5 -30.6473 0.5669 -8.0444 8.0286 34.0089 -11.9563
# 6 6.1617 -4.0653 10.2081 -5.6660 -11.9563 37.3772
#
#
#
# Elastic Compliance Matrix: (Units=1/GPa)
#
#
# Indices 1 2 3 4 5 6 
#
# 1 0.007715 -0.002563 -0.000713 -0.000975 0.007355 0.000849
# 2 -0.002563 0.018050 -0.002204 -0.008547 -0.000585 0.001505
# 3 -0.000713 -0.002204 0.013339 0.004949 0.000362 -0.002899
# 4 -0.000975 -0.008547 0.004949 0.073567 -0.015501 0.004073
# 5 0.007355 -0.000585 0.000362 -0.015501 0.043353 0.010143
# 6 0.000849 0.001505 -0.002899 0.004073 0.010143 0.031432
#
#
# Mechanical properties :
#
#
# Convention : Reuss Voigt Hill
#
# Bulk Modulus (GPa) = 35.53076 45.07727 40.30401
# Shear Modulus (GPa) = 24.06192 35.36298 29.71245
#
# Velocity S-wave (km/s) = 3.22521 3.90991 3.58395
# Velocity P-wave (km/s) = 5.40641 6.31428 5.87790
#
# Compressibility (1/GPa) = 0.02814463
#
# Stress axis : x y z
#
# Youngs Moduli (GPa) = 129.61976 55.40110 74.96774
#
# Poissons Ratio (x) = 0.14200 0.05343
# Poissons Ratio (y) = 0.33224 0.16522
# Poissons Ratio (z) = 0.09238 0.12209
#
# Static dielectric constant tensor:
#      x y z
#    x 1.877350 -0.060960 0.032590 
#    y -0.060960 1.977400 -0.023180 
#    z 0.032590 -0.023180 2.026210 
# 
# From -- ./inp_files/417263.got.cif
#   From: 2010.05.17/outbox.cif.g08.bks.cpg/sg2_209_cif.got.tgz:417263.got - 2010.06.03 11:33:40.
