data_PCOD9021672
_publ_section_title
;
Structure prediction by ZEFSAII (Michael W. Deem and Ramdas Pophale) SiO2 
 PCOD9021672
Probable space group: P -1
;
_chemical_formula_sum "Si O2"
_cell_formula_units_Z 16
_cell_length_a 11.923120
_cell_length_b 20.470634
_cell_length_c 10.024905
_cell_angle_alpha 45.821842
_cell_angle_beta 62.000687
_cell_angle_gamma 27.745825
_cell_volume 733.141567
_symmetry_space_group_name_H-M "P -1"
_symmetry_group_IT_number 2
_symmetry_cell_setting 'triclinic'
loop_
_space_group_symop_operation_xyz
x,y,z
-x,-y,-z
loop_
_atom_site_type_symbol
_atom_site_label
_atom_site_fract_x
_atom_site_fract_y
_atom_site_fract_z
Si Si1 0.601882 0.237122 0.324740
Si Si2 0.547982 0.457275 0.374655
Si Si3 0.016313 0.277878 0.716692
Si Si4 0.695516 0.203531 0.035614
Si Si5 0.996057 0.343586 0.922646
Si Si6 0.066582 0.810719 0.688228
Si Si7 0.732562 0.070472 0.933710
Si Si8 0.152611 0.428109 0.656277
O O1 0.606763 0.207257 0.209621
O O2 0.302449 0.432624 0.261622
O O3 0.715964 0.267480 0.238981
O O4 0.800596 0.035421 0.556148
O O5 0.500000 0.500000 0.500000
O O6 0.292989 0.558877 0.328763
O O7 0.819246 0.253728 0.437255
O O8 0.500076 0.587411 0.160254
O O9 0.123234 0.231532 0.871200
O O10 0.993653 0.384365 0.491685
O O11 0.183182 0.085303 0.851586
O O12 0.674118 0.162302 0.970365
O O13 0.997239 0.052875 0.097835
O O14 0.132319 0.353140 0.871659
O O15 0.973398 0.268865 0.133882
O O16 0.474165 0.240517 0.740754
O O17 0.000000 0.500000 0.500000
#
# Coordination Sequence:
#
# PCOD9021672 Si02
#       8
#     2   2   2   2   2   2   2   2
#     4  11  23  38  61  94 125 164 213 256 321 375
#     4  11  21  36  64  96 128 160 207 264 327 373
#     4  10  22  38  64  91 124 165 209 264 310 372
#     4  10  22  39  66  94 132 162 203 276 315 375
#     4  11  22  42  59  88 128 165 208 258 312 374
#     4  11  23  37  63  93 127 166 205 269 317 370
#     4  10  22  40  61  99 127 161 215 260 323 366
#     4  10  24  40  66  91 128 174 212 259 305 379
#
# _framework density 21.823889000000001
#
# number of rings (size 3 to 8) (size 9 to 14) (size 15 to 20)
#    0.000    1.500    2.500    2.625    7.000    6.000 
#    0.000    0.625    0.000    1.500    0.000    0.000 
#    0.000    0.000    0.000    0.000    0.000    0.000 
#
# Total GULP energy -89162.940292 kJ/mol
# GULP energy per Si atom -5572.683768 kJ/mol
# Density = 2.177422 g / cm^3
# Si number density = 21.823889 Si / 1000 Ang^3
#
#
#
# Elastic Constant Matrix: (Units=GPa)
#
#
# Indices 1 2 3 4 5 6 
#
# 1 60.8892 23.8303 34.8212 -10.2782 -12.6502 3.6924
# 2 23.8303 51.1093 17.6412 -5.0508 -0.0742 12.4524
# 3 34.8212 17.6412 93.1839 -10.5598 -29.3763 -10.4852
# 4 -10.2782 -5.0508 -10.5598 33.4373 0.8653 1.9537
# 5 -12.6502 -0.0742 -29.3763 0.8653 46.1368 -0.6630
# 6 3.6924 12.4524 -10.4852 1.9537 -0.6630 21.2717
#
#
#
# Elastic Compliance Matrix: (Units=1/GPa)
#
#
# Indices 1 2 3 4 5 6 
#
# 1 0.024955 -0.007928 -0.007014 0.004404 0.002231 -0.003483
# 2 -0.007928 0.030947 -0.007314 0.001321 -0.007103 -0.020688
# 3 -0.007014 -0.007314 0.020224 0.001924 0.011131 0.015638
# 4 0.004404 0.001321 0.001924 0.032226 0.001780 -0.003493
# 5 0.002231 -0.007103 0.011131 0.001780 0.029473 0.010012
# 6 -0.003483 -0.020688 0.015638 -0.003493 0.010012 0.068068
#
#
# Mechanical properties :
#
#
# Convention : Reuss Voigt Hill
#
# Bulk Modulus (GPa) = 31.63003 39.75199 35.69101
# Shear Modulus (GPa) = 19.16138 28.76181 23.96159
#
# Velocity S-wave (km/s) = 2.96632 3.63423 3.31713
# Velocity P-wave (km/s) = 5.12414 5.98871 5.57322
#
# Compressibility (1/GPa) = 0.03161553
#
# Stress axis : x y z
#
# Youngs Moduli (GPa) = 40.07180 32.31281 49.44693
#
# Poissons Ratio (x) = 0.25616 0.34682
# Poissons Ratio (y) = 0.31767 0.36165
# Poissons Ratio (z) = 0.28106 0.23633
#
# Static dielectric constant tensor:
#      x y z
#    x 1.858660 -0.006250 -0.011260 
#    y -0.006250 1.793820 0.013120 
#    z -0.011260 0.013120 1.884760 
# 
# From -- ./inp_files/438627.got.cif
#   From: 2010.05.17/outbox.cif.g08.bks.cpg/sg2_220_cif.got.tgz:438627.got - 2010.06.03 11:33:40.
