data_PCOD9021776
_publ_section_title
;
Structure prediction by ZEFSAII (Michael W. Deem and Ramdas Pophale) SiO2 
 PCOD9021776
Probable space group: P -1
;
_chemical_formula_sum "Si O2"
_cell_formula_units_Z 16
_cell_length_a 5.438081
_cell_length_b 12.239061
_cell_length_c 14.348698
_cell_angle_alpha 113.691033
_cell_angle_beta 81.881448
_cell_angle_gamma 109.356900
_cell_volume 825.053065
_symmetry_space_group_name_H-M "P -1"
_symmetry_group_IT_number 2
_symmetry_cell_setting 'triclinic'
loop_
_space_group_symop_operation_xyz
x,y,z
-x,-y,-z
loop_
_atom_site_type_symbol
_atom_site_label
_atom_site_fract_x
_atom_site_fract_y
_atom_site_fract_z
Si Si1 0.087113 0.152335 0.702229
Si Si2 0.357445 0.615999 0.944490
Si Si3 0.197941 0.554518 0.423269
Si Si4 0.853328 0.674754 0.412737
Si Si5 0.501817 0.005879 0.613822
Si Si6 0.148391 0.332675 0.934441
Si Si7 0.581228 0.757183 0.592405
Si Si8 0.498484 0.601084 0.720002
O O1 0.203065 0.252064 0.647700
O O2 0.271189 0.063574 0.672320
O O3 0.092418 0.226817 0.822863
O O4 0.789948 0.084837 0.662780
O O5 0.252068 0.468234 0.924826
O O6 0.433748 0.628656 0.836587
O O7 0.617466 0.673080 0.011716
O O8 0.119287 0.669656 0.000100
O O9 0.450331 0.633561 0.494189
O O10 0.245111 0.444125 0.322481
O O11 0.000000 0.500000 0.500000
O O12 0.141221 0.659638 0.398371
O O13 0.858642 0.764809 0.534371
O O14 0.717377 0.523899 0.349435
O O15 0.500000 0.000000 0.500000
O O16 0.475954 0.869614 0.610759
O O17 0.536150 0.715027 0.685988
#
# Coordination Sequence:
#
# PCOD9021776 Si02
#       8
#     2   2   2   2   2   2   2   2
#     4  12  25  42  66  88 129 168 208 259 313 362
#     4  10  22  38  65  94 122 153 208 263 323 372
#     4  11  20  33  58  87 131 166 196 245 316 387
#     4  11  21  36  58  90 125 163 196 252 319 381
#     4  12  26  42  63  92 126 176 215 251 292 367
#     4  10  22  41  62  92 123 159 204 265 316 373
#     4  11  23  38  55  89 130 163 211 248 302 381
#     4  11  22  36  59  95 125 163 198 261 327 371
#
# _framework density 19.392692
#
# number of rings (size 3 to 8) (size 9 to 14) (size 15 to 20)
#    0.000    1.000    5.000    2.625    5.250    1.000 
#    0.000    0.000    0.000    4.500    0.000    0.000 
#    0.000    0.000    0.000    0.000    0.000    0.000 
#
# Total GULP energy -89143.585393 kJ/mol
# GULP energy per Si atom -5571.474087 kJ/mol
# Density = 1.934855 g / cm^3
# Si number density = 19.392692 Si / 1000 Ang^3
#
#
#
# Elastic Constant Matrix: (Units=GPa)
#
#
# Indices 1 2 3 4 5 6 
#
# 1 114.0321 37.4008 74.3315 10.2496 -2.7962 -24.4869
# 2 37.4008 101.3314 62.8226 -12.9665 -7.9828 -31.8564
# 3 74.3315 62.8226 180.5118 -9.1104 -11.7970 -10.3900
# 4 10.2496 -12.9665 -9.1104 30.4559 2.9791 5.1661
# 5 -2.7962 -7.9828 -11.7970 2.9791 29.8261 5.3588
# 6 -24.4869 -31.8564 -10.3900 5.1661 5.3588 22.8574
#
#
#
# Elastic Compliance Matrix: (Units=1/GPa)
#
#
# Indices 1 2 3 4 5 6 
#
# 1 0.020329 0.005725 -0.009571 -0.011773 -0.004400 0.029100
# 2 0.005725 0.024905 -0.009076 -0.000090 -0.003110 0.037467
# 3 -0.009571 -0.009076 0.012088 0.005895 0.004419 -0.019777
# 4 -0.011773 -0.000090 0.005895 0.041798 0.000557 -0.019635
# 5 -0.004400 -0.003110 0.004419 0.000557 0.036813 -0.015796
# 6 0.029100 0.037467 -0.019777 -0.019635 -0.015796 0.126294
#
#
# Mechanical properties :
#
#
# Convention : Reuss Voigt Hill
#
# Bulk Modulus (GPa) = 31.76741 82.77612 57.27176
# Shear Modulus (GPa) = 16.74690 31.38258 24.06474
#
# Velocity S-wave (km/s) = 2.94184 4.02713 3.52649
# Velocity P-wave (km/s) = 5.28734 8.02500 6.79546
#
# Compressibility (1/GPa) = 0.03147880
#
# Stress axis : x y z
#
# Youngs Moduli (GPa) = 49.19005 40.15270 82.72940
#
# Poissons Ratio (x) = -0.22989 0.79177
# Poissons Ratio (y) = -0.28164 0.75089
# Poissons Ratio (z) = 0.47078 0.36444
#
# Static dielectric constant tensor:
#      x y z
#    x 1.630020 -0.102150 0.131770 
#    y -0.102150 1.633330 0.055890 
#    z 0.131770 0.055890 1.568690 
# 
# From -- ./inp_files/75728.got.cif
#   From: 2010.05.17/outbox.cif.g08.bks.cpg/sg2_38_cif.got.tgz:75728.got - 2010.06.03 11:33:40.
