data_PCOD9021264
_publ_section_title
;
Structure prediction by ZEFSAII (Michael W. Deem and Ramdas Pophale) SiO2 
 PCOD9021264
Probable space group: P -1
;
_chemical_formula_sum "Si O2"
_cell_formula_units_Z 16
_cell_length_a 11.759457
_cell_length_b 11.826647
_cell_length_c 11.762276
_cell_angle_alpha 74.702782
_cell_angle_beta 42.345984
_cell_angle_gamma 105.721338
_cell_volume 740.751950
_symmetry_space_group_name_H-M "P -1"
_symmetry_group_IT_number 2
_symmetry_cell_setting 'triclinic'
loop_
_space_group_symop_operation_xyz
x,y,z
-x,-y,-z
loop_
_atom_site_type_symbol
_atom_site_label
_atom_site_fract_x
_atom_site_fract_y
_atom_site_fract_z
Si Si1 0.412018 0.997321 0.443522
Si Si2 0.515571 0.519808 0.164289
Si Si3 0.114240 0.489969 0.526247
Si Si4 0.068412 0.344716 0.042378
Si Si5 0.553351 0.135528 0.765144
Si Si6 0.150503 0.638417 0.013121
Si Si7 0.329226 0.242180 0.215822
Si Si8 0.205829 0.956177 0.272227
O O1 0.500000 0.000000 0.500000
O O2 0.486587 0.941014 0.307246
O O3 0.563802 0.191181 0.259386
O O4 0.122109 0.840865 0.710286
O O5 0.248409 0.438111 0.403513
O O6 0.665700 0.573862 0.153228
O O7 0.508032 0.397370 0.127783
O O8 0.647175 0.677867 0.942418
O O9 0.327409 0.677962 0.370353
O O10 0.000000 0.500000 0.500000
O O11 0.925370 0.379304 0.796437
O O12 0.988393 0.340115 0.975585
O O13 0.067411 0.468132 0.078713
O O14 0.747021 0.147316 0.682677
O O15 0.314790 0.014309 0.050862
O O16 0.064296 0.132174 0.492274
O O17 0.361498 0.123600 0.190747
#
# Coordination Sequence:
#
# PCOD9021264 Si02
#       8
#     2   2   2   2   2   2   2   2
#     4  10  22  41  69  95 124 169 225 275 321 386
#     4  11  24  39  63  93 133 175 214 275 335 387
#     4  12  26  42  64  98 136 175 216 272 336 398
#     4  10  22  45  67  97 127 173 227 277 324 394
#     4  11  22  38  62  93 129 169 219 273 320 392
#     4  10  24  42  71  94 130 176 223 272 331 392
#     4  10  22  39  57  93 131 170 213 269 336 395
#     4  10  22  38  59  90 131 169 215 268 328 394
#
# _framework density 21.599672999999999
#
# number of rings (size 3 to 8) (size 9 to 14) (size 15 to 20)
#    0.000    1.500    2.500    1.500   10.500    0.500 
#    0.000    0.000    0.000    1.500    0.000    0.000 
#    0.000    0.000    0.000    0.000    0.000    0.000 
#
# Total GULP energy -89394.368208 kJ/mol
# GULP energy per Si atom -5587.148013 kJ/mol
# Density = 2.155051 g / cm^3
# Si number density = 21.599673 Si / 1000 Ang^3
#
#
#
# Elastic Constant Matrix: (Units=GPa)
#
#
# Indices 1 2 3 4 5 6 
#
# 1 94.1946 4.7009 40.4617 6.0222 2.7347 10.2101
# 2 4.7009 77.1877 4.2416 -6.9682 6.5354 4.2176
# 3 40.4617 4.2416 83.7367 11.3831 13.6104 8.6759
# 4 6.0222 -6.9682 11.3831 39.3646 3.1231 2.9826
# 5 2.7347 6.5354 13.6104 3.1231 26.0171 2.8269
# 6 10.2101 4.2176 8.6759 2.9826 2.8269 29.4497
#
#
#
# Elastic Compliance Matrix: (Units=1/GPa)
#
#
# Indices 1 2 3 4 5 6 
#
# 1 0.013787 -0.000548 -0.006710 -0.000245 0.002548 -0.002944
# 2 -0.000548 0.013647 -0.000080 0.002929 -0.003495 -0.001702
# 3 -0.006710 -0.000080 0.017029 -0.003184 -0.007624 -0.001625
# 4 -0.000245 0.002929 -0.003184 0.027194 -0.002097 -0.001949
# 5 0.002548 -0.003495 -0.007624 -0.002097 0.043515 -0.002101
# 6 -0.002944 -0.001702 -0.001625 -0.001949 -0.002101 0.036099
#
#
# Mechanical properties :
#
#
# Convention : Reuss Voigt Hill
#
# Bulk Modulus (GPa) = 33.57260 39.32528 36.44894
# Shear Modulus (GPa) = 28.42941 32.68061 30.55501
#
# Velocity S-wave (km/s) = 3.63188 3.89397 3.76520
# Velocity P-wave (km/s) = 5.75884 6.20188 5.98446
#
# Compressibility (1/GPa) = 0.02978620
#
# Stress axis : x y z
#
# Youngs Moduli (GPa) = 72.53352 73.27870 58.72407
#
# Poissons Ratio (x) = 0.04015 0.39403
# Poissons Ratio (y) = 0.03974 0.00471
# Poissons Ratio (z) = 0.48668 0.00588
#
# Static dielectric constant tensor:
#      x y z
#    x 1.802150 -0.012870 -0.011790 
#    y -0.012870 1.816130 -0.051390 
#    z -0.011790 -0.051390 1.796680 
# 
# From -- ./inp_files/427974.got.cif
#   From: 2010.05.17/outbox.cif.g08.bks.cpg/sg2_214_cif.got.tgz:427974.got - 2010.06.03 11:33:40.
