data_PCOD9021875
_publ_section_title
;
Structure prediction by ZEFSAII (Michael W. Deem and Ramdas Pophale) SiO2 
 PCOD9021875
Probable space group: P -1
;
_chemical_formula_sum "Si O2"
_cell_formula_units_Z 14
_cell_length_a 9.058845
_cell_length_b 12.317400
_cell_length_c 21.206329
_cell_angle_alpha 151.384389
_cell_angle_beta 136.346178
_cell_angle_gamma 34.785356
_cell_volume 646.502092
_symmetry_space_group_name_H-M "P -1"
_symmetry_group_IT_number 2
_symmetry_cell_setting 'triclinic'
loop_
_space_group_symop_operation_xyz
x,y,z
-x,-y,-z
loop_
_atom_site_type_symbol
_atom_site_label
_atom_site_fract_x
_atom_site_fract_y
_atom_site_fract_z
Si Si1 0.308455 0.474422 0.514903
Si Si2 0.723844 0.794736 0.513035
Si Si3 0.834775 0.526655 0.021523
Si Si4 0.571743 0.241343 0.785858
Si Si5 0.533067 0.138064 0.290079
Si Si6 0.066454 0.894999 0.069203
Si Si7 0.948492 0.358984 0.195596
O O1 0.348253 0.368683 0.545356
O O2 0.493418 0.231174 0.398679
O O3 0.355642 0.709499 0.634556
O O4 0.007138 0.594428 0.468261
O O5 0.500000 0.000000 0.500000
O O6 0.760807 0.981188 0.668907
O O7 0.288125 0.185114 0.834367
O O8 0.387211 0.516831 0.092034
O O9 0.000000 0.500000 0.000000
O O10 0.994784 0.740698 0.017125
O O11 0.287584 0.328162 0.724257
O O12 0.663585 0.176806 0.853687
O O13 0.240550 0.268719 0.241817
O O14 0.906802 0.214743 0.168266
O O15 0.092876 0.757913 0.941049
#
# Coordination Sequence:
#
# PCOD9021875 Si02
#       7
#     2   2   2   2   2   2   2
#     4  10  25  46  65  93 134 176 215 271 321 376
#     4  11  23  45  71  96 128 172 225 264 320 390
#     4  10  22  41  64  95 131 172 206 265 339 376
#     4  10  22  38  66  95 129 166 206 270 326 375
#     4  11  23  44  67  93 135 174 216 268 323 384
#     4   9  22  36  62  95 131 167 202 264 330 383
#     4  11  20  38  62 101 125 163 222 256 321 401
#
# _framework density 21.654995
#
# number of rings (size 3 to 8) (size 9 to 14) (size 15 to 20)
#    0.857    0.857    0.000    4.714    4.000    1.143 
#    5.143    3.571    0.000    0.000    0.000    0.000 
#    0.000    0.000    0.000    0.000    0.000    0.000 
#
# Total GULP energy -78029.776466 kJ/mol
# GULP energy per Si atom -5573.555462 kJ/mol
# Density = 2.160571 g / cm^3
# Si number density = 21.654995 Si / 1000 Ang^3
#
#
#
# Elastic Constant Matrix: (Units=GPa)
#
#
# Indices 1 2 3 4 5 6 
#
# 1 133.3380 46.6136 27.2200 3.3250 5.9769 29.2666
# 2 46.6136 120.9493 -3.5336 -8.8691 7.9221 22.8492
# 3 27.2200 -3.5336 88.4638 6.3035 3.6762 10.5920
# 4 3.3250 -8.8691 6.3035 23.8083 2.3330 2.8097
# 5 5.9769 7.9221 3.6762 2.3330 29.3285 8.6394
# 6 29.2666 22.8492 10.5920 2.8097 8.6394 28.9559
#
#
#
# Elastic Compliance Matrix: (Units=1/GPa)
#
#
# Indices 1 2 3 4 5 6 
#
# 1 0.010715 -0.002863 -0.002433 -0.001109 0.001331 -0.007969
# 2 -0.002863 0.011127 0.001820 0.004960 -0.001067 -0.006715
# 3 -0.002433 0.001820 0.012674 -0.001904 -0.000464 -0.003290
# 4 -0.001109 0.004960 -0.001904 0.045454 -0.002822 -0.005665
# 5 0.001331 -0.001067 -0.000464 -0.002822 0.037730 -0.011317
# 6 -0.007969 -0.006715 -0.003290 -0.005665 -0.011317 0.053019
#
#
# Mechanical properties :
#
#
# Convention : Reuss Voigt Hill
#
# Bulk Modulus (GPa) = 36.28022 53.70567 44.99294
# Shear Modulus (GPa) = 26.75816 34.58195 30.67005
#
# Velocity S-wave (km/s) = 3.51901 4.00052 3.76746
# Velocity P-wave (km/s) = 5.77073 6.79657 6.30455
#
# Compressibility (1/GPa) = 0.02756323
#
# Stress axis : x y z
#
# Youngs Moduli (GPa) = 93.32928 89.87312 78.89920
#
# Poissons Ratio (x) = 0.25735 0.19199
# Poissons Ratio (y) = 0.26724 -0.14363
# Poissons Ratio (z) = 0.22710 -0.16361
#
# Static dielectric constant tensor:
#      x y z
#    x 1.810910 -0.006630 -0.006000 
#    y -0.006630 1.845470 0.044280 
#    z -0.006000 0.044280 1.860420 
# 
# From -- ./inp_files/589727.got.cif
#   From: 2010.05.17/outbox.cif.g08.bks.cpg/sg2_295_cif.got.tgz:589727.got - 2010.06.03 11:33:40.
