data_PCOD9021192
_publ_section_title
;
Structure prediction by ZEFSAII (Michael W. Deem and Ramdas Pophale) SiO2 
 PCOD9021192
Probable space group: P -1
;
_chemical_formula_sum "Si O2"
_cell_formula_units_Z 16
_cell_length_a 16.990104
_cell_length_b 11.436209
_cell_length_c 12.073451
_cell_angle_alpha 102.319551
_cell_angle_beta 33.154867
_cell_angle_gamma 126.279381
_cell_volume 794.977102
_symmetry_space_group_name_H-M "P -1"
_symmetry_group_IT_number 2
_symmetry_cell_setting 'triclinic'
loop_
_space_group_symop_operation_xyz
x,y,z
-x,-y,-z
loop_
_atom_site_type_symbol
_atom_site_label
_atom_site_fract_x
_atom_site_fract_y
_atom_site_fract_z
Si Si1 0.747699 0.150607 0.385315
Si Si2 0.872580 0.408532 0.942628
Si Si3 0.748139 0.084962 0.131188
Si Si4 0.447837 0.100666 0.045366
Si Si5 0.969547 0.934714 0.330090
Si Si6 0.916836 0.788862 0.587045
Si Si7 0.394739 0.148105 0.358659
Si Si8 0.133565 0.511566 0.437776
O O1 0.763175 0.076549 0.243407
O O2 0.955789 0.375191 0.188058
O O3 0.513265 0.072017 0.629493
O O4 0.725360 0.051797 0.499101
O O5 0.975250 0.413844 0.711941
O O6 0.849252 0.282859 0.028650
O O7 0.622110 0.301208 0.194059
O O8 0.874970 0.065478 0.908414
O O9 0.475462 0.189307 0.145328
O O10 0.188863 0.945800 0.283640
O O11 0.628903 0.267884 0.780033
O O12 0.500000 0.000000 0.000000
O O13 0.841028 0.796830 0.561437
O O14 0.794771 0.871791 0.431529
O O15 0.102978 0.132611 0.270646
O O16 0.821817 0.595368 0.674201
O O17 0.000000 0.500000 0.500000
#
# Coordination Sequence:
#
# PCOD9021192 Si02
#       8
#     2   2   2   2   2   2   2   2
#     4  10  23  40  68  90 111 155 212 257 301 348
#     4  11  21  38  63  90 120 153 202 259 301 348
#     4  10  22  44  63  89 119 154 203 260 302 355
#     4  11  20  33  58  89 122 153 197 248 292 350
#     4  10  22  41  61  82 132 167 192 245 309 354
#     4  10  22  40  56  87 128 167 194 240 298 370
#     4  10  22  38  57  87 123 156 200 249 294 358
#     4  12  21  33  62  94 118 155 205 240 299 357
#
# _framework density 20.126366000000001
#
# number of rings (size 3 to 8) (size 9 to 14) (size 15 to 20)
#    0.000    1.500    3.750    1.125    5.250    0.500 
#    0.000   11.250    0.000    0.000    0.000    0.000 
#    0.000    0.000    0.000    0.000    0.000    0.000 
#
# Total GULP energy -89334.422760 kJ/mol
# GULP energy per Si atom -5583.401422 kJ/mol
# Density = 2.008056 g / cm^3
# Si number density = 20.126366 Si / 1000 Ang^3
#
#
#
# Elastic Constant Matrix: (Units=GPa)
#
#
# Indices 1 2 3 4 5 6 
#
# 1 69.6797 32.3369 23.7607 7.5664 -6.9876 -12.8589
# 2 32.3369 108.5253 41.3555 -5.0884 -16.4283 -15.2362
# 3 23.7607 41.3555 78.1332 1.2711 -10.2840 -1.7669
# 4 7.5664 -5.0884 1.2711 40.7198 -1.0150 3.0375
# 5 -6.9876 -16.4283 -10.2840 -1.0150 30.2140 4.2057
# 6 -12.8589 -15.2362 -1.7669 3.0375 4.2057 21.4843
#
#
#
# Elastic Compliance Matrix: (Units=1/GPa)
#
#
# Indices 1 2 3 4 5 6 
#
# 1 0.019457 -0.003143 -0.003967 -0.004614 -0.000073 0.009757
# 2 -0.003143 0.013984 -0.005798 0.002132 0.004076 0.006460
# 3 -0.003967 -0.005798 0.017290 -0.000048 0.002588 -0.005564
# 4 -0.004614 0.002132 -0.000048 0.026119 0.001688 -0.005277
# 5 -0.000073 0.004076 0.002588 0.001688 0.036845 -0.004392
# 6 0.009757 0.006460 -0.005564 -0.005277 -0.004392 0.058115
#
#
# Mechanical properties :
#
#
# Convention : Reuss Voigt Hill
#
# Bulk Modulus (GPa) = 40.13827 50.13827 45.13827
# Shear Modulus (GPa) = 24.27988 29.07598 26.67793
#
# Velocity S-wave (km/s) = 3.47705 3.80501 3.64472
# Velocity P-wave (km/s) = 6.00885 6.65356 6.33941
#
# Compressibility (1/GPa) = 0.02491388
#
# Stress axis : x y z
#
# Youngs Moduli (GPa) = 51.39486 71.50812 57.83850
#
# Poissons Ratio (x) = 0.22478 0.22945
# Poissons Ratio (y) = 0.16156 0.33535
# Poissons Ratio (z) = 0.20389 0.41461
#
# Static dielectric constant tensor:
#      x y z
#    x 1.726300 0.007090 -0.019630 
#    y 0.007090 1.727720 -0.004320 
#    z -0.019630 -0.004320 1.729290 
# 
# From -- ./inp_files/448366.got.cif
#   From: 2010.05.17/outbox.cif.g08.bks.cpg/sg2_225_cif.got.tgz:448366.got - 2010.06.03 11:33:40.
