data_PCOD9021132
_publ_section_title
;
Structure prediction by ZEFSAII (Michael W. Deem and Ramdas Pophale) SiO2 
 PCOD9021132
Probable space group: P -1
;
_chemical_formula_sum "Si O2"
_cell_formula_units_Z 16
_cell_length_a 9.215621
_cell_length_b 11.016303
_cell_length_c 14.379463
_cell_angle_alpha 74.370875
_cell_angle_beta 55.408181
_cell_angle_gamma 117.124520
_cell_volume 741.170765
_symmetry_space_group_name_H-M "P -1"
_symmetry_group_IT_number 2
_symmetry_cell_setting 'triclinic'
loop_
_space_group_symop_operation_xyz
x,y,z
-x,-y,-z
loop_
_atom_site_type_symbol
_atom_site_label
_atom_site_fract_x
_atom_site_fract_y
_atom_site_fract_z
Si Si1 0.904935 0.683106 0.270734
Si Si2 0.184531 0.415195 0.981647
Si Si3 0.407144 0.081855 0.974497
Si Si4 0.891159 0.469580 0.193133
Si Si5 0.587389 0.446313 0.606884
Si Si6 0.704677 0.180219 0.458325
Si Si7 0.671769 0.498188 0.786185
Si Si8 0.345941 0.041216 0.785226
O O1 0.047350 0.665807 0.149685
O O2 0.845789 0.593992 0.412203
O O3 0.615702 0.555052 0.352636
O O4 0.091325 0.909990 0.160024
O O5 0.243325 0.537618 0.845934
O O6 0.451423 0.482896 0.899487
O O7 0.061376 0.444784 0.095853
O O8 0.948351 0.183438 0.085958
O O9 0.564477 0.298794 0.892962
O O10 0.406165 0.065929 0.866945
O O11 0.500000 0.000000 0.000000
O O12 0.713189 0.320095 0.374753
O O13 0.671009 0.501569 0.672525
O O14 0.405669 0.220860 0.706746
O O15 0.567638 0.097478 0.626093
O O16 0.020893 0.311827 0.327212
O O17 0.500000 0.000000 0.500000
#
# Coordination Sequence:
#
# PCOD9021132 Si02
#       8
#     2   2   2   2   2   2   2   2
#     4  11  20  39  66 104 138 176 220 275 351 403
#     4  11  23  43  72  97 134 188 232 283 327 405
#     4  11  24  39  66 102 140 174 222 284 341 412
#     4  11  22  42  70  94 141 184 229 270 341 403
#     4  10  22  37  69 100 141 173 216 287 342 411
#     4  12  26  46  67  97 138 184 228 282 346 407
#     4  11  25  44  68 104 139 173 237 280 340 408
#     4  11  22  40  69  95 137 182 225 270 350 407
#
# _framework density 21.587468000000001
#
# number of rings (size 3 to 8) (size 9 to 14) (size 15 to 20)
#    0.000    1.000    5.000    1.500    1.750    3.500 
#    0.000    0.625    0.000    0.000    0.000    0.000 
#    0.000    0.000    0.000    0.000    0.000    0.000 
#
# Total GULP energy -89206.428550 kJ/mol
# GULP energy per Si atom -5575.401784 kJ/mol
# Density = 2.153833 g / cm^3
# Si number density = 21.587468 Si / 1000 Ang^3
#
#
#
# Elastic Constant Matrix: (Units=GPa)
#
#
# Indices 1 2 3 4 5 6 
#
# 1 122.9215 32.3780 52.8070 -6.7504 -4.8091 -3.4000
# 2 32.3780 91.5457 26.7268 -10.1164 -15.0345 -6.9569
# 3 52.8070 26.7268 88.9471 -13.3999 11.3384 3.1958
# 4 -6.7504 -10.1164 -13.3999 29.9630 14.4422 -4.8094
# 5 -4.8091 -15.0345 11.3384 14.4422 35.6989 0.0407
# 6 -3.4000 -6.9569 3.1958 -4.8094 0.0407 22.5275
#
#
#
# Elastic Compliance Matrix: (Units=1/GPa)
#
#
# Indices 1 2 3 4 5 6 
#
# 1 0.011928 -0.001355 -0.007869 -0.003364 0.004895 0.001771
# 2 -0.001355 0.014321 -0.004689 -0.000415 0.007501 0.004781
# 3 -0.007869 -0.004689 0.021295 0.012955 -0.015036 -0.002864
# 4 -0.003364 -0.000415 0.012955 0.052121 -0.025838 0.008700
# 5 0.004895 0.007501 -0.015036 -0.025838 0.047059 -0.000413
# 6 0.001771 0.004781 -0.002864 0.008700 -0.000413 0.048398
#
#
# Mechanical properties :
#
#
# Convention : Reuss Voigt Hill
#
# Bulk Modulus (GPa) = 50.71536 58.58200 54.64868
# Shear Modulus (GPa) = 21.78445 30.40473 26.09459
#
# Velocity S-wave (km/s) = 3.18012 3.75699 3.48053
# Velocity P-wave (km/s) = 6.08508 6.78351 6.44376
#
# Compressibility (1/GPa) = 0.01971789
#
# Stress axis : x y z
#
# Youngs Moduli (GPa) = 83.83332 69.82759 46.95993
#
# Poissons Ratio (x) = 0.09460 0.36953
# Poissons Ratio (y) = 0.11358 0.22021
# Poissons Ratio (z) = 0.65969 0.32744
#
# Static dielectric constant tensor:
#      x y z
#    x 1.893890 -0.037480 -0.053230 
#    y -0.037480 1.887520 -0.052020 
#    z -0.053230 -0.052020 1.901960 
# 
# From -- ./inp_files/500261.got.cif
#   From: 2010.05.17/outbox.cif.g08.bks.cpg/sg2_251_cif.got.tgz:500261.got - 2010.06.03 11:33:40.
