data_PCOD9021302
_publ_section_title
;
Structure prediction by ZEFSAII (Michael W. Deem and Ramdas Pophale) SiO2 
 PCOD9021302
Probable space group: P -1
;
_chemical_formula_sum "Si O2"
_cell_formula_units_Z 16
_cell_length_a 21.103133
_cell_length_b 5.349222
_cell_length_c 21.184968
_cell_angle_alpha 71.772520
_cell_angle_beta 20.667306
_cell_angle_gamma 70.740909
_cell_volume 796.750307
_symmetry_space_group_name_H-M "P -1"
_symmetry_group_IT_number 2
_symmetry_cell_setting 'triclinic'
loop_
_space_group_symop_operation_xyz
x,y,z
-x,-y,-z
loop_
_atom_site_type_symbol
_atom_site_label
_atom_site_fract_x
_atom_site_fract_y
_atom_site_fract_z
Si Si1 0.625687 0.807172 0.533884
Si Si2 0.404629 0.670170 0.870031
Si Si3 0.338349 0.796997 0.058636
Si Si4 0.056654 0.771038 0.102909
Si Si5 0.481988 0.731076 0.102204
Si Si6 0.414168 0.594526 0.506127
Si Si7 0.005526 0.376511 0.074076
Si Si8 0.102058 0.758609 0.386912
O O1 0.549188 0.749222 0.678578
O O2 0.846995 0.776537 0.322776
O O3 0.549656 0.610762 0.568953
O O4 0.547477 0.108525 0.567869
O O5 0.488347 0.395590 0.845625
O O6 0.363556 0.850285 0.956917
O O7 0.210220 0.673134 0.017951
O O8 0.147683 0.853930 0.266265
O O9 0.381984 0.478519 0.047236
O O10 0.469173 0.971998 0.960868
O O11 0.087123 0.572084 0.031265
O O12 0.083753 0.069790 0.031966
O O13 0.289281 0.700807 0.255062
O O14 0.500000 0.500000 0.500000
O O15 0.200755 0.616703 0.713363
O O16 0.000000 0.500000 0.000000
O O17 0.000000 0.500000 0.500000
O O18 0.000000 0.000000 0.500000
#
# Coordination Sequence:
#
# PCOD9021302 Si02
#       8
#     2   2   2   2   2   2   2   2
#     4  10  23  40  58  90 123 157 211 266 317 388
#     4  10  26  39  72  86 132 178 210 258 340 376
#     4  10  23  43  66  96 132 172 227 258 323 391
#     4  10  23  40  58  90 123 157 211 266 317 388
#     4  10  23  43  66  96 132 172 227 258 323 391
#     4  10  22  38  60  87 119 156 207 267 323 386
#     4  10  22  38  60  87 119 156 207 267 323 386
#     4  12  24  42  70 104 138 174 216 279 325 369
#
# _framework density 20.081575999999998
#
# number of rings (size 3 to 8) (size 9 to 14) (size 15 to 20)
#    0.750    1.000    0.000    3.000    7.000    1.000 
#    0.000    0.000    0.000    0.000    0.000    0.000 
#    0.000    0.000    0.000    0.000    0.000    0.000 
#
# Total GULP energy -89179.157925 kJ/mol
# GULP energy per Si atom -5573.697370 kJ/mol
# Density = 2.003587 g / cm^3
# Si number density = 20.081576 Si / 1000 Ang^3
#
#
#
# Elastic Constant Matrix: (Units=GPa)
#
#
# Indices 1 2 3 4 5 6 
#
# 1 130.9535 50.4509 42.3612 -5.2264 8.8208 17.9616
# 2 50.4509 120.1558 30.6806 -10.7486 9.9852 22.2324
# 3 42.3612 30.6806 84.4282 -6.3747 16.7272 10.2711
# 4 -5.2264 -10.7486 -6.3747 18.6174 -0.9759 0.6328
# 5 8.8208 9.9852 16.7272 -0.9759 41.3574 1.3999
# 6 17.9616 22.2324 10.2711 0.6328 1.3999 43.5706
#
#
#
# Elastic Compliance Matrix: (Units=1/GPa)
#
#
# Indices 1 2 3 4 5 6 
#
# 1 0.010287 -0.003020 -0.003888 -0.000118 0.000165 -0.001787
# 2 -0.003020 0.011314 -0.001439 0.005270 -0.001238 -0.004226
# 3 -0.003888 -0.001439 0.015718 0.003237 -0.005062 -0.001253
# 4 -0.000118 0.005270 0.003237 0.057920 -0.001047 -0.004211
# 5 0.000165 -0.001238 -0.005062 -0.001047 0.026434 0.000923
# 6 -0.001787 -0.004226 -0.001253 -0.004211 0.000923 0.026171
#
#
# Mechanical properties :
#
#
# Convention : Reuss Voigt Hill
#
# Bulk Modulus (GPa) = 48.48597 64.72477 56.60537
# Shear Modulus (GPa) = 29.16938 34.84540 32.00739
#
# Velocity S-wave (km/s) = 3.81536 4.17008 3.99666
# Velocity P-wave (km/s) = 6.60350 7.44896 7.03894
#
# Compressibility (1/GPa) = 0.02062453
#
# Stress axis : x y z
#
# Youngs Moduli (GPa) = 97.21222 88.38391 63.62247
#
# Poissons Ratio (x) = 0.26693 0.24737
# Poissons Ratio (y) = 0.29359 0.09154
# Poissons Ratio (z) = 0.37798 0.12717
#
# Static dielectric constant tensor:
#      x y z
#    x 1.749470 -0.023180 0.039970 
#    y -0.023180 1.738030 -0.002020 
#    z 0.039970 -0.002020 1.657520 
# 
# From -- ./inp_files/600751.got.cif
#   From: 2010.05.17/outbox.cif.g08.bks.cpg/sg2_301_cif.got.tgz:600751.got - 2010.06.03 11:33:40.
