data_PCOD9021475
_publ_section_title
;
Structure prediction by ZEFSAII (Michael W. Deem and Ramdas Pophale) SiO2 
 PCOD9021475
Probable space group: P -1
;
_chemical_formula_sum "Si O2"
_cell_formula_units_Z 14
_cell_length_a 10.055895
_cell_length_b 11.676339
_cell_length_c 11.538107
_cell_angle_alpha 33.701152
_cell_angle_beta 122.358737
_cell_angle_gamma 120.351271
_cell_volume 629.744429
_symmetry_space_group_name_H-M "P -1"
_symmetry_group_IT_number 2
_symmetry_cell_setting 'triclinic'
loop_
_space_group_symop_operation_xyz
x,y,z
-x,-y,-z
loop_
_atom_site_type_symbol
_atom_site_label
_atom_site_fract_x
_atom_site_fract_y
_atom_site_fract_z
Si Si1 0.845598 0.203958 0.459821
Si Si2 0.383749 0.485021 0.807477
Si Si3 0.743466 0.203824 0.958444
Si Si4 0.384371 0.193703 0.849892
Si Si5 0.956415 0.260486 0.216224
Si Si6 0.383414 0.177573 0.282078
Si Si7 0.815067 0.688536 0.533831
O O1 0.743456 0.365389 0.337084
O O2 0.032386 0.260242 0.522029
O O3 0.835407 0.240190 0.285419
O O4 0.783638 0.964248 0.660791
O O5 0.341482 0.373058 0.761844
O O6 0.551322 0.637338 0.755205
O O7 0.393524 0.301632 0.060849
O O8 0.571277 0.188721 0.951834
O O9 0.875187 0.155488 0.153401
O O10 0.786917 0.440389 0.742247
O O11 0.714164 0.033388 0.986878
O O12 0.338606 0.243253 0.654674
O O13 0.000000 0.500000 0.000000
O O14 0.117821 0.210661 0.397117
O O15 0.500000 0.000000 0.500000
#
# Coordination Sequence:
#
# PCOD9021475 Si02
#       7
#     2   2   2   2   2   2   2
#     4   9  20  40  64  92 118 153 206 255 300 354
#     4  10  22  38  62  89 125 159 201 250 307 358
#     4  10  22  41  61  88 125 159 207 247 299 360
#     4  11  24  39  60  89 125 166 196 246 310 362
#     4   8  18  40  66  84 121 156 200 255 294 349
#     4   9  20  38  59  91 120 157 206 248 297 359
#     4   9  21  42  61  91 119 157 205 252 303 356
#
# _framework density 22.231241000000001
#
# number of rings (size 3 to 8) (size 9 to 14) (size 15 to 20)
#    0.857    1.714    0.000    0.429    6.000    4.571 
#    5.143    1.429    0.000    0.000    0.000    0.000 
#    0.000    0.000    0.000    0.000    0.000    0.000 
#
# Total GULP energy -78031.914936 kJ/mol
# GULP energy per Si atom -5573.708210 kJ/mol
# Density = 2.218064 g / cm^3
# Si number density = 22.231241 Si / 1000 Ang^3
#
#
#
# Elastic Constant Matrix: (Units=GPa)
#
#
# Indices 1 2 3 4 5 6 
#
# 1 63.6822 56.1082 27.0026 -17.2840 -1.7700 13.0207
# 2 56.1082 168.8029 39.6571 -14.5100 -1.6309 15.0861
# 3 27.0026 39.6571 112.3259 -11.4529 4.3589 16.6890
# 4 -17.2840 -14.5100 -11.4529 37.1090 10.0950 -2.4044
# 5 -1.7700 -1.6309 4.3589 10.0950 25.7116 -11.6073
# 6 13.0207 15.0861 16.6890 -2.4044 -11.6073 38.1607
#
#
#
# Elastic Compliance Matrix: (Units=1/GPa)
#
#
# Indices 1 2 3 4 5 6 
#
# 1 0.026530 -0.007022 -0.001705 0.010083 -0.005215 -0.006481
# 2 -0.007022 0.008569 -0.001344 -0.000441 0.000308 -0.000338
# 3 -0.001705 -0.001344 0.011145 0.003356 -0.005810 -0.005317
# 4 0.010083 -0.000441 0.003356 0.036876 -0.017932 -0.007865
# 5 -0.005215 0.000308 -0.005810 -0.017932 0.055598 0.019980
# 6 -0.006481 -0.000338 -0.005317 -0.007865 0.019980 0.036457
#
#
# Mechanical properties :
#
#
# Convention : Reuss Voigt Hill
#
# Bulk Modulus (GPa) = 38.31206 65.59409 51.95308
# Shear Modulus (GPa) = 24.50770 34.99915 29.75342
#
# Velocity S-wave (km/s) = 3.32384 3.97208 3.66233
# Velocity P-wave (km/s) = 5.65698 7.11379 6.42679
#
# Compressibility (1/GPa) = 0.02610144
#
# Stress axis : x y z
#
# Youngs Moduli (GPa) = 37.69343 116.69736 89.72978
#
# Poissons Ratio (x) = 0.81945 0.15299
# Poissons Ratio (y) = 0.26468 0.12060
# Poissons Ratio (z) = 0.06427 0.15684
#
# Static dielectric constant tensor:
#      x y z
#    x 1.828620 0.028420 0.000970 
#    y 0.028420 1.872860 -0.018370 
#    z 0.000970 -0.018370 1.854730 
# 
# From -- ./inp_files/425132.got.cif
#   From: 2010.05.17/outbox.cif.g08.bks.cpg/sg2_213_cif.got.tgz:425132.got - 2010.06.03 11:33:40.
