data_PCOD9021583
_publ_section_title
;
Structure prediction by ZEFSAII (Michael W. Deem and Ramdas Pophale) SiO2 
 PCOD9021583
Probable space group: P -1
;
_chemical_formula_sum "Si O2"
_cell_formula_units_Z 12
_cell_length_a 8.239667
_cell_length_b 11.933983
_cell_length_c 10.882972
_cell_angle_alpha 61.820105
_cell_angle_beta 117.037475
_cell_angle_gamma 68.729610
_cell_volume 569.291984
_symmetry_space_group_name_H-M "P -1"
_symmetry_group_IT_number 2
_symmetry_cell_setting 'triclinic'
loop_
_space_group_symop_operation_xyz
x,y,z
-x,-y,-z
loop_
_atom_site_type_symbol
_atom_site_label
_atom_site_fract_x
_atom_site_fract_y
_atom_site_fract_z
Si Si1 0.390323 0.295053 0.349276
Si Si2 0.310362 0.979392 0.184988
Si Si3 0.667875 0.496469 0.157917
Si Si4 0.172184 0.321283 0.007041
Si Si5 0.945837 0.121225 0.532717
Si Si6 0.253491 0.843110 0.001412
O O1 0.280793 0.267918 0.211890
O O2 0.653270 0.233901 0.426067
O O3 0.477970 0.167235 0.561683
O O4 0.150327 0.514094 0.185514
O O5 0.295791 0.137044 0.078115
O O6 0.015479 0.090597 0.078839
O O7 0.357297 0.874615 0.133057
O O8 0.916132 0.281254 0.396386
O O9 0.500000 0.500000 0.000000
O O10 0.753076 0.583146 0.077608
O O11 0.475095 0.633985 0.132756
O O12 0.000000 0.000000 0.500000
O O13 0.157827 0.980885 0.784055
#
# Coordination Sequence:
#
# PCOD9021583 Si02
#       6
#     2   2   2   2   2   2
#     4  10  22  38  63  92 123 161 201 257 300 362
#     4  10  23  42  63  91 125 163 204 248 310 363
#     4  12  23  40  63  91 123 159 207 255 306 360
#     4  11  23  38  63  94 125 159 201 259 306 360
#     4  11  21  39  66  90 120 163 208 252 301 359
#     4  10  23  42  65  89 123 165 206 251 299 372
#
# _framework density 21.078814999999999
#
# number of rings (size 3 to 8) (size 9 to 14) (size 15 to 20)
#    0.000    1.333    3.333    1.500    2.333    4.667 
#    0.000    6.667    0.000    0.000    0.000    0.000 
#    0.000    0.000    0.000    0.000    0.000    0.000 
#
# Total GULP energy -67137.985798 kJ/mol
# GULP energy per Si atom -5594.832150 kJ/mol
# Density = 2.103084 g / cm^3
# Si number density = 21.078815 Si / 1000 Ang^3
#
#
#
# Elastic Constant Matrix: (Units=GPa)
#
#
# Indices 1 2 3 4 5 6 
#
# 1 77.7438 49.3905 43.8415 1.9037 -14.5891 5.4354
# 2 49.3905 149.2218 54.0344 -24.9492 -20.5215 -4.8469
# 3 43.8415 54.0344 99.3191 -18.2757 -18.4739 7.8160
# 4 1.9037 -24.9492 -18.2757 14.4715 1.4240 -6.5870
# 5 -14.5891 -20.5215 -18.4739 1.4240 32.7393 -9.8930
# 6 5.4354 -4.8469 7.8160 -6.5870 -9.8930 30.4232
#
#
#
# Elastic Compliance Matrix: (Units=1/GPa)
#
#
# Indices 1 2 3 4 5 6 
#
# 1 0.039121 -0.020982 -0.020216 -0.077386 -0.011507 -0.025635
# 2 -0.020982 0.024291 0.009123 0.065821 0.015594 0.024596
# 3 -0.020216 0.009123 0.025688 0.056341 0.013282 0.014983
# 4 -0.077386 0.065821 0.056341 0.300666 0.053376 0.092292
# 5 -0.011507 0.015594 0.013282 0.053376 0.049013 0.028622
# 6 -0.025635 0.024596 0.014983 0.092292 0.028622 0.066809
#
#
# Mechanical properties :
#
#
# Convention : Reuss Voigt Hill
#
# Bulk Modulus (GPa) = 40.08195 68.97973 54.53084
# Shear Modulus (GPa) = 8.64971 27.46136 18.05553
#
# Velocity S-wave (km/s) = 2.02791 3.61334 2.92990
# Velocity P-wave (km/s) = 4.95376 7.08548 6.11326
#
# Compressibility (1/GPa) = 0.02494889
#
# Stress axis : x y z
#
# Youngs Moduli (GPa) = 25.56184 41.16749 38.92879
#
# Poissons Ratio (x) = 0.86377 0.78700
# Poissons Ratio (y) = 0.53633 -0.35514
# Poissons Ratio (z) = 0.51677 -0.37556
#
# Static dielectric constant tensor:
#      x y z
#    x 1.796850 -0.003390 0.005380 
#    y -0.003390 1.717180 -0.015470 
#    z 0.005380 -0.015470 1.755160 
# 
# From -- ./inp_files/93091.got.cif
#   From: 2010.05.17/outbox.cif.g08.bks.cpg/sg2_47_cif.got.tgz:93091.got - 2010.06.03 11:33:40.
