data_PCOD9021231
_publ_section_title
;
Structure prediction by ZEFSAII (Michael W. Deem and Ramdas Pophale) SiO2 
 PCOD9021231
Probable space group: P -1
;
_chemical_formula_sum "Si O2"
_cell_formula_units_Z 13
_cell_length_a 7.931994
_cell_length_b 13.746989
_cell_length_c 14.554634
_cell_angle_alpha 20.189926
_cell_angle_beta 99.296558
_cell_angle_gamma 89.142242
_cell_volume 471.481919
_symmetry_space_group_name_H-M "P -1"
_symmetry_group_IT_number 2
_symmetry_cell_setting 'triclinic'
loop_
_space_group_symop_operation_xyz
x,y,z
-x,-y,-z
loop_
_atom_site_type_symbol
_atom_site_label
_atom_site_fract_x
_atom_site_fract_y
_atom_site_fract_z
Si Si1 0.216513 0.633767 0.771452
Si Si2 0.500000 0.000000 0.000000
Si Si3 0.021226 0.152951 0.625845
Si Si4 0.596477 0.436565 0.869902
Si Si5 0.042628 0.749632 0.144669
Si Si6 0.267037 0.202999 0.317765
Si Si7 0.487747 0.638766 0.489640
O O1 0.442598 0.447017 0.921476
O O2 0.084628 0.743829 0.572000
O O3 0.198455 0.940232 0.554851
O O4 0.176546 0.409978 0.034374
O O5 0.423894 0.379167 0.682758
O O6 0.577696 0.065100 0.847635
O O7 0.992827 0.464157 0.403686
O O8 0.254942 0.923392 0.832422
O O9 0.956805 0.950058 0.865824
O O10 0.739048 0.565266 0.807239
O O11 0.466556 0.673319 0.566826
O O12 0.275876 0.564235 0.317142
O O13 0.000000 0.000000 0.000000
O O14 0.500000 0.000000 0.500000
#
# Coordination Sequence:
#
# PCOD9021231 Si02
#       7
#     2   1   2   2   2   2   2
#     4  11  24  42  65  97 132 169 215 264 319 379
#     4  10  22  38  58  92 122 150 214 264 302 378
#     4  11  25  42  67  96 124 170 217 259 321 381
#     4  10  23  42  67  94 131 170 214 266 316 382
#     4  11  24  44  63  88 129 169 209 266 326 379
#     4  10  22  41  65  95 132 172 211 262 324 376
#     4  10  22  39  62  90 123 166 211 258 317 376
#
# _framework density 27.572638000000001
#
# number of rings (size 3 to 8) (size 9 to 14) (size 15 to 20)
#    0.000    1.538    0.000    5.077    0.000   16.000 
#    0.000    0.000    0.000    0.000    0.000    0.000 
#    0.000    0.000    0.000    0.000    0.000    0.000 
#
# Total GULP energy -72709.285389 kJ/mol
# GULP energy per Si atom -5593.021953 kJ/mol
# Density = 2.750988 g / cm^3
# Si number density = 27.572638 Si / 1000 Ang^3
#
#
#
# Elastic Constant Matrix: (Units=GPa)
#
#
# Indices 1 2 3 4 5 6 
#
# 1 92.4744 18.1537 47.7660 -1.8924 -2.4920 -9.9356
# 2 18.1537 113.1473 40.1173 11.6230 -14.0893 9.9037
# 3 47.7660 40.1173 170.7904 15.4897 -27.9101 4.7891
# 4 -1.8924 11.6230 15.4897 63.4901 -2.5845 -1.6312
# 5 -2.4920 -14.0893 -27.9101 -2.5845 43.3531 9.5689
# 6 -9.9356 9.9037 4.7891 -1.6312 9.5689 39.0043
#
#
#
# Elastic Compliance Matrix: (Units=1/GPa)
#
#
# Indices 1 2 3 4 5 6 
#
# 1 0.013987 -0.001818 -0.004419 0.001818 -0.003751 0.005563
# 2 -0.001818 0.010456 -0.001149 -0.001653 0.003307 -0.003857
# 3 -0.004419 -0.001149 0.008517 -0.001861 0.005473 -0.003300
# 4 0.001818 -0.001653 -0.001861 0.016570 -0.001101 0.002074
# 5 -0.003751 0.003307 0.005473 -0.001101 0.029537 -0.009759
# 6 0.005563 -0.003857 -0.003300 0.002074 -0.009759 0.030921
#
#
# Mechanical properties :
#
#
# Convention : Reuss Voigt Hill
#
# Bulk Modulus (GPa) = 54.98204 65.38733 60.18469
# Shear Modulus (GPa) = 38.21973 47.19452 42.70712
#
# Velocity S-wave (km/s) = 3.72714 4.14169 3.93987
# Velocity P-wave (km/s) = 6.20533 6.82917 6.52471
#
# Compressibility (1/GPa) = 0.01818776
#
# Stress axis : x y z
#
# Youngs Moduli (GPa) = 71.49512 95.63544 117.41912
#
# Poissons Ratio (x) = 0.17389 0.51883
# Poissons Ratio (y) = 0.13000 0.13493
# Poissons Ratio (z) = 0.31591 0.10990
#
# Static dielectric constant tensor:
#      x y z
#    x 2.228080 -0.023330 0.068460 
#    y -0.023330 2.184680 -0.000320 
#    z 0.068460 -0.000320 2.108870 
# 
# From -- ./inp_files/503486.got.cif
#   From: 2010.05.17/outbox.cif.g08.bks.cpg/sg2_252_cif.got.tgz:503486.got - 2010.06.03 11:33:40.
