data_PCOD9021644
_publ_section_title
;
Structure prediction by ZEFSAII (Michael W. Deem and Ramdas Pophale) SiO2 
 PCOD9021644
Probable space group: P -1
;
_chemical_formula_sum "Si O2"
_cell_formula_units_Z 14
_cell_length_a 5.346454
_cell_length_b 24.313483
_cell_length_c 14.951607
_cell_angle_alpha 22.302455
_cell_angle_beta 128.515992
_cell_angle_gamma 126.548614
_cell_volume 575.878782
_symmetry_space_group_name_H-M "P -1"
_symmetry_group_IT_number 2
_symmetry_cell_setting 'triclinic'
loop_
_space_group_symop_operation_xyz
x,y,z
-x,-y,-z
loop_
_atom_site_type_symbol
_atom_site_label
_atom_site_fract_x
_atom_site_fract_y
_atom_site_fract_z
Si Si1 0.446067 0.379320 0.272623
Si Si2 0.664602 0.793394 0.324927
Si Si3 0.751448 0.096630 0.085580
Si Si4 0.225633 0.675421 0.863102
Si Si5 0.721164 0.074500 0.630187
Si Si6 0.833603 0.429555 0.655934
Si Si7 0.907010 0.505668 0.747033
O O1 0.519200 0.264255 0.539851
O O2 0.773633 0.437857 0.212023
O O3 0.153788 0.304761 0.264709
O O4 0.310783 0.521604 0.072628
O O5 0.007838 0.857167 0.342587
O O6 0.704616 0.646267 0.497684
O O7 0.473813 0.895460 0.065004
O O8 0.564269 0.998994 0.264891
O O9 0.799819 0.258460 0.891353
O O10 0.084053 0.037994 0.215057
O O11 0.386814 0.804241 0.646333
O O12 0.264537 0.639298 0.030560
O O13 0.500000 0.500000 0.500000
O O14 0.000000 0.500000 0.500000
O O15 0.024381 0.469858 0.728649
#
# Coordination Sequence:
#
# PCOD9021644 Si02
#       7
#     2   2   2   2   2   2   2
#     4   9  19  36  65  97 131 165 222 278 326 377
#     4  10  22  38  64 101 127 170 218 275 332 384
#     4  12  25  44  63  96 135 179 217 258 335 393
#     4   9  21  39  60  99 130 174 217 268 329 387
#     4  11  26  41  65  94 141 175 209 266 328 411
#     4  12  26  47  71  96 132 169 226 280 318 383
#     4  11  22  38  73  96 127 172 227 280 322 375
#
# _framework density 24.310670999999999
#
# number of rings (size 3 to 8) (size 9 to 14) (size 15 to 20)
#    0.000    1.429    1.429    3.857   10.000    0.000 
#    0.000    1.429    0.000    0.000    0.000    0.000 
#    0.000    0.000    0.000    0.000    0.000    0.000 
#
# Total GULP energy -78295.988730 kJ/mol
# GULP energy per Si atom -5592.570624 kJ/mol
# Density = 2.425534 g / cm^3
# Si number density = 24.310671 Si / 1000 Ang^3
#
#
#
# Elastic Constant Matrix: (Units=GPa)
#
#
# Indices 1 2 3 4 5 6 
#
# 1 128.4652 17.9141 62.1051 -0.4264 -17.4088 -24.2526
# 2 17.9141 49.6399 13.3591 -15.7136 -0.0934 -17.3914
# 3 62.1051 13.3591 138.3027 -4.3808 -24.2566 -20.7763
# 4 -0.4264 -15.7136 -4.3808 35.5060 -8.2011 -0.4198
# 5 -17.4088 -0.0934 -24.2566 -8.2011 49.9350 2.5638
# 6 -24.2526 -17.3914 -20.7763 -0.4198 2.5638 38.0611
#
#
#
# Elastic Compliance Matrix: (Units=1/GPa)
#
#
# Indices 1 2 3 4 5 6 
#
# 1 0.010839 -0.001725 -0.003859 -0.000697 0.001586 0.003897
# 2 -0.001725 0.029323 0.000485 0.013454 0.001250 0.012628
# 3 -0.003859 0.000485 0.010115 0.002329 0.003795 0.003054
# 4 -0.000697 0.013454 0.002329 0.035973 0.006465 0.006936
# 5 0.001586 0.001250 0.003795 0.006465 0.023376 0.002150
# 6 0.003897 0.012628 0.003054 0.006936 0.002150 0.036126
#
#
# Mechanical properties :
#
#
# Convention : Reuss Voigt Hill
#
# Bulk Modulus (GPa) = 24.95174 55.90714 40.42944
# Shear Modulus (GPa) = 29.53187 39.56905 34.55046
#
# Velocity S-wave (km/s) = 3.48914 4.03878 3.77398
# Velocity P-wave (km/s) = 5.14957 6.69297 5.97135
#
# Compressibility (1/GPa) = 0.04007736
#
# Stress axis : x y z
#
# Youngs Moduli (GPa) = 92.26165 34.10316 98.86714
#
# Poissons Ratio (x) = 0.05884 0.38152
# Poissons Ratio (y) = 0.15918 -0.04793
# Poissons Ratio (z) = 0.35603 -0.01653
#
# Static dielectric constant tensor:
#      x y z
#    x 1.932080 0.034870 0.017390 
#    y 0.034870 2.087630 0.061380 
#    z 0.017390 0.061380 1.959820 
# 
# From -- ./inp_files/64332.got.cif
#   From: 2010.05.17/outbox.cif.g08.bks.cpg/sg2_33_cif.got.tgz:64332.got - 2010.06.03 11:33:40.
