data_PCOD9021360
_publ_section_title
;
Structure prediction by ZEFSAII (Michael W. Deem and Ramdas Pophale) SiO2 
 PCOD9021360
Probable space group: P -1
;
_chemical_formula_sum "Si O2"
_cell_formula_units_Z 14
_cell_length_a 11.546371
_cell_length_b 10.171099
_cell_length_c 8.161627
_cell_angle_alpha 80.889992
_cell_angle_beta 108.334533
_cell_angle_gamma 142.051310
_cell_volume 552.861559
_symmetry_space_group_name_H-M "P -1"
_symmetry_group_IT_number 2
_symmetry_cell_setting 'triclinic'
loop_
_space_group_symop_operation_xyz
x,y,z
-x,-y,-z
loop_
_atom_site_type_symbol
_atom_site_label
_atom_site_fract_x
_atom_site_fract_y
_atom_site_fract_z
Si Si1 0.209862 0.140379 0.419777
Si Si2 0.273089 0.729992 0.241767
Si Si3 0.821965 0.248072 0.158342
Si Si4 0.256584 0.369565 0.980854
Si Si5 0.307197 0.944097 0.527129
Si Si6 0.569327 0.520907 0.286272
Si Si7 0.096521 0.952107 0.907576
O O1 0.415395 0.314175 0.374070
O O2 0.257024 0.263330 0.577403
O O3 0.055620 0.094518 0.259948
O O4 0.163146 0.947230 0.468746
O O5 0.289447 0.866741 0.352886
O O6 0.057958 0.479490 0.220655
O O7 0.469040 0.820827 0.368757
O O8 0.275320 0.762091 0.040363
O O9 0.745061 0.202065 0.318007
O O10 0.795138 0.069815 0.135271
O O11 0.331891 0.477230 0.816564
O O12 0.228802 0.183584 0.993188
O O13 0.437529 0.530583 0.154464
O O14 0.047713 0.239455 0.981659
#
# Coordination Sequence:
#
# PCOD9021360 Si02
#       7
#     2   2   2   2   2   2   2
#     4  10  22  38  60  95 131 159 205 259 321 393
#     4  10  26  46  68  96 124 172 230 268 310 382
#     4  11  24  46  70  94 131 171 216 273 322 377
#     4   9  19  35  55  87 127 165 203 245 311 384
#     4  11  24  46  70  94 131 171 216 273 322 377
#     4   9  19  35  55  87 127 165 203 245 311 384
#     4  10  22  38  60  95 131 159 205 259 321 393
#
# _framework density 25.322794999999999
#
# number of rings (size 3 to 8) (size 9 to 14) (size 15 to 20)
#    0.000    2.000    0.000    1.714   12.000    2.286 
#    0.000    5.714    0.000    0.000    0.000    0.000 
#    0.000    0.000    0.000    0.000    0.000    0.000 
#
# Total GULP energy -78244.060514 kJ/mol
# GULP energy per Si atom -5588.861465 kJ/mol
# Density = 2.526516 g / cm^3
# Si number density = 25.322795 Si / 1000 Ang^3
#
#
#
# Elastic Constant Matrix: (Units=GPa)
#
#
# Indices 1 2 3 4 5 6 
#
# 1 44.9201 0.4725 20.7006 -1.2070 8.9746 3.3294
# 2 0.4725 54.7455 26.9872 1.2016 3.3299 18.5285
# 3 20.7006 26.9872 135.5873 2.0414 -1.4404 2.2882
# 4 -1.2070 1.2016 2.0414 50.4663 12.5942 -13.4603
# 5 8.9746 3.3299 -1.4404 12.5942 34.7010 -7.0760
# 6 3.3294 18.5285 2.2882 -13.4603 -7.0760 31.1881
#
#
#
# Elastic Compliance Matrix: (Units=1/GPa)
#
#
# Indices 1 2 3 4 5 6 
#
# 1 0.027125 0.005411 -0.005214 0.001169 -0.009688 -0.007421
# 2 0.005411 0.028770 -0.006221 -0.004002 -0.007159 -0.020565
# 3 -0.005214 -0.006221 0.009372 -0.000014 0.003214 0.004288
# 4 0.001169 -0.004002 -0.000014 0.024606 -0.006526 0.011393
# 5 -0.009688 -0.007159 0.003214 -0.006526 0.036664 0.010553
# 6 -0.007421 -0.020565 0.004288 0.011393 0.010553 0.052070
#
#
# Mechanical properties :
#
#
# Convention : Reuss Voigt Hill
#
# Bulk Modulus (GPa) = 18.79030 36.84151 27.81590
# Shear Modulus (GPa) = 23.99318 35.74394 29.86856
#
# Velocity S-wave (km/s) = 3.08148 3.76111 3.43813
# Velocity P-wave (km/s) = 4.48298 5.78287 5.17391
#
# Compressibility (1/GPa) = 0.05321895
#
# Stress axis : x y z
#
# Youngs Moduli (GPa) = 36.86701 34.75873 106.70594
#
# Poissons Ratio (x) = -0.18809 0.55632
# Poissons Ratio (y) = -0.19950 0.66384
# Poissons Ratio (z) = 0.19221 0.21624
#
# Static dielectric constant tensor:
#      x y z
#    x 1.960900 0.040660 -0.034540 
#    y 0.040660 2.043370 -0.069680 
#    z -0.034540 -0.069680 2.051660 
# 
# From -- ./inp_files/253719.got.cif
#   From: 2010.05.17/outbox.cif.g08.bks.cpg/sg2_127_cif.got.tgz:253719.got - 2010.06.03 11:33:40.
