data_PCOD9021769
_publ_section_title
;
Structure prediction by ZEFSAII (Michael W. Deem and Ramdas Pophale) SiO2 
 PCOD9021769
Probable space group: P -1
;
_chemical_formula_sum "Si O2"
_cell_formula_units_Z 14
_cell_length_a 17.781097
_cell_length_b 11.142180
_cell_length_c 4.999733
_cell_angle_alpha 121.772233
_cell_angle_beta 114.377391
_cell_angle_gamma 40.934012
_cell_volume 551.544073
_symmetry_space_group_name_H-M "P -1"
_symmetry_group_IT_number 2
_symmetry_cell_setting 'triclinic'
loop_
_space_group_symop_operation_xyz
x,y,z
-x,-y,-z
loop_
_atom_site_type_symbol
_atom_site_label
_atom_site_fract_x
_atom_site_fract_y
_atom_site_fract_z
Si Si1 0.588693 0.470558 0.905165
Si Si2 0.376461 0.846431 0.749968
Si Si3 0.286375 0.235306 0.977936
Si Si4 0.220196 0.577194 0.970582
Si Si5 0.858561 0.598341 0.520278
Si Si6 0.084529 0.995884 0.295143
Si Si7 0.871419 0.876342 0.004038
O O1 0.501137 0.674003 0.855099
O O2 0.637452 0.278537 0.590897
O O3 0.500000 0.500000 0.000000
O O4 0.692283 0.446371 0.127706
O O5 0.378279 0.001606 0.809621
O O6 0.261357 0.981259 0.923622
O O7 0.293069 0.383025 0.034057
O O8 0.184935 0.297737 0.710213
O O9 0.245885 0.293823 0.291963
O O10 0.120855 0.592675 0.721594
O O11 0.165291 0.774273 0.272045
O O12 0.925427 0.654576 0.792427
O O13 0.059423 0.120911 0.663984
O O14 0.133488 0.039981 0.188032
O O15 0.000000 0.000000 0.000000
#
# Coordination Sequence:
#
# PCOD9021769 Si02
#       7
#     2   2   2   2   2   2   2
#     4  11  23  38  63 100 130 174 222 265 321 386
#     4  10  22  38  65  93 130 177 217 256 331 391
#     4   9  21  39  62  91 128 173 213 261 323 378
#     4  10  24  40  65  96 136 166 220 278 314 386
#     4   9  21  39  68  92 126 176 214 257 334 377
#     4  12  26  43  71 100 129 169 220 271 330 387
#     4  11  22  45  70  92 133 176 209 271 327 391
#
# _framework density 25.383285000000001
#
# number of rings (size 3 to 8) (size 9 to 14) (size 15 to 20)
#    0.857    0.857    1.429    3.000    6.000    2.857 
#    0.000    6.429    0.000    0.000    0.000    0.000 
#    0.000    0.000    0.000    0.000    0.000    0.000 
#
# Total GULP energy -77938.173603 kJ/mol
# GULP energy per Si atom -5567.012400 kJ/mol
# Density = 2.532551 g / cm^3
# Si number density = 25.383285 Si / 1000 Ang^3
#
#
#
# Elastic Constant Matrix: (Units=GPa)
#
#
# Indices 1 2 3 4 5 6 
#
# 1 111.3579 21.6643 18.7018 13.2760 24.4832 18.0013
# 2 21.6643 100.4311 37.1984 18.2019 8.7295 30.4645
# 3 18.7018 37.1984 101.0911 14.0765 20.7038 6.8790
# 4 13.2760 18.2019 14.0765 36.4326 8.2930 13.2915
# 5 24.4832 8.7295 20.7038 8.2930 41.7931 5.1217
# 6 18.0013 30.4645 6.8790 13.2915 5.1217 29.6663
#
#
#
# Elastic Compliance Matrix: (Units=1/GPa)
#
#
# Indices 1 2 3 4 5 6 
#
# 1 0.011241 0.000017 -0.000486 -0.000657 -0.005547 -0.005473
# 2 0.000017 0.016727 -0.005206 -0.000856 0.001181 -0.015800
# 3 -0.000486 -0.005206 0.013011 -0.002830 -0.005097 0.004771
# 4 -0.000657 -0.000856 -0.002830 0.034727 -0.003326 -0.013050
# 5 -0.005547 0.001181 -0.005097 -0.003326 0.030162 -0.000383
# 6 -0.005473 -0.015800 0.004771 -0.013050 -0.000383 0.058062
#
#
# Mechanical properties :
#
#
# Convention : Reuss Voigt Hill
#
# Bulk Modulus (GPa) = 33.75060 52.00102 42.87581
# Shear Modulus (GPa) = 27.00445 37.26610 32.13527
#
# Velocity S-wave (km/s) = 3.26524 3.83578 3.56195
# Velocity P-wave (km/s) = 5.24795 6.33628 5.81762
#
# Compressibility (1/GPa) = 0.02962910
#
# Stress axis : x y z
#
# Youngs Moduli (GPa) = 88.95945 59.78386 76.86039
#
# Poissons Ratio (x) = -0.00099 0.03733
# Poissons Ratio (y) = -0.00147 0.40011
# Poissons Ratio (z) = 0.04321 0.31121
#
# Static dielectric constant tensor:
#      x y z
#    x 2.168210 -0.051760 -0.035470 
#    y -0.051760 4.991940 0.807000 
#    z -0.035470 0.807000 2.244450 
# 
# From -- ./inp_files/94055.got.cif
#   From: 2010.05.17/outbox.cif.g08.bks.cpg/sg2_48_cif.got.tgz:94055.got - 2010.06.03 11:33:40.
