data_PCOD9021729
_publ_section_title
;
Structure prediction by ZEFSAII (Michael W. Deem and Ramdas Pophale) SiO2 
 PCOD9021729
Probable space group: P -1
;
_chemical_formula_sum "Si O2"
_cell_formula_units_Z 16
_cell_length_a 13.000052
_cell_length_b 13.763898
_cell_length_c 11.505059
_cell_angle_alpha 46.830621
_cell_angle_beta 147.665144
_cell_angle_gamma 141.425984
_cell_volume 684.835323
_symmetry_space_group_name_H-M "P -1"
_symmetry_group_IT_number 2
_symmetry_cell_setting 'triclinic'
loop_
_space_group_symop_operation_xyz
x,y,z
-x,-y,-z
loop_
_atom_site_type_symbol
_atom_site_label
_atom_site_fract_x
_atom_site_fract_y
_atom_site_fract_z
Si Si1 0.204266 0.275695 0.456138
Si Si2 0.747301 0.849252 0.635053
Si Si3 0.209588 0.723603 0.053104
Si Si4 0.540609 0.293054 0.908848
Si Si5 0.158863 0.038557 0.009524
Si Si6 0.372432 0.398254 0.849644
Si Si7 0.709184 0.446035 0.542838
Si Si8 0.531877 0.029929 0.257529
O O1 0.271995 0.217040 0.456828
O O2 0.274585 0.199651 0.689856
O O3 0.331366 0.451752 0.484121
O O4 0.969548 0.255246 0.208075
O O5 0.520538 0.709731 0.590112
O O6 0.729466 0.001892 0.502599
O O7 0.989108 0.902125 0.871540
O O8 0.319356 0.664152 0.110908
O O9 0.147106 0.609987 0.199881
O O10 0.388349 0.890115 0.142856
O O11 0.558149 0.419832 0.912490
O O12 0.602270 0.184948 0.127720
O O13 0.243513 0.215981 0.908821
O O14 0.380768 0.026131 0.224266
O O15 0.000000 0.000000 0.000000
O O16 0.216797 0.447755 0.589381
O O17 0.500000 0.500000 0.000000
#
# Coordination Sequence:
#
# PCOD9021729 Si02
#       8
#     2   2   2   2   2   2   2   2
#     4  11  21  36  61  96 135 173 212 260 326 388
#     4  11  22  39  68  91 133 175 214 268 324 384
#     4  11  21  37  63  99 136 172 213 261 333 395
#     4  10  22  38  64  97 137 170 212 267 331 392
#     4  11  24  45  69  95 124 176 227 268 320 389
#     4  10  23  45  69  96 130 174 220 272 325 384
#     4  10  22  40  62  97 138 171 213 265 327 388
#     4  10  22  39  60  99 134 167 216 269 329 382
#
# _framework density 23.363282000000002
#
# number of rings (size 3 to 8) (size 9 to 14) (size 15 to 20)
#    0.000    1.500    3.750    1.875    1.750    4.000 
#    0.000    1.250    0.000   12.000    0.000    0.000 
#    0.000    0.000    0.000    0.000    0.000    0.000 
#
# Total GULP energy -89101.797016 kJ/mol
# GULP energy per Si atom -5568.862313 kJ/mol
# Density = 2.331011 g / cm^3
# Si number density = 23.363282 Si / 1000 Ang^3
#
#
#
# Elastic Constant Matrix: (Units=GPa)
#
#
# Indices 1 2 3 4 5 6 
#
# 1 95.3363 0.8938 33.6046 3.3171 -9.5433 -12.9761
# 2 0.8938 48.0933 -5.6668 9.8228 -6.3731 -13.9255
# 3 33.6046 -5.6668 72.4095 -5.5783 12.4735 3.2457
# 4 3.3171 9.8228 -5.5783 29.1366 -3.4082 -4.0269
# 5 -9.5433 -6.3731 12.4735 -3.4082 29.4782 2.6707
# 6 -12.9761 -13.9255 3.2457 -4.0269 2.6707 23.2183
#
#
#
# Elastic Compliance Matrix: (Units=1/GPa)
#
#
# Indices 1 2 3 4 5 6 
#
# 1 0.016241 0.003400 -0.009443 -0.002256 0.008727 0.011040
# 2 0.003400 0.027560 -0.001650 -0.007036 0.005420 0.016816
# 3 -0.009443 -0.001650 0.020549 0.003262 -0.011071 -0.007301
# 4 -0.002256 -0.007036 0.003262 0.037727 0.000682 0.000528
# 5 0.008727 0.005420 -0.011071 0.000682 0.042237 0.004936
# 6 0.011040 0.016816 -0.007301 0.000528 0.004936 0.059870
#
#
# Mechanical properties :
#
#
# Convention : Reuss Voigt Hill
#
# Bulk Modulus (GPa) = 20.42412 30.38914 25.40663
# Shear Modulus (GPa) = 21.19612 28.83380 25.01496
#
# Velocity S-wave (km/s) = 3.01531 3.51686 3.27570
# Velocity P-wave (km/s) = 4.56987 5.43383 5.02047
#
# Compressibility (1/GPa) = 0.04896172
#
# Stress axis : x y z
#
# Youngs Moduli (GPa) = 61.57361 36.28473 48.66345
#
# Poissons Ratio (x) = -0.12335 0.45954
# Poissons Ratio (y) = -0.20932 0.08031
# Poissons Ratio (z) = 0.58145 0.05988
#
# Static dielectric constant tensor:
#      x y z
#    x 1.914950 0.036100 0.004410 
#    y 0.036100 1.890820 -0.033670 
#    z 0.004410 -0.033670 1.958880 
# 
# From -- ./inp_files/454578.got.cif
#   From: 2010.05.17/outbox.cif.g08.bks.cpg/sg2_228_cif.got.tgz:454578.got - 2010.06.03 11:33:40.
