data_PCOD9021386
_publ_section_title
;
Structure prediction by ZEFSAII (Michael W. Deem and Ramdas Pophale) SiO2 
 PCOD9021386
Probable space group: P -1
;
_chemical_formula_sum "Si O2"
_cell_formula_units_Z 12
_cell_length_a 9.945995
_cell_length_b 7.987376
_cell_length_c 8.193264
_cell_angle_alpha 85.747008
_cell_angle_beta 52.391586
_cell_angle_gamma 62.179201
_cell_volume 434.935019
_symmetry_space_group_name_H-M "P -1"
_symmetry_group_IT_number 2
_symmetry_cell_setting 'triclinic'
loop_
_space_group_symop_operation_xyz
x,y,z
-x,-y,-z
loop_
_atom_site_type_symbol
_atom_site_label
_atom_site_fract_x
_atom_site_fract_y
_atom_site_fract_z
Si Si1 0.752702 0.626971 0.569622
Si Si2 0.117815 0.292633 0.194200
Si Si3 0.635331 0.606021 0.196747
Si Si4 0.647394 0.223540 0.291352
Si Si5 0.923030 0.888027 0.321650
Si Si6 0.269653 0.859023 0.227444
O O1 0.814619 0.628021 0.708587
O O2 0.514396 0.737072 0.729286
O O3 0.831011 0.752913 0.412775
O O4 0.878742 0.411987 0.402805
O O5 0.230702 0.056522 0.148510
O O6 0.192676 0.350553 0.975496
O O7 0.709903 0.381248 0.201243
O O8 0.499713 0.720922 0.446109
O O9 0.485605 0.690138 0.145578
O O10 0.837238 0.011754 0.211170
O O11 0.155625 0.782570 0.206534
O O12 0.834782 0.042686 0.527570
#
# Coordination Sequence:
#
# PCOD9021386 Si02
#       6
#     2   2   2   2   2   2
#     4  10  22  38  61  87 120 153 191 243 295 337
#     4  10  22  38  62  89 115 154 199 238 286 348
#     4  10  22  38  62  89 115 154 199 238 286 348
#     4  10  22  38  61  87 120 153 191 243 295 337
#     4   9  19  38  60  85 117 155 193 236 291 347
#     4   9  19  36  63  84 114 155 199 235 281 350
#
# _framework density 27.590330000000002
#
# number of rings (size 3 to 8) (size 9 to 14) (size 15 to 20)
#    0.000    2.333    0.000    1.000   14.000    1.333 
#    0.000    0.833    0.000    0.000    0.000    0.000 
#    0.000    0.000    0.000    0.000    0.000    0.000 
#
# Total GULP energy -67180.139663 kJ/mol
# GULP energy per Si atom -5598.344972 kJ/mol
# Density = 2.752753 g / cm^3
# Si number density = 27.590330 Si / 1000 Ang^3
#
#
#
# Elastic Constant Matrix: (Units=GPa)
#
#
# Indices 1 2 3 4 5 6 
#
# 1 93.1917 40.7274 -7.2356 -11.0087 5.5769 -18.2222
# 2 40.7274 149.7865 26.8599 -18.1761 -16.7176 -4.7650
# 3 -7.2356 26.8599 127.9295 -6.1684 -1.4440 8.9537
# 4 -11.0087 -18.1761 -6.1684 33.5241 9.1303 -10.3781
# 5 5.5769 -16.7176 -1.4440 9.1303 27.1923 -5.6954
# 6 -18.2222 -4.7650 8.9537 -10.3781 -5.6954 46.4309
#
#
#
# Elastic Compliance Matrix: (Units=1/GPa)
#
#
# Indices 1 2 3 4 5 6 
#
# 1 0.014927 -0.004078 0.001536 0.006532 -0.006463 0.005811
# 2 -0.004078 0.009057 -0.002036 0.001869 0.005848 0.000857
# 3 0.001536 -0.002036 0.008447 0.001049 -0.001724 -0.001212
# 4 0.006532 0.001869 0.001049 0.039330 -0.011254 0.009964
# 5 -0.006463 0.005848 -0.001724 -0.011254 0.045694 0.001486
# 6 0.005811 0.000857 -0.001212 0.009964 0.001486 0.026549
#
#
# Mechanical properties :
#
#
# Convention : Reuss Voigt Hill
#
# Bulk Modulus (GPa) = 42.96577 54.62346 48.79461
# Shear Modulus (GPa) = 31.07167 42.13317 36.60242
#
# Velocity S-wave (km/s) = 3.35950 3.91205 3.64626
# Velocity P-wave (km/s) = 5.53669 6.34402 5.95405
#
# Compressibility (1/GPa) = 0.02327434
#
# Stress axis : x y z
#
# Youngs Moduli (GPa) = 66.99468 110.41397 118.38376
#
# Poissons Ratio (x) = 0.45024 -0.18181
# Poissons Ratio (y) = 0.27319 0.24103
# Poissons Ratio (z) = -0.10289 0.22481
#
# Static dielectric constant tensor:
#      x y z
#    x 2.183250 -0.060220 -0.006610 
#    y -0.060220 2.136010 0.033540 
#    z -0.006610 0.033540 2.199940 
# 
# From -- ./inp_files/147724.got.cif
#   From: 2010.05.17/outbox.cif.g08.bks.cpg/sg2_74_cif.got.tgz:147724.got - 2010.06.03 11:33:40.
