data_PCOD9021144
_publ_section_title
;
Structure prediction by ZEFSAII (Michael W. Deem and Ramdas Pophale) SiO2 
 PCOD9021144
Probable space group: P -1
;
_chemical_formula_sum "Si O2"
_cell_formula_units_Z 15
_cell_length_a 8.540145
_cell_length_b 10.148050
_cell_length_c 17.459170
_cell_angle_alpha 143.699219
_cell_angle_beta 126.852171
_cell_angle_gamma 76.092048
_cell_volume 615.328092
_symmetry_space_group_name_H-M "P -1"
_symmetry_group_IT_number 2
_symmetry_cell_setting 'triclinic'
loop_
_space_group_symop_operation_xyz
x,y,z
-x,-y,-z
loop_
_atom_site_type_symbol
_atom_site_label
_atom_site_fract_x
_atom_site_fract_y
_atom_site_fract_z
Si Si1 0.822792 0.415058 0.478595
Si Si2 0.083029 0.115493 0.180722
Si Si3 0.313921 0.212699 0.524486
Si Si4 0.322841 0.767434 0.260545
Si Si5 0.889453 0.043013 0.412476
Si Si6 0.500000 0.500000 0.000000
Si Si7 0.879439 0.397778 0.035408
Si Si8 0.616505 0.778684 0.818815
O O1 0.828505 0.676051 0.628334
O O2 0.878898 0.303444 0.518654
O O3 0.573803 0.195806 0.271941
O O4 0.000000 0.500000 0.500000
O O5 0.229000 0.260364 0.216237
O O6 0.120015 0.869625 0.082699
O O7 0.812253 0.000074 0.032957
O O8 0.436916 0.187044 0.623751
O O9 0.452282 0.516494 0.692941
O O10 0.050890 0.079634 0.404266
O O11 0.345273 0.044423 0.390489
O O12 0.222989 0.598934 0.077066
O O13 0.144650 0.618431 0.207721
O O14 0.000000 0.000000 0.500000
O O15 0.644939 0.798152 0.209558
O O16 0.724836 0.462671 0.073236
#
# Coordination Sequence:
#
# PCOD9021144 Si02
#       8
#     2   2   2   2   2   1   2   2
#     4  12  27  48  76 110 155 200 251 310 374 451
#     4  11  26  46  76 107 149 201 254 304 372 447
#     4  11  21  44  68 103 142 191 245 300 368 440
#     4  10  22  37  71  98 139 186 238 298 359 440
#     4  12  28  48  73 110 151 195 244 312 380 441
#     4  12  26  46  72 110 152 184 244 314 376 440
#     4  11  22  43  67 106 138 190 242 300 367 439
#     4  11  24  46  72 106 145 196 255 308 366 447
#
# _framework density 24.37724
#
# number of rings (size 3 to 8) (size 9 to 14) (size 15 to 20)
#    0.000    0.800    4.000    2.800    0.000    6.933 
#    2.400    0.000    0.000    0.000    0.000    0.000 
#    0.000    0.000    0.000    0.000    0.000    0.000 
#
# Total GULP energy -83512.180251 kJ/mol
# GULP energy per Si atom -5567.478683 kJ/mol
# Density = 2.432176 g / cm^3
# Si number density = 24.377240 Si / 1000 Ang^3
#
#
#
# Elastic Constant Matrix: (Units=GPa)
#
#
# Indices 1 2 3 4 5 6 
#
# 1 52.3079 12.6104 19.7108 7.0575 26.5477 -5.5847
# 2 12.6104 121.5002 14.6154 14.5678 -3.4165 -10.8483
# 3 19.7108 14.6154 90.5927 -0.8122 22.5975 4.3112
# 4 7.0575 14.5678 -0.8122 37.4032 -11.1788 1.5070
# 5 26.5477 -3.4165 22.5975 -11.1788 41.3596 1.9510
# 6 -5.5847 -10.8483 4.3112 1.5070 1.9510 29.4533
#
#
#
# Elastic Compliance Matrix: (Units=1/GPa)
#
#
# Indices 1 2 3 4 5 6 
#
# 1 0.037166 -0.001847 -0.001451 -0.014972 -0.027695 0.009180
# 2 -0.001847 0.009338 -0.001790 -0.002865 0.002002 0.003365
# 3 -0.001451 -0.001790 0.013396 -0.000609 -0.006585 -0.002428
# 4 -0.014972 -0.002865 -0.000609 0.036929 0.020019 -0.007020
# 5 -0.027695 0.002002 -0.006585 0.020019 0.051506 -0.007986
# 6 0.009180 0.003365 -0.002428 -0.007020 -0.007986 0.038176
#
#
# Mechanical properties :
#
#
# Convention : Reuss Voigt Hill
#
# Bulk Modulus (GPa) = 20.11115 39.80823 29.95969
# Shear Modulus (GPa) = 23.44555 36.14083 29.79319
#
# Velocity S-wave (km/s) = 3.10462 3.85459 3.49975
# Velocity P-wave (km/s) = 4.59559 6.01465 5.35236
#
# Compressibility (1/GPa) = 0.04972367
#
# Stress axis : x y z
#
# Youngs Moduli (GPa) = 26.90628 107.09395 74.65139
#
# Poissons Ratio (x) = 0.19778 0.10834
# Poissons Ratio (y) = 0.04969 0.13361
# Poissons Ratio (z) = 0.03905 0.19167
#
# Static dielectric constant tensor:
#      x y z
#    x 2.149590 0.019620 -0.060280 
#    y 0.019620 2.095110 -0.026210 
#    z -0.060280 -0.026210 1.905130 
# 
# From -- ./inp_files/589277.got.cif
#   From: 2010.05.17/outbox.cif.g08.bks.cpg/sg2_295_cif.got.tgz:589277.got - 2010.06.03 11:33:40.
