data_PCOD9021180
_publ_section_title
;
Structure prediction by ZEFSAII (Michael W. Deem and Ramdas Pophale) SiO2 
 PCOD9021180
Probable space group: P -1
;
_chemical_formula_sum "Si O2"
_cell_formula_units_Z 16
_cell_length_a 19.219414
_cell_length_b 13.531773
_cell_length_c 15.819935
_cell_angle_alpha 153.021609
_cell_angle_beta 26.388948
_cell_angle_gamma 145.555005
_cell_volume 822.465761
_symmetry_space_group_name_H-M "P -1"
_symmetry_group_IT_number 2
_symmetry_cell_setting 'triclinic'
loop_
_space_group_symop_operation_xyz
x,y,z
-x,-y,-z
loop_
_atom_site_type_symbol
_atom_site_label
_atom_site_fract_x
_atom_site_fract_y
_atom_site_fract_z
Si Si1 0.598223 0.815423 0.396930
Si Si2 0.315112 0.289369 0.957675
Si Si3 0.663908 0.893022 0.736436
Si Si4 0.763146 0.196830 0.282067
Si Si5 0.318839 0.702429 0.372453
Si Si6 0.185032 0.511860 0.703254
Si Si7 0.641137 0.649488 0.409920
Si Si8 0.847860 0.288084 0.937117
O O1 0.679573 0.703639 0.144701
O O2 0.417026 0.809171 0.559923
O O3 0.599589 0.725753 0.421136
O O4 0.679909 0.066128 0.498327
O O5 0.498142 0.294207 0.793276
O O6 0.220191 0.059854 0.918813
O O7 0.263213 0.500271 0.219078
O O8 0.680234 0.651658 0.575774
O O9 0.692550 0.845777 0.570048
O O10 0.783849 0.068372 0.790360
O O11 0.500000 0.000000 0.000000
O O12 0.777310 0.299954 0.438095
O O13 0.854316 0.358454 0.238283
O O14 0.034903 0.345173 0.770963
O O15 0.210975 0.694871 0.888847
O O16 0.500000 0.500000 0.500000
O O17 0.774857 0.492973 0.132652
#
# Coordination Sequence:
#
# PCOD9021180 Si02
#       8
#     2   2   2   2   2   2   2   2
#     4   9  17  29  49  74 109 139 171 225 277 315
#     4   8  15  29  47  72 104 135 177 220 278 323
#     4  11  22  36  56  81 113 145 186 230 266 327
#     4   9  17  29  50  76 104 136 178 226 266 328
#     4   8  15  29  44  73 105 136 172 224 271 323
#     4  10  22  38  57  79 112 151 186 223 277 334
#     4  11  21  36  53  81 113 143 186 227 270 330
#     4  10  22  39  55  78 114 151 184 227 275 328
#
# _framework density 19.453696999999998
#
# number of rings (size 3 to 8) (size 9 to 14) (size 15 to 20)
#    0.000    2.500    1.250    3.375    0.000    2.000 
#    4.500    0.000    0.000    3.000    0.000    5.250 
#    0.000    0.000    0.000    0.000    0.000    0.000 
#
# Total GULP energy -89081.712590 kJ/mol
# GULP energy per Si atom -5567.607037 kJ/mol
# Density = 1.940942 g / cm^3
# Si number density = 19.453697 Si / 1000 Ang^3
#
#
#
# Elastic Constant Matrix: (Units=GPa)
#
#
# Indices 1 2 3 4 5 6 
#
# 1 89.5028 51.8968 47.8136 16.0527 34.8353 -20.7244
# 2 51.8968 76.4449 46.9943 5.6664 27.9239 -25.6724
# 3 47.8136 46.9943 100.0448 23.8222 37.2095 -2.9996
# 4 16.0527 5.6664 23.8222 15.1534 16.3750 5.1265
# 5 34.8353 27.9239 37.2095 16.3750 36.9361 -0.1515
# 6 -20.7244 -25.6724 -2.9996 5.1265 -0.1515 35.7293
#
#
#
# Elastic Compliance Matrix: (Units=1/GPa)
#
#
# Indices 1 2 3 4 5 6 
#
# 1 0.025831 -0.008829 -0.000150 -0.016574 -0.010143 0.010962
# 2 -0.008829 0.038329 -0.013092 0.034743 -0.022797 0.016238
# 3 -0.000150 -0.013092 0.023431 -0.030826 0.000088 -0.003103
# 4 -0.016574 0.034743 -0.030826 0.196450 -0.066738 -0.015707
# 5 -0.010143 -0.022797 0.000088 -0.066738 0.083323 -0.012327
# 6 0.010962 0.016238 -0.003103 -0.015707 -0.012327 0.047955
#
#
# Mechanical properties :
#
#
# Convention : Reuss Voigt Hill
#
# Bulk Modulus (GPa) = 23.01552 62.15577 42.58565
# Shear Modulus (GPa) = 10.54978 25.51627 18.03302
#
# Velocity S-wave (km/s) = 2.33126 3.62559 3.04792
# Velocity P-wave (km/s) = 4.37070 7.03893 5.85873
#
# Compressibility (1/GPa) = 0.04344894
#
# Stress axis : x y z
#
# Youngs Moduli (GPa) = 38.71332 26.09019 42.67782
#
# Poissons Ratio (x) = 0.23035 0.00642
# Poissons Ratio (y) = 0.34180 0.55872
# Poissons Ratio (z) = 0.00582 0.34156
#
# Static dielectric constant tensor:
#      x y z
#    x 1.716570 0.014610 -0.029560 
#    y 0.014610 1.709900 -0.020080 
#    z -0.029560 -0.020080 1.714930 
# 
# From -- ./inp_files/540878.got.cif
#   From: 2010.05.17/outbox.cif.g08.bks.cpg/sg2_271_cif.got.tgz:540878.got - 2010.06.03 11:33:40.
