data_PCOD9021839
_publ_section_title
;
Structure prediction by ZEFSAII (Michael W. Deem and Ramdas Pophale) SiO2 
 PCOD9021839
Probable space group: P -1
;
_chemical_formula_sum "Si O2"
_cell_formula_units_Z 15
_cell_length_a 16.526319
_cell_length_b 12.077435
_cell_length_c 5.113702
_cell_angle_alpha 60.888991
_cell_angle_beta 94.116681
_cell_angle_gamma 134.618299
_cell_volume 571.835257
_symmetry_space_group_name_H-M "P -1"
_symmetry_group_IT_number 2
_symmetry_cell_setting 'triclinic'
loop_
_space_group_symop_operation_xyz
x,y,z
-x,-y,-z
loop_
_atom_site_type_symbol
_atom_site_label
_atom_site_fract_x
_atom_site_fract_y
_atom_site_fract_z
Si Si1 0.417904 0.708904 0.777389
Si Si2 0.533451 0.627898 0.604688
Si Si3 0.875081 0.436452 0.541004
Si Si4 0.184167 0.023429 0.703884
Si Si5 0.823291 0.728359 0.824912
Si Si6 0.601609 0.055941 0.766970
Si Si7 0.000000 0.000000 0.000000
Si Si8 0.958591 0.681031 0.780137
O O1 0.457356 0.667166 0.591294
O O2 0.383714 0.812540 0.589655
O O3 0.534627 0.858694 0.832180
O O4 0.288545 0.487038 0.076768
O O5 0.500000 0.500000 0.500000
O O6 0.676579 0.847142 0.334666
O O7 0.500000 0.500000 0.000000
O O8 0.740089 0.205678 0.752208
O O9 0.895744 0.537194 0.693730
O O10 0.000000 0.500000 0.500000
O O11 0.885907 0.544879 0.175151
O O12 0.214551 0.176007 0.345491
O O13 0.102666 0.829900 0.728434
O O14 0.091067 0.980010 0.940817
O O15 0.943051 0.816573 0.579176
O O16 0.876373 0.791817 0.055048
O O17 0.500000 0.000000 0.000000
#
# Coordination Sequence:
#
# PCOD9021839 Si02
#       8
#     2   2   2   2   2   2   1   2
#     4  11  25  47  74 107 149 199 259 314 376 461
#     4  12  28  47  73 111 155 201 245 313 386 456
#     4  12  28  49  74 107 147 188 256 317 376 432
#     4  11  26  41  72 108 152 193 248 297 392 449
#     4  11  22  42  70 104 148 186 251 296 368 458
#     4  11  27  47  79 105 144 209 265 314 380 452
#     4  10  22  38  66 104 146 196 240 296 364 460
#     4  11  26  44  74 105 143 195 236 308 373 448
#
# _framework density 26.231332999999999
#
# number of rings (size 3 to 8) (size 9 to 14) (size 15 to 20)
#    0.000    0.800    2.667    3.600   13.067    3.200 
#    0.000    0.000    0.000    0.000    0.000    0.000 
#    0.000    0.000    0.000    0.000    0.000    0.000 
#
# Total GULP energy -83590.426482 kJ/mol
# GULP energy per Si atom -5572.695099 kJ/mol
# Density = 2.617163 g / cm^3
# Si number density = 26.231333 Si / 1000 Ang^3
#
#
#
# Elastic Constant Matrix: (Units=GPa)
#
#
# Indices 1 2 3 4 5 6 
#
# 1 86.6569 35.4621 1.4184 -3.2694 -21.9937 9.5503
# 2 35.4621 249.6248 57.4223 -18.5016 -12.7152 8.3748
# 3 1.4184 57.4223 69.0242 -5.8355 -7.8282 0.6823
# 4 -3.2694 -18.5016 -5.8355 57.2891 3.9738 -19.0599
# 5 -21.9937 -12.7152 -7.8282 3.9738 40.7494 -11.5042
# 6 9.5503 8.3748 0.6823 -19.0599 -11.5042 44.2008
#
#
#
# Elastic Compliance Matrix: (Units=1/GPa)
#
#
# Indices 1 2 3 4 5 6 
#
# 1 0.014342 -0.002207 0.002331 -0.000509 0.007254 -0.001048
# 2 -0.002207 0.005397 -0.004401 0.001169 -0.000495 -0.000103
# 3 0.002331 -0.004401 0.018581 0.000798 0.003763 0.001367
# 4 -0.000509 0.001169 0.000798 0.020848 0.000770 0.009066
# 5 0.007254 -0.000495 0.003763 0.000770 0.030879 0.006837
# 6 -0.001048 -0.000103 0.001367 0.009066 0.006837 0.028538
#
#
# Mechanical properties :
#
#
# Convention : Reuss Voigt Hill
#
# Bulk Modulus (GPa) = 33.59343 65.99015 49.79179
# Shear Modulus (GPa) = 36.48043 49.18139 42.83091
#
# Velocity S-wave (km/s) = 3.73328 4.33472 4.04519
# Velocity P-wave (km/s) = 5.60514 7.08976 6.39071
#
# Compressibility (1/GPa) = 0.02976773
#
# Stress axis : x y z
#
# Youngs Moduli (GPa) = 69.72524 185.30095 53.81732
#
# Poissons Ratio (x) = 0.40891 -0.12546
# Poissons Ratio (y) = 0.15387 0.23683
# Poissons Ratio (z) = -0.16254 0.81543
#
# Static dielectric constant tensor:
#      x y z
#    x 3.606900 -0.190740 -0.917940 
#    y -0.190740 2.188220 0.280760 
#    z -0.917940 0.280760 3.047570 
# 
# From -- ./inp_files/100489.got.cif
#   From: 2010.05.17/outbox.cif.g08.bks.cpg/sg2_51_cif.got.tgz:100489.got - 2010.06.03 11:33:40.
