data_PCOD9021006
_publ_section_title
;
Structure prediction by ZEFSAII (Michael W. Deem and Ramdas Pophale) SiO2 
 PCOD9021006
Probable space group: P -1
;
_chemical_formula_sum "Si O2"
_cell_formula_units_Z 16
_cell_length_a 14.987446
_cell_length_b 14.569080
_cell_length_c 9.599376
_cell_angle_alpha 83.046141
_cell_angle_beta 107.994751
_cell_angle_gamma 35.722299
_cell_volume 864.386743
_symmetry_space_group_name_H-M "P -1"
_symmetry_group_IT_number 2
_symmetry_cell_setting 'triclinic'
loop_
_space_group_symop_operation_xyz
x,y,z
-x,-y,-z
loop_
_atom_site_type_symbol
_atom_site_label
_atom_site_fract_x
_atom_site_fract_y
_atom_site_fract_z
Si Si1 0.783110 0.344643 0.182707
Si Si2 0.681004 0.929984 0.487596
Si Si3 0.319924 0.765276 0.745869
Si Si4 0.048389 0.192258 0.568408
Si Si5 0.194785 0.351833 0.223811
Si Si6 0.479307 0.618964 0.534476
Si Si7 0.916726 0.343666 0.791313
Si Si8 0.822089 0.956966 0.772595
O O1 0.786051 0.234668 0.248858
O O2 0.841398 0.355417 0.342056
O O3 0.964787 0.203437 0.181447
O O4 0.549400 0.572364 0.967402
O O5 0.806780 0.860633 0.430832
O O6 0.781586 0.745536 0.625669
O O7 0.709618 0.978379 0.619112
O O8 0.427631 0.143687 0.299624
O O9 0.367156 0.714043 0.613930
O O10 0.178013 0.980793 0.665895
O O11 0.990542 0.270292 0.681654
O O12 0.154148 0.489816 0.237156
O O13 0.000000 0.500000 0.000000
O O14 0.500000 0.500000 0.500000
O O15 0.712924 0.457303 0.693261
O O16 0.334541 0.816555 0.336471
O O17 0.102091 0.149002 0.023890
#
# Coordination Sequence:
#
# PCOD9021006 Si02
#       8
#     2   2   2   2   2   2   2   2
#     4  10  22  37  64  87 120 176 218 259 309 379
#     4  10  22  42  68  93 120 167 211 259 321 388
#     4  11  21  40  60  89 125 173 222 255 319 371
#     4  11  24  40  63  90 132 166 206 268 317 377
#     4  11  22  42  73  94 122 165 213 263 325 383
#     4  12  25  40  65  95 133 172 217 266 309 377
#     4  12  25  41  64 100 129 167 215 267 321 373
#     4  11  22  41  65  92 127 168 217 259 312 384
#
# _framework density 18.510232999999999
#
# number of rings (size 3 to 8) (size 9 to 14) (size 15 to 20)
#    0.000    1.000    6.250    1.125    1.750    4.000 
#    0.000    0.625    0.000    0.000    0.000    0.000 
#    0.000    0.000    0.000    0.000    0.000    0.000 
#
# Total GULP energy -89452.489187 kJ/mol
# GULP energy per Si atom -5590.780574 kJ/mol
# Density = 1.846810 g / cm^3
# Si number density = 18.510233 Si / 1000 Ang^3
#
#
#
# Elastic Constant Matrix: (Units=GPa)
#
#
# Indices 1 2 3 4 5 6 
#
# 1 88.4989 20.9033 39.0753 1.4015 3.3944 13.4389
# 2 20.9033 58.3600 35.8616 13.7085 -4.7964 15.1431
# 3 39.0753 35.8616 110.8453 -5.9221 -1.1247 -0.8143
# 4 1.4015 13.7085 -5.9221 25.0788 -1.4517 -5.7871
# 5 3.3944 -4.7964 -1.1247 -1.4517 35.8228 -6.3475
# 6 13.4389 15.1431 -0.8143 -5.7871 -6.3475 35.3667
#
#
#
# Elastic Compliance Matrix: (Units=1/GPa)
#
#
# Indices 1 2 3 4 5 6 
#
# 1 0.015049 0.001246 -0.006058 -0.004913 -0.003019 -0.007737
# 2 0.001246 0.038301 -0.014580 -0.029594 -0.000572 -0.022154
# 3 -0.006058 -0.014580 0.016785 0.015085 0.001839 0.011730
# 4 -0.004913 -0.029594 0.015085 0.066257 0.004359 0.026509
# 5 -0.003019 -0.000572 0.001839 0.004359 0.029684 0.007475
# 6 -0.007737 -0.022154 0.011730 0.026509 0.007475 0.046650
#
#
# Mechanical properties :
#
#
# Convention : Reuss Voigt Hill
#
# Bulk Modulus (GPa) = 31.89809 49.93163 40.91486
# Shear Modulus (GPa) = 19.08683 30.04459 24.56571
#
# Velocity S-wave (km/s) = 3.21464 4.03318 3.64695
# Velocity P-wave (km/s) = 5.57213 6.98015 6.31550
#
# Compressibility (1/GPa) = 0.03134984
#
# Stress axis : x y z
#
# Youngs Moduli (GPa) = 66.45139 26.10888 59.57675
#
# Poissons Ratio (x) = -0.03253 0.36091
# Poissons Ratio (y) = -0.08279 0.86865
# Poissons Ratio (z) = 0.40256 0.38068
#
# Static dielectric constant tensor:
#      x y z
#    x 1.635150 -0.007600 0.002080 
#    y -0.007600 1.595760 -0.009310 
#    z 0.002080 -0.009310 1.646880 
# 
# From -- ./inp_files/201293.got.cif
#   From: 2010.05.17/outbox.cif.g08.bks.cpg/sg2_101_cif.got.tgz:201293.got - 2010.06.03 11:33:40.
