data_PCOD9021057
_publ_section_title
;
Structure prediction by ZEFSAII (Michael W. Deem and Ramdas Pophale) SiO2 
 PCOD9021057
Probable space group: P -1
;
_chemical_formula_sum "Si O2"
_cell_formula_units_Z 16
_cell_length_a 8.579781
_cell_length_b 13.308463
_cell_length_c 13.154921
_cell_angle_alpha 37.340147
_cell_angle_beta 51.410612
_cell_angle_gamma 58.750035
_cell_volume 711.302541
_symmetry_space_group_name_H-M "P -1"
_symmetry_group_IT_number 2
_symmetry_cell_setting 'triclinic'
loop_
_space_group_symop_operation_xyz
x,y,z
-x,-y,-z
loop_
_atom_site_type_symbol
_atom_site_label
_atom_site_fract_x
_atom_site_fract_y
_atom_site_fract_z
Si Si1 0.894725 0.864385 0.404430
Si Si2 0.418846 0.313945 0.668780
Si Si3 0.098886 0.801381 0.752131
Si Si4 0.515152 0.714402 0.746934
Si Si5 0.030202 0.317532 0.684868
Si Si6 0.375003 0.650618 0.064407
Si Si7 0.715444 0.629552 0.109738
Si Si8 0.189930 0.741460 0.547418
O O1 0.660001 0.839955 0.534909
O O2 0.957578 0.813142 0.307098
O O3 0.016776 0.747156 0.529779
O O4 0.937907 0.045732 0.279826
O O5 0.500000 0.500000 0.500000
O O6 0.341370 0.266976 0.848738
O O7 0.607826 0.210482 0.629520
O O8 0.236162 0.314998 0.664628
O O9 0.301716 0.708541 0.784176
O O10 0.138842 0.849185 0.580978
O O11 0.905929 0.694526 0.922978
O O12 0.628605 0.535121 0.830691
O O13 0.469354 0.752556 0.852586
O O14 0.843637 0.291148 0.855896
O O15 0.000000 0.500000 0.500000
O O16 0.523336 0.638116 0.109225
O O17 0.772745 0.443419 0.274123
#
# Coordination Sequence:
#
# PCOD9021057 Si02
#       8
#     2   2   2   2   2   2   2   2
#     4  12  26  42  66  96 135 173 213 263 330 389
#     4  10  22  37  65  97 126 162 216 272 316 370
#     4  12  25  43  64  97 135 174 211 267 328 383
#     4  11  24  40  63  96 131 166 215 267 324 380
#     4  12  21  41  65  95 129 169 218 266 318 382
#     4  11  23  39  69  99 124 165 221 273 313 373
#     4  11  22  42  66  97 128 170 221 268 313 380
#     4  11  22  41  65  96 129 173 220 263 315 382
#
# _framework density 22.493943999999999
#
# number of rings (size 3 to 8) (size 9 to 14) (size 15 to 20)
#    0.000    0.750    2.500    7.125    3.500    0.000 
#    0.000    6.250    0.000    0.000    0.000    0.000 
#    0.000    0.000    0.000    0.000    0.000    0.000 
#
# Total GULP energy -89542.904235 kJ/mol
# GULP energy per Si atom -5596.431515 kJ/mol
# Density = 2.244275 g / cm^3
# Si number density = 22.493944 Si / 1000 Ang^3
#
#
#
# Elastic Constant Matrix: (Units=GPa)
#
#
# Indices 1 2 3 4 5 6 
#
# 1 114.6513 33.8838 11.7427 21.3389 -11.2183 5.7023
# 2 33.8838 130.8110 36.2139 41.9590 -1.8739 11.9906
# 3 11.7427 36.2139 43.4359 32.8824 -11.0312 -8.0159
# 4 21.3389 41.9590 32.8824 40.5079 4.2105 1.1904
# 5 -11.2183 -1.8739 -11.0312 4.2105 31.3483 11.9285
# 6 5.7023 11.9906 -8.0159 1.1904 11.9285 30.8758
#
#
#
# Elastic Compliance Matrix: (Units=1/GPa)
#
#
# Indices 1 2 3 4 5 6 
#
# 1 0.012241 -0.000777 0.013583 -0.017893 0.012495 -0.002570
# 2 -0.000777 0.012638 -0.002140 -0.011135 0.003612 -0.006286
# 3 0.013583 -0.002140 0.120094 -0.108710 0.057180 0.011601
# 4 -0.017893 -0.011135 -0.108710 0.140551 -0.063661 -0.001419
# 5 0.012495 0.003612 0.057180 -0.063661 0.070444 -0.013626
# 6 -0.002570 -0.006286 0.011601 -0.001419 -0.013626 0.043634
#
#
# Mechanical properties :
#
#
# Convention : Reuss Voigt Hill
#
# Bulk Modulus (GPa) = 6.01304 50.28655 28.14979
# Shear Modulus (GPa) = 11.52857 34.35024 22.93941
#
# Velocity S-wave (km/s) = 2.26634 3.91204 3.19690
# Velocity P-wave (km/s) = 3.08665 6.54290 5.11551
#
# Compressibility (1/GPa) = 0.16630534
#
# Stress axis : x y z
#
# Youngs Moduli (GPa) = 81.69087 79.12708 8.32679
#
# Poissons Ratio (x) = 0.06151 -0.11310
# Poissons Ratio (y) = 0.06350 0.01782
# Poissons Ratio (z) = -1.10963 0.16932
#
# Static dielectric constant tensor:
#      x y z
#    x 1.788010 -0.018090 0.017930 
#    y -0.018090 1.891200 0.000620 
#    z 0.017930 0.000620 1.828240 
# 
# From -- ./inp_files/243736.got.cif
#   From: 2010.05.17/outbox.cif.g08.bks.cpg/sg2_122_cif.got.tgz:243736.got - 2010.06.03 11:33:40.
