data_PCOD9021277
_publ_section_title
;
Structure prediction by ZEFSAII (Michael W. Deem and Ramdas Pophale) SiO2 
 PCOD9021277
Probable space group: P -1
;
_chemical_formula_sum "Si O2"
_cell_formula_units_Z 16
_cell_length_a 16.786931
_cell_length_b 8.821527
_cell_length_c 8.055069
_cell_angle_alpha 102.697760
_cell_angle_beta 56.120217
_cell_angle_gamma 129.467233
_cell_volume 747.477252
_symmetry_space_group_name_H-M "P -1"
_symmetry_group_IT_number 2
_symmetry_cell_setting 'triclinic'
loop_
_space_group_symop_operation_xyz
x,y,z
-x,-y,-z
loop_
_atom_site_type_symbol
_atom_site_label
_atom_site_fract_x
_atom_site_fract_y
_atom_site_fract_z
Si Si1 0.111811 0.725130 0.999019
Si Si2 0.668105 0.507480 0.309888
Si Si3 0.948151 0.782390 0.046135
Si Si4 0.428867 0.180566 0.077194
Si Si5 0.456550 0.404599 0.778068
Si Si6 0.352748 0.829110 0.630277
Si Si7 0.093754 0.507909 0.270431
Si Si8 0.327604 0.771161 0.259283
O O1 0.246449 0.848308 0.788676
O O2 0.043930 0.815337 0.077135
O O3 0.133483 0.687915 0.147157
O O4 0.000000 0.500000 0.000000
O O5 0.554446 0.419428 0.547151
O O6 0.645738 0.607614 0.213672
O O7 0.662916 0.316313 0.241265
O O8 0.808720 0.660841 0.245671
O O9 0.947135 0.670935 0.853788
O O10 0.000000 0.000000 0.000000
O O11 0.462263 0.370601 0.185389
O O12 0.342819 0.967020 0.224250
O O13 0.403972 0.230186 0.934608
O O14 0.553015 0.206442 0.920871
O O15 0.318651 0.747714 0.462342
O O16 0.500000 0.000000 0.500000
O O17 0.208922 0.574790 0.263112
O O18 0.000000 0.500000 0.500000
#
# Coordination Sequence:
#
# PCOD9021277 Si02
#       8
#     2   2   2   2   2   2   2   2
#     4  10  22  44  70  96 136 184 236 282 341 419
#     4  11  22  40  65  93 132 179 232 281 342 407
#     4  11  25  46  71  98 134 185 240 286 349 424
#     4  10  22  38  59  93 135 177 214 276 356 416
#     4  10  22  39  61  93 138 174 219 285 350 414
#     4  12  24  40  72 104 135 184 243 285 341 414
#     4  11  24  41  70  99 135 179 231 291 349 408
#     4  11  23  39  64  95 139 174 231 282 354 410
#
# _framework density 21.405335999999998
#
# number of rings (size 3 to 8) (size 9 to 14) (size 15 to 20)
#    0.000    1.250    3.750    3.000    3.500    5.000 
#    0.000    0.625    0.000    0.000    0.000    0.000 
#    0.000    0.000    0.000    0.000    0.000    0.000 
#
# Total GULP energy -89099.989882 kJ/mol
# GULP energy per Si atom -5568.749368 kJ/mol
# Density = 2.135662 g / cm^3
# Si number density = 21.405336 Si / 1000 Ang^3
#
#
#
# Elastic Constant Matrix: (Units=GPa)
#
#
# Indices 1 2 3 4 5 6 
#
# 1 156.9526 25.7205 34.1246 -2.4981 -5.6039 -11.5565
# 2 25.7205 60.1765 -5.2631 -5.1723 5.0235 -15.4140
# 3 34.1246 -5.2631 56.5567 0.0138 -4.6445 9.6421
# 4 -2.4981 -5.1723 0.0138 28.5083 6.5522 7.4502
# 5 -5.6039 5.0235 -4.6445 6.5522 34.3857 -1.8506
# 6 -11.5565 -15.4140 9.6421 7.4502 -1.8506 37.9278
#
#
#
# Elastic Compliance Matrix: (Units=1/GPa)
#
#
# Indices 1 2 3 4 5 6 
#
# 1 0.008474 -0.003605 -0.005816 -0.000993 0.001466 0.002862
# 2 -0.003605 0.020398 0.002808 0.002647 -0.003381 0.005793
# 3 -0.005816 0.002808 0.022670 0.001477 0.001066 -0.006632
# 4 -0.000993 0.002647 0.001477 0.039395 -0.008273 -0.007745
# 5 0.001466 -0.003381 0.001066 -0.008273 0.031641 0.001970
# 6 0.002862 0.005793 -0.006632 -0.007745 0.001970 0.032896
#
#
# Mechanical properties :
#
#
# Convention : Reuss Voigt Hill
#
# Bulk Modulus (GPa) = 26.09971 42.53885 34.31928
# Shear Modulus (GPa) = 27.55266 34.77130 31.16198
#
# Velocity S-wave (km/s) = 3.59163 4.03478 3.81964
# Velocity P-wave (km/s) = 5.42396 6.45152 5.95993
#
# Compressibility (1/GPa) = 0.03831460
#
# Stress axis : x y z
#
# Youngs Moduli (GPa) = 118.01051 49.02503 44.11212
#
# Poissons Ratio (x) = 0.17674 0.25654
# Poissons Ratio (y) = 0.42545 -0.12385
# Poissons Ratio (z) = 0.68631 -0.13764
#
# Static dielectric constant tensor:
#      x y z
#    x 1.705110 0.014770 0.037030 
#    y 0.014770 1.821330 -0.029040 
#    z 0.037030 -0.029040 1.852240 
# 
# From -- ./inp_files/295467.got.cif
#   From: 2010.05.17/outbox.cif.g08.bks.cpg/sg2_148_cif.got.tgz:295467.got - 2010.06.03 11:33:40.
