data_PCOD9021885
_publ_section_title
;
Structure prediction by ZEFSAII (Michael W. Deem and Ramdas Pophale) SiO2 
 PCOD9021885
Probable space group: P -1
;
_chemical_formula_sum "Si O2"
_cell_formula_units_Z 14
_cell_length_a 9.346899
_cell_length_b 8.966883
_cell_length_c 6.893330
_cell_angle_alpha 102.487936
_cell_angle_beta 92.769474
_cell_angle_gamma 90.543997
_cell_volume 563.302307
_symmetry_space_group_name_H-M "P -1"
_symmetry_group_IT_number 2
_symmetry_cell_setting 'triclinic'
loop_
_space_group_symop_operation_xyz
x,y,z
-x,-y,-z
loop_
_atom_site_type_symbol
_atom_site_label
_atom_site_fract_x
_atom_site_fract_y
_atom_site_fract_z
Si Si1 0.191130 0.047406 0.895828
Si Si2 0.667380 0.190124 0.892124
Si Si3 0.729389 0.749594 0.379408
Si Si4 0.881394 0.455160 0.137552
Si Si5 0.495716 0.390167 0.157704
Si Si6 0.955011 0.789288 0.742469
Si Si7 0.404633 0.661421 0.439265
O O1 0.069209 0.929028 0.777500
O O2 0.271595 0.112685 0.734153
O O3 0.277819 0.960518 0.044781
O O4 0.117485 0.184920 0.045153
O O5 0.668173 0.211857 0.665219
O O6 0.775441 0.326988 0.003620
O O7 0.515869 0.232471 0.996927
O O8 0.794693 0.601249 0.238768
O O9 0.836004 0.792127 0.572077
O O10 0.571484 0.706251 0.428462
O O11 0.961536 0.368483 0.292355
O O12 0.000000 0.500000 0.000000
O O13 0.379664 0.491275 0.297162
O O14 0.605667 0.356033 0.335657
O O15 0.500000 0.500000 0.000000
#
# Coordination Sequence:
#
# PCOD9021885 Si02
#       7
#     2   2   2   2   2   2   2
#     4  10  23  43  62  89 133 179 209 266 325 382
#     4  10  22  42  64  92 135 172 209 260 328 387
#     4  12  23  40  67  98 126 170 221 269 321 381
#     4  11  22  41  66  98 127 165 217 278 321 372
#     4   9  19  39  61  92 127 164 207 259 317 375
#     4  10  23  42  62  90 131 170 219 267 326 382
#     4  10  22  38  66  97 128 168 214 263 323 387
#
# _framework density 24.853441
#
# number of rings (size 3 to 8) (size 9 to 14) (size 15 to 20)
#    0.000    1.714    2.857    0.857    0.000    7.429 
#    5.143    1.429    0.000    0.000    0.000    0.000 
#    0.000    0.000    0.000    0.000    0.000    0.000 
#
# Total GULP energy -78120.396628 kJ/mol
# GULP energy per Si atom -5580.028331 kJ/mol
# Density = 2.479687 g / cm^3
# Si number density = 24.853441 Si / 1000 Ang^3
#
#
#
# Elastic Constant Matrix: (Units=GPa)
#
#
# Indices 1 2 3 4 5 6 
#
# 1 79.6657 33.0122 40.7400 -12.3736 10.6721 5.0940
# 2 33.0122 110.9958 49.1497 -26.8023 10.9611 -4.8579
# 3 40.7400 49.1497 133.8939 -28.1443 13.7260 19.6445
# 4 -12.3736 -26.8023 -28.1443 30.3672 -1.3115 -5.7044
# 5 10.6721 10.9611 13.7260 -1.3115 35.8552 -9.2581
# 6 5.0940 -4.8579 19.6445 -5.7044 -9.2581 26.6598
#
#
#
# Elastic Compliance Matrix: (Units=1/GPa)
#
#
# Indices 1 2 3 4 5 6 
#
# 1 0.016026 -0.003159 -0.002911 0.000419 -0.003336 -0.002562
# 2 -0.003159 0.014036 -0.003376 0.009444 0.000294 0.007772
# 3 -0.002911 -0.003376 0.012817 0.005562 -0.005439 -0.010202
# 4 0.000419 0.009444 0.005562 0.047890 -0.001514 0.007264
# 5 -0.003336 0.000294 -0.005439 -0.001514 0.035096 0.016563
# 6 -0.002562 0.007772 -0.010202 0.007264 0.016563 0.054239
#
#
# Mechanical properties :
#
#
# Convention : Reuss Voigt Hill
#
# Bulk Modulus (GPa) = 41.69012 63.37326 52.53169
# Shear Modulus (GPa) = 24.15563 32.02003 28.08783
#
# Velocity S-wave (km/s) = 3.12095 3.59326 3.36540
# Velocity P-wave (km/s) = 5.45875 6.53984 6.02359
#
# Compressibility (1/GPa) = 0.02398650
#
# Stress axis : x y z
#
# Youngs Moduli (GPa) = 62.39949 71.24777 78.02146
#
# Poissons Ratio (x) = 0.22508 0.22709
# Poissons Ratio (y) = 0.19712 0.26342
# Poissons Ratio (z) = 0.18162 0.24055
#
# Static dielectric constant tensor:
#      x y z
#    x 2.110550 -0.033140 0.007800 
#    y -0.033140 1.966880 0.033570 
#    z 0.007800 0.033570 1.950370 
# 
# From -- ./inp_files/61050.got.cif
#   From: 2010.05.17/outbox.cif.g08.bks.cpg/sg2_31_cif.got.tgz:61050.got - 2010.06.03 11:33:40.
