data_PCOD9021973
_publ_section_title
;
Structure prediction by ZEFSAII (Michael W. Deem and Ramdas Pophale) SiO2 
 PCOD9021973
Probable space group: P -1
;
_chemical_formula_sum "Si O2"
_cell_formula_units_Z 15
_cell_length_a 7.792073
_cell_length_b 11.395965
_cell_length_c 11.510487
_cell_angle_alpha 115.126079
_cell_angle_beta 122.931539
_cell_angle_gamma 37.853835
_cell_volume 526.415160
_symmetry_space_group_name_H-M "P -1"
_symmetry_group_IT_number 2
_symmetry_cell_setting 'triclinic'
loop_
_space_group_symop_operation_xyz
x,y,z
-x,-y,-z
loop_
_atom_site_type_symbol
_atom_site_label
_atom_site_fract_x
_atom_site_fract_y
_atom_site_fract_z
Si Si1 0.264377 0.619290 0.301010
Si Si2 0.000000 0.000000 0.500000
Si Si3 0.740500 0.598600 0.172673
Si Si4 0.206111 0.140935 0.588445
Si Si5 0.864536 0.724899 0.985393
Si Si6 0.087130 0.597124 0.619731
Si Si7 0.336652 0.795737 0.772197
Si Si8 0.121943 0.801931 0.941427
O O1 0.114445 0.750499 0.416264
O O2 0.558601 0.557550 0.346358
O O3 0.412869 0.409150 0.288396
O O4 0.014085 0.718251 0.151620
O O5 0.672657 0.058792 0.430593
O O6 0.088531 0.951412 0.653469
O O7 0.923271 0.426150 0.258239
O O8 0.707834 0.763361 0.274988
O O9 0.906876 0.495278 0.068875
O O10 0.430755 0.666083 0.070672
O O11 0.125912 0.211358 0.456570
O O12 0.528690 0.824460 0.907990
O O13 0.892062 0.819116 0.933939
O O14 0.000000 0.500000 0.500000
O O15 0.207171 0.766712 0.819497
O O16 0.000000 0.000000 0.000000
#
# Coordination Sequence:
#
# PCOD9021973 Si02
#       8
#     2   1   2   2   2   2   2   2
#     4  12  21  45  74 105 137 186 257 307 350 424
#     4  12  30  44  68 104 158 198 230 298 378 462
#     4  11  22  47  76 106 140 187 256 310 364 421
#     4  11  25  43  71 102 142 197 241 302 365 434
#     4  12  25  46  81 110 136 195 254 313 358 431
#     4  10  22  38  68 103 139 183 244 304 351 426
#     4  12  27  49  71 107 149 194 248 299 366 444
#     4  12  28  46  71 111 155 187 234 308 387 442
#
# _framework density 28.494619
#
# number of rings (size 3 to 8) (size 9 to 14) (size 15 to 20)
#    0.000    0.533    5.333    2.800    3.733    0.533 
#    0.000    0.667    0.000    0.000    0.000    0.000 
#    0.000    0.000    0.000    0.000    0.000    0.000 
#
# Total GULP energy -83697.726466 kJ/mol
# GULP energy per Si atom -5579.848431 kJ/mol
# Density = 2.842976 g / cm^3
# Si number density = 28.494619 Si / 1000 Ang^3
#
#
#
# Elastic Constant Matrix: (Units=GPa)
#
#
# Indices 1 2 3 4 5 6 
#
# 1 143.6175 8.2810 42.7509 -6.5285 14.3632 38.3365
# 2 8.2810 64.6968 19.2046 -4.3888 3.6279 13.0674
# 3 42.7509 19.2046 164.2823 -15.1613 -2.3945 3.4071
# 4 -6.5285 -4.3888 -15.1613 36.8519 5.8107 -14.0834
# 5 14.3632 3.6279 -2.3945 5.8107 48.2347 0.5927
# 6 38.3365 13.0674 3.4071 -14.0834 0.5927 57.9668
#
#
#
# Elastic Compliance Matrix: (Units=1/GPa)
#
#
# Indices 1 2 3 4 5 6 
#
# 1 0.009749 0.000992 -0.002684 -0.001418 -0.002856 -0.006828
# 2 0.000992 0.016940 -0.002182 -0.000116 -0.001610 -0.004358
# 3 -0.002684 -0.002182 0.007287 0.003105 0.000919 0.002583
# 4 -0.001418 -0.000116 0.003105 0.031959 -0.003370 0.008581
# 5 -0.002856 -0.001610 0.000919 -0.003370 0.022141 0.001153
# 6 -0.006828 -0.004358 0.002583 0.008581 0.001153 0.024671
#
#
# Mechanical properties :
#
#
# Convention : Reuss Voigt Hill
#
# Bulk Modulus (GPa) = 38.12753 57.00773 47.56763
# Shear Modulus (GPa) = 38.68872 48.76801 43.72836
#
# Velocity S-wave (km/s) = 3.68877 4.14149 3.92167
# Velocity P-wave (km/s) = 5.61715 6.55128 6.10211
#
# Compressibility (1/GPa) = 0.02622777
#
# Stress axis : x y z
#
# Youngs Moduli (GPa) = 102.57972 59.03097 137.23191
#
# Poissons Ratio (x) = -0.05856 0.36829
# Poissons Ratio (y) = -0.10176 0.29948
# Poissons Ratio (z) = 0.27529 0.12882
#
# Static dielectric constant tensor:
#      x y z
#    x 2.853510 1.178070 0.326870 
#    y 1.178070 4.462810 0.763450 
#    z 0.326870 0.763450 2.346340 
# 
# From -- ./inp_files/390789.got.cif
#   From: 2010.05.17/outbox.cif.g08.bks.cpg/sg2_196_cif.got.tgz:390789.got - 2010.06.03 11:33:40.
