data_PCOD9021034
_publ_section_title
;
Structure prediction by ZEFSAII (Michael W. Deem and Ramdas Pophale) SiO2 
 PCOD9021034
Probable space group: P -1
;
_chemical_formula_sum "Si O2"
_cell_formula_units_Z 16
_cell_length_a 11.322901
_cell_length_b 12.905820
_cell_length_c 12.973091
_cell_angle_alpha 102.461769
_cell_angle_beta 23.681732
_cell_angle_gamma 97.673970
_cell_volume 733.517704
_symmetry_space_group_name_H-M "P -1"
_symmetry_group_IT_number 2
_symmetry_cell_setting 'triclinic'
loop_
_space_group_symop_operation_xyz
x,y,z
-x,-y,-z
loop_
_atom_site_type_symbol
_atom_site_label
_atom_site_fract_x
_atom_site_fract_y
_atom_site_fract_z
Si Si1 0.363728 0.084332 0.259040
Si Si2 0.663558 0.152270 0.835259
Si Si3 0.808916 0.908326 0.156769
Si Si4 0.362378 0.096278 0.504295
Si Si5 0.320228 0.586629 0.417623
Si Si6 0.699338 0.449462 0.234299
Si Si7 0.220382 0.738057 0.725676
Si Si8 0.385376 0.391070 0.028010
O O1 0.359766 0.110588 0.388786
O O2 0.015917 0.129856 0.519808
O O3 0.441657 0.953968 0.154736
O O4 0.580786 0.135085 0.018603
O O5 0.517366 0.274237 0.947498
O O6 0.898188 0.880605 0.198476
O O7 0.481635 0.970437 0.406568
O O8 0.894500 0.807608 0.993196
O O9 0.000000 0.000000 0.000000
O O10 0.563091 0.177430 0.409276
O O11 0.501967 0.475690 0.295841
O O12 0.314438 0.669211 0.535143
O O13 0.974056 0.586323 0.669488
O O14 0.504029 0.616745 0.180253
O O15 0.500000 0.500000 0.500000
O O16 0.781029 0.329933 0.183706
O O17 0.000000 0.500000 0.000000
O O18 0.500000 0.500000 0.000000
#
# Coordination Sequence:
#
# PCOD9021034 Si02
#       8
#     2   2   2   2   2   2   2   2
#     4  10  23  44  68  97 135 176 227 274 350 390
#     4  10  24  45  68  97 129 177 232 291 329 404
#     4   9  21  38  55  97 136 170 212 266 320 418
#     4  10  22  37  64  97 139 170 218 267 336 416
#     4  11  25  44  70  99 133 183 220 282 347 404
#     4  10  22  41  63  95 137 168 223 269 322 410
#     4  10  23  38  65  96 135 174 218 263 336 416
#     4  12  27  47  71  99 135 176 241 293 347 400
#
# _framework density 21.812698999999999
#
# number of rings (size 3 to 8) (size 9 to 14) (size 15 to 20)
#    0.000    1.750    0.000    2.625   10.500    4.000 
#    0.000    0.000    0.000    0.000    0.000    0.000 
#    0.000    0.000    0.000    0.000    0.000    0.000 
#
# Total GULP energy -89090.078982 kJ/mol
# GULP energy per Si atom -5568.129936 kJ/mol
# Density = 2.176305 g / cm^3
# Si number density = 21.812699 Si / 1000 Ang^3
#
#
#
# Elastic Constant Matrix: (Units=GPa)
#
#
# Indices 1 2 3 4 5 6 
#
# 1 50.1251 31.1609 5.4037 -4.5558 14.1970 -4.9196
# 2 31.1609 125.0708 24.3484 1.6287 2.3892 -19.3197
# 3 5.4037 24.3484 104.5353 -9.0283 12.5229 -11.6243
# 4 -4.5558 1.6287 -9.0283 34.3339 -6.4714 4.7384
# 5 14.1970 2.3892 12.5229 -6.4714 46.4956 1.0902
# 6 -4.9196 -19.3197 -11.6243 4.7384 1.0902 28.5309
#
#
#
# Elastic Compliance Matrix: (Units=1/GPa)
#
#
# Indices 1 2 3 4 5 6 
#
# 1 0.026428 -0.006672 0.001397 0.002668 -0.007742 0.000461
# 2 -0.006672 0.010937 -0.001950 -0.002431 0.001526 0.005806
# 3 0.001397 -0.001950 0.010839 0.002131 -0.003022 0.003098
# 4 0.002668 -0.002431 0.002131 0.031554 0.003262 -0.005683
# 5 -0.007742 0.001526 -0.003022 0.003262 0.025132 -0.003035
# 6 0.000461 0.005806 0.003098 -0.005683 -0.003035 0.041383
#
#
# Mechanical properties :
#
#
# Convention : Reuss Voigt Hill
#
# Bulk Modulus (GPa) = 29.62590 44.61747 37.12168
# Shear Modulus (GPa) = 29.07433 36.45995 32.76714
#
# Velocity S-wave (km/s) = 3.65486 4.09283 3.88003
# Velocity P-wave (km/s) = 5.60554 6.54479 6.09329
#
# Compressibility (1/GPa) = 0.03375425
#
# Stress axis : x y z
#
# Youngs Moduli (GPa) = 37.83891 91.43507 92.26325
#
# Poissons Ratio (x) = 0.61005 -0.12890
# Poissons Ratio (y) = 0.25246 0.17987
# Poissons Ratio (z) = -0.05286 0.17826
#
# Static dielectric constant tensor:
#      x y z
#    x 1.930820 0.011670 -0.219010 
#    y 0.011670 1.860660 -0.140850 
#    z -0.219010 -0.140850 2.540150 
# 
# From -- ./inp_files/428304.got.cif
#   From: 2010.05.17/outbox.cif.g08.bks.cpg/sg2_215_cif.got.tgz:428304.got - 2010.06.03 11:33:40.
