data_PCOD9021767
_publ_section_title
;
Structure prediction by ZEFSAII (Michael W. Deem and Ramdas Pophale) SiO2 
 PCOD9021767
Probable space group: P -1
;
_chemical_formula_sum "Si O2"
_cell_formula_units_Z 16
_cell_length_a 8.961171
_cell_length_b 13.393563
_cell_length_c 9.011070
_cell_angle_alpha 75.779684
_cell_angle_beta 123.048426
_cell_angle_gamma 129.325588
_cell_volume 692.883903
_symmetry_space_group_name_H-M "P -1"
_symmetry_group_IT_number 2
_symmetry_cell_setting 'triclinic'
loop_
_space_group_symop_operation_xyz
x,y,z
-x,-y,-z
loop_
_atom_site_type_symbol
_atom_site_label
_atom_site_fract_x
_atom_site_fract_y
_atom_site_fract_z
Si Si1 0.258099 0.602110 0.540858
Si Si2 0.179071 0.773337 0.792767
Si Si3 0.283065 0.880480 0.136374
Si Si4 0.298468 0.500310 0.328049
Si Si5 0.554472 0.544936 0.181816
Si Si6 0.678533 0.020927 0.465190
Si Si7 0.435055 0.171393 0.161504
Si Si8 0.931912 0.818732 0.183160
O O1 0.273600 0.596093 0.373870
O O2 0.375649 0.539927 0.684377
O O3 0.421707 0.749036 0.642205
O O4 0.000000 0.500000 0.500000
O O5 0.210460 0.856745 0.633861
O O6 0.365721 0.750459 0.880752
O O7 0.932068 0.640916 0.715342
O O8 0.230905 0.846375 0.949510
O O9 0.074440 0.790949 0.167275
O O10 0.507978 0.901425 0.306037
O O11 0.341152 0.022695 0.140921
O O12 0.500000 0.500000 0.500000
O O13 0.354706 0.524494 0.176179
O O14 0.767145 0.696509 0.243688
O O15 0.500000 0.500000 0.000000
O O16 0.887700 0.054668 0.663751
O O17 0.500000 0.000000 0.500000
O O18 0.226938 0.170961 0.013467
#
# Coordination Sequence:
#
# PCOD9021767 Si02
#       8
#     2   2   2   2   2   2   2   2
#     4  11  22  41  64  94 125 166 214 259 315 376
#     4  11  21  42  66  91 124 166 216 258 308 388
#     4  10  23  41  67  92 121 173 214 252 316 383
#     4  10  22  38  65  93 121 169 215 251 309 386
#     4  11  22  40  64  92 128 167 207 265 322 371
#     4   9  19  36  61  85 119 157 201 252 307 368
#     4  11  22  39  65  92 128 161 210 263 311 379
#     4  11  22  41  62  90 127 164 209 261 320 370
#
# _framework density 23.091892999999999
#
# number of rings (size 3 to 8) (size 9 to 14) (size 15 to 20)
#    0.000    1.500    2.500    4.125    3.500    0.000 
#    0.000    6.250    8.250    0.000    0.000    0.000 
#    0.000    0.000    0.000    0.000    0.000    0.000 
#
# Total GULP energy -89221.925344 kJ/mol
# GULP energy per Si atom -5576.370334 kJ/mol
# Density = 2.303933 g / cm^3
# Si number density = 23.091893 Si / 1000 Ang^3
#
#
#
# Elastic Constant Matrix: (Units=GPa)
#
#
# Indices 1 2 3 4 5 6 
#
# 1 106.9220 31.6417 51.9766 14.8148 -18.9152 29.8381
# 2 31.6417 85.9272 31.4865 20.3124 -10.1776 20.1313
# 3 51.9766 31.4865 135.8075 25.2648 -16.2506 6.2013
# 4 14.8148 20.3124 25.2648 36.1565 7.4869 -4.2260
# 5 -18.9152 -10.1776 -16.2506 7.4869 45.5143 4.9986
# 6 29.8381 20.1313 6.2013 -4.2260 4.9986 39.8615
#
#
#
# Elastic Compliance Matrix: (Units=1/GPa)
#
#
# Indices 1 2 3 4 5 6 
#
# 1 0.018388 0.002112 -0.003616 -0.010283 0.010344 -0.016655
# 2 0.002112 0.018666 -0.000885 -0.014068 0.008525 -0.013431
# 3 -0.003616 -0.000885 0.010347 -0.005781 0.002882 0.000570
# 4 -0.010283 -0.014068 -0.005781 0.050810 -0.020439 0.023651
# 5 0.010344 0.008525 0.002882 -0.020439 0.034655 -0.019009
# 6 -0.016655 -0.013431 0.000570 0.023651 -0.019009 0.049139
#
#
# Mechanical properties :
#
#
# Convention : Reuss Voigt Hill
#
# Bulk Modulus (GPa) = 23.46215 62.09627 42.77921
# Shear Modulus (GPa) = 24.87658 38.54326 31.70992
#
# Velocity S-wave (km/s) = 3.28576 4.08992 3.70970
# Velocity P-wave (km/s) = 4.95756 7.01802 6.07577
#
# Compressibility (1/GPa) = 0.04262184
#
# Stress axis : x y z
#
# Youngs Moduli (GPa) = 54.38354 53.57206 96.64767
#
# Poissons Ratio (x) = -0.11313 0.34947
# Poissons Ratio (y) = -0.11484 0.08558
# Poissons Ratio (z) = 0.19665 0.04744
#
# Static dielectric constant tensor:
#      x y z
#    x 1.823750 0.025650 0.021490 
#    y 0.025650 1.918380 -0.032310 
#    z 0.021490 -0.032310 1.960290 
# 
# From -- ./inp_files/202118.got.cif
#   From: 2010.05.17/outbox.cif.g08.bks.cpg/sg2_102_cif.got.tgz:202118.got - 2010.06.03 11:33:40.
