data_PCOD9021830
_publ_section_title
;
Structure prediction by ZEFSAII (Michael W. Deem and Ramdas Pophale) SiO2 
 PCOD9021830
Probable space group: P -1
;
_chemical_formula_sum "Si O2"
_cell_formula_units_Z 16
_cell_length_a 13.448592
_cell_length_b 9.345476
_cell_length_c 19.988777
_cell_angle_alpha 43.915014
_cell_angle_beta 154.236298
_cell_angle_gamma 126.429453
_cell_volume 744.710202
_symmetry_space_group_name_H-M "P -1"
_symmetry_group_IT_number 2
_symmetry_cell_setting 'triclinic'
loop_
_space_group_symop_operation_xyz
x,y,z
-x,-y,-z
loop_
_atom_site_type_symbol
_atom_site_label
_atom_site_fract_x
_atom_site_fract_y
_atom_site_fract_z
Si Si1 0.490779 0.642669 0.798176
Si Si2 0.575766 0.167355 0.040872
Si Si3 0.716538 0.244958 0.777256
Si Si4 0.686647 0.833789 0.979318
Si Si5 0.876928 0.681210 0.915135
Si Si6 0.509770 0.716707 0.504652
Si Si7 0.890878 0.992121 0.604982
Si Si8 0.868220 0.124390 0.692081
O O1 0.625903 0.685999 0.933339
O O2 0.637551 0.660439 0.813102
O O3 0.263297 0.827808 0.594421
O O4 0.467845 0.400717 0.871019
O O5 0.481420 0.148683 0.064705
O O6 0.857866 0.123549 0.228442
O O7 0.500000 0.000000 0.000000
O O8 0.547898 0.467016 0.608592
O O9 0.682593 0.185349 0.700205
O O10 0.665454 0.061594 0.855235
O O11 0.960518 0.297539 0.929460
O O12 0.945718 0.774380 0.187242
O O13 0.876702 0.889753 0.802628
O O14 0.000000 0.500000 0.000000
O O15 0.396781 0.771490 0.489349
O O16 0.731111 0.819691 0.585733
O O17 0.931774 0.111204 0.658015
#
# Coordination Sequence:
#
# PCOD9021830 Si02
#       8
#     2   2   2   2   2   2   2   2
#     4  12  26  46  74 102 138 185 237 286 347 409
#     4  12  28  51  71  97 139 185 246 291 340 407
#     4  10  22  38  66 101 140 181 215 281 351 415
#     4  11  24  49  68 100 138 189 230 281 349 410
#     4  11  22  38  67 102 140 184 223 274 357 417
#     4  11  21  39  64 107 140 167 227 285 350 419
#     4  12  25  45  71 105 136 182 233 290 341 414
#     4  11  22  39  69  98 143 173 217 284 352 420
#
# _framework density 21.484867999999999
#
# number of rings (size 3 to 8) (size 9 to 14) (size 15 to 20)
#    0.000    0.750    3.750    3.750    3.500    4.000 
#    2.250    0.000    0.000    0.000    0.000    0.000 
#    0.000    0.000    0.000    0.000    0.000    0.000 
#
# Total GULP energy -89402.120090 kJ/mol
# GULP energy per Si atom -5587.632506 kJ/mol
# Density = 2.143597 g / cm^3
# Si number density = 21.484868 Si / 1000 Ang^3
#
#
#
# Elastic Constant Matrix: (Units=GPa)
#
#
# Indices 1 2 3 4 5 6 
#
# 1 112.0541 15.1291 23.3305 13.6893 12.8069 -1.4185
# 2 15.1291 98.3871 12.4584 -0.6796 -3.8828 -9.4569
# 3 23.3305 12.4584 37.6041 13.7126 -2.5404 0.3221
# 4 13.6893 -0.6796 13.7126 38.3268 -6.0033 -3.5189
# 5 12.8069 -3.8828 -2.5404 -6.0033 43.9416 3.2552
# 6 -1.4185 -9.4569 0.3221 -3.5189 3.2552 23.4299
#
#
#
# Elastic Compliance Matrix: (Units=1/GPa)
#
#
# Indices 1 2 3 4 5 6 
#
# 1 0.011063 -0.001083 -0.005889 -0.002449 -0.004033 0.000506
# 2 -0.001083 0.011365 -0.004024 0.002642 0.001091 0.004822
# 3 -0.005889 -0.004024 0.035706 -0.010791 0.002277 -0.004409
# 4 -0.002449 0.002642 -0.010791 0.032033 0.004309 0.005279
# 5 -0.004033 0.001091 0.002277 0.004309 0.024946 -0.002654
# 6 0.000506 0.004822 -0.004409 0.005279 -0.002654 0.045879
#
#
# Mechanical properties :
#
#
# Convention : Reuss Voigt Hill
#
# Bulk Modulus (GPa) = 27.66840 38.87568 33.27204
# Shear Modulus (GPa) = 25.63679 34.28150 29.95914
#
# Velocity S-wave (km/s) = 3.45809 3.99884 3.73826
# Velocity P-wave (km/s) = 5.37127 6.28130 5.84403
#
# Compressibility (1/GPa) = 0.03614232
#
# Stress axis : x y z
#
# Youngs Moduli (GPa) = 90.39127 87.99080 28.00627
#
# Poissons Ratio (x) = 0.09529 0.16492
# Poissons Ratio (y) = 0.09789 0.11270
# Poissons Ratio (z) = 0.53229 0.35410
#
# Static dielectric constant tensor:
#      x y z
#    x 1.789410 -0.038160 0.024870 
#    y -0.038160 1.792250 0.034740 
#    z 0.024870 0.034740 1.860340 
# 
# From -- ./inp_files/343466.got.cif
#   From: 2010.05.17/outbox.cif.g08.bks.cpg/sg2_172_cif.got.tgz:343466.got - 2010.06.03 11:33:40.
