data_PCOD9021748
_publ_section_title
;
Structure prediction by ZEFSAII (Michael W. Deem and Ramdas Pophale) SiO2 
 PCOD9021748
Probable space group: P -1
;
_chemical_formula_sum "Si O2"
_cell_formula_units_Z 14
_cell_length_a 13.787856
_cell_length_b 11.864204
_cell_length_c 5.606295
_cell_angle_alpha 80.064008
_cell_angle_beta 84.751184
_cell_angle_gamma 131.401647
_cell_volume 650.821810
_symmetry_space_group_name_H-M "P -1"
_symmetry_group_IT_number 2
_symmetry_cell_setting 'triclinic'
loop_
_space_group_symop_operation_xyz
x,y,z
-x,-y,-z
loop_
_atom_site_type_symbol
_atom_site_label
_atom_site_fract_x
_atom_site_fract_y
_atom_site_fract_z
Si Si1 0.990383 0.855098 0.546535
Si Si2 0.634868 0.182081 0.844147
Si Si3 0.544571 0.479410 0.246974
Si Si4 0.776144 0.130008 0.468733
Si Si5 0.145234 0.330817 0.854332
Si Si6 0.216630 0.641498 0.835370
Si Si7 0.499627 0.808262 0.507761
O O1 0.913232 0.757691 0.354631
O O2 0.131327 0.901529 0.482730
O O3 0.930435 0.767372 0.849226
O O4 0.000000 0.000000 0.500000
O O5 0.715453 0.148453 0.697735
O O6 0.566194 0.238692 0.719628
O O7 0.760241 0.340016 0.898333
O O8 0.500000 0.000000 0.000000
O O9 0.500000 0.500000 0.500000
O O10 0.705252 0.598292 0.176701
O O11 0.489395 0.305430 0.335573
O O12 0.500000 0.500000 0.000000
O O13 0.848737 0.292300 0.251120
O O14 0.644685 0.982456 0.408769
O O15 0.157840 0.479373 0.799984
O O16 0.379250 0.779057 0.681465
#
# Coordination Sequence:
#
# PCOD9021748 Si02
#       7
#     2   2   2   2   2   2   2
#     4  12  30  53  71  98 144 200 243 291 337 430
#     4  11  19  38  68 106 149 172 229 298 367 422
#     4  11  26  44  74 107 137 187 239 296 364 418
#     4  11  24  40  70 104 139 192 238 279 363 426
#     4  11  28  50  73 101 146 183 241 300 352 415
#     4  10  22  42  70 105 141 174 231 306 362 415
#     4  10  22  38  65 107 141 179 227 304 361 423
#
# _framework density 21.511263
#
# number of rings (size 3 to 8) (size 9 to 14) (size 15 to 20)
#    0.000    1.143    2.857    2.143   16.000    1.143 
#    0.000    0.000    0.000    0.000    0.000    0.000 
#    0.000    0.000    0.000    0.000    0.000    0.000 
#
# Total GULP energy -77951.976168 kJ/mol
# GULP energy per Si atom -5567.998298 kJ/mol
# Density = 2.146230 g / cm^3
# Si number density = 21.511263 Si / 1000 Ang^3
#
#
#
# Elastic Constant Matrix: (Units=GPa)
#
#
# Indices 1 2 3 4 5 6 
#
# 1 133.3224 57.8381 39.3483 0.1122 23.3524 -23.2760
# 2 57.8381 123.8010 48.2872 20.0779 18.8357 -21.0773
# 3 39.3483 48.2872 85.0586 2.8234 16.1969 -13.5903
# 4 0.1122 20.0779 2.8234 35.9004 -4.9760 1.3657
# 5 23.3524 18.8357 16.1969 -4.9760 41.6375 -12.3328
# 6 -23.2760 -21.0773 -13.5903 1.3657 -12.3328 24.3543
#
#
#
# Elastic Compliance Matrix: (Units=1/GPa)
#
#
# Indices 1 2 3 4 5 6 
#
# 1 0.010784 -0.003327 -0.001921 0.001492 -0.002071 0.005223
# 2 -0.003327 0.014115 -0.004933 -0.007971 -0.001835 0.005802
# 3 -0.001921 -0.004933 0.016117 0.001111 -0.002342 0.001640
# 4 0.001492 -0.007971 0.001111 0.033080 0.005063 -0.004144
# 5 -0.002071 -0.001835 -0.002342 0.005063 0.030584 0.010330
# 6 0.005223 0.005802 0.001640 -0.004144 0.010330 0.057452
#
#
# Mechanical properties :
#
#
# Convention : Reuss Voigt Hill
#
# Bulk Modulus (GPa) = 48.41513 70.34772 59.38143
# Shear Modulus (GPa) = 26.40203 33.49233 29.94718
#
# Velocity S-wave (km/s) = 3.50717 3.95012 3.73522
# Velocity P-wave (km/s) = 6.24148 7.31972 6.80200
#
# Compressibility (1/GPa) = 0.02065470
#
# Stress axis : x y z
#
# Youngs Moduli (GPa) = 92.72953 70.84426 62.04629
#
# Poissons Ratio (x) = 0.23567 0.11919
# Poissons Ratio (y) = 0.30847 0.30610
# Poissons Ratio (z) = 0.17812 0.34951
#
# Static dielectric constant tensor:
#      x y z
#    x 1.752520 0.004590 -0.015040 
#    y 0.004590 1.687430 0.137520 
#    z -0.015040 0.137520 2.327350 
# 
# From -- ./inp_files/69289.got.cif
#   From: 2010.05.17/outbox.cif.g08.bks.cpg/sg2_35_cif.got.tgz:69289.got - 2010.06.03 11:33:40.
