data_PCOD9021807
_publ_section_title
;
Structure prediction by ZEFSAII (Michael W. Deem and Ramdas Pophale) SiO2 
 PCOD9021807
Probable space group: P -1
;
_chemical_formula_sum "Si O2"
_cell_formula_units_Z 16
_cell_length_a 14.368128
_cell_length_b 8.860195
_cell_length_c 14.304024
_cell_angle_alpha 54.169559
_cell_angle_beta 39.700365
_cell_angle_gamma 83.522331
_cell_volume 715.171256
_symmetry_space_group_name_H-M "P -1"
_symmetry_group_IT_number 2
_symmetry_cell_setting 'triclinic'
loop_
_space_group_symop_operation_xyz
x,y,z
-x,-y,-z
loop_
_atom_site_type_symbol
_atom_site_label
_atom_site_fract_x
_atom_site_fract_y
_atom_site_fract_z
Si Si1 0.007294 0.655105 0.334889
Si Si2 0.903639 0.724725 0.197522
Si Si3 0.554946 0.259963 0.880506
Si Si4 0.969690 0.744671 0.521368
Si Si5 0.457917 0.440489 0.360180
Si Si6 0.807372 0.512091 0.148911
Si Si7 0.278410 0.100849 0.311342
Si Si8 0.776330 0.077671 0.379407
O O1 0.019635 0.738876 0.190391
O O2 0.779708 0.456541 0.607900
O O3 0.073212 0.833596 0.307177
O O4 0.096069 0.524253 0.318664
O O5 0.687189 0.577789 0.451686
O O6 0.887369 0.595776 0.162407
O O7 0.000000 0.000000 0.000000
O O8 0.469235 0.347648 0.847235
O O9 0.475106 0.250454 0.047354
O O10 0.500000 0.000000 0.000000
O O11 0.807935 0.768471 0.642619
O O12 0.119916 0.896090 0.434199
O O13 0.628987 0.489079 0.266991
O O14 0.327480 0.177240 0.502414
O O15 0.741085 0.242315 0.292936
O O16 0.990884 0.732467 0.867359
O O17 0.290743 0.992485 0.436006
#
# Coordination Sequence:
#
# PCOD9021807 Si02
#       8
#     2   2   2   2   2   2   2   2
#     4  10  22  42  64  96 138 171 222 281 337 404
#     4  11  22  43  70  96 137 183 225 280 345 399
#     4  11  24  43  66  96 139 178 220 286 351 399
#     4  10  22  38  65  97 131 169 226 272 329 414
#     4  11  25  45  70 100 137 176 235 281 338 417
#     4  11  25  44  72  99 136 184 227 282 341 404
#     4  11  23  41  67  96 136 175 223 278 343 405
#     4  11  25  46  69  99 142 177 225 289 342 405
#
# _framework density 22.372264000000001
#
# number of rings (size 3 to 8) (size 9 to 14) (size 15 to 20)
#    0.000    1.250    2.500    3.000    5.250    2.000 
#    0.000    0.000    0.000    0.000    0.000    0.000 
#    0.000    0.000    0.000    0.000    0.000    0.000 
#
# Total GULP energy -89376.904653 kJ/mol
# GULP energy per Si atom -5586.056541 kJ/mol
# Density = 2.232134 g / cm^3
# Si number density = 22.372264 Si / 1000 Ang^3
#
#
#
# Elastic Constant Matrix: (Units=GPa)
#
#
# Indices 1 2 3 4 5 6 
#
# 1 105.2195 24.6821 20.1333 -1.6529 24.8056 -10.0873
# 2 24.6821 109.8463 28.5027 -10.6703 10.5311 -2.8562
# 3 20.1333 28.5027 81.7305 7.5156 28.6636 7.7929
# 4 -1.6529 -10.6703 7.5156 29.8664 -0.8850 -1.7051
# 5 24.8056 10.5311 28.6636 -0.8850 30.3709 -0.0461
# 6 -10.0873 -2.8562 7.7929 -1.7051 -0.0461 39.4153
#
#
#
# Elastic Compliance Matrix: (Units=1/GPa)
#
#
# Indices 1 2 3 4 5 6 
#
# 1 0.012531 -0.002066 0.001125 -0.000482 -0.010589 0.002802
# 2 -0.002066 0.011144 -0.004925 0.005269 0.002627 0.001483
# 3 0.001125 -0.004925 0.021949 -0.008091 -0.020170 -0.004782
# 4 -0.000482 0.005269 -0.008091 0.037791 0.007309 0.003502
# 5 -0.010589 0.002627 -0.020170 0.007309 0.059916 0.001854
# 6 0.002802 0.001483 -0.004782 0.003502 0.001854 0.027295
#
#
# Mechanical properties :
#
#
# Convention : Reuss Voigt Hill
#
# Bulk Modulus (GPa) = 29.50536 49.27029 39.38782
# Shear Modulus (GPa) = 25.81901 34.82905 30.32403
#
# Velocity S-wave (km/s) = 3.40084 3.94991 3.68561
# Velocity P-wave (km/s) = 5.35144 6.54775 5.97959
#
# Compressibility (1/GPa) = 0.03389215
#
# Stress axis : x y z
#
# Youngs Moduli (GPa) = 79.80257 89.73201 45.55930
#
# Poissons Ratio (x) = 0.18540 -0.05124
# Poissons Ratio (y) = 0.16489 0.22437
# Poissons Ratio (z) = -0.08975 0.44191
#
# Static dielectric constant tensor:
#      x y z
#    x 1.887560 0.040210 -0.036090 
#    y 0.040210 1.875220 -0.029870 
#    z -0.036090 -0.029870 1.837370 
# 
# From -- ./inp_files/529390.got.cif
#   From: 2010.05.17/outbox.cif.g08.bks.cpg/sg2_265_cif.got.tgz:529390.got - 2010.06.03 11:33:40.
