data_PCOD9021527
_publ_section_title
;
Structure prediction by ZEFSAII (Michael W. Deem and Ramdas Pophale) SiO2 
 PCOD9021527
Probable space group: P -1
;
_chemical_formula_sum "Si O2"
_cell_formula_units_Z 16
_cell_length_a 13.161405
_cell_length_b 22.927285
_cell_length_c 6.602850
_cell_angle_alpha 133.311978
_cell_angle_beta 126.283738
_cell_angle_gamma 31.647420
_cell_volume 760.516553
_symmetry_space_group_name_H-M "P -1"
_symmetry_group_IT_number 2
_symmetry_cell_setting 'triclinic'
loop_
_space_group_symop_operation_xyz
x,y,z
-x,-y,-z
loop_
_atom_site_type_symbol
_atom_site_label
_atom_site_fract_x
_atom_site_fract_y
_atom_site_fract_z
Si Si1 0.420360 0.810274 0.883510
Si Si2 0.052021 0.269873 0.315406
Si Si3 0.361211 0.559643 0.668940
Si Si4 0.913616 0.453915 0.240708
Si Si5 0.854222 0.074841 0.813500
Si Si6 0.491059 0.634609 0.288847
Si Si7 0.854850 0.640762 0.089384
Si Si8 0.141287 0.044790 0.847031
O O1 0.372429 0.763803 0.554047
O O2 0.312383 0.937060 0.950630
O O3 0.344728 0.825379 0.055726
O O4 0.651907 0.706097 0.922766
O O5 0.186399 0.270739 0.583781
O O6 0.863928 0.343937 0.409974
O O7 0.967595 0.359913 0.241220
O O8 0.136115 0.143105 0.056415
O O9 0.500000 0.500000 0.500000
O O10 0.436488 0.449826 0.631765
O O11 0.381286 0.627080 0.996781
O O12 0.681926 0.571744 0.244794
O O13 0.000000 0.500000 0.500000
O O14 0.020952 0.378496 0.984932
O O15 0.946290 0.103249 0.861532
O O16 0.843293 0.007151 0.477223
O O17 0.000000 0.000000 0.000000
O O18 0.000000 0.500000 0.000000
#
# Coordination Sequence:
#
# PCOD9021527 Si02
#       8
#     2   2   2   2   2   2   2   2
#     4  11  24  41  69  97 132 177 228 280 326 402
#     4  11  25  41  65  96 134 177 220 275 336 399
#     4  10  22  39  61  96 129 166 216 279 337 396
#     4  11  21  43  64  92 134 172 219 280 331 396
#     4   9  22  43  69  96 132 177 226 273 330 401
#     4  10  22  38  62  95 129 167 220 270 339 394
#     4  12  24  44  70  96 130 178 234 271 335 400
#     4  10  24  44  64 102 135 176 223 271 344 399
#
# _framework density 21.038330999999999
#
# number of rings (size 3 to 8) (size 9 to 14) (size 15 to 20)
#    0.000    1.500    2.500    1.500    7.000    4.500 
#    0.000    1.250    0.000    0.000    0.000    0.000 
#    0.000    0.000    0.000    0.000    0.000    0.000 
#
# Total GULP energy -89278.303348 kJ/mol
# GULP energy per Si atom -5579.893959 kJ/mol
# Density = 2.099045 g / cm^3
# Si number density = 21.038331 Si / 1000 Ang^3
#
#
#
# Elastic Constant Matrix: (Units=GPa)
#
#
# Indices 1 2 3 4 5 6 
#
# 1 88.6992 23.5138 22.7032 7.9965 -11.9506 -2.2057
# 2 23.5138 85.7094 23.0556 8.4897 9.9374 7.5169
# 3 22.7032 23.0556 94.3848 11.9384 8.4760 14.7143
# 4 7.9965 8.4897 11.9384 29.2857 2.4269 9.5535
# 5 -11.9506 9.9374 8.4760 2.4269 47.0485 6.8387
# 6 -2.2057 7.5169 14.7143 9.5535 6.8387 23.5392
#
#
#
# Elastic Compliance Matrix: (Units=1/GPa)
#
#
# Indices 1 2 3 4 5 6 
#
# 1 0.014044 -0.003574 -0.003184 -0.003342 0.004411 0.004522
# 2 -0.003574 0.013798 -0.001715 -0.001343 -0.003122 -0.002217
# 3 -0.003184 -0.001715 0.013210 -0.001645 -0.001748 -0.006833
# 4 -0.003342 -0.001343 -0.001645 0.041198 -0.000135 -0.015537
# 5 0.004411 -0.003122 -0.001748 -0.000135 0.023998 -0.004414
# 6 0.004522 -0.002217 -0.006833 -0.015537 -0.004414 0.055474
#
#
# Mechanical properties :
#
#
# Convention : Reuss Voigt Hill
#
# Bulk Modulus (GPa) = 41.48013 45.25987 43.37000
# Shear Modulus (GPa) = 26.78045 33.27606 30.02825
#
# Velocity S-wave (km/s) = 3.57169 3.98136 3.78208
# Velocity P-wave (km/s) = 6.06371 6.53412 6.30330
#
# Compressibility (1/GPa) = 0.02410793
#
# Stress axis : x y z
#
# Youngs Moduli (GPa) = 71.20352 72.47166 75.70068
#
# Poissons Ratio (x) = 0.25898 0.24101
# Poissons Ratio (y) = 0.25445 0.12984
# Poissons Ratio (z) = 0.22669 0.12430
#
# Static dielectric constant tensor:
#      x y z
#    x 1.769480 -0.014190 -0.014790 
#    y -0.014190 1.805500 0.000000 
#    z -0.014790 0.000000 1.797250 
# 
# From -- ./inp_files/83535.got.cif
#   From: 2010.05.17/outbox.cif.g08.bks.cpg/sg2_42_cif.got.tgz:83535.got - 2010.06.03 11:33:40.
