data_PCOD9021401
_publ_section_title
;
Structure prediction by ZEFSAII (Michael W. Deem and Ramdas Pophale) SiO2 
 PCOD9021401
Probable space group: P -1
;
_chemical_formula_sum "Si O2"
_cell_formula_units_Z 16
_cell_length_a 14.281848
_cell_length_b 17.420899
_cell_length_c 13.714635
_cell_angle_alpha 140.691269
_cell_angle_beta 159.076248
_cell_angle_gamma 49.305377
_cell_volume 733.323908
_symmetry_space_group_name_H-M "P -1"
_symmetry_group_IT_number 2
_symmetry_cell_setting 'triclinic'
loop_
_space_group_symop_operation_xyz
x,y,z
-x,-y,-z
loop_
_atom_site_type_symbol
_atom_site_label
_atom_site_fract_x
_atom_site_fract_y
_atom_site_fract_z
Si Si1 0.394876 0.526776 0.665544
Si Si2 0.952360 0.872884 0.896189
Si Si3 0.326856 0.974301 0.705413
Si Si4 0.207148 0.424117 0.592228
Si Si5 0.045025 0.730137 0.291765
Si Si6 0.556842 0.754753 0.946340
Si Si7 0.591477 0.143389 0.525660
Si Si8 0.156731 0.596865 0.087989
O O1 0.266135 0.456268 0.568121
O O2 0.510808 0.679915 0.929618
O O3 0.626350 0.471890 0.797851
O O4 0.147488 0.494160 0.316804
O O5 0.899279 0.731608 0.653962
O O6 0.682105 0.855797 0.683223
O O7 0.212868 0.895790 0.244817
O O8 0.000000 0.000000 0.000000
O O9 0.074379 0.852322 0.370279
O O10 0.473149 0.939254 0.718037
O O11 0.254510 0.099022 0.725934
O O12 0.500000 0.000000 0.000000
O O13 0.000000 0.500000 0.500000
O O14 0.500000 0.500000 0.000000
O O15 0.267134 0.758742 0.623599
O O16 0.152262 0.640832 0.237198
O O17 0.733448 0.688272 0.985419
O O18 0.765786 0.281405 0.788733
#
# Coordination Sequence:
#
# PCOD9021401 Si02
#       8
#     2   2   2   2   2   2   2   2
#     4  12  24  40  64  90 127 168 215 271 329 402
#     4  12  26  46  74 108 137 178 240 295 353 425
#     4   9  22  41  66  96 137 180 228 275 345 407
#     4  12  26  47  72  97 138 179 222 285 362 423
#     4  10  22  38  61  89 126 175 213 269 324 378
#     4  11  23  38  57  93 132 167 220 267 318 397
#     4  11  22  44  72  97 136 183 222 288 348 410
#     4  11  21  40  65  90 126 171 219 259 327 392
#
# _framework density 21.818460999999999
#
# number of rings (size 3 to 8) (size 9 to 14) (size 15 to 20)
#    0.000    1.000    2.500    3.750    0.000   12.000 
#    0.000    0.000    0.000    0.000    0.000    0.000 
#    0.000    0.000    0.000    0.000    0.000    0.000 
#
# Total GULP energy -89265.614261 kJ/mol
# GULP energy per Si atom -5579.100891 kJ/mol
# Density = 2.176880 g / cm^3
# Si number density = 21.818461 Si / 1000 Ang^3
#
#
#
# Elastic Constant Matrix: (Units=GPa)
#
#
# Indices 1 2 3 4 5 6 
#
# 1 52.1313 56.7513 37.3457 19.0033 1.7589 -14.3803
# 2 56.7513 148.2179 35.8624 17.6236 12.0677 3.8140
# 3 37.3457 35.8624 72.3329 -14.2985 7.2422 -15.2719
# 4 19.0033 17.6236 -14.2985 51.7399 4.4188 14.4477
# 5 1.7589 12.0677 7.2422 4.4188 37.2036 -3.6040
# 6 -14.3803 3.8140 -15.2719 14.4477 -3.6040 41.7699
#
#
#
# Elastic Compliance Matrix: (Units=1/GPa)
#
#
# Indices 1 2 3 4 5 6 
#
# 1 0.159532 -0.038455 -0.069988 -0.086182 0.035155 0.065688
# 2 -0.038455 0.017887 0.011674 0.016944 -0.009947 -0.017323
# 3 -0.069988 0.011674 0.049549 0.043518 -0.017579 -0.023614
# 4 -0.086182 0.016944 0.043518 0.070794 -0.022343 -0.041721
# 5 0.035155 -0.009947 -0.017579 -0.022343 0.036209 0.017436
# 6 0.065688 -0.017323 -0.023614 -0.041721 0.017436 0.055439
#
#
# Mechanical properties :
#
#
# Convention : Reuss Voigt Hill
#
# Bulk Modulus (GPa) = 29.91317 59.17787 44.54552
# Shear Modulus (GPa) = 8.41622 35.65753 22.03687
#
# Velocity S-wave (km/s) = 1.96615 4.04701 3.18151
# Velocity P-wave (km/s) = 4.34674 7.00139 5.82725
#
# Compressibility (1/GPa) = 0.03343009
#
# Stress axis : x y z
#
# Youngs Moduli (GPa) = 6.26833 55.90603 20.18198
#
# Poissons Ratio (x) = 2.14984 1.41250
# Poissons Ratio (y) = 0.24105 -0.23560
# Poissons Ratio (z) = 0.43871 -0.65263
#
# Static dielectric constant tensor:
#      x y z
#    x 1.775470 -0.006190 -0.032180 
#    y -0.006190 1.857790 0.062640 
#    z -0.032180 0.062640 1.836230 
# 
# From -- ./inp_files/535026.got.cif
#   From: 2010.05.17/outbox.cif.g08.bks.cpg/sg2_268_cif.got.tgz:535026.got - 2010.06.03 11:33:40.
