data_PCOD9021096
_publ_section_title
;
Structure prediction by ZEFSAII (Michael W. Deem and Ramdas Pophale) SiO2 
 PCOD9021096
Probable space group: P -1
;
_chemical_formula_sum "Si O2"
_cell_formula_units_Z 16
_cell_length_a 7.627682
_cell_length_b 11.510561
_cell_length_c 11.638933
_cell_angle_alpha 52.457054
_cell_angle_beta 125.588621
_cell_angle_gamma 123.734845
_cell_volume 626.167175
_symmetry_space_group_name_H-M "P -1"
_symmetry_group_IT_number 2
_symmetry_cell_setting 'triclinic'
loop_
_space_group_symop_operation_xyz
x,y,z
-x,-y,-z
loop_
_atom_site_type_symbol
_atom_site_label
_atom_site_fract_x
_atom_site_fract_y
_atom_site_fract_z
Si Si1 0.390081 0.080273 0.312647
Si Si2 0.453689 0.576397 0.764103
Si Si3 0.581294 0.375690 0.533044
Si Si4 0.090536 0.773047 0.117698
Si Si5 0.828100 0.491595 0.067324
Si Si6 0.832231 0.178453 0.289583
Si Si7 0.831722 0.863356 0.393076
Si Si8 0.126064 0.092842 0.860070
O O1 0.400339 0.245573 0.266662
O O2 0.563990 0.120794 0.246878
O O3 0.500000 0.000000 0.500000
O O4 0.138777 0.980930 0.238020
O O5 0.352585 0.563628 0.606499
O O6 0.278890 0.537281 0.826736
O O7 0.627484 0.481483 0.908721
O O8 0.500000 0.500000 0.500000
O O9 0.766974 0.312679 0.702264
O O10 0.361366 0.224270 0.539152
O O11 0.001055 0.660542 0.045018
O O12 0.890123 0.798832 0.105877
O O13 0.208029 0.948432 0.014405
O O14 0.919816 0.348882 0.170216
O O15 0.952621 0.183434 0.456412
O O16 0.887808 0.045857 0.319217
O O17 0.752609 0.821881 0.258146
#
# Coordination Sequence:
#
# PCOD9021096 Si02
#       8
#     2   2   2   2   2   2   2   2
#     4  11  18  38  68  98 125 172 225 283 331 383
#     4  10  23  41  68  99 132 167 233 278 327 402
#     4  12  28  46  66 100 143 185 219 278 348 411
#     4  11  25  45  67 100 137 179 229 277 342 401
#     4  10  22  43  70 100 127 178 228 284 331 387
#     4  10  22  37  67 100 134 167 225 282 337 394
#     4  11  24  42  62 102 134 178 225 270 344 410
#     4  11  24  41  70  98 137 178 223 284 334 408
#
# _framework density 25.552281000000001
#
# number of rings (size 3 to 8) (size 9 to 14) (size 15 to 20)
#    0.000    1.250    2.500    3.000    5.250    2.000 
#    0.000    1.875    0.000    0.000    0.000    0.000 
#    0.000    0.000    0.000    0.000    0.000    0.000 
#
# Total GULP energy -89593.036025 kJ/mol
# GULP energy per Si atom -5599.564752 kJ/mol
# Density = 2.549412 g / cm^3
# Si number density = 25.552281 Si / 1000 Ang^3
#
#
#
# Elastic Constant Matrix: (Units=GPa)
#
#
# Indices 1 2 3 4 5 6 
#
# 1 61.9115 1.5890 34.2720 0.6028 -13.9317 -8.9687
# 2 1.5890 100.1694 31.3321 -24.9107 12.3785 -15.2302
# 3 34.2720 31.3321 166.4710 -7.2139 12.6973 -25.5791
# 4 0.6028 -24.9107 -7.2139 40.2032 -13.5088 10.7397
# 5 -13.9317 12.3785 12.6973 -13.5088 43.4578 1.4809
# 6 -8.9687 -15.2302 -25.5791 10.7397 1.4809 26.5114
#
#
#
# Elastic Compliance Matrix: (Units=1/GPa)
#
#
# Indices 1 2 3 4 5 6 
#
# 1 0.020862 0.000809 -0.004726 0.001633 0.008283 0.001839
# 2 0.000809 0.012714 -0.001675 0.006290 -0.001036 0.003472
# 3 -0.004726 -0.001675 0.008638 -0.002933 -0.004720 0.007226
# 4 0.001633 0.006290 -0.002933 0.035624 0.011130 -0.013717
# 5 0.008283 -0.001036 -0.004720 0.011130 0.031093 -0.008592
# 6 0.001839 0.003472 0.007226 -0.013717 -0.008592 0.053344
#
#
# Mechanical properties :
#
#
# Convention : Reuss Voigt Hill
#
# Bulk Modulus (GPa) = 32.22466 51.43757 41.83111
# Shear Modulus (GPa) = 27.20328 39.45839 33.33083
#
# Velocity S-wave (km/s) = 3.26638 3.93392 3.61559
# Velocity P-wave (km/s) = 5.18308 6.38814 5.81690
#
# Compressibility (1/GPa) = 0.03103214
#
# Stress axis : x y z
#
# Youngs Moduli (GPa) = 47.93496 78.65277 115.76419
#
# Poissons Ratio (x) = -0.06365 0.54706
# Poissons Ratio (y) = -0.03879 0.19385
# Poissons Ratio (z) = 0.22652 0.13170
#
# Static dielectric constant tensor:
#      x y z
#    x 2.041930 0.025820 -0.020600 
#    y 0.025820 2.007950 0.010450 
#    z -0.020600 0.010450 2.024870 
# 
# From -- ./inp_files/392241.got.cif
#   From: 2010.05.17/outbox.cif.g08.bks.cpg/sg2_197_cif.got.tgz:392241.got - 2010.06.03 11:33:40.
