data_PCOD9021786
_publ_section_title
;
Structure prediction by ZEFSAII (Michael W. Deem and Ramdas Pophale) SiO2 
 PCOD9021786
Probable space group: P -1
;
_chemical_formula_sum "Si O2"
_cell_formula_units_Z 14
_cell_length_a 8.058758
_cell_length_b 11.767212
_cell_length_c 13.505620
_cell_angle_alpha 142.927865
_cell_angle_beta 66.045169
_cell_angle_gamma 89.912063
_cell_volume 569.233315
_symmetry_space_group_name_H-M "P -1"
_symmetry_group_IT_number 2
_symmetry_cell_setting 'triclinic'
loop_
_space_group_symop_operation_xyz
x,y,z
-x,-y,-z
loop_
_atom_site_type_symbol
_atom_site_label
_atom_site_fract_x
_atom_site_fract_y
_atom_site_fract_z
Si Si1 0.382913 0.669207 0.238525
Si Si2 0.518208 0.314449 0.292892
Si Si3 0.852803 0.467843 0.089661
Si Si4 0.814081 0.083108 0.879607
Si Si5 0.385075 0.059252 0.460950
Si Si6 0.148817 0.562522 0.382134
Si Si7 0.402715 0.120523 0.916977
O O1 0.600813 0.580895 0.191033
O O2 0.220832 0.649082 0.332130
O O3 0.266050 0.930014 0.407435
O O4 0.500000 0.500000 0.000000
O O5 0.500000 0.500000 0.500000
O O6 0.316861 0.448038 0.355370
O O7 0.525114 0.115017 0.211381
O O8 0.737981 0.177527 0.074882
O O9 0.786462 0.664241 0.325806
O O10 0.937807 0.201636 0.899688
O O11 0.000000 0.500000 0.000000
O O12 0.587644 0.168453 0.932463
O O13 0.944894 0.806868 0.645793
O O14 0.500000 0.000000 0.500000
O O15 0.574926 0.925875 0.237674
O O16 0.170794 0.341974 0.173480
#
# Coordination Sequence:
#
# PCOD9021786 Si02
#       7
#     2   2   2   2   2   2   2
#     4  11  20  41  67  95 136 181 222 276 339 406
#     4  11  25  45  71  96 136 174 222 287 340 397
#     4  11  22  39  63  99 138 175 222 278 337 398
#     4  11  23  44  69 100 135 176 228 276 337 410
#     4  10  22  38  65  94 134 177 217 274 340 391
#     4  11  23  42  70  97 132 177 227 276 339 405
#     4  11  23  44  69  98 132 180 225 277 337 404
#
# _framework density 24.594484000000001
#
# number of rings (size 3 to 8) (size 9 to 14) (size 15 to 20)
#    0.000    1.143    4.286    3.429    2.000    4.000 
#    0.000    2.857    0.000    0.000    0.000    0.000 
#    0.000    0.000    0.000    0.000    0.000    0.000 
#
# Total GULP energy -78121.892213 kJ/mol
# GULP energy per Si atom -5580.135158 kJ/mol
# Density = 2.453851 g / cm^3
# Si number density = 24.594484 Si / 1000 Ang^3
#
#
#
# Elastic Constant Matrix: (Units=GPa)
#
#
# Indices 1 2 3 4 5 6 
#
# 1 41.8134 33.8129 25.0889 4.6889 13.2750 4.1430
# 2 33.8129 128.5615 41.9373 10.0325 22.6050 12.0766
# 3 25.0889 41.9373 197.3221 13.2928 34.1744 -9.0706
# 4 4.6889 10.0325 13.2928 54.8921 -2.5665 9.6255
# 5 13.2750 22.6050 34.1744 -2.5665 32.2165 2.5993
# 6 4.1430 12.0766 -9.0706 9.6255 2.5993 39.5292
#
#
#
# Elastic Compliance Matrix: (Units=1/GPa)
#
#
# Indices 1 2 3 4 5 6 
#
# 1 0.032734 -0.006659 -0.001419 -0.001423 -0.007353 -0.000892
# 2 -0.006659 0.010761 -0.000815 -0.000979 -0.003836 -0.002286
# 3 -0.001419 -0.000815 0.006830 -0.002201 -0.006500 0.002929
# 4 -0.001423 -0.000979 -0.002201 0.020256 0.005655 -0.005361
# 5 -0.007353 -0.003836 -0.006500 0.005655 0.044417 -0.003847
# 6 -0.000892 -0.002286 0.002929 -0.005361 -0.003847 0.028320
#
#
# Mechanical properties :
#
#
# Convention : Reuss Voigt Hill
#
# Bulk Modulus (GPa) = 30.73156 63.26391 46.99774
# Shear Modulus (GPa) = 29.07810 43.11810 36.09810
#
# Velocity S-wave (km/s) = 3.44219 4.19162 3.83525
# Velocity P-wave (km/s) = 5.32172 7.01462 6.22598
#
# Compressibility (1/GPa) = 0.03253984
#
# Stress axis : x y z
#
# Youngs Moduli (GPa) = 30.54922 92.92568 146.40832
#
# Poissons Ratio (x) = 0.61879 0.20768
# Poissons Ratio (y) = 0.20343 0.11937
# Poissons Ratio (z) = 0.04334 0.07576
#
# Static dielectric constant tensor:
#      x y z
#    x 1.994810 0.043360 -0.010640 
#    y 0.043360 1.979210 0.059940 
#    z -0.010640 0.059940 2.089390 
# 
# From -- ./inp_files/518282.got.cif
#   From: 2010.05.17/outbox.cif.g08.bks.cpg/sg2_260_cif.got.tgz:518282.got - 2010.06.03 11:33:40.
