data_PCOD9021968
_publ_section_title
;
Structure prediction by ZEFSAII (Michael W. Deem and Ramdas Pophale) SiO2 
 PCOD9021968
Probable space group: P -1
;
_chemical_formula_sum "Si O2"
_cell_formula_units_Z 14
_cell_length_a 5.073462
_cell_length_b 11.972779
_cell_length_c 14.025806
_cell_angle_alpha 51.945715
_cell_angle_beta 118.890104
_cell_angle_gamma 126.520951
_cell_volume 529.953710
_symmetry_space_group_name_H-M "P -1"
_symmetry_group_IT_number 2
_symmetry_cell_setting 'triclinic'
loop_
_space_group_symop_operation_xyz
x,y,z
-x,-y,-z
loop_
_atom_site_type_symbol
_atom_site_label
_atom_site_fract_x
_atom_site_fract_y
_atom_site_fract_z
Si Si1 0.443981 0.051248 0.309129
Si Si2 0.861490 0.581005 0.067017
Si Si3 0.446404 0.781781 0.575168
Si Si4 0.553153 0.630924 0.155798
Si Si5 0.323227 0.168300 0.749070
Si Si6 0.379894 0.874756 0.909108
Si Si7 0.653451 0.653252 0.510792
O O1 0.431241 0.175755 0.318110
O O2 0.644680 0.125557 0.209525
O O3 0.577445 0.945036 0.451118
O O4 0.070476 0.939258 0.269615
O O5 0.792441 0.574071 0.171930
O O6 0.153956 0.525766 0.127380
O O7 0.500000 0.500000 0.000000
O O8 0.039137 0.756246 0.962374
O O9 0.538630 0.662136 0.593123
O O10 0.048739 0.715630 0.544870
O O11 0.612342 0.689608 0.243077
O O12 0.614463 0.793999 0.025352
O O13 0.442301 0.229995 0.631659
O O14 0.486149 0.052726 0.866661
O O15 0.500000 0.500000 0.500000
#
# Coordination Sequence:
#
# PCOD9021968 Si02
#       7
#     2   2   2   2   2   2   2
#     4  10  22  38  68 101 131 170 214 280 327 389
#     4  10  23  44  63  90 136 172 217 263 319 384
#     4  10  23  42  68  94 135 165 222 271 334 382
#     4  10  24  40  67  95 131 174 211 269 319 391
#     4  11  23  41  65  99 132 167 224 264 335 386
#     4  10  22  38  68  96 132 170 216 265 325 384
#     4  11  24  45  67  94 132 176 219 275 323 394
#
# _framework density 26.417403
#
# number of rings (size 3 to 8) (size 9 to 14) (size 15 to 20)
#    0.857    0.857    1.429    2.143    4.000    2.857 
#    2.571    0.000    0.000    0.000    0.000    0.000 
#    0.000    0.000    0.000    0.000    0.000    0.000 
#
# Total GULP energy -78349.550920 kJ/mol
# GULP energy per Si atom -5596.396494 kJ/mol
# Density = 2.635728 g / cm^3
# Si number density = 26.417403 Si / 1000 Ang^3
#
#
#
# Elastic Constant Matrix: (Units=GPa)
#
#
# Indices 1 2 3 4 5 6 
#
# 1 107.0883 38.6888 24.6649 22.7681 -31.6784 -24.2623
# 2 38.6888 115.8356 14.5396 26.0556 -16.8905 -6.6707
# 3 24.6649 14.5396 94.8335 15.8365 -25.1073 -6.4561
# 4 22.7681 26.0556 15.8365 37.5687 -16.9580 1.1055
# 5 -31.6784 -16.8905 -25.1073 -16.9580 49.6792 14.0796
# 6 -24.2623 -6.6707 -6.4561 1.1055 14.0796 39.2819
#
#
#
# Elastic Compliance Matrix: (Units=1/GPa)
#
#
# Indices 1 2 3 4 5 6 
#
# 1 0.014300 -0.002572 -0.000949 -0.004799 0.004177 0.006878
# 2 -0.002572 0.010860 0.000009 -0.006057 -0.000147 0.000480
# 3 -0.000949 0.000009 0.012493 -0.002462 0.004937 -0.000232
# 4 -0.004799 -0.006057 -0.002462 0.039367 0.009610 -0.008950
# 5 0.004177 -0.000147 0.004937 0.009610 0.030766 -0.007932
# 6 0.006878 0.000480 -0.000232 -0.008950 -0.007932 0.032843
#
#
# Mechanical properties :
#
#
# Convention : Reuss Voigt Hill
#
# Bulk Modulus (GPa) = 32.65050 52.61599 42.63324
# Shear Modulus (GPa) = 31.67316 41.29690 36.48503
#
# Velocity S-wave (km/s) = 3.46634 3.95808 3.72034
# Velocity P-wave (km/s) = 5.32982 6.39132 5.88455
#
# Compressibility (1/GPa) = 0.03062740
#
# Stress axis : x y z
#
# Youngs Moduli (GPa) = 69.92853 92.08443 80.04705
#
# Poissons Ratio (x) = 0.23688 0.07600
# Poissons Ratio (y) = 0.17989 -0.00075
# Poissons Ratio (z) = 0.06639 -0.00086
#
# Static dielectric constant tensor:
#      x y z
#    x 2.012880 -0.057530 0.046590 
#    y -0.057530 2.088730 -0.042320 
#    z 0.046590 -0.042320 2.124160 
# 
# From -- ./inp_files/482106.got.cif
#   From: 2010.05.17/outbox.cif.g08.bks.cpg/sg2_242_cif.got.tgz:482106.got - 2010.06.03 11:33:40.
