data_PCOD9021801
_publ_section_title
;
Structure prediction by ZEFSAII (Michael W. Deem and Ramdas Pophale) SiO2 
 PCOD9021801
Probable space group: P -1
;
_chemical_formula_sum "Si O2"
_cell_formula_units_Z 16
_cell_length_a 5.439412
_cell_length_b 10.099765
_cell_length_c 15.547781
_cell_angle_alpha 133.088799
_cell_angle_beta 88.316892
_cell_angle_gamma 101.686959
_cell_volume 603.709433
_symmetry_space_group_name_H-M "P -1"
_symmetry_group_IT_number 2
_symmetry_cell_setting 'triclinic'
loop_
_space_group_symop_operation_xyz
x,y,z
-x,-y,-z
loop_
_atom_site_type_symbol
_atom_site_label
_atom_site_fract_x
_atom_site_fract_y
_atom_site_fract_z
Si Si1 0.308636 0.963731 0.750825
Si Si2 0.512356 0.456513 0.682038
Si Si3 0.661904 0.883126 0.572667
Si Si4 0.815448 0.691293 0.906793
Si Si5 0.992575 0.235658 0.804932
Si Si6 0.452288 0.141530 0.134461
Si Si7 0.713775 0.345891 0.014268
Si Si8 0.862639 0.641520 0.605992
O O1 0.408142 0.914271 0.634698
O O2 0.523691 0.948894 0.813323
O O3 0.083882 0.798041 0.714924
O O4 0.166920 0.125663 0.806543
O O5 0.374662 0.241260 0.568912
O O6 0.711921 0.486831 0.772355
O O7 0.386420 0.636248 0.775401
O O8 0.660458 0.529165 0.624614
O O9 0.753416 0.749375 0.581023
O O10 0.856616 0.087726 0.668162
O O11 0.810664 0.824192 0.884092
O O12 0.579267 0.705530 0.977158
O O13 0.079225 0.731021 0.968809
O O14 0.183452 0.432766 0.869650
O O15 0.775834 0.296171 0.893251
O O16 0.500000 0.000000 0.000000
O O17 0.000000 0.500000 0.500000
#
# Coordination Sequence:
#
# PCOD9021801 Si02
#       8
#     2   2   2   2   2   2   2   2
#     4  11  22  38  64 100 137 167 230 281 342 401
#     4  10  22  39  61  97 139 183 216 276 336 417
#     4  11  21  40  59  99 132 175 228 279 344 395
#     4  10  26  43  74  95 144 180 227 276 344 417
#     4  10  27  40  76  94 131 171 235 299 332 398
#     4  10  22  38  65  96 134 180 216 273 338 422
#     4  11  25  51  69 102 128 186 235 286 342 398
#     4  11  20  34  61  96 133 184 213 277 330 411
#
# _framework density 26.502814000000001
#
# number of rings (size 3 to 8) (size 9 to 14) (size 15 to 20)
#    0.750    0.750    2.500    1.875    7.000    1.000 
#    0.000    3.125    0.000    0.000    0.000    0.000 
#    0.000    0.000    0.000    0.000    0.000    0.000 
#
# Total GULP energy -89290.820252 kJ/mol
# GULP energy per Si atom -5580.676266 kJ/mol
# Density = 2.644249 g / cm^3
# Si number density = 26.502814 Si / 1000 Ang^3
#
#
#
# Elastic Constant Matrix: (Units=GPa)
#
#
# Indices 1 2 3 4 5 6 
#
# 1 114.7600 24.4702 42.5888 6.8935 0.3348 1.5399
# 2 24.4702 52.1768 5.3999 29.4782 -3.1682 3.3110
# 3 42.5888 5.3999 171.0526 22.7155 1.2221 -4.4696
# 4 6.8935 29.4782 22.7155 39.3794 -1.8827 1.2672
# 5 0.3348 -3.1682 1.2221 -1.8827 55.1618 -2.1873
# 6 1.5399 3.3110 -4.4696 1.2672 -2.1873 32.3152
#
#
#
# Elastic Compliance Matrix: (Units=1/GPa)
#
#
# Indices 1 2 3 4 5 6 
#
# 1 0.011458 -0.008661 -0.003446 0.006465 -0.000286 -0.000408
# 2 -0.008661 0.040915 0.005049 -0.031913 0.001132 -0.001753
# 3 -0.003446 0.005049 0.007578 -0.007583 -0.000077 0.000987
# 4 0.006465 -0.031913 -0.007583 0.052534 0.000083 -0.000141
# 5 -0.000286 0.001132 -0.000077 0.000083 0.018244 0.001119
# 6 -0.000408 -0.001753 0.000987 -0.000141 0.001119 0.031362
#
#
# Mechanical properties :
#
#
# Convention : Reuss Voigt Hill
#
# Bulk Modulus (GPa) = 21.81788 53.65634 37.73711
# Shear Modulus (GPa) = 26.11162 43.07330 34.59246
#
# Velocity S-wave (km/s) = 3.14226 4.03579 3.61673
# Velocity P-wave (km/s) = 4.62766 6.48123 5.63123
#
# Compressibility (1/GPa) = 0.04583396
#
# Stress axis : x y z
#
# Youngs Moduli (GPa) = 87.27871 24.44105 131.95705
#
# Poissons Ratio (x) = 0.21168 0.45479
# Poissons Ratio (y) = 0.75590 -0.66623
# Poissons Ratio (z) = 0.30080 -0.12340
#
# Static dielectric constant tensor:
#      x y z
#    x 2.118980 0.013620 0.077410 
#    y 0.013620 2.059840 0.024000 
#    z 0.077410 0.024000 2.239000 
# 
# From -- ./inp_files/549311.got.cif
#   From: 2010.05.17/outbox.cif.g08.bks.cpg/sg2_275_cif.got.tgz:549311.got - 2010.06.03 11:33:40.
