data_PCOD9021023
_publ_section_title
;
Structure prediction by ZEFSAII (Michael W. Deem and Ramdas Pophale) SiO2 
 PCOD9021023
Probable space group: P -1
;
_chemical_formula_sum "Si O2"
_cell_formula_units_Z 16
_cell_length_a 9.235548
_cell_length_b 9.898316
_cell_length_c 9.550063
_cell_angle_alpha 71.365585
_cell_angle_beta 87.072543
_cell_angle_gamma 118.528395
_cell_volume 704.731849
_symmetry_space_group_name_H-M "P -1"
_symmetry_group_IT_number 2
_symmetry_cell_setting 'triclinic'
loop_
_space_group_symop_operation_xyz
x,y,z
-x,-y,-z
loop_
_atom_site_type_symbol
_atom_site_label
_atom_site_fract_x
_atom_site_fract_y
_atom_site_fract_z
Si Si1 0.449404 0.109913 0.561063
Si Si2 0.403176 0.251210 0.050714
Si Si3 0.083303 0.685846 0.869711
Si Si4 0.849063 0.125569 0.741123
Si Si5 0.644127 0.371577 0.241474
Si Si6 0.073229 0.881663 0.569798
Si Si7 0.095678 0.252378 0.912190
Si Si8 0.416516 0.829933 0.150899
O O1 0.541847 0.283598 0.414911
O O2 0.504362 0.136438 0.709928
O O3 0.500000 0.000000 0.500000
O O4 0.248559 0.012165 0.593068
O O5 0.242721 0.245347 0.989829
O O6 0.534551 0.278769 0.911161
O O7 0.515157 0.369870 0.133047
O O8 0.309476 0.064963 0.185694
O O9 0.269014 0.725377 0.800363
O O10 0.995909 0.721983 0.730109
O O11 0.000000 0.500000 0.000000
O O12 0.055855 0.786512 0.960229
O O13 0.896351 0.175651 0.562714
O O14 0.778730 0.229944 0.788632
O O15 0.004609 0.141609 0.817620
O O16 0.802149 0.554516 0.204336
O O17 0.000000 0.000000 0.500000
O O18 0.500000 0.000000 0.000000
#
# Coordination Sequence:
#
# PCOD9021023 Si02
#       8
#     2   2   2   2   2   2   2   2
#     4  12  21  42  70  93 126 171 225 269 318 392
#     4  11  22  40  64  96 129 173 222 271 324 385
#     4  10  23  42  65  96 131 179 213 265 330 397
#     4  11  22  41  62  98 127 169 223 272 325 384
#     4  11  22  44  65  93 129 178 217 261 327 401
#     4  12  25  40  71 100 133 168 222 278 328 386
#     4  11  25  40  63  95 140 168 211 277 335 385
#     4  10  22  37  64  95 121 163 219 274 313 382
#
# _framework density 22.703669999999999
#
# number of rings (size 3 to 8) (size 9 to 14) (size 15 to 20)
#    0.000    1.000    3.750    3.000    5.250    0.000 
#    0.000    8.750    0.000    0.000    0.000    0.000 
#    0.000    0.000    0.000    0.000    0.000    0.000 
#
# Total GULP energy -89302.365413 kJ/mol
# GULP energy per Si atom -5581.397838 kJ/mol
# Density = 2.265200 g / cm^3
# Si number density = 22.703670 Si / 1000 Ang^3
#
#
#
# Elastic Constant Matrix: (Units=GPa)
#
#
# Indices 1 2 3 4 5 6 
#
# 1 80.2545 3.8137 31.9334 3.3259 22.9816 5.6550
# 2 3.8137 47.9847 31.1501 2.0066 -2.0706 15.8306
# 3 31.9334 31.1501 188.7643 19.0683 8.6493 1.5453
# 4 3.3259 2.0066 19.0683 37.2225 4.0799 6.6915
# 5 22.9816 -2.0706 8.6493 4.0799 35.7963 5.1664
# 6 5.6550 15.8306 1.5453 6.6915 5.1664 27.6582
#
#
#
# Elastic Compliance Matrix: (Units=1/GPa)
#
#
# Indices 1 2 3 4 5 6 
#
# 1 0.016293 0.000512 -0.002504 0.001214 -0.009680 -0.001970
# 2 0.000512 0.030973 -0.005693 0.004136 0.005179 -0.019483
# 3 -0.002504 -0.005693 0.007037 -0.003799 -0.000626 0.004414
# 4 0.001214 0.004136 -0.003799 0.030364 -0.001722 -0.009428
# 5 -0.009680 0.005179 -0.000626 -0.001722 0.035841 -0.007229
# 6 -0.001970 -0.019483 0.004414 -0.009428 -0.007229 0.051094
#
#
# Mechanical properties :
#
#
# Convention : Reuss Voigt Hill
#
# Bulk Modulus (GPa) = 25.68554 50.08867 37.88710
# Shear Modulus (GPa) = 25.00622 36.80913 30.90768
#
# Velocity S-wave (km/s) = 3.32236 4.03089 3.69365
# Velocity P-wave (km/s) = 5.10445 6.61618 5.90886
#
# Compressibility (1/GPa) = 0.03893241
#
# Stress axis : x y z
#
# Youngs Moduli (GPa) = 61.37763 32.28569 142.10501
#
# Poissons Ratio (x) = -0.01653 0.35579
# Poissons Ratio (y) = -0.03142 0.80907
# Poissons Ratio (z) = 0.15367 0.18382
#
# Static dielectric constant tensor:
#      x y z
#    x 1.930510 -0.074140 0.039520 
#    y -0.074140 1.893120 -0.051450 
#    z 0.039520 -0.051450 1.889650 
# 
# From -- ./inp_files/185111.got.cif
#   From: 2010.05.17/outbox.cif.g08.bks.cpg/sg2_93_cif.got.tgz:185111.got - 2010.06.03 11:33:40.
