data_PCOD9021840
_publ_section_title
;
Structure prediction by ZEFSAII (Michael W. Deem and Ramdas Pophale) SiO2 
 PCOD9021840
Probable space group: P -1
;
_chemical_formula_sum "Si O2"
_cell_formula_units_Z 15
_cell_length_a 8.540240
_cell_length_b 14.472062
_cell_length_c 13.936333
_cell_angle_alpha 43.964491
_cell_angle_beta 44.893942
_cell_angle_gamma 33.981491
_cell_volume 640.112056
_symmetry_space_group_name_H-M "P -1"
_symmetry_group_IT_number 2
_symmetry_cell_setting 'triclinic'
loop_
_space_group_symop_operation_xyz
x,y,z
-x,-y,-z
loop_
_atom_site_type_symbol
_atom_site_label
_atom_site_fract_x
_atom_site_fract_y
_atom_site_fract_z
Si Si1 0.674889 0.510575 0.997552
Si Si2 0.148860 0.867001 0.302963
Si Si3 0.254122 0.652161 0.255938
Si Si4 0.252638 0.205523 0.244910
Si Si5 0.375230 0.680575 0.529762
Si Si6 0.616301 0.826178 0.425343
Si Si7 0.500000 0.000000 0.500000
Si Si8 0.757262 0.872324 0.908010
O O1 0.709843 0.654360 0.857522
O O2 0.500000 0.500000 0.000000
O O3 0.481516 0.567653 0.134767
O O4 0.996668 0.324033 0.013918
O O5 0.241177 0.800429 0.203510
O O6 0.379435 0.710815 0.393026
O O7 0.106699 0.034262 0.227556
O O8 0.843430 0.915025 0.410615
O O9 0.367587 0.505260 0.396773
O O10 0.928117 0.728999 0.314421
O O11 0.339649 0.136750 0.148865
O O12 0.925973 0.277585 0.346794
O O13 0.464340 0.033820 0.349991
O O14 0.407993 0.811026 0.469507
O O15 0.617398 0.797236 0.558291
O O16 0.500000 0.000000 0.000000
#
# Coordination Sequence:
#
# PCOD9021840 Si02
#       8
#     2   2   2   2   2   2   1   2
#     4  12  31  49  71 105 143 196 239 303 356 423
#     4  11  24  45  76 107 142 192 236 294 365 428
#     4  11  27  47  71 106 157 181 243 297 361 424
#     4  12  25  47  76 100 148 186 246 294 355 427
#     4  12  23  46  75 111 142 189 238 298 361 430
#     4  11  24  43  71 110 142 195 230 295 359 429
#     4  10  22  38  66 106 144 180 232 288 354 420
#     4  12  27  48  76 102 142 186 248 293 355 430
#
# _framework density 23.433395999999998
#
# number of rings (size 3 to 8) (size 9 to 14) (size 15 to 20)
#    0.000    0.533    4.000    3.200    7.467    0.533 
#    2.400    0.000    0.000    0.000    0.000    0.000 
#    0.000    0.000    0.000    0.000    0.000    0.000 
#
# Total GULP energy -83759.058216 kJ/mol
# GULP energy per Si atom -5583.937214 kJ/mol
# Density = 2.338006 g / cm^3
# Si number density = 23.433396 Si / 1000 Ang^3
#
#
#
# Elastic Constant Matrix: (Units=GPa)
#
#
# Indices 1 2 3 4 5 6 
#
# 1 161.1855 39.1902 59.2415 -3.0478 -15.0102 19.2094
# 2 39.1902 120.3923 48.1161 3.6064 -3.2667 -2.2663
# 3 59.2415 48.1161 69.8303 -7.9829 -8.6572 3.9277
# 4 -3.0478 3.6064 -7.9829 50.0325 6.3362 1.3505
# 5 -15.0102 -3.2667 -8.6572 6.3362 31.2864 3.5271
# 6 19.2094 -2.2663 3.9277 1.3505 3.5271 46.3487
#
#
#
# Elastic Compliance Matrix: (Units=1/GPa)
#
#
# Indices 1 2 3 4 5 6 
#
# 1 0.009778 -0.000021 -0.007799 -0.000946 0.003129 -0.003603
# 2 -0.000021 0.011795 -0.008544 -0.002143 -0.000871 0.001438
# 3 -0.007799 -0.008544 0.027562 0.004266 0.002107 0.000194
# 4 -0.000946 -0.002143 0.004266 0.021251 -0.003755 -0.000408
# 5 0.003129 -0.000871 0.002107 -0.003755 0.035177 -0.004085
# 6 -0.003603 0.001438 0.000194 -0.000408 -0.004085 0.023446
#
#
# Mechanical properties :
#
#
# Convention : Reuss Voigt Hill
#
# Bulk Modulus (GPa) = 60.94330 71.61151 66.27740
# Shear Modulus (GPa) = 29.90342 39.19088 34.54715
#
# Velocity S-wave (km/s) = 3.57613 4.09398 3.84379
# Velocity P-wave (km/s) = 6.56621 7.27829 6.93140
#
# Compressibility (1/GPa) = 0.01640870
#
# Stress axis : x y z
#
# Youngs Moduli (GPa) = 102.26644 84.78093 36.28232
#
# Poissons Ratio (x) = 0.00176 0.28296
# Poissons Ratio (y) = 0.00212 0.30998
# Poissons Ratio (z) = 0.79757 0.72433
#
# Static dielectric constant tensor:
#      x y z
#    x 2.142640 0.096240 0.201830 
#    y 0.096240 1.950800 0.007170 
#    z 0.201830 0.007170 2.115460 
# 
# From -- ./inp_files/505205.got.cif
#   From: 2010.05.17/outbox.cif.g08.bks.cpg/sg2_253_cif.got.tgz:505205.got - 2010.06.03 11:33:40.
