data_PCOD9021385
_publ_section_title
;
Structure prediction by ZEFSAII (Michael W. Deem and Ramdas Pophale) SiO2 
 PCOD9021385
Probable space group: P -1
;
_chemical_formula_sum "Si O2"
_cell_formula_units_Z 16
_cell_length_a 5.272662
_cell_length_b 5.187433
_cell_length_c 25.267444
_cell_angle_alpha 70.292822
_cell_angle_beta 112.670995
_cell_angle_gamma 85.054999
_cell_volume 581.467507
_symmetry_space_group_name_H-M "P -1"
_symmetry_group_IT_number 2
_symmetry_cell_setting 'triclinic'
loop_
_space_group_symop_operation_xyz
x,y,z
-x,-y,-z
loop_
_atom_site_type_symbol
_atom_site_label
_atom_site_fract_x
_atom_site_fract_y
_atom_site_fract_z
Si Si1 0.814220 0.366339 0.248845
Si Si2 0.824002 0.468322 0.072561
Si Si3 0.344962 0.245079 0.370430
Si Si4 0.856402 0.769326 0.398589
Si Si5 0.762250 0.296299 0.960204
Si Si6 0.490402 0.701053 0.286648
Si Si7 0.737344 0.234892 0.487419
Si Si8 0.920047 0.972314 0.190565
O O1 0.551910 0.491549 0.256868
O O2 0.064144 0.212688 0.320615
O O3 0.766203 0.155419 0.214830
O O4 0.881679 0.653815 0.210025
O O5 0.571822 0.693051 0.067035
O O6 0.128675 0.543255 0.090540
O O7 0.833739 0.164631 0.119139
O O8 0.769150 0.452047 0.006423
O O9 0.349996 0.560313 0.331760
O O10 0.432246 0.211869 0.441818
O O11 0.621723 0.047280 0.378327
O O12 0.782930 0.725226 0.335032
O O13 0.780357 0.520534 0.444255
O O14 0.173990 0.764788 0.443817
O O15 0.000000 0.000000 0.000000
O O16 0.248589 0.962105 0.230110
O O17 0.000000 0.000000 0.500000
#
# Coordination Sequence:
#
# PCOD9021385 Si02
#       8
#     2   2   2   2   2   2   2   2
#     4  11  25  41  64  92 129 173 220 272 336 399
#     4  10  24  42  69 105 139 184 238 287 348 416
#     4   9  18  36  55  84 119 160 209 269 330 402
#     4   9  15  31  56  80 118 157 207 263 335 395
#     4  10  22  44  72 102 144 184 233 289 352 408
#     4  10  22  38  61  86 126 165 216 269 335 398
#     4   8  15  27  54  84 110 159 201 265 336 392
#     4  11  26  43  64  98 131 173 224 274 332 404
#
# _framework density 27.516587999999999
#
# number of rings (size 3 to 8) (size 9 to 14) (size 15 to 20)
#    0.000    2.250    1.250    0.375    5.250    1.000 
#    0.000    0.625    0.000   25.500    0.000    0.000 
#    0.000    0.000    0.000    0.000    0.000    0.000 
#
# Total GULP energy -89455.408091 kJ/mol
# GULP energy per Si atom -5590.963006 kJ/mol
# Density = 2.745396 g / cm^3
# Si number density = 27.516588 Si / 1000 Ang^3
#
#
#
# Elastic Constant Matrix: (Units=GPa)
#
#
# Indices 1 2 3 4 5 6 
#
# 1 120.8108 42.5335 27.7675 -6.3616 0.0801 -22.5471
# 2 42.5335 85.4485 11.8918 -11.6592 2.8990 -6.1106
# 3 27.7675 11.8918 108.2875 -22.5164 -5.8223 -3.7075
# 4 -6.3616 -11.6592 -22.5164 40.5424 6.3412 -0.6658
# 5 0.0801 2.8990 -5.8223 6.3412 27.7351 -2.5488
# 6 -22.5471 -6.1106 -3.7075 -0.6658 -2.5488 45.0117
#
#
#
# Elastic Compliance Matrix: (Units=1/GPa)
#
#
# Indices 1 2 3 4 5 6 
#
# 1 0.011522 -0.005220 -0.002395 -0.001052 0.000699 0.004890
# 2 -0.005220 0.014833 0.000396 0.004037 -0.002435 -0.000647
# 3 -0.002395 0.000396 0.011043 0.005718 0.000967 -0.000097
# 4 -0.001052 0.004037 0.005718 0.029781 -0.005973 0.000594
# 5 0.000699 -0.002435 0.000967 -0.005973 0.038076 0.002167
# 6 0.004890 -0.000647 -0.000097 0.000594 0.002167 0.024702
#
#
# Mechanical properties :
#
#
# Convention : Reuss Voigt Hill
#
# Bulk Modulus (GPa) = 43.55310 53.21472 48.38391
# Shear Modulus (GPa) = 32.88419 38.14810 35.51614
#
# Velocity S-wave (km/s) = 3.46073 3.72743 3.59655
# Velocity P-wave (km/s) = 5.64191 6.15680 5.90497
#
# Compressibility (1/GPa) = 0.02296048
#
# Stress axis : x y z
#
# Youngs Moduli (GPa) = 86.78779 67.41608 90.55443
#
# Poissons Ratio (x) = 0.35190 0.21690
# Poissons Ratio (y) = 0.45301 -0.03585
# Poissons Ratio (z) = 0.20787 -0.02669
#
# Static dielectric constant tensor:
#      x y z
#    x 2.228090 0.130360 0.037280 
#    y 0.130360 2.192350 0.021570 
#    z 0.037280 0.021570 2.155600 
# 
# From -- ./inp_files/13176.got.cif
#   From: 2010.05.17/outbox.cif.g08.bks.cpg/sg2_7_cif.got.tgz:13176.got - 2010.06.03 11:33:40.
