data_PCOD9021216
_publ_section_title
;
Structure prediction by ZEFSAII (Michael W. Deem and Ramdas Pophale) SiO2 
 PCOD9021216
Probable space group: P -1
;
_chemical_formula_sum "Si O2"
_cell_formula_units_Z 12
_cell_length_a 8.526978
_cell_length_b 18.445250
_cell_length_c 21.504931
_cell_angle_alpha 161.646483
_cell_angle_beta 35.553898
_cell_angle_gamma 136.223937
_cell_volume 595.612369
_symmetry_space_group_name_H-M "P -1"
_symmetry_group_IT_number 2
_symmetry_cell_setting 'triclinic'
loop_
_space_group_symop_operation_xyz
x,y,z
-x,-y,-z
loop_
_atom_site_type_symbol
_atom_site_label
_atom_site_fract_x
_atom_site_fract_y
_atom_site_fract_z
Si Si1 0.443252 0.469956 0.816375
Si Si2 0.943338 0.829118 0.326271
Si Si3 0.181584 0.331234 0.355673
Si Si4 0.154580 0.829675 0.997124
Si Si5 0.930483 0.580397 0.397277
Si Si6 0.842679 0.084621 0.799506
O O1 0.333237 0.260389 0.650829
O O2 0.752522 0.399405 0.684746
O O3 0.406896 0.687725 0.956391
O O4 0.209230 0.591281 0.042542
O O5 0.950408 0.946249 0.351367
O O6 0.000000 0.000000 0.500000
O O7 0.508749 0.246715 0.164491
O O8 0.160051 0.451259 0.528743
O O9 0.000000 0.500000 0.500000
O O10 0.079357 0.092097 0.204334
O O11 0.081583 0.633762 0.817889
O O12 0.034891 0.849993 0.122068
O O13 0.756058 0.841262 0.641239
#
# Coordination Sequence:
#
# PCOD9021216 Si02
#       6
#     2   2   2   2   2   2
#     4   9  21  38  56  85 117 146 198 232 278 339
#     4   9  20  39  60  81 115 156 191 235 284 334
#     4  10  22  40  59  84 117 152 189 233 281 344
#     4  10  22  38  58  87 120 145 191 237 281 339
#     4  11  22  36  61  89 112 154 189 231 291 336
#     4   9  21  37  57  85 116 150 189 238 275 337
#
# _framework density 20.147331000000001
#
# number of rings (size 3 to 8) (size 9 to 14) (size 15 to 20)
#    1.000    1.333    0.000    1.500    2.333    5.333 
#    0.000    1.667    0.000    0.000    0.000    0.000 
#    0.000    0.000    0.000    0.000    0.000    0.000 
#
# Total GULP energy -66892.514484 kJ/mol
# GULP energy per Si atom -5574.376207 kJ/mol
# Density = 2.010148 g / cm^3
# Si number density = 20.147331 Si / 1000 Ang^3
#
#
#
# Elastic Constant Matrix: (Units=GPa)
#
#
# Indices 1 2 3 4 5 6 
#
# 1 99.5782 59.3765 67.4947 20.8036 30.4337 -13.7927
# 2 59.3765 69.0077 30.9839 5.7460 7.5360 -20.2727
# 3 67.4947 30.9839 78.8580 17.1828 30.8466 -12.3558
# 4 20.8036 5.7460 17.1828 28.1909 1.5692 -3.2070
# 5 30.4337 7.5360 30.8466 1.5692 52.1581 1.5758
# 6 -13.7927 -20.2727 -12.3558 -3.2070 1.5758 34.5121
#
#
#
# Elastic Compliance Matrix: (Units=1/GPa)
#
#
# Indices 1 2 3 4 5 6 
#
# 1 0.054258 -0.035076 -0.026397 -0.017318 -0.010172 -0.009515
# 2 -0.035076 0.042924 0.009935 0.012430 0.007545 0.015564
# 3 -0.026397 0.009935 0.036445 -0.003376 -0.007739 0.008374
# 4 -0.017318 0.012430 -0.003376 0.047652 0.008775 0.003199
# 5 -0.010172 0.007545 -0.007739 0.008775 0.028417 -0.002886
# 6 -0.009515 0.015564 0.008374 0.003199 -0.002886 0.037742
#
#
# Mechanical properties :
#
#
# Convention : Reuss Voigt Hill
#
# Bulk Modulus (GPa) = 32.73053 62.57266 47.65160
# Shear Modulus (GPa) = 13.86203 28.94478 21.40341
#
# Velocity S-wave (km/s) = 2.62588 3.79444 3.26290
# Velocity P-wave (km/s) = 5.04723 7.09380 6.15616
#
# Compressibility (1/GPa) = 0.03055251
#
# Stress axis : x y z
#
# Youngs Moduli (GPa) = 18.43045 23.29688 27.43853
#
# Poissons Ratio (x) = 0.81716 0.72428
# Poissons Ratio (y) = 0.64647 -0.27261
# Poissons Ratio (z) = 0.48650 -0.23146
#
# Static dielectric constant tensor:
#      x y z
#    x 1.672920 -0.011350 -0.008600 
#    y -0.011350 1.752850 -0.015730 
#    z -0.008600 -0.015730 1.749900 
# 
# From -- ./inp_files/41653.got.cif
#   From: 2010.05.17/outbox.cif.g08.bks.cpg/sg2_21_cif.got.tgz:41653.got - 2010.06.03 11:33:40.
