data_PCOD9021423
_publ_section_title
;
Structure prediction by ZEFSAII (Michael W. Deem and Ramdas Pophale) SiO2 
 PCOD9021423
Probable space group: P -1
;
_chemical_formula_sum "Si O2"
_cell_formula_units_Z 16
_cell_length_a 18.474875
_cell_length_b 12.146001
_cell_length_c 21.749948
_cell_angle_alpha 150.710391
_cell_angle_beta 162.257793
_cell_angle_gamma 39.040282
_cell_volume 678.261030
_symmetry_space_group_name_H-M "P -1"
_symmetry_group_IT_number 2
_symmetry_cell_setting 'triclinic'
loop_
_space_group_symop_operation_xyz
x,y,z
-x,-y,-z
loop_
_atom_site_type_symbol
_atom_site_label
_atom_site_fract_x
_atom_site_fract_y
_atom_site_fract_z
Si Si1 0.219651 0.166449 0.639467
Si Si2 0.784273 0.436137 0.094071
Si Si3 0.274661 0.775305 0.181744
Si Si4 0.697618 0.045414 0.929481
Si Si5 0.794231 0.040527 0.143358
Si Si6 0.208958 0.497635 0.118080
Si Si7 0.231477 0.807928 0.565418
Si Si8 0.278346 0.341345 0.322993
O O1 0.350238 0.416904 0.903144
O O2 0.422688 0.072816 0.725564
O O3 0.100325 0.957788 0.492571
O O4 0.012184 0.199985 0.442433
O O5 0.051389 0.637901 0.387552
O O6 0.645077 0.328321 0.865301
O O7 0.826455 0.231915 0.070275
O O8 0.182602 0.591123 0.074718
O O9 0.500000 0.000000 0.500000
O O10 0.012883 0.809093 0.967268
O O11 0.687245 0.780699 0.772301
O O12 0.827401 0.111370 0.133020
O O13 0.809990 0.776568 0.034548
O O14 0.499822 0.996070 0.898334
O O15 0.489683 0.664820 0.450460
O O16 0.000000 0.500000 0.000000
O O17 0.298766 0.618851 0.483025
#
# Coordination Sequence:
#
# PCOD9021423 Si02
#       8
#     2   2   2   2   2   2   2   2
#     4  11  23  44  65  90 129 172 221 265 318 385
#     4  11  24  43  66  92 131 173 211 270 325 382
#     4  11  25  44  67  98 131 172 219 268 334 391
#     4  11  24  41  63  93 130 172 218 266 322 380
#     4  10  22  38  61  92 123 167 218 261 314 386
#     4  11  22  39  67  99 132 170 213 264 328 393
#     4   9  22  41  65  94 124 165 213 269 330 380
#     4  10  22  41  64  96 133 164 210 272 324 381
#
# _framework density 23.589739999999999
#
# number of rings (size 3 to 8) (size 9 to 14) (size 15 to 20)
#    0.000    1.500    0.000    4.500    0.000   15.500 
#    0.000   10.000    0.000    0.000    0.000    0.000 
#    0.000    0.000    0.000    0.000    0.000    0.000 
#
# Total GULP energy -89403.584078 kJ/mol
# GULP energy per Si atom -5587.724005 kJ/mol
# Density = 2.353605 g / cm^3
# Si number density = 23.589740 Si / 1000 Ang^3
#
#
#
# Elastic Constant Matrix: (Units=GPa)
#
#
# Indices 1 2 3 4 5 6 
#
# 1 109.1975 33.0046 40.1759 2.7284 -9.7326 23.8209
# 2 33.0046 76.5559 26.2288 3.0238 -5.5995 16.4172
# 3 40.1759 26.2288 116.4000 -20.1424 -23.3343 -0.4617
# 4 2.7284 3.0238 -20.1424 34.0775 7.1766 -5.0302
# 5 -9.7326 -5.5995 -23.3343 7.1766 34.0734 4.6331
# 6 23.8209 16.4172 -0.4617 -5.0302 4.6331 55.9932
#
#
#
# Elastic Compliance Matrix: (Units=1/GPa)
#
#
# Indices 1 2 3 4 5 6 
#
# 1 0.013007 -0.002656 -0.004295 -0.004564 0.002028 -0.005368
# 2 -0.002656 0.016472 -0.003287 -0.004045 0.001118 -0.004183
# 3 -0.004295 -0.003287 0.013225 0.007824 0.005211 0.003172
# 4 -0.004564 -0.004045 0.007824 0.036837 -0.005313 0.006941
# 5 0.002028 0.001118 0.005211 -0.005313 0.035418 -0.004556
# 6 -0.005368 -0.004183 0.003172 0.006941 -0.004556 0.022396
#
#
# Mechanical properties :
#
#
# Convention : Reuss Voigt Hill
#
# Bulk Modulus (GPa) = 44.99102 55.66356 50.32729
# Shear Modulus (GPa) = 30.25867 38.34511 34.30189
#
# Velocity S-wave (km/s) = 3.58537 4.03612 3.81741
# Velocity P-wave (km/s) = 6.02109 6.73559 6.38834
#
# Compressibility (1/GPa) = 0.02222666
#
# Stress axis : x y z
#
# Youngs Moduli (GPa) = 76.88405 60.70833 75.61230
#
# Poissons Ratio (x) = 0.16124 0.32477
# Poissons Ratio (y) = 0.20421 0.24857
# Poissons Ratio (z) = 0.33024 0.19958
#
# Static dielectric constant tensor:
#      x y z
#    x 1.987540 -0.001850 0.016890 
#    y -0.001850 1.892040 0.007520 
#    z 0.016890 0.007520 1.943200 
# 
# From -- ./inp_files/600148.got.cif
#   From: 2010.05.17/outbox.cif.g08.bks.cpg/sg2_301_cif.got.tgz:600148.got - 2010.06.03 11:33:40.
