data_PCOD9021083
_publ_section_title
;
Structure prediction by ZEFSAII (Michael W. Deem and Ramdas Pophale) SiO2 
 PCOD9021083
Probable space group: P -1
;
_chemical_formula_sum "Si O2"
_cell_formula_units_Z 16
_cell_length_a 9.588878
_cell_length_b 10.716516
_cell_length_c 9.584293
_cell_angle_alpha 106.581362
_cell_angle_beta 62.474884
_cell_angle_gamma 71.923009
_cell_volume 714.874093
_symmetry_space_group_name_H-M "P -1"
_symmetry_group_IT_number 2
_symmetry_cell_setting 'triclinic'
loop_
_space_group_symop_operation_xyz
x,y,z
-x,-y,-z
loop_
_atom_site_type_symbol
_atom_site_label
_atom_site_fract_x
_atom_site_fract_y
_atom_site_fract_z
Si Si1 0.702705 0.360322 0.339887
Si Si2 0.618794 0.871349 0.687905
Si Si3 0.211098 0.567274 0.214434
Si Si4 0.409159 0.654450 0.919025
Si Si5 0.089394 0.477109 0.605827
Si Si6 0.934515 0.043486 0.203527
Si Si7 0.081698 0.093598 0.561244
Si Si8 0.314976 0.988592 0.044663
O O1 0.500000 0.500000 0.500000
O O2 0.697289 0.324741 0.168376
O O3 0.842995 0.412537 0.338137
O O4 0.750033 0.207570 0.350198
O O5 0.729735 0.695971 0.533543
O O6 0.712203 0.950249 0.587532
O O7 0.651510 0.896094 0.843292
O O8 0.397971 0.957451 0.837857
O O9 0.370910 0.467124 0.220318
O O10 0.083493 0.499214 0.213757
O O11 0.052793 0.737427 0.382296
O O12 0.318199 0.594315 0.050370
O O13 0.384473 0.818001 0.017762
O O14 0.000000 0.500000 0.500000
O O15 0.929924 0.923991 0.272349
O O16 0.098389 0.065950 0.184684
O O17 0.000000 0.000000 0.000000
O O18 0.000000 0.000000 0.500000
#
# Coordination Sequence:
#
# PCOD9021083 Si02
#       8
#     2   2   2   2   2   2   2   2
#     4  12  26  42  68  96 135 178 220 275 336 404
#     4  10  22  37  66  93 132 163 223 280 323 391
#     4  10  22  40  68  96 132 169 223 280 331 398
#     4  11  22  41  66 100 131 174 223 275 335 401
#     4  11  23  40  63  95 133 176 222 273 334 401
#     4  12  24  42  69  93 134 175 221 270 336 400
#     4  11  21  40  65  99 125 171 225 275 326 395
#     4  11  20  40  64  98 129 172 218 274 334 396
#
# _framework density 22.381563
#
# number of rings (size 3 to 8) (size 9 to 14) (size 15 to 20)
#    0.000    1.000    3.750    3.000    3.500    1.500 
#    0.000    0.625    2.750    0.000    0.000    0.000 
#    0.000    0.000    0.000    0.000    0.000    0.000 
#
# Total GULP energy -89169.560426 kJ/mol
# GULP energy per Si atom -5573.097527 kJ/mol
# Density = 2.233062 g / cm^3
# Si number density = 22.381563 Si / 1000 Ang^3
#
#
#
# Elastic Constant Matrix: (Units=GPa)
#
#
# Indices 1 2 3 4 5 6 
#
# 1 89.8736 37.8267 19.1643 -2.5041 -6.1584 15.8869
# 2 37.8267 94.2176 26.1250 6.3131 -2.6709 -3.9869
# 3 19.1643 26.1250 76.7899 -10.5713 -22.7495 1.6608
# 4 -2.5041 6.3131 -10.5713 35.4630 4.8089 -11.1005
# 5 -6.1584 -2.6709 -22.7495 4.8089 45.4987 1.5238
# 6 15.8869 -3.9869 1.6608 -11.1005 1.5238 35.8753
#
#
#
# Elastic Compliance Matrix: (Units=1/GPa)
#
#
# Indices 1 2 3 4 5 6 
#
# 1 0.015396 -0.006049 -0.001312 -0.000847 0.001422 -0.007752
# 2 -0.006049 0.014599 -0.004550 -0.002951 -0.002048 0.003685
# 3 -0.001312 -0.004550 0.017958 0.005145 0.007974 0.000497
# 4 -0.000847 -0.002951 0.005145 0.033636 -0.001615 0.010285
# 5 0.001422 -0.002048 0.007974 -0.001615 0.026304 -0.002843
# 6 -0.007752 0.003685 0.000497 0.010285 -0.002843 0.034997
#
#
# Mechanical properties :
#
#
# Convention : Reuss Voigt Hill
#
# Bulk Modulus (GPa) = 41.43928 47.45701 44.44815
# Shear Modulus (GPa) = 28.61124 35.21839 31.91481
#
# Velocity S-wave (km/s) = 3.57927 3.97110 3.78026
# Velocity P-wave (km/s) = 5.96964 6.50198 6.24149
#
# Compressibility (1/GPa) = 0.02413169
#
# Stress axis : x y z
#
# Youngs Moduli (GPa) = 64.95000 68.49576 55.68569
#
# Poissons Ratio (x) = 0.41430 0.07308
# Poissons Ratio (y) = 0.39285 0.25338
# Poissons Ratio (z) = 0.08524 0.31167
#
# Static dielectric constant tensor:
#      x y z
#    x 2.222070 -0.082480 -0.141570 
#    y -0.082480 1.871350 0.002220 
#    z -0.141570 0.002220 1.965260 
# 
# From -- ./inp_files/189152.got.cif
#   From: 2010.05.17/outbox.cif.g08.bks.cpg/sg2_95_cif.got.tgz:189152.got - 2010.06.03 11:33:40.
