data_PCOD9021327
_publ_section_title
;
Structure prediction by ZEFSAII (Michael W. Deem and Ramdas Pophale) SiO2 
 PCOD9021327
Probable space group: P -1
;
_chemical_formula_sum "Si O2"
_cell_formula_units_Z 15
_cell_length_a 7.360491
_cell_length_b 7.447877
_cell_length_c 14.448754
_cell_angle_alpha 56.950837
_cell_angle_beta 119.297195
_cell_angle_gamma 120.925577
_cell_volume 544.932261
_symmetry_space_group_name_H-M "P -1"
_symmetry_group_IT_number 2
_symmetry_cell_setting 'triclinic'
loop_
_space_group_symop_operation_xyz
x,y,z
-x,-y,-z
loop_
_atom_site_type_symbol
_atom_site_label
_atom_site_fract_x
_atom_site_fract_y
_atom_site_fract_z
Si Si1 0.553069 0.349011 0.472373
Si Si2 0.365599 0.203187 0.728201
Si Si3 0.500000 0.500000 0.000000
Si Si4 0.109733 0.861137 0.309332
Si Si5 0.916321 0.495073 0.217055
Si Si6 0.755492 0.316822 0.917342
Si Si7 0.775133 0.048551 0.417456
Si Si8 0.811723 0.758383 0.897148
O O1 0.500000 0.500000 0.500000
O O2 0.574126 0.523732 0.345527
O O3 0.773767 0.291328 0.565281
O O4 0.366236 0.101303 0.491470
O O5 0.526267 0.170881 0.855614
O O6 0.104685 0.116460 0.702756
O O7 0.380688 0.078315 0.671691
O O8 0.681716 0.442696 0.127088
O O9 0.312083 0.230599 0.043477
O O10 0.021767 0.735726 0.225541
O O11 0.248116 0.112171 0.238686
O O12 0.867496 0.311378 0.339165
O O13 0.095592 0.513709 0.174162
O O14 0.698138 0.479987 0.934069
O O15 0.930012 0.210027 0.034133
O O16 0.000000 0.000000 0.500000
#
# Coordination Sequence:
#
# PCOD9021327 Si02
#       8
#     2   2   1   2   2   2   2   2
#     4  10  22  40  61  87 123 162 205 254 311 368
#     4  11  23  40  64  92 125 163 212 260 310 372
#     4  10  22  38  60  90 124 158 204 256 306 362
#     4  12  24  40  64  95 126 162 211 261 311 368
#     4  11  22  38  61  90 127 165 208 256 308 370
#     4  10  22  43  65  90 128 168 207 254 314 378
#     4  11  22  40  64  88 121 166 208 253 312 373
#     4  10  23  42  65  94 128 165 207 259 313 371
#
# _framework density 27.526353
#
# number of rings (size 3 to 8) (size 9 to 14) (size 15 to 20)
#    0.000    1.333    0.000    6.800    0.000    3.733 
#    0.000    2.000    0.000    0.000    0.000    0.000 
#    0.000    0.000    0.000    0.000    0.000    0.000 
#
# Total GULP energy -83695.160878 kJ/mol
# GULP energy per Si atom -5579.677392 kJ/mol
# Density = 2.746370 g / cm^3
# Si number density = 27.526353 Si / 1000 Ang^3
#
#
#
# Elastic Constant Matrix: (Units=GPa)
#
#
# Indices 1 2 3 4 5 6 
#
# 1 79.9613 10.3097 17.7655 -13.3644 24.5081 11.6183
# 2 10.3097 48.3670 5.6218 11.9554 0.7553 -10.8348
# 3 17.7655 5.6218 103.5518 -7.9109 23.8068 -6.7250
# 4 -13.3644 11.9554 -7.9109 55.3543 20.4054 -5.7401
# 5 24.5081 0.7553 23.8068 20.4054 51.7602 3.1769
# 6 11.6183 -10.8348 -6.7250 -5.7401 3.1769 43.5852
#
#
#
# Elastic Compliance Matrix: (Units=1/GPa)
#
#
# Indices 1 2 3 4 5 6 
#
# 1 0.020296 -0.008092 0.000753 0.011442 -0.014056 -0.004774
# 2 -0.008092 0.026547 -0.002314 -0.010375 0.008203 0.006435
# 3 0.000753 -0.002314 0.012170 0.005750 -0.008339 0.002467
# 4 0.011442 -0.010375 0.005750 0.031497 -0.020383 0.000892
# 5 -0.014056 0.008203 -0.008339 -0.020383 0.037784 -0.000939
# 6 -0.004774 0.006435 0.002467 0.000892 -0.000939 0.026383
#
#
# Mechanical properties :
#
#
# Convention : Reuss Voigt Hill
#
# Bulk Modulus (GPa) = 25.18397 33.25269 29.21833
# Shear Modulus (GPa) = 26.70680 43.35213 35.02947
#
# Velocity S-wave (km/s) = 3.11823 3.97285 3.57119
# Velocity P-wave (km/s) = 4.70461 5.75771 5.25759
#
# Compressibility (1/GPa) = 0.03970781
#
# Stress axis : x y z
#
# Youngs Moduli (GPa) = 49.26990 37.66921 82.16886
#
# Poissons Ratio (x) = 0.30482 -0.06186
# Poissons Ratio (y) = 0.39869 0.19010
# Poissons Ratio (z) = -0.03709 0.08715
#
# Static dielectric constant tensor:
#      x y z
#    x 1.631270 0.049220 0.109540 
#    y 0.049220 2.167420 -0.082480 
#    z 0.109540 -0.082480 2.082050 
# 
# From -- ./inp_files/555041.got.cif
#   From: 2010.05.17/outbox.cif.g08.bks.cpg/sg2_278_cif.got.tgz:555041.got - 2010.06.03 11:33:40.
