data_PCOD9021919
_publ_section_title
;
Structure prediction by ZEFSAII (Michael W. Deem and Ramdas Pophale) SiO2 
 PCOD9021919
Probable space group: P -1
;
_chemical_formula_sum "Si O2"
_cell_formula_units_Z 10
_cell_length_a 9.753643
_cell_length_b 7.327129
_cell_length_c 12.748243
_cell_angle_alpha 67.042750
_cell_angle_beta 33.917942
_cell_angle_gamma 55.734347
_cell_volume 414.218238
_symmetry_space_group_name_H-M "P -1"
_symmetry_group_IT_number 2
_symmetry_cell_setting 'triclinic'
loop_
_space_group_symop_operation_xyz
x,y,z
-x,-y,-z
loop_
_atom_site_type_symbol
_atom_site_label
_atom_site_fract_x
_atom_site_fract_y
_atom_site_fract_z
Si Si1 0.263894 0.530578 0.061029
Si Si2 0.637474 0.390669 0.259141
Si Si3 0.167783 0.049707 0.654004
Si Si4 0.697468 0.105037 0.618173
Si Si5 0.197632 0.176555 0.066529
O O1 0.243331 0.303843 0.106012
O O2 0.500000 0.500000 0.000000
O O3 0.335408 0.597726 0.886184
O O4 0.970002 0.721496 0.246687
O O5 0.634296 0.165085 0.352448
O O6 0.402174 0.629084 0.395460
O O7 0.925292 0.353839 0.137339
O O8 0.294935 0.021968 0.465111
O O9 0.897298 0.009926 0.809303
O O10 0.463946 0.100489 0.841904
O O11 0.000000 0.000000 0.500000
#
# Coordination Sequence:
#
# PCOD9021919 Si02
#       5
#     2   2   2   2   2
#     4  11  20  36  62  93 118 152 199 250 294 343
#     4   9  21  43  60  83 125 159 196 240 294 360
#     4  10  22  38  67  83 118 162 202 234 296 356
#     4  11  20  36  62  93 118 152 199 250 294 343
#     4   9  23  42  63  83 123 159 200 233 301 358
#
# _framework density 24.141863000000001
#
# number of rings (size 3 to 8) (size 9 to 14) (size 15 to 20)
#    1.200    0.800    0.000    6.000    0.000    3.200 
#    0.000    8.000    0.000   12.000    0.000    0.000 
#    0.000    0.000    0.000    0.000    0.000    0.000 
#
# Total GULP energy -55914.334636 kJ/mol
# GULP energy per Si atom -5591.433464 kJ/mol
# Density = 2.408692 g / cm^3
# Si number density = 24.141863 Si / 1000 Ang^3
#
#
#
# Elastic Constant Matrix: (Units=GPa)
#
#
# Indices 1 2 3 4 5 6 
#
# 1 133.1768 -6.1683 23.3380 0.1192 -8.1823 -9.7951
# 2 -6.1683 30.7188 10.7809 3.1535 2.9734 -8.9795
# 3 23.3380 10.7809 88.8645 20.7845 -8.3296 10.4676
# 4 0.1192 3.1535 20.7845 20.1729 -1.1898 -5.8385
# 5 -8.1823 2.9734 -8.3296 -1.1898 46.7248 16.5257
# 6 -9.7951 -8.9795 10.4676 -5.8385 16.5257 44.9000
#
#
#
# Elastic Compliance Matrix: (Units=1/GPa)
#
#
# Indices 1 2 3 4 5 6 
#
# 1 0.008904 0.004628 -0.005018 0.005848 -0.001354 0.005297
# 2 0.004628 0.042451 -0.011510 0.009543 -0.009712 0.016998
# 3 -0.005018 -0.011510 0.022407 -0.025102 0.008521 -0.015021
# 4 0.005848 0.009543 -0.025102 0.080021 -0.010228 0.023206
# 5 -0.001354 -0.009712 0.008521 -0.010228 0.028748 -0.016135
# 6 0.005297 0.016998 -0.015021 0.023206 -0.016135 0.039285
#
#
# Mechanical properties :
#
#
# Convention : Reuss Voigt Hill
#
# Bulk Modulus (GPa) = 20.01555 34.29570 27.15562
# Shear Modulus (GPa) = 19.06432 37.34683 28.20557
#
# Velocity S-wave (km/s) = 2.81317 3.93743 3.42179
# Velocity P-wave (km/s) = 4.34289 5.90829 5.18500
#
# Compressibility (1/GPa) = 0.04996115
#
# Stress axis : x y z
#
# Youngs Moduli (GPa) = 112.31241 23.55632 44.62976
#
# Poissons Ratio (x) = -0.10902 0.22397
# Poissons Ratio (y) = -0.51981 0.51369
# Poissons Ratio (z) = 0.56363 0.27114
#
# Static dielectric constant tensor:
#      x y z
#    x 1.919210 0.006100 -0.035500 
#    y 0.006100 1.965780 -0.037140 
#    z -0.035500 -0.037140 1.923440 
# 
# From -- ./inp_files/156338.got.cif
#   From: 2010.05.17/outbox.cif.g08.bks.cpg/sg2_79_cif.got.tgz:156338.got - 2010.06.03 11:33:40.
