data_PCOD9021240
_publ_section_title
;
Structure prediction by ZEFSAII (Michael W. Deem and Ramdas Pophale) SiO2 
 PCOD9021240
Probable space group: P -1
;
_chemical_formula_sum "Si O2"
_cell_formula_units_Z 16
_cell_length_a 14.170132
_cell_length_b 4.894723
_cell_length_c 14.691445
_cell_angle_alpha 64.283774
_cell_angle_beta 60.041600
_cell_angle_gamma 57.837998
_cell_volume 727.467709
_symmetry_space_group_name_H-M "P -1"
_symmetry_group_IT_number 2
_symmetry_cell_setting 'triclinic'
loop_
_space_group_symop_operation_xyz
x,y,z
-x,-y,-z
loop_
_atom_site_type_symbol
_atom_site_label
_atom_site_fract_x
_atom_site_fract_y
_atom_site_fract_z
Si Si1 0.390926 0.387323 0.566384
Si Si2 0.177591 0.208217 0.166410
Si Si3 0.290912 0.492207 0.223216
Si Si4 0.798725 0.495826 0.219014
Si Si5 0.573421 0.697989 0.640842
Si Si6 0.664973 0.948162 0.060908
Si Si7 0.957175 0.873971 0.130378
Si Si8 0.512218 0.617344 0.127169
O O1 0.500000 0.500000 0.500000
O O2 0.275945 0.578045 0.654536
O O3 0.361233 0.385623 0.474730
O O4 0.454177 0.020978 0.631602
O O5 0.259998 0.297032 0.186317
O O6 0.059191 0.540543 0.168793
O O7 0.182665 0.847876 0.244200
O O8 0.229107 0.140175 0.049006
O O9 0.341679 0.281127 0.321309
O O10 0.398913 0.604708 0.129987
O O11 0.711166 0.651000 0.154442
O O12 0.846363 0.776000 0.179905
O O13 0.911738 0.175769 0.178919
O O14 0.527082 0.436717 0.743799
O O15 0.552300 0.915550 0.071933
O O16 0.622788 0.295955 0.082897
O O17 0.000000 0.000000 0.000000
#
# Coordination Sequence:
#
# PCOD9021240 Si02
#       8
#     2   2   2   2   2   2   2   2
#     4  11  23  40  74 101 135 168 213 269 350 404
#     4  12  25  40  64  88 124 186 221 270 322 380
#     4  10  24  41  62  90 132 178 217 260 329 395
#     4  12  25  42  69 101 135 169 218 288 329 391
#     4   9  23  39  62  97 133 163 209 259 332 403
#     4  12  22  36  63  93 136 166 221 261 333 392
#     4  12  27  45  68  94 134 177 235 277 325 371
#     4  10  22  38  58  95 134 168 206 265 321 414
#
# _framework density 21.994104
#
# number of rings (size 3 to 8) (size 9 to 14) (size 15 to 20)
#    0.750    0.250    2.500    4.125    7.000    3.000 
#    0.000    0.000    0.000    4.500    0.000    0.000 
#    0.000    0.000    0.000    0.000    0.000    0.000 
#
# Total GULP energy -89372.262219 kJ/mol
# GULP energy per Si atom -5585.766389 kJ/mol
# Density = 2.194404 g / cm^3
# Si number density = 21.994104 Si / 1000 Ang^3
#
#
#
# Elastic Constant Matrix: (Units=GPa)
#
#
# Indices 1 2 3 4 5 6 
#
# 1 72.0004 2.4932 20.5635 -2.2146 11.2823 4.8674
# 2 2.4932 88.9377 26.6779 12.3751 16.7423 9.4366
# 3 20.5635 26.6779 112.9367 20.9046 16.0345 -4.9309
# 4 -2.2146 12.3751 20.9046 23.4421 1.7180 -0.6439
# 5 11.2823 16.7423 16.0345 1.7180 35.1141 -5.1077
# 6 4.8674 9.4366 -4.9309 -0.6439 -5.1077 36.0854
#
#
#
# Elastic Compliance Matrix: (Units=1/GPa)
#
#
# Indices 1 2 3 4 5 6 
#
# 1 0.015967 0.001313 -0.003445 0.004148 -0.004908 -0.003588
# 2 0.001313 0.014390 -0.001880 -0.005434 -0.006926 -0.005275
# 3 -0.003445 -0.001880 0.012267 -0.010010 -0.002810 0.002056
# 4 0.004148 -0.005434 -0.010010 0.054630 0.003292 0.000934
# 5 -0.004908 -0.006926 -0.002810 0.003292 0.035524 0.007176
# 6 -0.003588 -0.005275 0.002056 0.000934 0.007176 0.030889
#
#
# Mechanical properties :
#
#
# Convention : Reuss Voigt Hill
#
# Bulk Modulus (GPa) = 28.90044 41.48269 35.19156
# Shear Modulus (GPa) = 27.28907 33.87102 30.58004
#
# Velocity S-wave (km/s) = 3.52624 3.92855 3.73282
# Velocity P-wave (km/s) = 5.45415 6.28329 5.88335
#
# Compressibility (1/GPa) = 0.03460155
#
# Stress axis : x y z
#
# Youngs Moduli (GPa) = 62.63098 69.49090 81.51671
#
# Poissons Ratio (x) = -0.09126 0.28084
# Poissons Ratio (y) = -0.08225 0.15321
# Poissons Ratio (z) = 0.21577 0.13061
#
# Static dielectric constant tensor:
#      x y z
#    x 1.904230 -0.039900 0.021950 
#    y -0.039900 1.878800 -0.046140 
#    z 0.021950 -0.046140 1.874370 
# 
# From -- ./inp_files/525553.got.cif
#   From: 2010.05.17/outbox.cif.g08.bks.cpg/sg2_263_cif.got.tgz:525553.got - 2010.06.03 11:33:40.
