data_PCOD9021279
_publ_section_title
;
Structure prediction by ZEFSAII (Michael W. Deem and Ramdas Pophale) SiO2 
 PCOD9021279
Probable space group: P -1
;
_chemical_formula_sum "Si O2"
_cell_formula_units_Z 16
_cell_length_a 13.311646
_cell_length_b 9.299433
_cell_length_c 8.188945
_cell_angle_alpha 131.617091
_cell_angle_beta 101.629199
_cell_angle_gamma 62.834395
_cell_volume 666.335101
_symmetry_space_group_name_H-M "P -1"
_symmetry_group_IT_number 2
_symmetry_cell_setting 'triclinic'
loop_
_space_group_symop_operation_xyz
x,y,z
-x,-y,-z
loop_
_atom_site_type_symbol
_atom_site_label
_atom_site_fract_x
_atom_site_fract_y
_atom_site_fract_z
Si Si1 0.880166 0.209786 0.803262
Si Si2 0.441784 0.441644 0.090733
Si Si3 0.874639 0.007707 0.954914
Si Si4 0.376493 0.902952 0.505666
Si Si5 0.131575 0.823034 0.597975
Si Si6 0.774469 0.662031 0.094289
Si Si7 0.185347 0.349876 0.282733
Si Si8 0.424754 0.012806 0.236590
O O1 0.832484 0.221728 0.613697
O O2 0.874489 0.439623 0.023445
O O3 0.008008 0.024679 0.698151
O O4 0.818132 0.142301 0.875303
O O5 0.398588 0.657740 0.344130
O O6 0.500000 0.500000 0.000000
O O7 0.335317 0.391684 0.968145
O O8 0.532729 0.211799 0.016478
O O9 0.810915 0.112163 0.182505
O O10 0.884006 0.772976 0.765303
O O11 0.000000 0.000000 0.000000
O O12 0.470628 0.926858 0.668875
O O13 0.257423 0.108910 0.664086
O O14 0.401311 0.952974 0.366641
O O15 0.133901 0.600278 0.490232
O O16 0.804570 0.674619 0.927047
O O17 0.313287 0.211862 0.287020
#
# Coordination Sequence:
#
# PCOD9021279 Si02
#       8
#     2   2   2   2   2   2   2   2
#     4   9  20  40  66  89 125 169 210 260 317 381
#     4   9  19  36  59  87 126 159 204 260 307 376
#     4  10  23  42  63  92 125 166 217 263 320 378
#     4   9  19  37  61  88 121 164 209 249 317 376
#     4   9  21  44  62  91 132 163 209 272 320 372
#     4  10  22  38  59  94 127 159 216 260 306 383
#     4  11  24  40  61  95 128 164 213 269 310 381
#     4   9  20  37  58  89 123 162 207 258 308 378
#
# _framework density 24.011944
#
# number of rings (size 3 to 8) (size 9 to 14) (size 15 to 20)
#    0.000    2.500    0.000    0.750    5.250    7.000 
#    0.000   19.375    0.000    0.000    0.000    0.000 
#    0.000    0.000    0.000    0.000    0.000    0.000 
#
# Total GULP energy -89270.833075 kJ/mol
# GULP energy per Si atom -5579.427067 kJ/mol
# Density = 2.395729 g / cm^3
# Si number density = 24.011944 Si / 1000 Ang^3
#
#
#
# Elastic Constant Matrix: (Units=GPa)
#
#
# Indices 1 2 3 4 5 6 
#
# 1 37.9175 36.8379 19.8500 27.1473 -1.4644 1.3017
# 2 36.8379 107.5989 40.1287 15.8460 10.9408 -8.6224
# 3 19.8500 40.1287 130.2832 42.2616 2.4892 -11.9360
# 4 27.1473 15.8460 42.2616 59.9092 9.4514 -14.8818
# 5 -1.4644 10.9408 2.4892 9.4514 25.8658 14.2161
# 6 1.3017 -8.6224 -11.9360 -14.8818 14.2161 19.2542
#
#
#
# Elastic Compliance Matrix: (Units=1/GPa)
#
#
# Indices 1 2 3 4 5 6 
#
# 1 -0.014392 0.014007 -0.005372 0.034962 -0.060588 0.075672
# 2 0.014007 0.002059 -0.000111 -0.019270 0.025600 -0.033889
# 3 -0.005372 -0.000111 0.009882 -0.000514 -0.007306 0.011437
# 4 0.034962 -0.019270 -0.000514 -0.016698 0.049801 -0.060987
# 5 -0.060588 0.025600 -0.007306 0.049801 -0.034180 0.074759
# 6 0.075672 -0.033889 0.011437 -0.060987 0.074759 -0.063601
#
#
# Mechanical properties :
#
#
# Convention : Reuss Voigt Hill
#
# Bulk Modulus (GPa) = 68.51282 52.15919 60.33600
# Shear Modulus (GPa) = -38.72692 32.93803 -2.89445
#
# Velocity S-wave (km/s) = -4.02035 3.70771 -1.09911
# Velocity P-wave (km/s) = 2.65402 6.33237 4.85503
#
# Compressibility (1/GPa) = 0.01459581
#
# Stress axis : x y z
#
# Youngs Moduli (GPa) = -69.48504 485.65341 101.18922
#
# Poissons Ratio (x) = -6.80231 0.54362
# Poissons Ratio (y) = 0.97324 0.01126
# Poissons Ratio (z) = -0.37330 0.05404
#
# Static dielectric constant tensor:
#      x y z
#    x 2.208690 -0.099990 -0.208670 
#    y -0.099990 1.978140 0.066990 
#    z -0.208670 0.066990 2.146090 
# 
# From -- ./inp_files/296784.got.cif
#   From: 2010.05.17/outbox.cif.g08.bks.cpg/sg2_149_cif.got.tgz:296784.got - 2010.06.03 11:33:40.
