data_PCOD9021059
_publ_section_title
;
Structure prediction by ZEFSAII (Michael W. Deem and Ramdas Pophale) SiO2 
 PCOD9021059
Probable space group: P -1
;
_chemical_formula_sum "Si O2"
_cell_formula_units_Z 16
_cell_length_a 5.114836
_cell_length_b 12.583319
_cell_length_c 9.831058
_cell_angle_alpha 84.579522
_cell_angle_beta 93.070731
_cell_angle_gamma 77.699869
_cell_volume 613.684794
_symmetry_space_group_name_H-M "P -1"
_symmetry_group_IT_number 2
_symmetry_cell_setting 'triclinic'
loop_
_space_group_symop_operation_xyz
x,y,z
-x,-y,-z
loop_
_atom_site_type_symbol
_atom_site_label
_atom_site_fract_x
_atom_site_fract_y
_atom_site_fract_z
Si Si1 0.283978 0.603730 0.938999
Si Si2 0.621116 0.909350 0.404108
Si Si3 0.031053 0.708133 0.179714
Si Si4 0.087392 0.326573 0.294937
Si Si5 0.453428 0.855053 0.133958
Si Si6 0.199500 0.821760 0.542535
Si Si7 0.471096 0.822734 0.831652
Si Si8 0.240029 0.509182 0.406325
O O1 0.400717 0.709198 0.894264
O O2 0.119684 0.584384 0.806718
O O3 0.500000 0.500000 0.000000
O O4 0.076515 0.642313 0.048953
O O5 0.503188 0.937157 0.245813
O O6 0.470178 0.813836 0.463449
O O7 0.941111 0.886967 0.440897
O O8 0.500000 0.000000 0.500000
O O9 0.190922 0.806429 0.160327
O O10 0.159580 0.620357 0.305728
O O11 0.718066 0.759230 0.180321
O O12 0.236097 0.220913 0.223812
O O13 0.295749 0.396890 0.334918
O O14 0.917175 0.283117 0.410225
O O15 0.457352 0.884592 0.969505
O O16 0.274385 0.862886 0.691518
O O17 0.500000 0.500000 0.500000
O O18 0.000000 0.500000 0.500000
#
# Coordination Sequence:
#
# PCOD9021059 Si02
#       8
#     2   2   2   2   2   2   2   2
#     4  10  22  37  65  97 135 183 240 291 334 381
#     4  12  27  49  77 108 139 176 227 291 365 441
#     4  11  24  42  63  97 132 187 229 292 333 395
#     4  11  24  43  70  96 141 187 239 285 343 405
#     4  11  25  44  72 101 140 177 237 287 352 415
#     4  11  25  45  77 102 140 186 229 279 362 428
#     4  10  22  43  70 102 133 190 234 284 345 413
#     4  12  30  39  57  93 139 182 241 276 331 393
#
# _framework density 26.072016000000001
#
# number of rings (size 3 to 8) (size 9 to 14) (size 15 to 20)
#    0.000    1.000    2.500    2.625   14.000    1.000 
#    0.000    1.250    0.000    0.000    0.000    0.000 
#    0.000    0.000    0.000    0.000    0.000    0.000 
#
# Total GULP energy -89528.647607 kJ/mol
# GULP energy per Si atom -5595.540475 kJ/mol
# Density = 2.601268 g / cm^3
# Si number density = 26.072016 Si / 1000 Ang^3
#
#
#
# Elastic Constant Matrix: (Units=GPa)
#
#
# Indices 1 2 3 4 5 6 
#
# 1 131.8825 14.0630 32.7961 -11.8282 8.0858 -3.6310
# 2 14.0630 39.3676 36.4445 -3.2734 3.0058 8.0950
# 3 32.7961 36.4445 176.6183 -6.0705 14.1168 14.6453
# 4 -11.8282 -3.2734 -6.0705 52.3539 -1.0292 1.1781
# 5 8.0858 3.0058 14.1168 -1.0292 56.3801 3.7457
# 6 -3.6310 8.0950 14.6453 1.1781 3.7457 31.9248
#
#
#
# Elastic Compliance Matrix: (Units=1/GPa)
#
#
# Indices 1 2 3 4 5 6 
#
# 1 0.008350 -0.002141 -0.001155 0.001554 -0.000903 0.002071
# 2 -0.002141 0.032906 -0.005897 0.001033 0.000445 -0.005972
# 3 -0.001155 -0.005897 0.007355 0.000241 -0.001233 -0.001875
# 4 0.001554 0.001033 0.000241 0.019567 0.000080 -0.000927
# 5 -0.000903 0.000445 -0.001233 0.000080 0.018272 -0.001797
# 6 0.002071 -0.005972 -0.001875 -0.000927 -0.001797 0.034178
#
#
# Mechanical properties :
#
#
# Convention : Reuss Voigt Hill
#
# Bulk Modulus (GPa) = 33.08568 57.16395 45.12482
# Shear Modulus (GPa) = 33.53675 45.76943 39.65309
#
# Velocity S-wave (km/s) = 3.59041 4.19441 3.90411
# Velocity P-wave (km/s) = 5.46861 6.74021 6.13743
#
# Compressibility (1/GPa) = 0.03022456
#
# Stress axis : x y z
#
# Youngs Moduli (GPa) = 119.76322 30.38968 135.95322
#
# Poissons Ratio (x) = 0.06508 0.15698
# Poissons Ratio (y) = 0.25646 0.80174
# Poissons Ratio (z) = 0.13829 0.17921
#
# Static dielectric constant tensor:
#      x y z
#    x 1.988290 0.034350 0.007650 
#    y 0.034350 2.090830 0.084490 
#    z 0.007650 0.084490 2.176400 
# 
# From -- ./inp_files/135545.got.cif
#   From: 2010.05.17/outbox.cif.g08.bks.cpg/sg2_68_cif.got.tgz:135545.got - 2010.06.03 11:33:40.
