data_PCOD9021951
_publ_section_title
;
Structure prediction by ZEFSAII (Michael W. Deem and Ramdas Pophale) SiO2 
 PCOD9021951
Probable space group: P -1
;
_chemical_formula_sum "Si O2"
_cell_formula_units_Z 14
_cell_length_a 16.128937
_cell_length_b 9.601181
_cell_length_c 10.599209
_cell_angle_alpha 61.776018
_cell_angle_beta 38.696353
_cell_angle_gamma 38.532238
_cell_volume 598.023503
_symmetry_space_group_name_H-M "P -1"
_symmetry_group_IT_number 2
_symmetry_cell_setting 'triclinic'
loop_
_space_group_symop_operation_xyz
x,y,z
-x,-y,-z
loop_
_atom_site_type_symbol
_atom_site_label
_atom_site_fract_x
_atom_site_fract_y
_atom_site_fract_z
Si Si1 0.232058 0.245546 0.337190
Si Si2 0.248488 0.932250 0.309250
Si Si3 0.748411 0.022718 0.352381
Si Si4 0.112731 0.236168 0.964840
Si Si5 0.474923 0.791879 0.869204
Si Si6 0.967281 0.035962 0.782390
Si Si7 0.475159 0.579927 0.740010
O O1 0.286054 0.078779 0.458641
O O2 0.000000 0.500000 0.500000
O O3 0.269478 0.101341 0.233571
O O4 0.365276 0.277594 0.195748
O O5 0.403739 0.687184 0.310259
O O6 0.318984 0.836793 0.124619
O O7 0.036833 0.066592 0.560996
O O8 0.895567 0.015451 0.247103
O O9 0.565424 0.281236 0.395692
O O10 0.849905 0.842435 0.191103
O O11 0.998900 0.182759 0.176824
O O12 0.328900 0.043590 0.860546
O O13 0.000000 0.500000 0.000000
O O14 0.573806 0.600012 0.723588
O O15 0.742244 0.259389 0.006919
#
# Coordination Sequence:
#
# PCOD9021951 Si02
#       7
#     2   2   2   2   2   2   2
#     4  11  26  43  65  95 133 179 219 271 330 388
#     4  11  24  41  68  94 128 179 216 266 330 390
#     4   9  21  41  64  91 128 173 217 269 321 386
#     4  10  22  38  67  98 132 174 207 277 332 381
#     4  10  24  43  60  99 135 167 226 269 326 393
#     4   9  21  41  63  97 127 167 220 258 328 388
#     4  10  22  42  67  94 129 166 215 286 319 382
#
# _framework density 23.410453
#
# number of rings (size 3 to 8) (size 9 to 14) (size 15 to 20)
#    0.000    2.286    0.000    2.571    6.000   11.429 
#    2.571    0.000    0.000    0.000    0.000    0.000 
#    0.000    0.000    0.000    0.000    0.000    0.000 
#
# Total GULP energy -78186.335785 kJ/mol
# GULP energy per Si atom -5584.738270 kJ/mol
# Density = 2.335717 g / cm^3
# Si number density = 23.410453 Si / 1000 Ang^3
#
#
#
# Elastic Constant Matrix: (Units=GPa)
#
#
# Indices 1 2 3 4 5 6 
#
# 1 74.3385 20.8792 12.0051 7.1234 -6.5980 2.9387
# 2 20.8792 128.2210 -3.0109 19.7918 -9.6067 11.1396
# 3 12.0051 -3.0109 54.7941 1.5367 -4.2725 -6.7854
# 4 7.1234 19.7918 1.5367 27.6229 -1.1613 3.6081
# 5 -6.5980 -9.6067 -4.2725 -1.1613 35.9861 -12.4423
# 6 2.9387 11.1396 -6.7854 3.6081 -12.4423 26.4519
#
#
#
# Elastic Compliance Matrix: (Units=1/GPa)
#
#
# Indices 1 2 3 4 5 6 
#
# 1 0.014906 -0.002015 -0.003282 -0.002069 0.001512 -0.000656
# 2 -0.002015 0.009338 0.000976 -0.005905 0.001351 -0.002017
# 3 -0.003282 0.000976 0.020378 -0.001785 0.004653 0.007613
# 4 -0.002069 -0.005905 -0.001785 0.041557 -0.002395 -0.004536
# 5 0.001512 0.001351 0.004653 -0.002395 0.034838 0.017170
# 6 -0.000656 -0.002017 0.007613 -0.004536 0.017170 0.049375
#
#
# Mechanical properties :
#
#
# Convention : Reuss Voigt Hill
#
# Bulk Modulus (GPa) = 27.79270 35.23339 31.51304
# Shear Modulus (GPa) = 26.17406 33.17754 29.67580
#
# Velocity S-wave (km/s) = 3.34735 3.76867 3.56424
# Velocity P-wave (km/s) = 5.18048 5.83268 5.51623
#
# Compressibility (1/GPa) = 0.03598068
#
# Stress axis : x y z
#
# Youngs Moduli (GPa) = 67.08607 107.08913 49.07139
#
# Poissons Ratio (x) = 0.21576 0.16105
# Poissons Ratio (y) = 0.13516 -0.04788
# Poissons Ratio (z) = 0.22017 -0.10449
#
# Static dielectric constant tensor:
#      x y z
#    x 1.954930 0.006460 -0.042480 
#    y 0.006460 1.879650 -0.047770 
#    z -0.042480 -0.047770 1.972970 
# 
# From -- ./inp_files/447062.got.cif
#   From: 2010.05.17/outbox.cif.g08.bks.cpg/sg2_224_cif.got.tgz:447062.got - 2010.06.03 11:33:40.
