data_PCOD9021959
_publ_section_title
;
Structure prediction by ZEFSAII (Michael W. Deem and Ramdas Pophale) SiO2 
 PCOD9021959
Probable space group: P -1
;
_chemical_formula_sum "Si O2"
_cell_formula_units_Z 16
_cell_length_a 11.408808
_cell_length_b 9.150432
_cell_length_c 8.684925
_cell_angle_alpha 129.943315
_cell_angle_beta 89.919432
_cell_angle_gamma 79.165692
_cell_volume 673.699748
_symmetry_space_group_name_H-M "P -1"
_symmetry_group_IT_number 2
_symmetry_cell_setting 'triclinic'
loop_
_space_group_symop_operation_xyz
x,y,z
-x,-y,-z
loop_
_atom_site_type_symbol
_atom_site_label
_atom_site_fract_x
_atom_site_fract_y
_atom_site_fract_z
Si Si1 0.849247 0.653253 0.446596
Si Si2 0.820767 0.266182 0.024416
Si Si3 0.492606 0.285066 0.397805
Si Si4 0.984827 0.069473 0.371303
Si Si5 0.246615 0.944748 0.820598
Si Si6 0.378833 0.172628 0.603072
Si Si7 0.718411 0.673914 0.778492
Si Si8 0.636126 0.504435 0.952822
O O1 0.861157 0.459772 0.212469
O O2 0.746884 0.831495 0.483789
O O3 0.801421 0.607386 0.583314
O O4 0.967983 0.733448 0.512189
O O5 0.761770 0.180947 0.110892
O O6 0.726057 0.334162 0.932355
O O7 0.930443 0.095874 0.848011
O O8 0.500000 0.500000 0.500000
O O9 0.621162 0.135515 0.304082
O O10 0.424084 0.313842 0.578738
O O11 0.408663 0.214231 0.224886
O O12 0.851211 0.088916 0.322608
O O13 0.000000 0.000000 0.500000
O O14 0.225900 0.169804 0.026090
O O15 0.350767 0.287331 0.838469
O O16 0.500000 0.000000 0.500000
O O17 0.681315 0.515092 0.784516
O O18 0.500000 0.500000 0.000000
#
# Coordination Sequence:
#
# PCOD9021959 Si02
#       8
#     2   2   2   2   2   2   2   2
#     4  10  25  49  72 105 149 191 246 298 368 429
#     4  11  26  49  73 106 146 190 249 302 358 445
#     4  11  23  42  67 105 143 189 238 291 370 433
#     4  12  30  49  75 106 147 195 250 307 359 434
#     4  12  25  47  73 107 147 196 251 296 368 439
#     4  10  22  38  67  99 139 186 231 297 359 426
#     4  11  23  44  75 106 150 193 235 306 369 434
#     4  11  24  40  70 111 147 185 241 300 367 432
#
# _framework density 23.749452000000002
#
# number of rings (size 3 to 8) (size 9 to 14) (size 15 to 20)
#    0.000    1.000    1.250    5.250    7.000    4.000 
#    2.250    0.000    0.000    0.000    0.000    0.000 
#    0.000    0.000    0.000    0.000    0.000    0.000 
#
# Total GULP energy -89518.101516 kJ/mol
# GULP energy per Si atom -5594.881345 kJ/mol
# Density = 2.369540 g / cm^3
# Si number density = 23.749452 Si / 1000 Ang^3
#
#
#
# Elastic Constant Matrix: (Units=GPa)
#
#
# Indices 1 2 3 4 5 6 
#
# 1 104.4769 29.3546 14.2248 -19.1015 25.8809 3.1083
# 2 29.3546 101.2200 12.3465 -18.9743 11.7689 12.3155
# 3 14.2248 12.3465 72.8909 -9.6690 9.7907 12.5075
# 4 -19.1015 -18.9743 -9.6690 39.8209 0.8849 -1.9418
# 5 25.8809 11.7689 9.7907 0.8849 31.9488 -1.5186
# 6 3.1083 12.3155 12.5075 -1.9418 -1.5186 36.8109
#
#
#
# Elastic Compliance Matrix: (Units=1/GPa)
#
#
# Indices 1 2 3 4 5 6 
#
# 1 0.013824 -0.001505 -0.000045 0.006106 -0.010837 -0.000774
# 2 -0.001505 0.012122 0.000035 0.004955 -0.003576 -0.003826
# 3 -0.000045 0.000035 0.015837 0.003692 -0.005189 -0.005408
# 4 0.006106 0.004955 0.003692 0.031392 -0.008875 -0.002138
# 5 -0.010837 -0.003576 -0.005189 -0.008875 0.043479 0.005200
# 6 -0.000774 -0.003826 -0.005408 -0.002138 0.005200 0.030451
#
#
# Mechanical properties :
#
#
# Convention : Reuss Voigt Hill
#
# Bulk Modulus (GPa) = 25.80427 43.38218 34.59322
# Shear Modulus (GPa) = 30.66501 36.56024 33.61262
#
# Velocity S-wave (km/s) = 3.59721 3.92779 3.76613
# Velocity P-wave (km/s) = 5.30490 6.23509 5.78871
#
# Compressibility (1/GPa) = 0.03875328
#
# Stress axis : x y z
#
# Youngs Moduli (GPa) = 72.33637 82.49514 63.14444
#
# Poissons Ratio (x) = 0.12415 0.00281
# Poissons Ratio (y) = 0.10886 -0.00219
# Poissons Ratio (z) = 0.00322 -0.00286
#
# Static dielectric constant tensor:
#      x y z
#    x 1.923900 -0.018230 0.018640 
#    y -0.018230 1.940490 -0.029970 
#    z 0.018640 -0.029970 1.916760 
# 
# From -- ./inp_files/245935.got.cif
#   From: 2010.05.17/outbox.cif.g08.bks.cpg/sg2_123_cif.got.tgz:245935.got - 2010.06.03 11:33:40.
