data_PCOD9021229
_publ_section_title
;
Structure prediction by ZEFSAII (Michael W. Deem and Ramdas Pophale) SiO2 
 PCOD9021229
Probable space group: P -1
;
_chemical_formula_sum "Si O2"
_cell_formula_units_Z 12
_cell_length_a 5.042654
_cell_length_b 8.683153
_cell_length_c 13.710193
_cell_angle_alpha 93.664159
_cell_angle_beta 111.983830
_cell_angle_gamma 53.629896
_cell_volume 438.069516
_symmetry_space_group_name_H-M "P -1"
_symmetry_group_IT_number 2
_symmetry_cell_setting 'triclinic'
loop_
_space_group_symop_operation_xyz
x,y,z
-x,-y,-z
loop_
_atom_site_type_symbol
_atom_site_label
_atom_site_fract_x
_atom_site_fract_y
_atom_site_fract_z
Si Si1 0.921082 0.543048 0.646376
Si Si2 0.419684 0.908973 0.074771
Si Si3 0.753859 0.295955 0.708139
Si Si4 0.687996 0.396925 0.910332
Si Si5 0.058913 0.263810 0.156842
Si Si6 0.683615 0.102232 0.538007
O O1 0.916197 0.363913 0.658866
O O2 0.809972 0.667303 0.736620
O O3 0.628746 0.676969 0.529917
O O4 0.323056 0.462074 0.669760
O O5 0.359945 0.033371 0.168763
O O6 0.530581 0.692972 0.103815
O O7 0.500000 0.000000 0.000000
O O8 0.000000 0.000000 0.000000
O O9 0.903176 0.290076 0.835515
O O10 0.811170 0.109358 0.663245
O O11 0.364068 0.630457 0.864601
O O12 0.949545 0.352297 0.034210
O O13 0.500000 0.000000 0.500000
O O14 0.000000 0.000000 0.500000
#
# Coordination Sequence:
#
# PCOD9021229 Si02
#       6
#     2   2   2   2   2   2
#     4  11  24  44  70  99 133 182 226 282 337 414
#     4  10  22  38  58  91 130 177 220 270 319 388
#     4  11  24  44  71  98 136 179 230 278 341 408
#     4   9  21  41  67  97 138 180 225 272 336 406
#     4   9  21  40  65  96 136 175 225 264 340 396
#     4  12  26  46  71 101 135 175 227 291 348 405
#
# _framework density 27.392910000000001
#
# number of rings (size 3 to 8) (size 9 to 14) (size 15 to 20)
#    0.000    1.667    0.000    3.000    2.333   13.333 
#    6.000    0.000    0.000    0.000    0.000    0.000 
#    0.000    0.000    0.000    0.000    0.000    0.000 
#
# Total GULP energy -67057.920251 kJ/mol
# GULP energy per Si atom -5588.160021 kJ/mol
# Density = 2.733056 g / cm^3
# Si number density = 27.392910 Si / 1000 Ang^3
#
#
#
# Elastic Constant Matrix: (Units=GPa)
#
#
# Indices 1 2 3 4 5 6 
#
# 1 72.6756 -14.2481 -12.6128 -15.8994 -11.8085 37.7107
# 2 -14.2481 97.1929 13.9091 20.8661 -13.5270 0.4484
# 3 -12.6128 13.9091 117.8447 25.3719 -4.0534 9.3983
# 4 -15.8994 20.8661 25.3719 66.9746 -2.8895 4.0492
# 5 -11.8085 -13.5270 -4.0534 -2.8895 34.5677 3.0702
# 6 37.7107 0.4484 9.3983 4.0492 3.0702 39.5172
#
#
#
# Elastic Compliance Matrix: (Units=1/GPa)
#
#
# Indices 1 2 3 4 5 6 
#
# 1 0.052416 0.008263 0.007510 0.011568 0.027894 -0.055252
# 2 0.008263 0.012952 0.000653 -0.001423 0.008622 -0.008712
# 3 0.007510 0.000653 0.010510 -0.001597 0.004798 -0.009883
# 4 0.011568 -0.001423 -0.001597 0.019780 0.006028 -0.013138
# 5 0.027894 0.008622 0.004798 0.006028 0.045743 -0.032029
# 6 -0.055252 -0.008712 -0.009883 -0.013138 -0.032029 0.084316
#
#
# Mechanical properties :
#
#
# Convention : Reuss Voigt Hill
#
# Bulk Modulus (GPa) = 9.19708 29.08995 19.14352
# Shear Modulus (GPa) = 21.82383 48.25624 35.04003
#
# Velocity S-wave (km/s) = 2.82564 4.20173 3.58042
# Velocity P-wave (km/s) = 3.74305 5.84654 4.90879
#
# Compressibility (1/GPa) = 0.10873014
#
# Stress axis : x y z
#
# Youngs Moduli (GPa) = 19.07815 77.20658 95.15133
#
# Poissons Ratio (x) = -0.63794 -0.71460
# Poissons Ratio (y) = -0.15764 -0.06216
# Poissons Ratio (z) = -0.14328 -0.05043
#
# Static dielectric constant tensor:
#      x y z
#    x 2.638090 -0.229880 0.052380 
#    y -0.229880 2.546080 -0.079780 
#    z 0.052380 -0.079780 2.184560 
# 
# From -- ./inp_files/479140.got.cif
#   From: 2010.05.17/outbox.cif.g08.bks.cpg/sg2_240_cif.got.tgz:479140.got - 2010.06.03 11:33:40.
