data_PCOD9021664
_publ_section_title
;
Structure prediction by ZEFSAII (Michael W. Deem and Ramdas Pophale) SiO2 
 PCOD9021664
Probable space group: P -1
;
_chemical_formula_sum "Si O2"
_cell_formula_units_Z 13
_cell_length_a 13.218344
_cell_length_b 12.513926
_cell_length_c 12.249295
_cell_angle_alpha 37.037229
_cell_angle_beta 157.428986
_cell_angle_gamma 138.191973
_cell_volume 468.141519
_symmetry_space_group_name_H-M "P -1"
_symmetry_group_IT_number 2
_symmetry_cell_setting 'triclinic'
loop_
_space_group_symop_operation_xyz
x,y,z
-x,-y,-z
loop_
_atom_site_type_symbol
_atom_site_label
_atom_site_fract_x
_atom_site_fract_y
_atom_site_fract_z
Si Si1 0.974595 0.010048 0.291431
Si Si2 0.462581 0.844205 0.842075
Si Si3 0.932341 0.245933 0.844146
Si Si4 0.748680 0.512113 0.161578
Si Si5 0.752252 0.532678 0.577011
Si Si6 0.500000 0.000000 0.500000
Si Si7 0.282128 0.711419 0.054059
O O1 0.988055 0.149927 0.090734
O O2 0.836629 0.104256 0.177745
O O3 0.274092 0.954015 0.644408
O O4 0.769314 0.855305 0.172387
O O5 0.309658 0.654778 0.837126
O O6 0.461720 0.930316 0.649656
O O7 0.789725 0.427868 0.586766
O O8 0.755770 0.123677 0.690957
O O9 0.204138 0.303050 0.006898
O O10 0.000000 0.500000 0.500000
O O11 0.500000 0.500000 0.000000
O O12 0.540449 0.682687 0.263166
O O13 0.658452 0.382191 0.693972
O O14 0.038590 0.604355 0.842016
#
# Coordination Sequence:
#
# PCOD9021664 Si02
#       7
#     2   2   2   2   2   1   2
#     4  10  22  38  65  93 122 161 206 263 304 369
#     4  11  23  39  60  91 124 167 203 255 311 363
#     4  10  23  40  65  94 126 166 214 252 314 367
#     4  12  26  43  62  87 129 176 205 255 306 374
#     4   9  18  32  58  89 121 156 195 257 305 369
#     4  10  22  38  64  88 124 156 212 260 296 362
#     4   9  17  34  57  89 121 151 199 255 315 350
#
# _framework density 27.769380999999999
#
# number of rings (size 3 to 8) (size 9 to 14) (size 15 to 20)
#    0.000    1.846    1.538    1.846    2.154    9.846 
#    0.000    0.000    0.000    5.538    0.000    0.000 
#    0.000    0.000    0.000    0.000    0.000    0.000 
#
# Total GULP energy -72736.939278 kJ/mol
# GULP energy per Si atom -5595.149175 kJ/mol
# Density = 2.770618 g / cm^3
# Si number density = 27.769381 Si / 1000 Ang^3
#
#
#
# Elastic Constant Matrix: (Units=GPa)
#
#
# Indices 1 2 3 4 5 6 
#
# 1 159.1040 29.2273 34.3391 10.3413 18.3872 18.5056
# 2 29.2273 117.6638 5.1978 19.7807 9.7534 21.4304
# 3 34.3391 5.1978 120.1883 -6.1632 27.5239 10.6030
# 4 10.3413 19.7807 -6.1632 30.5743 5.8189 10.1370
# 5 18.3872 9.7534 27.5239 5.8189 48.1587 -3.3665
# 6 18.5056 21.4304 10.6030 10.1370 -3.3665 52.5434
#
#
#
# Elastic Compliance Matrix: (Units=1/GPa)
#
#
# Indices 1 2 3 4 5 6 
#
# 1 0.007289 -0.001098 -0.001576 -0.001208 -0.001631 -0.001673
# 2 -0.001098 0.010253 0.000190 -0.004982 -0.001371 -0.002960
# 3 -0.001576 0.000190 0.010730 0.004784 -0.006358 -0.003018
# 4 -0.001208 -0.004982 0.004784 0.040832 -0.006674 -0.006814
# 5 -0.001631 -0.001371 -0.006358 -0.006674 0.026483 0.005401
# 6 -0.001673 -0.002960 -0.003018 -0.006814 0.005401 0.023098
#
#
# Mechanical properties :
#
#
# Convention : Reuss Voigt Hill
#
# Bulk Modulus (GPa) = 42.91082 59.38718 51.14900
# Shear Modulus (GPa) = 38.04576 48.13473 43.09025
#
# Velocity S-wave (km/s) = 3.70545 4.16790 3.94346
# Velocity P-wave (km/s) = 5.81320 6.67788 6.26049
#
# Compressibility (1/GPa) = 0.02330415
#
# Stress axis : x y z
#
# Youngs Moduli (GPa) = 137.20221 97.52848 93.19728
#
# Poissons Ratio (x) = 0.10709 0.14686
# Poissons Ratio (y) = 0.15065 -0.01770
# Poissons Ratio (z) = 0.21620 -0.01853
#
# Static dielectric constant tensor:
#      x y z
#    x 2.191010 -0.053580 0.067730 
#    y -0.053580 2.428010 -0.404970 
#    z 0.067730 -0.404970 2.405540 
# 
# From -- ./inp_files/26688.got.cif
#   From: 2010.05.17/outbox.cif.g08.bks.cpg/sg2_14_cif.got.tgz:26688.got - 2010.06.03 11:33:40.
