data_PCOD9021675
_publ_section_title
;
Structure prediction by ZEFSAII (Michael W. Deem and Ramdas Pophale) SiO2 
 PCOD9021675
Probable space group: P -1
;
_chemical_formula_sum "Si O2"
_cell_formula_units_Z 14
_cell_length_a 14.542655
_cell_length_b 9.481077
_cell_length_c 11.787126
_cell_angle_alpha 47.618088
_cell_angle_beta 108.116531
_cell_angle_gamma 69.574542
_cell_volume 691.143754
_symmetry_space_group_name_H-M "P -1"
_symmetry_group_IT_number 2
_symmetry_cell_setting 'triclinic'
loop_
_space_group_symop_operation_xyz
x,y,z
-x,-y,-z
loop_
_atom_site_type_symbol
_atom_site_label
_atom_site_fract_x
_atom_site_fract_y
_atom_site_fract_z
Si Si1 0.871386 0.087962 0.329513
Si Si2 0.248780 0.092348 0.476106
Si Si3 0.144251 0.619408 0.260090
Si Si4 0.655549 0.107225 0.638240
Si Si5 0.004998 0.274015 0.648065
Si Si6 0.432938 0.178127 0.253707
Si Si7 0.306313 0.722915 0.217031
O O1 0.804650 0.007950 0.417156
O O2 0.978966 0.859976 0.388354
O O3 0.722943 0.442789 0.028566
O O4 0.000000 0.000000 0.500000
O O5 0.132926 0.456429 0.260590
O O6 0.262779 0.021558 0.385118
O O7 0.419265 0.917229 0.675809
O O8 0.294041 0.515249 0.346459
O O9 0.142470 0.547680 0.425717
O O10 0.000000 0.000000 0.000000
O O11 0.480256 0.481429 0.362253
O O12 0.728088 0.108940 0.771174
O O13 0.629257 0.927583 0.761561
O O14 0.000000 0.500000 0.500000
O O15 0.168835 0.984589 0.935175
O O16 0.500000 0.000000 0.500000
#
# Coordination Sequence:
#
# PCOD9021675 Si02
#       7
#     2   2   2   2   2   2   2
#     4  12  28  43  67 101 141 173 226 284 335 393
#     4  11  22  44  67 101 130 183 222 274 339 403
#     4  10  22  38  64  91 129 177 218 263 335 401
#     4  10  22  39  71  97 128 160 233 278 322 393
#     4  11  23  42  61  86 137 178 212 264 343 399
#     4  10  22  43  71  95 130 179 223 272 331 402
#     4  10  22  42  64  98 125 172 216 279 329 394
#
# _framework density 20.256278999999999
#
# number of rings (size 3 to 8) (size 9 to 14) (size 15 to 20)
#    0.000    1.429    2.857    2.143   10.000    0.000 
#    0.000    5.714    0.000    5.143    0.000    0.000 
#    0.000    0.000    0.000    0.000    0.000    0.000 
#
# Total GULP energy -77943.005234 kJ/mol
# GULP energy per Si atom -5567.357517 kJ/mol
# Density = 2.021017 g / cm^3
# Si number density = 20.256279 Si / 1000 Ang^3
#
#
#
# Elastic Constant Matrix: (Units=GPa)
#
#
# Indices 1 2 3 4 5 6 
#
# 1 99.8956 33.7415 35.3148 8.5382 -19.2590 1.8281
# 2 33.7415 175.9853 50.2860 7.6281 -11.6234 2.0677
# 3 35.3148 50.2860 53.0065 -4.1898 -7.1421 6.4826
# 4 8.5382 7.6281 -4.1898 30.2763 3.6171 3.2649
# 5 -19.2590 -11.6234 -7.1421 3.6171 28.2494 -4.1574
# 6 1.8281 2.0677 6.4826 3.2649 -4.1574 38.8436
#
#
#
# Elastic Compliance Matrix: (Units=1/GPa)
#
#
# Indices 1 2 3 4 5 6 
#
# 1 0.016290 0.001167 -0.011581 -0.008006 0.010104 0.002858
# 2 0.001167 0.008325 -0.008829 -0.004152 0.002758 0.001620
# 3 -0.011581 -0.008829 0.036025 0.011761 -0.004884 -0.006508
# 4 -0.008006 -0.004152 0.011761 0.039797 -0.010142 -0.005796
# 5 0.010104 0.002758 -0.004884 -0.010142 0.044338 0.005791
# 6 0.002858 0.001620 -0.006508 -0.005796 0.005791 0.027717
#
#
# Mechanical properties :
#
#
# Convention : Reuss Voigt Hill
#
# Bulk Modulus (GPa) = 45.14129 63.06355 54.10242
# Shear Modulus (GPa) = 22.89767 33.44354 28.17060
#
# Velocity S-wave (km/s) = 3.36579 4.06768 3.73327
# Velocity P-wave (km/s) = 6.11867 7.29807 6.73424
#
# Compressibility (1/GPa) = 0.02215267
#
# Stress axis : x y z
#
# Youngs Moduli (GPa) = 61.38607 120.12564 27.75871
#
# Poissons Ratio (x) = -0.14013 0.32147
# Poissons Ratio (y) = -0.07161 0.24509
# Poissons Ratio (z) = 0.71090 1.06061
#
# Static dielectric constant tensor:
#      x y z
#    x 1.768730 -0.040480 0.046220 
#    y -0.040480 1.706800 -0.027710 
#    z 0.046220 -0.027710 1.740940 
# 
# From -- ./inp_files/296075.got.cif
#   From: 2010.05.17/outbox.cif.g08.bks.cpg/sg2_149_cif.got.tgz:296075.got - 2010.06.03 11:33:40.
