data_PCOD9021011
_publ_section_title
;
Structure prediction by ZEFSAII (Michael W. Deem and Ramdas Pophale) SiO2 
 PCOD9021011
Probable space group: P -1
;
_chemical_formula_sum "Si O2"
_cell_formula_units_Z 16
_cell_length_a 7.399020
_cell_length_b 14.621566
_cell_length_c 8.967724
_cell_angle_alpha 69.560770
_cell_angle_beta 128.216168
_cell_angle_gamma 111.855058
_cell_volume 697.994481
_symmetry_space_group_name_H-M "P -1"
_symmetry_group_IT_number 2
_symmetry_cell_setting 'triclinic'
loop_
_space_group_symop_operation_xyz
x,y,z
-x,-y,-z
loop_
_atom_site_type_symbol
_atom_site_label
_atom_site_fract_x
_atom_site_fract_y
_atom_site_fract_z
Si Si1 0.840862 0.472904 0.084532
Si Si2 0.063624 0.731273 0.800832
Si Si3 0.252249 0.852674 0.416960
Si Si4 0.216823 0.250402 0.602963
Si Si5 0.485102 0.107166 0.995753
Si Si6 0.988599 0.761033 0.061147
Si Si7 0.264297 0.079155 0.216861
Si Si8 0.300715 0.403152 0.810522
O O1 0.859012 0.359453 0.192745
O O2 0.867526 0.536331 0.218181
O O3 0.565883 0.466306 0.909772
O O4 0.000000 0.500000 0.000000
O O5 0.267868 0.830082 0.852148
O O6 0.817710 0.741575 0.595594
O O7 0.038162 0.700338 0.978973
O O8 0.193057 0.790176 0.269999
O O9 0.508994 0.862788 0.609862
O O10 0.045922 0.803075 0.450233
O O11 0.220408 0.965298 0.308774
O O12 0.264631 0.356303 0.653218
O O13 0.386141 0.179619 0.788697
O O14 0.318155 0.084943 0.065930
O O15 0.500000 0.000000 0.000000
O O16 0.757088 0.699781 0.062005
O O17 0.943339 0.862605 0.908092
#
# Coordination Sequence:
#
# PCOD9021011 Si02
#       8
#     2   2   2   2   2   2   2   2
#     4  11  22  44  75 101 129 176 227 280 350 405
#     4  12  25  42  69 101 136 175 226 282 339 400
#     4  10  22  37  64  90 127 175 231 268 326 401
#     4  11  24  43  65 100 134 179 227 274 339 407
#     4  12  25  41  66  96 139 179 223 279 332 394
#     4  11  22  40  66  94 130 178 212 280 335 396
#     4  11  21  40  61  92 126 179 227 272 331 392
#     4  10  22  44  72  94 136 172 220 283 338 408
#
# _framework density 22.922817999999999
#
# number of rings (size 3 to 8) (size 9 to 14) (size 15 to 20)
#    0.000    1.000    6.250    1.125    1.750    4.000 
#    0.000    0.625    0.000    0.000    0.000    0.000 
#    0.000    0.000    0.000    0.000    0.000    0.000 
#
# Total GULP energy -89290.164100 kJ/mol
# GULP energy per Si atom -5580.635256 kJ/mol
# Density = 2.287064 g / cm^3
# Si number density = 22.922818 Si / 1000 Ang^3
#
#
#
# Elastic Constant Matrix: (Units=GPa)
#
#
# Indices 1 2 3 4 5 6 
#
# 1 70.8895 31.1478 9.7483 11.1250 -1.7779 -6.9317
# 2 31.1478 118.0662 35.0791 19.9108 0.1104 -31.7967
# 3 9.7483 35.0791 107.4159 32.8509 8.0687 -18.7019
# 4 11.1250 19.9108 32.8509 30.3630 0.5846 2.7541
# 5 -1.7779 0.1104 8.0687 0.5846 15.9803 1.0248
# 6 -6.9317 -31.7967 -18.7019 2.7541 1.0248 42.1747
#
#
#
# Elastic Compliance Matrix: (Units=1/GPa)
#
#
# Indices 1 2 3 4 5 6 
#
# 1 0.016450 -0.003628 0.001332 -0.005194 0.001317 0.000867
# 2 -0.003628 0.013659 0.000634 -0.009255 -0.001160 0.010616
# 3 0.001332 0.000634 0.017809 -0.020927 -0.008735 0.010173
# 4 -0.005194 -0.009255 -0.020927 0.065333 0.009047 -0.021597
# 5 0.001317 -0.001160 -0.008735 0.009047 0.067244 -0.006757
# 6 0.000867 0.010616 0.010173 -0.021597 -0.006757 0.037943
#
#
# Mechanical properties :
#
#
# Convention : Reuss Voigt Hill
#
# Bulk Modulus (GPa) = 22.42354 49.81357 36.11856
# Shear Modulus (GPa) = 21.13040 32.39668 26.76354
#
# Velocity S-wave (km/s) = 3.03942 3.76346 3.42065
# Velocity P-wave (km/s) = 4.70328 6.37675 5.60285
#
# Compressibility (1/GPa) = 0.04459599
#
# Stress axis : x y z
#
# Youngs Moduli (GPa) = 60.79025 73.21108 56.15135
#
# Poissons Ratio (x) = 0.26558 -0.07480
# Poissons Ratio (y) = 0.22052 -0.03562
# Poissons Ratio (z) = -0.08098 -0.04644
#
# Static dielectric constant tensor:
#      x y z
#    x 1.933770 -0.041240 -0.022410 
#    y -0.041240 1.946820 -0.023260 
#    z -0.022410 -0.023260 1.919820 
# 
# From -- ./inp_files/201124.got.cif
#   From: 2010.05.17/outbox.cif.g08.bks.cpg/sg2_101_cif.got.tgz:201124.got - 2010.06.03 11:33:40.
