data_PCOD9021843
_publ_section_title
;
Structure prediction by ZEFSAII (Michael W. Deem and Ramdas Pophale) SiO2 
 PCOD9021843
Probable space group: P -1
;
_chemical_formula_sum "Si O2"
_cell_formula_units_Z 16
_cell_length_a 9.250337
_cell_length_b 19.701556
_cell_length_c 17.827499
_cell_angle_alpha 154.813537
_cell_angle_beta 149.981913
_cell_angle_gamma 38.410117
_cell_volume 691.707186
_symmetry_space_group_name_H-M "P -1"
_symmetry_group_IT_number 2
_symmetry_cell_setting 'triclinic'
loop_
_space_group_symop_operation_xyz
x,y,z
-x,-y,-z
loop_
_atom_site_type_symbol
_atom_site_label
_atom_site_fract_x
_atom_site_fract_y
_atom_site_fract_z
Si Si1 0.249908 0.955627 0.955574
Si Si2 0.150893 0.135501 0.937410
Si Si3 0.812539 0.606073 0.965209
Si Si4 0.687383 0.606085 0.246922
Si Si5 0.249845 0.872314 0.372257
Si Si6 0.349239 0.135427 0.333590
Si Si7 0.719508 0.507147 0.329340
Si Si8 0.219507 0.492900 0.315090
O O1 0.336768 0.060305 0.171183
O O2 0.533523 0.864711 0.961436
O O3 0.163148 0.060438 0.949542
O O4 0.966260 0.864760 0.767878
O O5 0.921222 0.046531 0.691420
O O6 0.071774 0.321460 0.094304
O O7 0.501004 0.632928 0.888900
O O8 0.742781 0.515029 0.764892
O O9 0.000000 0.500000 0.000000
O O10 0.002139 0.759291 0.183554
O O11 0.497643 0.759292 0.334952
O O12 0.757195 0.515057 0.265186
O O13 0.998901 0.632973 0.376971
O O14 0.500000 0.500000 0.000000
O O15 0.420883 0.953499 0.598260
O O16 0.428244 0.321384 0.548532
O O17 0.000000 0.500000 0.500000
O O18 0.500000 0.500000 0.500000
#
# Coordination Sequence:
#
# PCOD9021843 Si02
#       8
#     2   2   2   2   2   2   2   2
#     4  10  24  44  62  84 120 166 216 256 290 350
#     4  10  23  42  63  86 121 161 208 257 301 359
#     4  11  19  38  55  92 124 155 187 241 311 375
#     4  11  19  38  55  92 124 155 187 241 311 375
#     4  10  22  38  66  88 128 156 200 256 310 372
#     4  10  23  42  63  86 121 161 208 257 301 359
#     4  11  24  35  63  94 124 156 197 249 317 372
#     4  11  24  35  63  94 124 156 197 249 317 372
#
# _framework density 23.131176
#
# number of rings (size 3 to 8) (size 9 to 14) (size 15 to 20)
#    0.000    1.500    5.000    0.750   10.500    1.000 
#    0.000    0.000    0.000    0.000    0.000    0.000 
#    0.000    0.000    0.000    0.000    0.000    0.000 
#
# Total GULP energy -89379.680200 kJ/mol
# GULP energy per Si atom -5586.230013 kJ/mol
# Density = 2.307853 g / cm^3
# Si number density = 23.131176 Si / 1000 Ang^3
#
#
#
# Elastic Constant Matrix: (Units=GPa)
#
#
# Indices 1 2 3 4 5 6 
#
# 1 121.0596 32.3999 37.1360 -12.3319 -21.8846 16.0712
# 2 32.3999 62.7092 42.4358 -30.5021 -12.0425 17.4090
# 3 37.1360 42.4358 88.6462 -41.5823 -25.7044 13.2942
# 4 -12.3319 -30.5021 -41.5823 49.1023 13.1744 -12.0037
# 5 -21.8846 -12.0425 -25.7044 13.1744 36.3856 -21.0741
# 6 16.0712 17.4090 13.2942 -12.0037 -21.0741 29.0246
#
#
#
# Elastic Compliance Matrix: (Units=1/GPa)
#
#
# Indices 1 2 3 4 5 6 
#
# 1 0.010761 -0.004508 -0.002863 -0.003734 0.003952 -0.000618
# 2 -0.004508 0.032132 -0.010200 0.009341 -0.012837 -0.017562
# 3 -0.002863 -0.010200 0.026989 0.014659 0.016350 0.013275
# 4 -0.003734 0.009341 0.014659 0.039007 0.000837 0.006490
# 5 0.003952 -0.012837 0.016350 0.000837 0.061978 0.043370
# 6 -0.000618 -0.017562 0.013275 0.006490 0.043370 0.073423
#
#
# Mechanical properties :
#
#
# Convention : Reuss Voigt Hill
#
# Bulk Modulus (GPa) = 28.78467 55.15093 41.96780
# Shear Modulus (GPa) = 17.18136 33.59874 25.39005
#
# Velocity S-wave (km/s) = 2.72835 3.81534 3.31668
# Velocity P-wave (km/s) = 4.73248 6.58054 5.73149
#
# Compressibility (1/GPa) = 0.03474071
#
# Stress axis : x y z
#
# Youngs Moduli (GPa) = 92.92569 31.12123 37.05172
#
# Poissons Ratio (x) = 0.14031 0.10607
# Poissons Ratio (y) = 0.41895 0.37793
# Poissons Ratio (z) = 0.26602 0.31744
#
# Static dielectric constant tensor:
#      x y z
#    x 1.893990 0.021480 -0.009360 
#    y 0.021480 2.126300 0.161010 
#    z -0.009360 0.161010 2.078160 
# 
# From -- ./inp_files/562954.got.cif
#   From: 2010.05.17/outbox.cif.g08.bks.cpg/sg2_282_cif.got.tgz:562954.got - 2010.06.03 11:33:40.
