data_PCOD9021522
_publ_section_title
;
Structure prediction by ZEFSAII (Michael W. Deem and Ramdas Pophale) SiO2 
 PCOD9021522
Probable space group: P -1
;
_chemical_formula_sum "Si O2"
_cell_formula_units_Z 12
_cell_length_a 12.141521
_cell_length_b 13.962264
_cell_length_c 18.685938
_cell_angle_alpha 17.707916
_cell_angle_beta 28.087478
_cell_angle_gamma 29.958539
_cell_volume 446.120695
_symmetry_space_group_name_H-M "P -1"
_symmetry_group_IT_number 2
_symmetry_cell_setting 'triclinic'
loop_
_space_group_symop_operation_xyz
x,y,z
-x,-y,-z
loop_
_atom_site_type_symbol
_atom_site_label
_atom_site_fract_x
_atom_site_fract_y
_atom_site_fract_z
Si Si1 0.500000 0.000000 0.000000
Si Si2 0.127139 0.374477 0.899656
Si Si3 0.249493 0.087532 0.652970
Si Si4 0.895973 0.427297 0.723886
Si Si5 0.287459 0.682188 0.718657
Si Si6 0.879734 0.271934 0.495814
Si Si7 0.500000 0.500000 0.000000
O O1 0.253352 0.010150 0.080033
O O2 0.654406 0.126530 0.751643
O O3 0.323346 0.431392 0.809785
O O4 0.135319 0.584423 0.676959
O O5 0.880765 0.430935 0.043840
O O6 0.203716 0.224853 0.502001
O O7 0.468068 0.239695 0.450380
O O8 0.019866 0.212343 0.743097
O O9 0.331312 0.711844 0.884066
O O10 0.074990 0.472296 0.652856
O O11 0.675705 0.318862 0.966218
O O12 0.123187 0.002721 0.552603
#
# Coordination Sequence:
#
# PCOD9021522 Si02
#       7
#     1   2   2   2   2   2   1
#     4  10  22  38  62  94 132 172 220 278 338 402
#     4  10  22  40  66  97 134 179 228 279 346 411
#     4  11  25  46  68 101 142 182 233 291 344 416
#     4  11  26  44  71 102 139 181 237 285 348 409
#     4  10  22  41  65  97 134 180 228 283 343 406
#     4  11  22  41  67  98 135 180 224 284 345 412
#     4  12  24  44  70  98 136 186 232 284 348 406
#
# _framework density 26.898548999999999
#
# number of rings (size 3 to 8) (size 9 to 14) (size 15 to 20)
#    0.000    1.333    1.667    3.000    2.333    1.333 
#    0.000    5.000    0.000    0.000    0.000    0.000 
#    0.000    0.000    0.000    0.000    0.000    0.000 
#
# Total GULP energy -66836.061766 kJ/mol
# GULP energy per Si atom -5569.671814 kJ/mol
# Density = 2.683733 g / cm^3
# Si number density = 26.898549 Si / 1000 Ang^3
#
#
#
# Elastic Constant Matrix: (Units=GPa)
#
#
# Indices 1 2 3 4 5 6 
#
# 1 143.6739 33.5359 76.3884 16.1511 23.6915 -1.3698
# 2 33.5359 144.1960 47.7746 25.9731 21.7119 2.4105
# 3 76.3884 47.7746 133.3992 18.1853 55.6059 -6.9400
# 4 16.1511 25.9731 18.1853 55.7123 -7.2089 5.6810
# 5 23.6915 21.7119 55.6059 -7.2089 73.5414 -0.0088
# 6 -1.3698 2.4105 -6.9400 5.6810 -0.0088 31.7317
#
#
#
# Elastic Compliance Matrix: (Units=1/GPa)
#
#
# Indices 1 2 3 4 5 6 
#
# 1 0.010208 -0.000426 -0.006350 -0.000395 0.001600 -0.000845
# 2 -0.000426 0.008439 -0.001791 -0.003352 -0.001329 -0.000451
# 3 -0.006350 -0.001791 0.017211 -0.004811 -0.010910 0.004484
# 4 -0.000395 -0.003352 -0.004811 0.022594 0.006969 -0.004858
# 5 0.001600 -0.001329 -0.010910 0.006969 0.022407 -0.003458
# 6 -0.000845 -0.000451 0.004484 -0.004858 -0.003458 0.033362
#
#
# Mechanical properties :
#
#
# Convention : Reuss Voigt Hill
#
# Bulk Modulus (GPa) = 53.40703 81.85187 67.62945
# Shear Modulus (GPa) = 36.33848 49.76842 43.05345
#
# Velocity S-wave (km/s) = 3.67951 4.30609 4.00507
# Velocity P-wave (km/s) = 6.16034 7.43096 6.82528
#
# Compressibility (1/GPa) = 0.01872413
#
# Stress axis : x y z
#
# Youngs Moduli (GPa) = 97.95924 118.49979 58.10341
#
# Poissons Ratio (x) = 0.05047 0.36895
# Poissons Ratio (y) = 0.04172 0.10407
# Poissons Ratio (z) = 0.62203 0.21224
#
# Static dielectric constant tensor:
#      x y z
#    x 2.230440 -0.044720 -0.088350 
#    y -0.044720 2.377610 -0.238770 
#    z -0.088350 -0.238770 2.338340 
# 
# From -- ./inp_files/19740.got.cif
#   From: 2010.05.17/outbox.cif.g08.bks.cpg/sg2_10_cif.got.tgz:19740.got - 2010.06.03 11:33:40.
