data_PCOD9021988
_publ_section_title
;
Structure prediction by ZEFSAII (Michael W. Deem and Ramdas Pophale) SiO2 
 PCOD9021988
Probable space group: P -1
;
_chemical_formula_sum "Si O2"
_cell_formula_units_Z 14
_cell_length_a 11.966918
_cell_length_b 9.123472
_cell_length_c 15.166829
_cell_angle_alpha 131.486479
_cell_angle_beta 28.523550
_cell_angle_gamma 120.490909
_cell_volume 579.309709
_symmetry_space_group_name_H-M "P -1"
_symmetry_group_IT_number 2
_symmetry_cell_setting 'triclinic'
loop_
_space_group_symop_operation_xyz
x,y,z
-x,-y,-z
loop_
_atom_site_type_symbol
_atom_site_label
_atom_site_fract_x
_atom_site_fract_y
_atom_site_fract_z
Si Si1 0.421937 0.296112 0.400577
Si Si2 0.892047 0.357384 0.797014
Si Si3 0.202018 0.609978 0.937574
Si Si4 0.621705 0.976594 0.267413
Si Si5 0.802814 0.690518 0.865273
Si Si6 0.393587 0.944497 0.143317
Si Si7 0.132323 0.966687 0.696661
O O1 0.155882 0.384357 0.651197
O O2 0.580232 0.184475 0.325401
O O3 0.382625 0.125834 0.290344
O O4 0.566326 0.432862 0.301589
O O5 0.734939 0.442271 0.025345
O O6 0.844962 0.464881 0.778697
O O7 0.850059 0.132968 0.730441
O O8 0.775623 0.982411 0.250424
O O9 0.080031 0.846867 0.108892
O O10 0.000000 0.500000 0.000000
O O11 0.358545 0.948992 0.468402
O O12 0.742655 0.813367 0.047617
O O13 0.023834 0.768876 0.700683
O O14 0.580314 0.758385 0.982121
O O15 0.500000 0.000000 0.000000
#
# Coordination Sequence:
#
# PCOD9021988 Si02
#       7
#     2   2   2   2   2   2   2
#     4  11  24  43  69  97 129 179 215 266 335 383
#     4  12  25  43  66 101 133 168 222 274 320 389
#     4  12  25  41  68  99 135 171 220 270 321 389
#     4  10  22  38  68  91 128 177 218 254 328 391
#     4  11  24  41  67  95 131 168 216 269 332 375
#     4  11  22  47  71  90 130 177 221 269 326 383
#     4  11  21  42  63  94 131 176 215 265 318 390
#
# _framework density 24.166694
#
# number of rings (size 3 to 8) (size 9 to 14) (size 15 to 20)
#    0.000    0.857    5.714    2.143    2.000    4.000 
#    0.000    0.714    0.000    0.000    0.000    0.000 
#    0.000    0.000    0.000    0.000    0.000    0.000 
#
# Total GULP energy -78399.874811 kJ/mol
# GULP energy per Si atom -5599.991058 kJ/mol
# Density = 2.411169 g / cm^3
# Si number density = 24.166694 Si / 1000 Ang^3
#
#
#
# Elastic Constant Matrix: (Units=GPa)
#
#
# Indices 1 2 3 4 5 6 
#
# 1 72.1652 21.0431 0.8558 -7.8743 0.4910 -6.1504
# 2 21.0431 114.0422 24.1622 -34.8687 3.4559 -6.3521
# 3 0.8558 24.1622 71.2067 -31.3682 -3.3994 3.8658
# 4 -7.8743 -34.8687 -31.3682 41.8126 2.7469 -10.3691
# 5 0.4910 3.4559 -3.3994 2.7469 27.4924 -4.1290
# 6 -6.1504 -6.3521 3.8658 -10.3691 -4.1290 47.8232
#
#
#
# Elastic Compliance Matrix: (Units=1/GPa)
#
#
# Indices 1 2 3 4 5 6 
#
# 1 0.014948 -0.002149 0.001676 0.002792 0.000251 0.002129
# 2 -0.002149 0.012964 0.000567 0.011915 -0.002141 0.003798
# 3 0.001676 0.000567 0.021409 0.017375 0.001175 0.002429
# 4 0.002792 0.011915 0.017375 0.050376 -0.002747 0.011223
# 5 0.000251 -0.002141 0.001175 -0.002747 0.037401 0.002287
# 6 0.002129 0.003798 0.002429 0.011223 0.002287 0.024123
#
#
# Mechanical properties :
#
#
# Convention : Reuss Voigt Hill
#
# Bulk Modulus (GPa) = 20.19805 38.83736 29.51771
# Shear Modulus (GPa) = 28.16292 37.51585 32.83938
#
# Velocity S-wave (km/s) = 3.41744 3.94430 3.69028
# Velocity P-wave (km/s) = 4.89365 6.07032 5.51347
#
# Compressibility (1/GPa) = 0.04950973
#
# Stress axis : x y z
#
# Youngs Moduli (GPa) = 66.89815 77.13402 46.70833
#
# Poissons Ratio (x) = 0.16574 -0.07827
# Poissons Ratio (y) = 0.14375 -0.02648
# Poissons Ratio (z) = -0.11210 -0.04373
#
# Static dielectric constant tensor:
#      x y z
#    x 1.898810 0.028570 -0.016220 
#    y 0.028570 1.962240 0.022280 
#    z -0.016220 0.022280 1.932950 
# 
# From -- ./inp_files/515824.got.cif
#   From: 2010.05.17/outbox.cif.g08.bks.cpg/sg2_258_cif.got.tgz:515824.got - 2010.06.03 11:33:40.
