data_PCOD9021928
_publ_section_title
;
Structure prediction by ZEFSAII (Michael W. Deem and Ramdas Pophale) SiO2 
 PCOD9021928
Probable space group: P -1
;
_chemical_formula_sum "Si O2"
_cell_formula_units_Z 16
_cell_length_a 24.508066
_cell_length_b 24.079978
_cell_length_c 8.813039
_cell_angle_alpha 39.404802
_cell_angle_beta 39.542399
_cell_angle_gamma 12.086918
_cell_volume 686.560270
_symmetry_space_group_name_H-M "P -1"
_symmetry_group_IT_number 2
_symmetry_cell_setting 'triclinic'
loop_
_space_group_symop_operation_xyz
x,y,z
-x,-y,-z
loop_
_atom_site_type_symbol
_atom_site_label
_atom_site_fract_x
_atom_site_fract_y
_atom_site_fract_z
Si Si1 0.338088 0.759041 0.874105
Si Si2 0.257179 0.798276 0.434523
Si Si3 0.752262 0.930889 0.904712
Si Si4 0.816578 0.932864 0.092280
Si Si5 0.744269 0.758261 0.105157
Si Si6 0.709959 0.600697 0.605217
Si Si7 0.715536 0.532111 0.395184
Si Si8 0.198050 0.761985 0.926734
O O1 0.517113 0.643636 0.623813
O O2 0.250253 0.751533 0.003134
O O3 0.541980 0.543196 0.025583
O O4 0.052433 0.059766 0.913022
O O5 0.500000 0.500000 0.500000
O O6 0.236118 0.918155 0.172370
O O7 0.207502 0.835755 0.642038
O O8 0.000000 0.000000 0.500000
O O9 0.994644 0.756635 0.687460
O O10 0.778165 0.909577 0.074834
O O11 0.465123 0.239796 0.815149
O O12 0.776918 0.812933 0.021666
O O13 0.588094 0.136022 0.273947
O O14 0.091350 0.642161 0.196672
O O15 0.727812 0.688249 0.393008
O O16 0.000000 0.500000 0.000000
O O17 0.500000 0.000000 0.000000
O O18 0.757810 0.534051 0.465715
#
# Coordination Sequence:
#
# PCOD9021928 Si02
#       8
#     2   2   2   2   2   2   2   2
#     4  10  22  38  67  92 131 160 235 292 341 399
#     4  12  27  45  67  92 139 193 229 283 356 431
#     4  12  25  47  75 106 145 198 234 298 361 442
#     4  12  29  47  70 109 148 185 248 296 368 429
#     4  12  23  47  75 110 146 185 242 291 364 435
#     4  12  26  45  74 109 146 187 239 306 350 431
#     4  12  24  42  74 105 139 193 242 296 359 424
#     4  10  22  41  60  95 123 176 221 292 345 404
#
# _framework density 23.304583000000001
#
# number of rings (size 3 to 8) (size 9 to 14) (size 15 to 20)
#    0.000    0.500    2.500    5.250    5.250    4.000 
#    0.000    0.000    0.000    0.000    0.000    0.000 
#    0.000    0.000    0.000    0.000    0.000    0.000 
#
# Total GULP energy -89350.896855 kJ/mol
# GULP energy per Si atom -5584.431053 kJ/mol
# Density = 2.325154 g / cm^3
# Si number density = 23.304583 Si / 1000 Ang^3
#
#
#
# Elastic Constant Matrix: (Units=GPa)
#
#
# Indices 1 2 3 4 5 6 
#
# 1 95.7811 22.9675 -0.0208 -15.1891 -2.4758 -5.0758
# 2 22.9675 158.0104 16.8438 -9.7308 -7.6650 -25.0140
# 3 -0.0208 16.8438 76.9374 -0.9192 -20.7456 -4.3587
# 4 -15.1891 -9.7308 -0.9192 36.9571 -3.0293 3.0573
# 5 -2.4758 -7.6650 -20.7456 -3.0293 49.1287 -0.5659
# 6 -5.0758 -25.0140 -4.3587 3.0573 -0.5659 28.7106
#
#
#
# Elastic Compliance Matrix: (Units=1/GPa)
#
#
# Indices 1 2 3 4 5 6 
#
# 1 0.011515 -0.001343 0.000625 0.004428 0.000914 0.000507
# 2 -0.001343 0.007731 -0.001111 0.001006 0.000803 0.006238
# 3 0.000625 -0.001111 0.015022 0.000730 0.006263 0.001469
# 4 0.004428 0.001006 0.000730 0.029474 0.002490 -0.001320
# 5 0.000914 0.000803 0.006263 0.002490 0.023348 0.002007
# 6 0.000507 0.006238 0.001469 -0.001320 0.002007 0.040758
#
#
# Mechanical properties :
#
#
# Convention : Reuss Voigt Hill
#
# Bulk Modulus (GPa) = 32.66908 45.59001 39.12954
# Shear Modulus (GPa) = 35.28365 42.35520 38.81942
#
# Velocity S-wave (km/s) = 3.89526 4.26780 4.08578
# Velocity P-wave (km/s) = 5.85487 6.62500 6.25180
#
# Compressibility (1/GPa) = 0.03060999
#
# Stress axis : x y z
#
# Youngs Moduli (GPa) = 86.84104 129.35335 66.57010
#
# Poissons Ratio (x) = 0.17375 -0.04162
# Poissons Ratio (y) = 0.11664 0.07395
# Poissons Ratio (z) = -0.05429 0.14369
#
# Static dielectric constant tensor:
#      x y z
#    x 1.876060 0.096030 -0.093700 
#    y 0.096030 1.988360 0.026190 
#    z -0.093700 0.026190 1.741660 
# 
# From -- ./inp_files/357963.got.cif
#   From: 2010.05.17/outbox.cif.g08.bks.cpg/sg2_179_cif.got.tgz:357963.got - 2010.06.03 11:33:40.
