data_PCOD9021962
_publ_section_title
;
Structure prediction by ZEFSAII (Michael W. Deem and Ramdas Pophale) SiO2 
 PCOD9021962
Probable space group: P -1
;
_chemical_formula_sum "Si O2"
_cell_formula_units_Z 16
_cell_length_a 9.219445
_cell_length_b 18.051228
_cell_length_c 11.589769
_cell_angle_alpha 37.522944
_cell_angle_beta 42.273106
_cell_angle_gamma 71.620435
_cell_volume 591.737482
_symmetry_space_group_name_H-M "P -1"
_symmetry_group_IT_number 2
_symmetry_cell_setting 'triclinic'
loop_
_space_group_symop_operation_xyz
x,y,z
-x,-y,-z
loop_
_atom_site_type_symbol
_atom_site_label
_atom_site_fract_x
_atom_site_fract_y
_atom_site_fract_z
Si Si1 0.555184 0.354491 0.493807
Si Si2 0.673127 0.090759 0.426119
Si Si3 0.219769 0.896661 0.209004
Si Si4 0.768079 0.920435 0.410951
Si Si5 0.058976 0.715965 0.742723
Si Si6 0.280335 0.668765 0.351582
Si Si7 0.148090 0.397316 0.610408
Si Si8 0.310351 0.541475 0.095930
O O1 0.721504 0.310915 0.384543
O O2 0.482789 0.272295 0.762416
O O3 0.318770 0.334217 0.585025
O O4 0.770609 0.544256 0.165017
O O5 0.349772 0.021056 0.681635
O O6 0.795370 0.152936 0.404430
O O7 0.717712 0.971856 0.497883
O O8 0.873263 0.252753 0.025502
O O9 0.996040 0.762205 0.603339
O O10 0.272898 0.814202 0.181337
O O11 0.080703 0.972297 0.157441
O O12 0.500000 0.000000 0.000000
O O13 0.541950 0.728449 0.759984
O O14 0.310713 0.571494 0.361415
O O15 0.939980 0.519499 0.772078
O O16 0.117671 0.431677 0.455876
O O17 0.500000 0.500000 0.000000
#
# Coordination Sequence:
#
# PCOD9021962 Si02
#       8
#     2   2   2   2   2   2   2   2
#     4  10  22  38  68 100 135 174 227 280 339 396
#     4  11  26  45  68 103 140 180 228 285 348 405
#     4  11  26  44  67 103 141 184 229 274 343 417
#     4  11  25  47  69  97 145 184 224 283 351 406
#     4  10  22  42  67  98 135 184 225 276 346 401
#     4  11  23  43  68 100 132 174 231 281 331 401
#     4  12  25  40  71 106 132 176 232 287 335 405
#     4  12  25  46  72  98 131 181 231 280 341 405
#
# _framework density 27.039020000000001
#
# number of rings (size 3 to 8) (size 9 to 14) (size 15 to 20)
#    0.000    1.000    3.750    1.500    8.750    1.500 
#    2.250    1.250    0.000    0.000    0.000    0.000 
#    0.000    0.000    0.000    0.000    0.000    0.000 
#
# Total GULP energy -89419.971420 kJ/mol
# GULP energy per Si atom -5588.748214 kJ/mol
# Density = 2.697748 g / cm^3
# Si number density = 27.039020 Si / 1000 Ang^3
#
#
#
# Elastic Constant Matrix: (Units=GPa)
#
#
# Indices 1 2 3 4 5 6 
#
# 1 76.5256 20.4611 16.4891 10.2242 6.2124 -20.2865
# 2 20.4611 173.2937 19.4830 -39.4780 6.3793 -15.3109
# 3 16.4891 19.4830 60.5402 -22.3564 -6.3631 -2.0173
# 4 10.2242 -39.4780 -22.3564 46.2158 2.1828 -6.1843
# 5 6.2124 6.3793 -6.3631 2.1828 37.8256 6.0021
# 6 -20.2865 -15.3109 -2.0173 -6.1843 6.0021 61.0967
#
#
#
# Elastic Compliance Matrix: (Units=1/GPa)
#
#
# Indices 1 2 3 4 5 6 
#
# 1 0.018339 -0.002909 -0.007855 -0.009547 -0.004010 0.004529
# 2 -0.002909 0.008176 0.001244 0.008589 -0.001528 0.002143
# 3 -0.007855 0.001244 0.023902 0.014087 0.004369 -0.000511
# 4 -0.009547 0.008589 0.014087 0.038362 -0.000257 0.003356
# 5 -0.004010 -0.001528 0.004369 -0.000257 0.028806 -0.004426
# 6 0.004529 0.002143 -0.000511 0.003356 -0.004426 0.019166
#
#
# Mechanical properties :
#
#
# Convention : Reuss Voigt Hill
#
# Bulk Modulus (GPa) = 31.87125 47.02508 39.44817
# Shear Modulus (GPa) = 30.07504 45.95604 38.01554
#
# Velocity S-wave (km/s) = 3.33871 4.12712 3.75367
# Velocity P-wave (km/s) = 5.16482 6.33562 5.77994
#
# Compressibility (1/GPa) = 0.03137624
#
# Stress axis : x y z
#
# Youngs Moduli (GPa) = 54.52725 122.30269 41.83827
#
# Poissons Ratio (x) = 0.35582 0.32863
# Poissons Ratio (y) = 0.15864 -0.05203
# Poissons Ratio (z) = 0.42830 -0.15209
#
# Static dielectric constant tensor:
#      x y z
#    x 2.134080 -0.010970 0.039160 
#    y -0.010970 2.070080 0.028710 
#    z 0.039160 0.028710 2.264900 
# 
# From -- ./inp_files/402814.got.cif
#   From: 2010.05.17/outbox.cif.g08.bks.cpg/sg2_202_cif.got.tgz:402814.got - 2010.06.03 11:33:40.
