data_PCOD9021218
_publ_section_title
;
Structure prediction by ZEFSAII (Michael W. Deem and Ramdas Pophale) SiO2 
 PCOD9021218
Probable space group: P -1
;
_chemical_formula_sum "Si O2"
_cell_formula_units_Z 13
_cell_length_a 12.344369
_cell_length_b 7.014345
_cell_length_c 6.878002
_cell_angle_alpha 86.792494
_cell_angle_beta 65.820471
_cell_angle_gamma 101.764694
_cell_volume 525.362188
_symmetry_space_group_name_H-M "P -1"
_symmetry_group_IT_number 2
_symmetry_cell_setting 'triclinic'
loop_
_space_group_symop_operation_xyz
x,y,z
-x,-y,-z
loop_
_atom_site_type_symbol
_atom_site_label
_atom_site_fract_x
_atom_site_fract_y
_atom_site_fract_z
Si Si1 0.198717 0.877463 0.542630
Si Si2 0.996243 0.719953 0.434761
Si Si3 0.128298 0.977322 0.992936
Si Si4 0.412823 0.688239 0.944976
Si Si5 0.500000 0.500000 0.500000
Si Si6 0.655152 0.910189 0.931778
Si Si7 0.264437 0.475951 0.418039
O O1 0.296443 0.011181 0.320260
O O2 0.223961 0.662527 0.525379
O O3 0.061652 0.853070 0.557275
O O4 0.203021 0.942471 0.753844
O O5 0.855539 0.704287 0.491574
O O6 0.000000 0.500000 0.500000
O O7 0.084069 0.795159 0.183792
O O8 0.229959 0.132797 0.034138
O O9 0.000000 0.000000 0.000000
O O10 0.434530 0.603712 0.724457
O O11 0.534477 0.738039 0.993471
O O12 0.381920 0.904214 0.947268
O O13 0.310978 0.546186 0.162867
O O14 0.372057 0.442871 0.474981
#
# Coordination Sequence:
#
# PCOD9021218 Si02
#       7
#     2   2   2   2   1   2   2
#     4   9  20  40  63  86 120 165 211 255 311 379
#     4   9  21  40  61  86 121 163 204 254 315 378
#     4  11  23  37  62  96 123 158 211 266 314 370
#     4  10  22  41  62  86 121 166 209 256 310 375
#     4  12  24  36  58  90 122 156 206 262 310 362
#     4   9  21  42  63  86 124 167 206 253 318 382
#     4  10  22  38  58  87 122 163 207 254 313 377
#
# _framework density 24.744834999999998
#
# number of rings (size 3 to 8) (size 9 to 14) (size 15 to 20)
#    0.000    2.154    0.000    2.308    0.000   11.077 
#    0.000    4.615    0.000    0.000    0.000    0.000 
#    0.000    0.000    0.000    0.000    0.000    0.000 
#
# Total GULP energy -72471.936875 kJ/mol
# GULP energy per Si atom -5574.764375 kJ/mol
# Density = 2.468852 g / cm^3
# Si number density = 24.744835 Si / 1000 Ang^3
#
#
#
# Elastic Constant Matrix: (Units=GPa)
#
#
# Indices 1 2 3 4 5 6 
#
# 1 156.3990 22.8322 15.3957 3.4093 7.3302 26.4465
# 2 22.8322 87.0247 55.6596 4.8502 2.2312 20.8426
# 3 15.3957 55.6596 161.4757 30.4225 5.9975 16.6347
# 4 3.4093 4.8502 30.4225 34.1821 -1.0869 -10.6106
# 5 7.3302 2.2312 5.9975 -1.0869 32.6225 1.9954
# 6 26.4465 20.8426 16.6347 -10.6106 1.9954 41.3982
#
#
#
# Elastic Compliance Matrix: (Units=1/GPa)
#
#
# Indices 1 2 3 4 5 6 
#
# 1 0.007496 -0.001002 0.000802 -0.003016 -0.001539 -0.005306
# 2 -0.001002 0.016243 -0.005099 0.000692 0.000401 -0.005331
# 3 0.000802 -0.005099 0.010291 -0.009985 -0.001778 -0.004554
# 4 -0.003016 0.000692 -0.009985 0.043598 0.002902 0.016625
# 5 -0.001539 0.000401 -0.001778 0.002902 0.031351 0.000729
# 6 -0.005306 -0.005331 -0.004554 0.016625 0.000729 0.036285
#
#
# Mechanical properties :
#
#
# Convention : Reuss Voigt Hill
#
# Bulk Modulus (GPa) = 42.67566 65.85270 54.26418
# Shear Modulus (GPa) = 30.54897 42.37471 36.46184
#
# Velocity S-wave (km/s) = 3.51744 4.14269 3.84280
# Velocity P-wave (km/s) = 5.81208 7.03938 6.45497
#
# Compressibility (1/GPa) = 0.02343256
#
# Stress axis : x y z
#
# Youngs Moduli (GPa) = 133.40107 61.56383 97.17695
#
# Poissons Ratio (x) = 0.06167 -0.07798
# Poissons Ratio (y) = 0.13363 0.49555
# Poissons Ratio (z) = -0.10705 0.31394
#
# Static dielectric constant tensor:
#      x y z
#    x 2.075840 -0.055350 -0.042910 
#    y -0.055350 1.975210 0.010240 
#    z -0.042910 0.010240 1.918630 
# 
# From -- ./inp_files/59292.got.cif
#   From: 2010.05.17/outbox.cif.g08.bks.cpg/sg2_30_cif.got.tgz:59292.got - 2010.06.03 11:33:40.
