data_PCOD9021285
_publ_section_title
;
Structure prediction by ZEFSAII (Michael W. Deem and Ramdas Pophale) SiO2 
 PCOD9021285
Probable space group: P -1
;
_chemical_formula_sum "Si O2"
_cell_formula_units_Z 16
_cell_length_a 14.668200
_cell_length_b 13.886311
_cell_length_c 7.998672
_cell_angle_alpha 128.267382
_cell_angle_beta 87.420436
_cell_angle_gamma 132.988459
_cell_volume 705.463163
_symmetry_space_group_name_H-M "P -1"
_symmetry_group_IT_number 2
_symmetry_cell_setting 'triclinic'
loop_
_space_group_symop_operation_xyz
x,y,z
-x,-y,-z
loop_
_atom_site_type_symbol
_atom_site_label
_atom_site_fract_x
_atom_site_fract_y
_atom_site_fract_z
Si Si1 0.961805 0.773288 0.933202
Si Si2 0.582809 0.719788 0.780462
Si Si3 0.710622 0.873950 0.569386
Si Si4 0.839315 0.760296 0.347728
Si Si5 0.510052 0.140882 0.931463
Si Si6 0.889095 0.958355 0.123494
Si Si7 0.300535 0.720699 0.617514
Si Si8 0.569452 0.278452 0.713588
O O1 0.866477 0.544739 0.645890
O O2 0.075972 0.965421 0.988561
O O3 0.849197 0.769977 0.958649
O O4 0.091715 0.879937 0.180365
O O5 0.500000 0.500000 0.500000
O O6 0.646226 0.836593 0.720016
O O7 0.467385 0.692548 0.839507
O O8 0.723143 0.848448 0.046226
O O9 0.717158 0.735101 0.381569
O O10 0.590256 0.813604 0.394358
O O11 0.940606 0.818482 0.558261
O O12 0.732781 0.541085 0.024735
O O13 0.000000 0.000000 0.500000
O O14 0.544348 0.168993 0.763992
O O15 0.326151 0.887562 0.726619
O O16 0.626904 0.201478 0.117635
O O17 0.399495 0.758531 0.502035
#
# Coordination Sequence:
#
# PCOD9021285 Si02
#       8
#     2   2   2   2   2   2   2   2
#     4   9  18  39  63  87 123 166 202 259 311 370
#     4  11  21  37  65  94 127 163 207 262 319 373
#     4  10  22  38  59  95 129 162 205 259 320 376
#     4  11  23  35  59  96 130 168 203 257 322 379
#     4  11  25  41  66  94 122 168 215 263 315 375
#     4   9  19  34  59  91 125 157 212 250 312 379
#     4  11  23  45  67  87 124 168 221 258 313 379
#     4  12  23  41  65  90 130 164 213 263 314 374
#
# _framework density 22.680135
#
# number of rings (size 3 to 8) (size 9 to 14) (size 15 to 20)
#    0.000    1.500    1.250    5.250    3.500    0.000 
#    0.000    3.125    2.750    0.000    0.000    0.000 
#    0.000    0.000    0.000    0.000    0.000    0.000 
#
# Total GULP energy -89107.174640 kJ/mol
# GULP energy per Si atom -5569.198415 kJ/mol
# Density = 2.262851 g / cm^3
# Si number density = 22.680135 Si / 1000 Ang^3
#
#
#
# Elastic Constant Matrix: (Units=GPa)
#
#
# Indices 1 2 3 4 5 6 
#
# 1 37.0377 15.4809 26.7152 -10.3176 7.9331 -3.2171
# 2 15.4809 79.5495 23.0802 -8.7066 3.4420 -12.6416
# 3 26.7152 23.0802 127.2826 -0.0309 0.0170 -20.0247
# 4 -10.3176 -8.7066 -0.0309 40.3231 -6.2176 -10.1075
# 5 7.9331 3.4420 0.0170 -6.2176 38.0548 -6.4686
# 6 -3.2171 -12.6416 -20.0247 -10.1075 -6.4686 24.9754
#
#
#
# Elastic Compliance Matrix: (Units=1/GPa)
#
#
# Indices 1 2 3 4 5 6 
#
# 1 0.037355 -0.004425 -0.007385 0.007020 -0.006614 -0.002221
# 2 -0.004425 0.015495 -0.000398 0.004871 0.001919 0.009422
# 3 -0.007385 -0.000398 0.010835 0.000680 0.003148 0.008626
# 4 0.007020 0.004871 0.000680 0.033532 0.006848 0.019259
# 5 -0.006614 0.001919 0.003148 0.006848 0.030880 0.013412
# 6 -0.002221 0.009422 0.008626 0.019259 0.013412 0.062706
#
#
# Mechanical properties :
#
#
# Convention : Reuss Voigt Hill
#
# Bulk Modulus (GPa) = 25.46484 41.60247 33.53365
# Shear Modulus (GPa) = 21.90009 32.57689 27.23849
#
# Velocity S-wave (km/s) = 3.11079 3.79405 3.46928
# Velocity P-wave (km/s) = 4.91476 6.12993 5.55567
#
# Compressibility (1/GPa) = 0.03926984
#
# Stress axis : x y z
#
# Youngs Moduli (GPa) = 26.76986 64.53815 92.28983
#
# Poissons Ratio (x) = 0.28561 0.68155
# Poissons Ratio (y) = 0.11847 0.03669
# Poissons Ratio (z) = 0.19769 0.02566
#
# Static dielectric constant tensor:
#      x y z
#    x 1.952460 0.046170 0.004220 
#    y 0.046170 1.966990 -0.036160 
#    z 0.004220 -0.036160 1.915490 
# 
# From -- ./inp_files/315909.got.cif
#   From: 2010.05.17/outbox.cif.g08.bks.cpg/sg2_158_cif.got.tgz:315909.got - 2010.06.03 11:33:40.
