data_PCOD9021566
_publ_section_title
;
Structure prediction by ZEFSAII (Michael W. Deem and Ramdas Pophale) SiO2 
 PCOD9021566
Probable space group: P -1
;
_chemical_formula_sum "Si O2"
_cell_formula_units_Z 14
_cell_length_a 7.492539
_cell_length_b 9.722929
_cell_length_c 8.094868
_cell_angle_alpha 103.576841
_cell_angle_beta 72.651849
_cell_angle_gamma 101.475577
_cell_volume 541.841675
_symmetry_space_group_name_H-M "P -1"
_symmetry_group_IT_number 2
_symmetry_cell_setting 'triclinic'
loop_
_space_group_symop_operation_xyz
x,y,z
-x,-y,-z
loop_
_atom_site_type_symbol
_atom_site_label
_atom_site_fract_x
_atom_site_fract_y
_atom_site_fract_z
Si Si1 0.893983 0.308035 0.068220
Si Si2 0.673905 0.091266 0.270543
Si Si3 0.394830 0.507510 0.706461
Si Si4 0.523605 0.789714 0.342209
Si Si5 0.127809 0.629822 0.287395
Si Si6 0.963446 0.858534 0.579873
Si Si7 0.249411 0.334229 0.191212
O O1 0.747439 0.162807 0.098280
O O2 0.791400 0.418191 0.238844
O O3 0.105753 0.294728 0.065938
O O4 0.890367 0.368856 0.903702
O O5 0.517570 0.157429 0.444617
O O6 0.862936 0.125880 0.337319
O O7 0.614281 0.922939 0.247522
O O8 0.500000 0.500000 0.500000
O O9 0.364876 0.344584 0.725825
O O10 0.530719 0.600522 0.830751
O O11 0.322670 0.730039 0.304687
O O12 0.973746 0.718466 0.428455
O O13 0.158337 0.477224 0.310116
O O14 0.782022 0.807895 0.727891
O O15 0.000000 0.000000 0.500000
#
# Coordination Sequence:
#
# PCOD9021566 Si02
#       7
#     2   2   2   2   2   2   2
#     4  11  23  41  63  91 129 163 197 258 314 358
#     4   9  19  37  58  85 123 161 202 249 303 359
#     4  11  23  37  66  95 115 163 212 248 302 366
#     4   9  19  36  57  88 122 156 209 251 289 370
#     4  10  22  40  62  89 125 166 199 252 321 353
#     4  10  22  38  63  89 118 166 210 251 299 368
#     4  10  24  42  63  92 126 160 208 253 301 371
#
# _framework density 25.837804999999999
#
# number of rings (size 3 to 8) (size 9 to 14) (size 15 to 20)
#    0.000    2.000    1.429    0.857    6.000    4.000 
#    0.000    5.714    0.000    0.000    0.000    0.000 
#    0.000    0.000    0.000    0.000    0.000    0.000 
#
# Total GULP energy -78226.353743 kJ/mol
# GULP energy per Si atom -5587.596696 kJ/mol
# Density = 2.577900 g / cm^3
# Si number density = 25.837805 Si / 1000 Ang^3
#
#
#
# Elastic Constant Matrix: (Units=GPa)
#
#
# Indices 1 2 3 4 5 6 
#
# 1 113.3959 15.6717 16.3713 -7.7724 14.3132 0.7961
# 2 15.6717 182.4083 23.0376 -36.8299 -7.9009 20.3393
# 3 16.3713 23.0376 62.8636 -27.6509 -1.7600 0.5481
# 4 -7.7724 -36.8299 -27.6509 28.7418 1.1598 3.5337
# 5 14.3132 -7.9009 -1.7600 1.1598 30.1302 -5.3356
# 6 0.7961 20.3393 0.5481 3.5337 -5.3356 31.7771
#
#
#
# Elastic Compliance Matrix: (Units=1/GPa)
#
#
# Indices 1 2 3 4 5 6 
#
# 1 0.009933 -0.000836 -0.002765 -0.000783 -0.005147 -0.000444
# 2 -0.000836 0.009278 0.004229 0.016630 0.001081 -0.007659
# 3 -0.002765 0.004229 0.030465 0.034742 0.001670 -0.006746
# 4 -0.000783 0.016630 0.034742 0.091988 -0.000595 -0.021553
# 5 -0.005147 0.001081 0.001670 -0.000595 0.037047 0.005695
# 6 -0.000444 -0.007659 -0.006746 -0.021553 0.005695 0.039852
#
#
# Mechanical properties :
#
#
# Convention : Reuss Voigt Hill
#
# Bulk Modulus (GPa) = 19.63365 52.09209 35.86287
# Shear Modulus (GPa) = 21.34175 38.36897 29.85536
#
# Velocity S-wave (km/s) = 2.87712 3.85774 3.40294
# Velocity P-wave (km/s) = 4.31884 6.32834 5.41758
#
# Compressibility (1/GPa) = 0.05093297
#
# Stress axis : x y z
#
# Youngs Moduli (GPa) = 100.67924 107.77705 32.82489
#
# Poissons Ratio (x) = 0.09007 0.09076
# Poissons Ratio (y) = 0.08414 -0.13883
# Poissons Ratio (z) = 0.27837 -0.45582
#
# Static dielectric constant tensor:
#      x y z
#    x 2.040820 0.038170 -0.006040 
#    y 0.038170 2.064660 -0.001460 
#    z -0.006040 -0.001460 2.126990 
# 
# From -- ./inp_files/155358.got.cif
#   From: 2010.05.17/outbox.cif.g08.bks.cpg/sg2_78_cif.got.tgz:155358.got - 2010.06.03 11:33:40.
