data_PCOD9021156
_publ_section_title
;
Structure prediction by ZEFSAII (Michael W. Deem and Ramdas Pophale) SiO2 
 PCOD9021156
Probable space group: P -1
;
_chemical_formula_sum "Si O2"
_cell_formula_units_Z 10
_cell_length_a 8.829419
_cell_length_b 8.191000
_cell_length_c 12.265692
_cell_angle_alpha 105.663668
_cell_angle_beta 139.827577
_cell_angle_gamma 101.320973
_cell_volume 419.574031
_symmetry_space_group_name_H-M "P -1"
_symmetry_group_IT_number 2
_symmetry_cell_setting 'triclinic'
loop_
_space_group_symop_operation_xyz
x,y,z
-x,-y,-z
loop_
_atom_site_type_symbol
_atom_site_label
_atom_site_fract_x
_atom_site_fract_y
_atom_site_fract_z
Si Si1 0.147561 0.697123 0.531547
Si Si2 0.151264 0.946798 0.955194
Si Si3 0.145218 0.880104 0.268394
Si Si4 0.861378 0.431844 0.104432
Si Si5 0.822287 0.968435 0.262955
O O1 0.000000 0.500000 0.500000
O O2 0.044522 0.582884 0.337765
O O3 0.048073 0.837235 0.544365
O O4 0.515224 0.864331 0.776872
O O5 0.034634 0.710960 0.891065
O O6 0.213086 0.951240 0.858968
O O7 0.936086 0.012888 0.846120
O O8 0.940487 0.615081 0.094200
O O9 0.039226 0.921144 0.329998
O O10 0.500000 0.000000 0.500000
O O11 0.503164 0.251311 0.909955
#
# Coordination Sequence:
#
# PCOD9021156 Si02
#       5
#     2   2   2   2   2
#     4  11  15  31  61  86 107 133 177 237 271 308
#     4   9  20  35  54  84 109 137 181 220 270 325
#     4  10  22  38  54  77 114 151 180 214 267 328
#     4  11  19  35  62  82 105 143 177 230 277 303
#     4   9  19  34  56  83 108 135 182 220 271 321
#
# _framework density 23.833696
#
# number of rings (size 3 to 8) (size 9 to 14) (size 15 to 20)
#    1.200    0.800    4.000    1.800    0.000    1.600 
#    0.000    7.000    0.000   22.800    0.000    0.000 
#    0.000    0.000    0.000    0.000    0.000    0.000 
#
# Total GULP energy -55856.239797 kJ/mol
# GULP energy per Si atom -5585.623980 kJ/mol
# Density = 2.377945 g / cm^3
# Si number density = 23.833696 Si / 1000 Ang^3
#
#
#
# Elastic Constant Matrix: (Units=GPa)
#
#
# Indices 1 2 3 4 5 6 
#
# 1 88.1501 72.8934 41.3501 0.4962 6.4353 -24.0657
# 2 72.8934 192.7990 50.4368 15.1570 21.1020 -41.0475
# 3 41.3501 50.4368 95.8897 4.7626 -6.7160 -29.8006
# 4 0.4962 15.1570 4.7626 36.1523 -9.1278 -2.5777
# 5 6.4353 21.1020 -6.7160 -9.1278 43.7734 -9.7004
# 6 -24.0657 -41.0475 -29.8006 -2.5777 -9.7004 44.0632
#
#
#
# Elastic Compliance Matrix: (Units=1/GPa)
#
#
# Indices 1 2 3 4 5 6 
#
# 1 0.018736 -0.005731 -0.004536 0.002993 0.000400 0.002089
# 2 -0.005731 0.009215 -0.001384 -0.004363 -0.003971 0.003389
# 3 -0.004536 -0.001384 0.016113 0.000586 0.005799 0.008442
# 4 0.002993 -0.004363 0.000586 0.031706 0.008752 0.001748
# 5 0.000400 -0.003971 0.005799 0.008752 0.029043 0.007347
# 6 0.002089 0.003389 0.008442 0.001748 0.007347 0.034422
#
#
# Mechanical properties :
#
#
# Convention : Reuss Voigt Hill
#
# Bulk Modulus (GPa) = 48.16613 78.46662 63.31638
# Shear Modulus (GPa) = 29.50595 38.94167 34.22381
#
# Velocity S-wave (km/s) = 3.52233 4.04653 3.79349
# Velocity P-wave (km/s) = 6.06593 7.40449 6.76839
#
# Compressibility (1/GPa) = 0.02076147
#
# Stress axis : x y z
#
# Youngs Moduli (GPa) = 53.37399 108.52307 62.06055
#
# Poissons Ratio (x) = 0.62197 0.28152
# Poissons Ratio (y) = 0.30590 0.08587
# Poissons Ratio (z) = 0.24212 0.15016
#
# Static dielectric constant tensor:
#      x y z
#    x 1.935690 0.015810 -0.014860 
#    y 0.015810 2.034690 -0.104850 
#    z -0.014860 -0.104850 1.865070 
# 
# From -- ./inp_files/156242.got.cif
#   From: 2010.05.17/outbox.cif.g08.bks.cpg/sg2_79_cif.got.tgz:156242.got - 2010.06.03 11:33:40.
