data_PCOD9021648
_publ_section_title
;
Structure prediction by ZEFSAII (Michael W. Deem and Ramdas Pophale) SiO2 
 PCOD9021648
Probable space group: P -1
;
_chemical_formula_sum "Si O2"
_cell_formula_units_Z 15
_cell_length_a 14.370341
_cell_length_b 12.136723
_cell_length_c 7.762088
_cell_angle_alpha 100.217006
_cell_angle_beta 114.532562
_cell_angle_gamma 134.033424
_cell_volume 621.295682
_symmetry_space_group_name_H-M "P -1"
_symmetry_group_IT_number 2
_symmetry_cell_setting 'triclinic'
loop_
_space_group_symop_operation_xyz
x,y,z
-x,-y,-z
loop_
_atom_site_type_symbol
_atom_site_label
_atom_site_fract_x
_atom_site_fract_y
_atom_site_fract_z
Si Si1 0.378812 0.524663 0.729407
Si Si2 0.090985 0.425802 0.642142
Si Si3 0.695046 0.144867 0.084309
Si Si4 0.368229 0.272134 0.693778
Si Si5 0.416276 0.821192 0.498998
Si Si6 0.651321 0.488996 0.687805
Si Si7 0.000000 0.500000 0.000000
Si Si8 0.952592 0.196431 0.818871
O O1 0.233936 0.494628 0.640139
O O2 0.274990 0.308450 0.639401
O O3 0.434812 0.573148 0.585211
O O4 0.556596 0.699054 0.054693
O O5 0.199872 0.643069 0.850530
O O6 0.875608 0.255434 0.352416
O O7 0.057066 0.314995 0.747207
O O8 0.500000 0.000000 0.000000
O O9 0.584693 0.964372 0.811608
O O10 0.557911 0.467648 0.767381
O O11 0.235496 0.055962 0.436483
O O12 0.387022 0.677238 0.342070
O O13 0.190601 0.647727 0.319248
O O14 0.500000 0.000000 0.500000
O O15 0.889408 0.722389 0.922482
O O16 0.074117 0.702176 0.106905
#
# Coordination Sequence:
#
# PCOD9021648 Si02
#       8
#     2   2   2   2   2   2   1   2
#     4  11  26  48  73 104 145 190 252 308 360 438
#     4  11  25  43  66 107 147 181 249 298 354 450
#     4  11  24  41  67 103 143 193 232 293 366 437
#     4  11  26  49  72 103 143 195 247 308 371 424
#     4  11  23  38  64  97 136 183 224 285 361 422
#     4  11  24  46  70 104 143 186 247 305 359 447
#     4  10  22  38  64 102 134 178 234 282 352 440
#     4  11  24  43  72  99 144 192 234 306 369 433
#
# _framework density 24.143094999999999
#
# number of rings (size 3 to 8) (size 9 to 14) (size 15 to 20)
#    0.000    1.067    1.333    4.400    5.600    8.533 
#    0.000    0.000    0.000    0.000    0.000    0.000 
#    0.000    0.000    0.000    0.000    0.000    0.000 
#
# Total GULP energy -83595.357021 kJ/mol
# GULP energy per Si atom -5573.023801 kJ/mol
# Density = 2.408814 g / cm^3
# Si number density = 24.143095 Si / 1000 Ang^3
#
#
#
# Elastic Constant Matrix: (Units=GPa)
#
#
# Indices 1 2 3 4 5 6 
#
# 1 62.2475 7.0855 39.0729 1.6371 7.5592 -15.3873
# 2 7.0855 48.8312 27.7644 -3.4252 11.3910 -9.9418
# 3 39.0729 27.7644 183.6952 8.3550 -1.4253 -21.7528
# 4 1.6371 -3.4252 8.3550 41.7599 -0.7115 -5.7673
# 5 7.5592 11.3910 -1.4253 -0.7115 22.8203 -3.5367
# 6 -15.3873 -9.9418 -21.7528 -5.7673 -3.5367 35.6140
#
#
#
# Elastic Compliance Matrix: (Units=1/GPa)
#
#
# Indices 1 2 3 4 5 6 
#
# 1 0.020879 0.002447 -0.004130 0.000997 -0.007339 0.006614
# 2 0.002447 0.027030 -0.004252 0.003459 -0.013653 0.005210
# 3 -0.004130 -0.004252 0.007254 -0.001339 0.004158 0.001656
# 4 0.000997 0.003459 -0.001339 0.025080 -0.000649 0.004575
# 5 -0.007339 -0.013653 0.004158 -0.000649 0.053424 0.000758
# 6 0.006614 0.005210 0.001656 0.004575 0.000758 0.034218
#
#
# Mechanical properties :
#
#
# Convention : Reuss Voigt Hill
#
# Bulk Modulus (GPa) = 23.09864 49.17994 36.13929
# Shear Modulus (GPa) = 25.74868 34.76225 30.25546
#
# Velocity S-wave (km/s) = 3.26928 3.79864 3.54386
# Velocity P-wave (km/s) = 4.88253 6.29714 5.63441
#
# Compressibility (1/GPa) = 0.04329259
#
# Stress axis : x y z
#
# Youngs Moduli (GPa) = 47.89559 36.99661 137.85184
#
# Poissons Ratio (x) = -0.09054 0.56933
# Poissons Ratio (y) = -0.11721 0.58617
# Poissons Ratio (z) = 0.19781 0.15732
#
# Static dielectric constant tensor:
#      x y z
#    x 2.076590 0.097910 0.001620 
#    y 0.097910 1.986230 -0.060400 
#    z 0.001620 -0.060400 1.955270 
# 
# From -- ./inp_files/305421.got.cif
#   From: 2010.05.17/outbox.cif.g08.bks.cpg/sg2_153_cif.got.tgz:305421.got - 2010.06.03 11:33:40.
