data_PCOD9021376
_publ_section_title
;
Structure prediction by ZEFSAII (Michael W. Deem and Ramdas Pophale) SiO2 
 PCOD9021376
Probable space group: P -1
;
_chemical_formula_sum "Si O2"
_cell_formula_units_Z 14
_cell_length_a 9.453457
_cell_length_b 16.816799
_cell_length_c 7.144757
_cell_angle_alpha 56.679065
_cell_angle_beta 49.223206
_cell_angle_gamma 42.201106
_cell_volume 572.971230
_symmetry_space_group_name_H-M "P -1"
_symmetry_group_IT_number 2
_symmetry_cell_setting 'triclinic'
loop_
_space_group_symop_operation_xyz
x,y,z
-x,-y,-z
loop_
_atom_site_type_symbol
_atom_site_label
_atom_site_fract_x
_atom_site_fract_y
_atom_site_fract_z
Si Si1 0.660648 0.216271 0.794475
Si Si2 0.246859 0.476237 0.791031
Si Si3 0.934451 0.675811 0.292252
Si Si4 0.653033 0.585190 0.653194
Si Si5 0.497825 0.052848 0.131647
Si Si6 0.191945 0.690130 0.768524
Si Si7 0.116425 0.137879 0.660089
O O1 0.456554 0.350901 0.864877
O O2 0.769235 0.228783 0.494517
O O3 0.542579 0.151647 0.945714
O O4 0.883215 0.147319 0.827746
O O5 0.298063 0.454839 0.554303
O O6 0.242416 0.584458 0.729174
O O7 0.000000 0.500000 0.000000
O O8 0.149173 0.535688 0.255137
O O9 0.708246 0.679465 0.504801
O O10 0.950489 0.739362 0.016518
O O11 0.959656 0.732913 0.377913
O O12 0.383676 0.640711 0.834185
O O13 0.263300 0.101849 0.388723
O O14 0.500000 0.000000 0.000000
O O15 0.708056 0.952610 0.215292
#
# Coordination Sequence:
#
# PCOD9021376 Si02
#       7
#     2   2   2   2   2   2   2
#     4  11  26  45  76 105 146 194 237 302 360 426
#     4  11  22  40  69 102 149 194 240 281 354 432
#     4  11  23  39  66 101 146 185 233 295 350 432
#     4  10  22  38  61 103 145 192 233 281 355 425
#     4  11  29  52  80 103 141 186 248 310 368 428
#     4  11  23  39  66 105 144 190 234 282 356 434
#     4  11  27  50  75 108 142 185 249 302 368 426
#
# _framework density 24.434035999999999
#
# number of rings (size 3 to 8) (size 9 to 14) (size 15 to 20)
#    0.000    1.143    1.429    4.286   10.000    1.714 
#    2.571    0.000    0.000    0.000    0.000    0.000 
#    0.000    0.000    0.000    0.000    0.000    0.000 
#
# Total GULP energy -78405.867333 kJ/mol
# GULP energy per Si atom -5600.419095 kJ/mol
# Density = 2.437842 g / cm^3
# Si number density = 24.434036 Si / 1000 Ang^3
#
#
#
# Elastic Constant Matrix: (Units=GPa)
#
#
# Indices 1 2 3 4 5 6 
#
# 1 112.9650 26.7437 28.6863 7.0292 -16.9056 -1.5984
# 2 26.7437 77.9624 26.2082 4.3117 -1.9926 -0.0653
# 3 28.6863 26.2082 103.6656 1.7724 -13.7642 -0.6574
# 4 7.0292 4.3117 1.7724 28.5005 2.6840 -0.8783
# 5 -16.9056 -1.9926 -13.7642 2.6840 50.3505 4.6016
# 6 -1.5984 -0.0653 -0.6574 -0.8783 4.6016 48.2389
#
#
#
# Elastic Compliance Matrix: (Units=1/GPa)
#
#
# Indices 1 2 3 4 5 6 
#
# 1 0.010578 -0.002826 -0.001763 -0.002363 0.003085 -0.000015
# 2 -0.002826 0.014882 -0.003110 -0.001254 -0.001141 -0.000030
# 3 -0.001763 -0.003110 0.011235 -0.000021 0.002370 -0.000136
# 4 -0.002363 -0.001254 -0.000021 0.036156 -0.002854 0.000850
# 5 0.003085 -0.001141 0.002370 -0.002854 0.021834 -0.002002
# 6 -0.000015 -0.000030 -0.000136 0.000850 -0.002002 0.020934
#
#
# Mechanical properties :
#
#
# Convention : Reuss Voigt Hill
#
# Bulk Modulus (GPa) = 46.95859 50.87439 48.91649
# Shear Modulus (GPa) = 36.20143 39.61495 37.90819
#
# Velocity S-wave (km/s) = 3.85333 4.03091 3.94312
# Velocity P-wave (km/s) = 6.24962 6.52155 6.38703
#
# Compressibility (1/GPa) = 0.02129536
#
# Stress axis : x y z
#
# Youngs Moduli (GPa) = 94.54012 67.19481 89.01033
#
# Poissons Ratio (x) = 0.18992 0.15688
# Poissons Ratio (y) = 0.26721 0.27687
# Poissons Ratio (z) = 0.16663 0.20901
#
# Static dielectric constant tensor:
#      x y z
#    x 1.963930 -0.084800 0.052020 
#    y -0.084800 1.977380 -0.034430 
#    z 0.052020 -0.034430 1.958850 
# 
# From -- ./inp_files/211852.got.cif
#   From: 2010.05.17/outbox.cif.g08.bks.cpg/sg2_106_cif.got.tgz:211852.got - 2010.06.03 11:33:40.
