data_PCOD9021337
_publ_section_title
;
Structure prediction by ZEFSAII (Michael W. Deem and Ramdas Pophale) SiO2 
 PCOD9021337
Probable space group: P -1
;
_chemical_formula_sum "Si O2"
_cell_formula_units_Z 15
_cell_length_a 9.455333
_cell_length_b 10.894547
_cell_length_c 11.229105
_cell_angle_alpha 141.843882
_cell_angle_beta 92.978677
_cell_angle_gamma 111.293945
_cell_volume 539.371116
_symmetry_space_group_name_H-M "P -1"
_symmetry_group_IT_number 2
_symmetry_cell_setting 'triclinic'
loop_
_space_group_symop_operation_xyz
x,y,z
-x,-y,-z
loop_
_atom_site_type_symbol
_atom_site_label
_atom_site_fract_x
_atom_site_fract_y
_atom_site_fract_z
Si Si1 0.843060 0.822811 0.721195
Si Si2 0.302454 0.709810 0.246190
Si Si3 0.667631 0.035285 0.895967
Si Si4 0.159907 0.979141 0.491874
Si Si5 0.500000 0.500000 0.000000
Si Si6 0.800567 0.064682 0.264816
Si Si7 0.433407 0.643198 0.812751
Si Si8 0.298410 0.611548 0.436379
O O1 0.845872 0.060576 0.912894
O O2 0.702419 0.641382 0.468148
O O3 0.748507 0.634896 0.688406
O O4 0.039737 0.900948 0.770789
O O5 0.243099 0.569891 0.266064
O O6 0.500000 0.000000 0.500000
O O7 0.167912 0.779762 0.264905
O O8 0.348344 0.559061 0.054035
O O9 0.557835 0.849668 0.866147
O O10 0.518978 0.861597 0.652036
O O11 0.697762 0.294846 0.105958
O O12 0.359460 0.272603 0.720823
O O13 0.157749 0.906723 0.573338
O O14 0.000000 0.000000 0.500000
O O15 0.786513 0.286140 0.409164
O O16 0.598181 0.770789 0.015585
#
# Coordination Sequence:
#
# PCOD9021337 Si02
#       8
#     2   2   2   2   1   2   2   2
#     4  11  21  36  61  88 123 166 197 241 303 360
#     4   9  20  40  65  92 121 158 209 262 308 366
#     4   9  19  34  56  85 118 158 203 245 289 357
#     4  10  23  42  63  93 127 158 208 263 305 363
#     4  10  22  42  70  88 112 164 204 252 322 360
#     4  10  22  38  60  91 125 161 202 248 299 363
#     4   9  19  38  55  79 122 162 202 244 291 356
#     4   9  18  36  59  86 124 161 195 247 308 361
#
# _framework density 27.810167
#
# number of rings (size 3 to 8) (size 9 to 14) (size 15 to 20)
#    0.000    2.400    0.000    2.800    0.000    6.400 
#    0.000    8.000    0.000    3.200    0.000    0.000 
#    0.000    0.000    0.000    0.000    0.000    0.000 
#
# Total GULP energy -83772.128181 kJ/mol
# GULP energy per Si atom -5584.808545 kJ/mol
# Density = 2.774687 g / cm^3
# Si number density = 27.810167 Si / 1000 Ang^3
#
#
#
# Elastic Constant Matrix: (Units=GPa)
#
#
# Indices 1 2 3 4 5 6 
#
# 1 216.5179 34.6700 67.1234 0.0126 -42.5243 -36.1584
# 2 34.6700 47.2340 17.3394 -0.5957 -12.6038 2.6576
# 3 67.1234 17.3394 111.6829 8.2284 -27.7529 -3.2313
# 4 0.0126 -0.5957 8.2284 24.4774 -2.8067 0.5773
# 5 -42.5243 -12.6038 -27.7529 -2.8067 49.5699 13.4473
# 6 -36.1584 2.6576 -3.2313 0.5773 13.4473 33.4528
#
#
#
# Elastic Compliance Matrix: (Units=1/GPa)
#
#
# Indices 1 2 3 4 5 6 
#
# 1 0.008182 -0.004684 -0.003627 0.001096 0.001638 0.008188
# 2 -0.004684 0.026687 -0.000439 0.001609 0.005141 -0.009320
# 3 -0.003627 -0.000439 0.012532 -0.003561 0.004827 -0.004554
# 4 0.001096 0.001609 -0.003561 0.042335 0.001973 -0.000811
# 5 0.001638 0.005141 0.004827 0.001973 0.028299 -0.009581
# 6 0.008188 -0.009320 -0.004554 -0.000811 -0.009581 0.042909
#
#
# Mechanical properties :
#
#
# Convention : Reuss Voigt Hill
#
# Bulk Modulus (GPa) = 33.44345 68.18893 50.81619
# Shear Modulus (GPa) = 26.53763 38.58681 32.56222
#
# Velocity S-wave (km/s) = 3.09243 3.72897 3.42552
# Velocity P-wave (km/s) = 4.98022 6.56604 5.82733
#
# Compressibility (1/GPa) = 0.02990122
#
# Stress axis : x y z
#
# Youngs Moduli (GPa) = 122.21698 37.47173 79.79500
#
# Poissons Ratio (x) = 0.17552 0.28943
# Poissons Ratio (y) = 0.57246 0.03501
# Poissons Ratio (z) = 0.44330 0.01644
#
# Static dielectric constant tensor:
#      x y z
#    x 2.245740 -0.111870 -0.018790 
#    y -0.111870 2.017810 -0.049660 
#    z -0.018790 -0.049660 2.118790 
# 
# From -- ./inp_files/391681.got.cif
#   From: 2010.05.17/outbox.cif.g08.bks.cpg/sg2_196_cif.got.tgz:391681.got - 2010.06.03 11:33:40.
