data_PCOD9021324
_publ_section_title
;
Structure prediction by ZEFSAII (Michael W. Deem and Ramdas Pophale) SiO2 
 PCOD9021324
Probable space group: P -1
;
_chemical_formula_sum "Si O2"
_cell_formula_units_Z 10
_cell_length_a 8.936419
_cell_length_b 9.351407
_cell_length_c 12.626271
_cell_angle_alpha 144.202375
_cell_angle_beta 107.178272
_cell_angle_gamma 51.569293
_cell_volume 430.362222
_symmetry_space_group_name_H-M "P -1"
_symmetry_group_IT_number 2
_symmetry_cell_setting 'triclinic'
loop_
_space_group_symop_operation_xyz
x,y,z
-x,-y,-z
loop_
_atom_site_type_symbol
_atom_site_label
_atom_site_fract_x
_atom_site_fract_y
_atom_site_fract_z
Si Si1 0.378303 0.661277 0.462473
Si Si2 0.029361 0.174485 0.445106
Si Si3 0.499710 0.494357 0.828953
Si Si4 0.766775 0.679794 0.269563
Si Si5 0.083142 0.962309 0.114015
O O1 0.500000 0.500000 0.500000
O O2 0.513407 0.421141 0.245796
O O3 0.157282 0.751280 0.482958
O O4 0.321654 0.001206 0.624845
O O5 0.094479 0.353414 0.625630
O O6 0.250341 0.780508 0.257464
O O7 0.967915 0.238873 0.346711
O O8 0.415752 0.305738 0.714000
O O9 0.324774 0.814818 0.057978
O O10 0.901222 0.338274 0.025318
O O11 0.000000 0.000000 0.000000
#
# Coordination Sequence:
#
# PCOD9021324 Si02
#       5
#     2   2   2   2   2
#     4  11  21  37  61  90 119 154 196 244 292 346
#     4  11  20  38  65  84 119 161 188 243 303 335
#     4   9  20  41  59  86 121 153 196 238 287 355
#     4   9  22  40  62  85 122 152 200 234 294 353
#     4  10  22  38  60  90 119 149 204 242 282 350
#
# _framework density 23.236239999999999
#
# number of rings (size 3 to 8) (size 9 to 14) (size 15 to 20)
#    1.200    0.800    0.000    6.600    0.000    1.600 
#    3.600    0.000    0.000    8.400    0.000    0.000 
#    0.000    0.000    0.000    0.000    0.000    0.000 
#
# Total GULP energy -55732.820643 kJ/mol
# GULP energy per Si atom -5573.282064 kJ/mol
# Density = 2.318335 g / cm^3
# Si number density = 23.236240 Si / 1000 Ang^3
#
#
#
# Elastic Constant Matrix: (Units=GPa)
#
#
# Indices 1 2 3 4 5 6 
#
# 1 135.3494 36.9081 28.9867 -17.1004 -15.7713 5.6072
# 2 36.9081 96.0796 20.4421 -31.6651 15.8086 11.2146
# 3 28.9867 20.4421 87.5044 -29.3966 12.3920 13.0258
# 4 -17.1004 -31.6651 -29.3966 34.5473 -4.5524 -5.1804
# 5 -15.7713 15.8086 12.3920 -4.5524 24.3974 -8.0601
# 6 5.6072 11.2146 13.0258 -5.1804 -8.0601 33.0769
#
#
#
# Elastic Compliance Matrix: (Units=1/GPa)
#
#
# Indices 1 2 3 4 5 6 
#
# 1 0.012939 -0.009105 -0.007781 -0.004710 0.020011 0.008096
# 2 -0.009105 0.025174 0.010624 0.021658 -0.028411 -0.014707
# 3 -0.007781 0.010624 0.024374 0.021095 -0.025221 -0.014723
# 4 -0.004710 0.021658 0.021095 0.060246 -0.019947 -0.010277
# 5 0.020011 -0.028411 -0.025221 -0.019947 0.093239 0.035769
# 6 0.008096 -0.014707 -0.014723 -0.010277 0.035769 0.046751
#
#
# Mechanical properties :
#
#
# Convention : Reuss Voigt Hill
#
# Bulk Modulus (GPa) = 20.01482 54.62302 37.31892
# Shear Modulus (GPa) = 17.12916 33.91075 25.51996
#
# Velocity S-wave (km/s) = 2.71804 3.82434 3.31763
# Velocity P-wave (km/s) = 4.29915 6.56197 5.54717
#
# Compressibility (1/GPa) = 0.04996297
#
# Stress axis : x y z
#
# Youngs Moduli (GPa) = 77.28812 39.72285 41.02794
#
# Poissons Ratio (x) = 0.36167 0.31922
# Poissons Ratio (y) = 0.70370 -0.43586
# Poissons Ratio (z) = 0.60135 -0.42200
#
# Static dielectric constant tensor:
#      x y z
#    x 1.841940 -0.069080 -0.030830 
#    y -0.069080 2.043520 0.026130 
#    z -0.030830 0.026130 1.944670 
# 
# From -- ./inp_files/166548.got.cif
#   From: 2010.05.17/outbox.cif.g08.bks.cpg/sg2_84_cif.got.tgz:166548.got - 2010.06.03 11:33:40.
