data_PCOD9021859
_publ_section_title
;
Structure prediction by ZEFSAII (Michael W. Deem and Ramdas Pophale) SiO2 
 PCOD9021859
Probable space group: P -1
;
_chemical_formula_sum "Si O2"
_cell_formula_units_Z 15
_cell_length_a 12.232957
_cell_length_b 14.993277
_cell_length_c 7.590636
_cell_angle_alpha 107.330780
_cell_angle_beta 91.038850
_cell_angle_gamma 29.706286
_cell_volume 567.043308
_symmetry_space_group_name_H-M "P -1"
_symmetry_group_IT_number 2
_symmetry_cell_setting 'triclinic'
loop_
_space_group_symop_operation_xyz
x,y,z
-x,-y,-z
loop_
_atom_site_type_symbol
_atom_site_label
_atom_site_fract_x
_atom_site_fract_y
_atom_site_fract_z
Si Si1 0.540125 0.419510 0.670791
Si Si2 0.000000 0.000000 0.500000
Si Si3 0.485149 0.816781 0.879738
Si Si4 0.474767 0.649042 0.016900
Si Si5 0.771714 0.825406 0.474014
Si Si6 0.056398 0.156487 0.792504
Si Si7 0.142677 0.579280 0.619219
Si Si8 0.943667 0.573026 0.840861
O O1 0.439658 0.597029 0.837249
O O2 0.318850 0.530400 0.646126
O O3 0.681379 0.253946 0.751799
O O4 0.815442 0.208116 0.465104
O O5 0.905078 0.971655 0.376257
O O6 0.463619 0.760038 0.006000
O O7 0.663746 0.626159 0.627285
O O8 0.643574 0.786567 0.922138
O O9 0.218182 0.036727 0.904632
O O10 0.755379 0.405955 0.952912
O O11 0.861951 0.822038 0.317939
O O12 0.874875 0.799687 0.635009
O O13 0.913548 0.617233 0.376836
O O14 0.500000 0.000000 0.500000
O O15 0.068384 0.571964 0.779255
O O16 0.000000 0.500000 0.000000
#
# Coordination Sequence:
#
# PCOD9021859 Si02
#       8
#     2   1   2   2   2   2   2   2
#     4  10  22  41  66  92 129 167 210 264 318 380
#     4  10  22  38  66  92 126 164 212 254 314 382
#     4  11  21  41  66  92 128 168 209 262 313 381
#     4  10  22  42  64  94 131 166 206 268 322 364
#     4  11  23  41  62  92 128 164 215 263 308 378
#     4  11  21  40  64  94 127 168 210 260 313 378
#     4  11  21  38  66  92 122 169 211 252 319 376
#     4  11  23  41  65  91 129 167 205 265 322 369
#
# _framework density 26.453005000000001
#
# number of rings (size 3 to 8) (size 9 to 14) (size 15 to 20)
#    0.000    1.333    4.000    4.000    0.000    1.600 
#    2.400    7.333    0.000    0.000    0.000    0.000 
#    0.000    0.000    0.000    0.000    0.000    0.000 
#
# Total GULP energy -83770.727777 kJ/mol
# GULP energy per Si atom -5584.715185 kJ/mol
# Density = 2.639280 g / cm^3
# Si number density = 26.453005 Si / 1000 Ang^3
#
#
#
# Elastic Constant Matrix: (Units=GPa)
#
#
# Indices 1 2 3 4 5 6 
#
# 1 116.9035 62.0844 25.0311 4.5914 8.6048 -26.6013
# 2 62.0844 156.1699 34.3512 -12.4443 5.8376 -35.9401
# 3 25.0311 34.3512 65.4777 3.5229 3.2033 -0.9496
# 4 4.5914 -12.4443 3.5229 45.2677 1.8913 3.6068
# 5 8.6048 5.8376 3.2033 1.8913 51.9759 -12.9413
# 6 -26.6013 -35.9401 -0.9496 3.6068 -12.9413 72.9792
#
#
#
# Elastic Compliance Matrix: (Units=1/GPa)
#
#
# Indices 1 2 3 4 5 6 
#
# 1 0.011724 -0.003750 -0.002327 -0.002199 -0.000704 0.002380
# 2 -0.003750 0.009717 -0.003805 0.003065 0.000474 0.003302
# 3 -0.002327 -0.003805 0.018271 -0.001993 -0.000874 -0.002541
# 4 -0.002199 0.003065 -0.001993 0.023398 -0.000865 -0.000628
# 5 -0.000704 0.000474 -0.000874 -0.000865 0.020286 0.003606
# 6 0.002380 0.003302 -0.002541 -0.000628 0.003606 0.016834
#
#
# Mechanical properties :
#
#
# Convention : Reuss Voigt Hill
#
# Bulk Modulus (GPa) = 50.12895 64.60940 57.36918
# Shear Modulus (GPa) = 39.48132 48.51683 43.99908
#
# Velocity S-wave (km/s) = 3.86749 4.28726 4.08277
# Velocity P-wave (km/s) = 6.23976 6.99891 6.63021
#
# Compressibility (1/GPa) = 0.01994855
#
# Stress axis : x y z
#
# Youngs Moduli (GPa) = 85.29788 102.91007 54.73118
#
# Poissons Ratio (x) = 0.38590 0.12737
# Poissons Ratio (y) = 0.31986 0.20823
# Poissons Ratio (z) = 0.19851 0.39153
#
# Static dielectric constant tensor:
#      x y z
#    x 2.144820 -0.029540 -0.140860 
#    y -0.029540 2.177300 -0.014980 
#    z -0.140860 -0.014980 2.423900 
# 
# From -- ./inp_files/202429.got.cif
#   From: 2010.05.17/outbox.cif.g08.bks.cpg/sg2_102_cif.got.tgz:202429.got - 2010.06.03 11:33:40.
