data_PCOD9021930
_publ_section_title
;
Structure prediction by ZEFSAII (Michael W. Deem and Ramdas Pophale) SiO2 
 PCOD9021930
Probable space group: P -1
;
_chemical_formula_sum "Si O2"
_cell_formula_units_Z 14
_cell_length_a 10.932292
_cell_length_b 11.684983
_cell_length_c 8.775409
_cell_angle_alpha 86.888739
_cell_angle_beta 119.963806
_cell_angle_gamma 50.887019
_cell_volume 629.585808
_symmetry_space_group_name_H-M "P -1"
_symmetry_group_IT_number 2
_symmetry_cell_setting 'triclinic'
loop_
_space_group_symop_operation_xyz
x,y,z
-x,-y,-z
loop_
_atom_site_type_symbol
_atom_site_label
_atom_site_fract_x
_atom_site_fract_y
_atom_site_fract_z
Si Si1 0.984804 0.870371 0.638180
Si Si2 0.026398 0.582268 0.230312
Si Si3 0.558451 0.285604 0.065683
Si Si4 0.186572 0.080090 0.805830
Si Si5 0.225362 0.792781 0.358004
Si Si6 0.871678 0.433579 0.056319
Si Si7 0.431029 0.444206 0.654510
O O1 0.203992 0.808402 0.748091
O O2 0.040644 0.736076 0.800976
O O3 0.903001 0.870926 0.426974
O O4 0.811440 0.064610 0.590540
O O5 0.234828 0.486365 0.468646
O O6 0.826850 0.782490 0.153563
O O7 0.977414 0.478569 0.201025
O O8 0.078778 0.588512 0.089642
O O9 0.600212 0.129213 0.048772
O O10 0.384323 0.398280 0.082289
O O11 0.457531 0.417092 0.852132
O O12 0.011139 0.120525 0.798974
O O13 0.368424 0.610324 0.550056
O O14 0.345262 0.729788 0.276125
#
# Coordination Sequence:
#
# PCOD9021930 Si02
#       7
#     2   2   2   2   2   2   2
#     4  11  24  38  65  96 128 161 201 260 314 362
#     4  10  25  45  62  88 126 169 210 248 314 359
#     4  11  24  39  67  98 123 159 209 254 316 364
#     4  10  23  41  63  94 128 164 201 257 309 369
#     4   9  20  37  61  95 130 155 197 256 312 363
#     4  11  25  43  65  89 124 168 208 260 299 375
#     4  10  22  38  67  93 126 167 201 256 307 374
#
# _framework density 22.236841999999999
#
# number of rings (size 3 to 8) (size 9 to 14) (size 15 to 20)
#    0.000    1.714    0.000    3.857   12.000    4.000 
#    0.000    0.714    0.000    0.000    0.000    0.000 
#    0.000    0.000    0.000    0.000    0.000    0.000 
#
# Total GULP energy -78370.749348 kJ/mol
# GULP energy per Si atom -5597.910668 kJ/mol
# Density = 2.218623 g / cm^3
# Si number density = 22.236842 Si / 1000 Ang^3
#
#
#
# Elastic Constant Matrix: (Units=GPa)
#
#
# Indices 1 2 3 4 5 6 
#
# 1 71.9144 37.9388 15.9251 -0.3242 4.5499 2.6599
# 2 37.9388 166.7241 25.5562 -2.8462 4.5278 1.4034
# 3 15.9251 25.5562 48.7996 -0.6188 0.9155 5.5111
# 4 -0.3242 -2.8462 -0.6188 35.2260 6.2852 1.3748
# 5 4.5499 4.5278 0.9155 6.2852 10.8448 -0.4976
# 6 2.6599 1.4034 5.5111 1.3748 -0.4976 17.3632
#
#
#
# Elastic Compliance Matrix: (Units=1/GPa)
#
#
# Indices 1 2 3 4 5 6 
#
# 1 0.016760 -0.003072 -0.003571 0.000985 -0.006084 -0.001438
# 2 -0.003072 0.007185 -0.002788 0.000821 -0.001921 0.000655
# 3 -0.003571 -0.002788 0.023893 0.000412 0.000092 -0.006841
# 4 0.000985 0.000821 0.000412 0.032093 -0.019549 -0.003449
# 5 -0.006084 -0.001921 0.000092 -0.019549 0.107147 0.005676
# 6 -0.001438 0.000655 -0.006841 -0.003449 0.005676 0.060367
#
#
# Mechanical properties :
#
#
# Convention : Reuss Voigt Hill
#
# Bulk Modulus (GPa) = 34.51183 49.58650 42.04916
# Shear Modulus (GPa) = 18.11809 26.55467 22.33638
#
# Velocity S-wave (km/s) = 2.85753 3.45943 3.17279
# Velocity P-wave (km/s) = 5.14209 6.18907 5.68971
#
# Compressibility (1/GPa) = 0.02897557
#
# Stress axis : x y z
#
# Youngs Moduli (GPa) = 59.66749 139.17909 41.85243
#
# Poissons Ratio (x) = 0.42757 0.14947
# Poissons Ratio (y) = 0.18331 0.11667
# Poissons Ratio (z) = 0.21310 0.38799
#
# Static dielectric constant tensor:
#      x y z
#    x 1.800420 0.001960 0.015590 
#    y 0.001960 1.866100 0.003120 
#    z 0.015590 0.003120 1.830760 
# 
# From -- ./inp_files/262544.got.cif
#   From: 2010.05.17/outbox.cif.g08.bks.cpg/sg2_132_cif.got.tgz:262544.got - 2010.06.03 11:33:40.
