data_PCOD9021550
_publ_section_title
;
Structure prediction by ZEFSAII (Michael W. Deem and Ramdas Pophale) SiO2 
 PCOD9021550
Probable space group: P -1
;
_chemical_formula_sum "Si O2"
_cell_formula_units_Z 16
_cell_length_a 11.487942
_cell_length_b 8.805160
_cell_length_c 15.535761
_cell_angle_alpha 81.944417
_cell_angle_beta 24.098233
_cell_angle_gamma 90.301432
_cell_volume 599.848128
_symmetry_space_group_name_H-M "P -1"
_symmetry_group_IT_number 2
_symmetry_cell_setting 'triclinic'
loop_
_space_group_symop_operation_xyz
x,y,z
-x,-y,-z
loop_
_atom_site_type_symbol
_atom_site_label
_atom_site_fract_x
_atom_site_fract_y
_atom_site_fract_z
Si Si1 0.378071 0.452442 0.936492
Si Si2 0.467786 0.310082 0.721505
Si Si3 0.224563 0.078909 0.512548
Si Si4 0.346757 0.354612 0.536532
Si Si5 0.266517 0.770150 0.946298
Si Si6 0.653372 0.937410 0.822357
Si Si7 0.592814 0.146816 0.494379
Si Si8 0.133612 0.371453 0.287841
O O1 0.293621 0.324203 0.925509
O O2 0.406185 0.624500 0.862415
O O3 0.692888 0.486673 0.773761
O O4 0.154476 0.431721 0.170108
O O5 0.536909 0.478614 0.607630
O O6 0.389278 0.174407 0.710445
O O7 0.782778 0.303941 0.549223
O O8 0.183710 0.216148 0.589128
O O9 0.585148 0.138047 0.247239
O O10 0.152207 0.906531 0.623191
O O11 0.002394 0.055700 0.583087
O O12 0.607573 0.301998 0.412630
O O13 0.078823 0.321022 0.790450
O O14 0.428948 0.908633 0.895784
O O15 0.694769 0.760742 0.816920
O O16 0.500000 0.000000 0.000000
O O17 0.500000 0.000000 0.500000
#
# Coordination Sequence:
#
# PCOD9021550 Si02
#       8
#     2   2   2   2   2   2   2   2
#     4  10  22  38  63 101 133 168 215 268 328 400
#     4  12  21  43  70  94 128 179 224 268 334 391
#     4  11  22  43  64  94 134 173 219 265 332 398
#     4  11  23  42  68  92 129 176 226 277 324 381
#     4  11  22  39  64  96 133 170 220 272 325 393
#     4  11  22  39  64  97 133 176 209 260 337 403
#     4  10  25  45  67  96 131 177 225 282 330 383
#     4  10  22  40  63  99 138 166 213 271 328 397
#
# _framework density 26.67342
#
# number of rings (size 3 to 8) (size 9 to 14) (size 15 to 20)
#    0.000    1.250    5.000    1.125    0.000    1.500 
#    4.500    3.125    0.000    0.000    0.000    0.000 
#    0.000    0.000    0.000    0.000    0.000    0.000 
#
# Total GULP energy -89165.768087 kJ/mol
# GULP energy per Si atom -5572.860505 kJ/mol
# Density = 2.661271 g / cm^3
# Si number density = 26.673420 Si / 1000 Ang^3
#
#
#
# Elastic Constant Matrix: (Units=GPa)
#
#
# Indices 1 2 3 4 5 6 
#
# 1 109.8415 38.2897 15.0222 17.8454 14.4572 28.9664
# 2 38.2897 108.4469 22.2212 2.2007 19.6161 16.1255
# 3 15.0222 22.2212 101.1531 9.1616 15.7949 0.0509
# 4 17.8454 2.2007 9.1616 34.1144 4.4777 13.9139
# 5 14.4572 19.6161 15.7949 4.4777 29.0935 11.1049
# 6 28.9664 16.1255 0.0509 13.9139 11.1049 57.4808
#
#
#
# Elastic Compliance Matrix: (Units=1/GPa)
#
#
# Indices 1 2 3 4 5 6 
#
# 1 0.012236 -0.003289 -0.000481 -0.004267 -0.001445 -0.003931
# 2 -0.003289 0.011801 -0.001486 0.002572 -0.005445 -0.001222
# 3 -0.000481 -0.001486 0.011398 -0.002990 -0.005410 0.002418
# 4 -0.004267 0.002572 -0.002990 0.035103 -0.000752 -0.006921
# 5 -0.001445 -0.005445 -0.005410 -0.000752 0.044136 -0.006085
# 6 -0.003931 -0.001222 0.002418 -0.006921 -0.006085 0.022570
#
#
# Mechanical properties :
#
#
# Convention : Reuss Voigt Hill
#
# Bulk Modulus (GPa) = 40.12243 52.27865 46.20054
# Shear Modulus (GPa) = 32.03774 40.39829 36.21802
#
# Velocity S-wave (km/s) = 3.46946 3.89595 3.68887
# Velocity P-wave (km/s) = 5.57892 6.31506 5.95837
#
# Compressibility (1/GPa) = 0.02492371
#
# Stress axis : x y z
#
# Youngs Moduli (GPa) = 81.72310 84.73510 87.73322
#
# Poissons Ratio (x) = 0.27873 0.04217
# Poissons Ratio (y) = 0.26882 0.13038
# Poissons Ratio (z) = 0.03928 0.12593
#
# Static dielectric constant tensor:
#      x y z
#    x 2.141020 0.007500 -0.026760 
#    y 0.007500 2.049560 0.002330 
#    z -0.026760 0.002330 2.168890 
# 
# From -- ./inp_files/515500.got.cif
#   From: 2010.05.17/outbox.cif.g08.bks.cpg/sg2_258_cif.got.tgz:515500.got - 2010.06.03 11:33:40.
