data_PCOD9021293
_publ_section_title
;
Structure prediction by ZEFSAII (Michael W. Deem and Ramdas Pophale) SiO2 
 PCOD9021293
Probable space group: P -1
;
_chemical_formula_sum "Si O2"
_cell_formula_units_Z 14
_cell_length_a 14.417851
_cell_length_b 18.924177
_cell_length_c 10.433540
_cell_angle_alpha 31.753589
_cell_angle_beta 55.272581
_cell_angle_gamma 33.234627
_cell_volume 715.391676
_symmetry_space_group_name_H-M "P -1"
_symmetry_group_IT_number 2
_symmetry_cell_setting 'triclinic'
loop_
_space_group_symop_operation_xyz
x,y,z
-x,-y,-z
loop_
_atom_site_type_symbol
_atom_site_label
_atom_site_fract_x
_atom_site_fract_y
_atom_site_fract_z
Si Si1 0.505846 0.142531 0.714043
Si Si2 0.613488 0.986969 0.328185
Si Si3 0.553115 0.265863 0.737870
Si Si4 0.881689 0.706882 0.961443
Si Si5 0.006119 0.673809 0.639660
Si Si6 0.177633 0.787814 0.277177
Si Si7 0.850612 0.562734 0.608558
O O1 0.566132 0.176555 0.731780
O O2 0.296301 0.378533 0.454506
O O3 0.669944 0.972978 0.737054
O O4 0.500000 0.000000 0.000000
O O5 0.790293 0.884069 0.425185
O O6 0.711282 0.796489 0.438608
O O7 0.500000 0.000000 0.500000
O O8 0.516003 0.198617 0.991149
O O9 0.377379 0.541923 0.435196
O O10 0.749748 0.157167 0.781294
O O11 0.985621 0.642091 0.848480
O O12 0.879036 0.545566 0.202302
O O13 0.012536 0.632494 0.090042
O O14 0.099490 0.728147 0.494410
O O15 0.000000 0.000000 0.000000
O O16 0.000000 0.500000 0.500000
#
# Coordination Sequence:
#
# PCOD9021293 Si02
#       7
#     2   2   2   2   2   2   2
#     4  12  21  37  61  89 131 159 201 260 320 374
#     4  11  22  36  63 101 129 155 202 265 329 371
#     4  11  25  40  63  93 125 167 210 259 311 376
#     4  10  22  38  60 101 123 157 200 266 328 368
#     4  10  22  39  66  91 131 161 206 262 320 372
#     4  11  24  44  62  87 122 172 219 254 302 379
#     4  11  22  34  57  93 126 164 197 243 320 384
#
# _framework density 19.569699
#
# number of rings (size 3 to 8) (size 9 to 14) (size 15 to 20)
#    0.000    1.143    4.286    1.714    8.000    1.143 
#    0.000    0.714    0.000    1.714    0.000    0.000 
#    0.000    0.000    0.000    0.000    0.000    0.000 
#
# Total GULP energy -78067.878965 kJ/mol
# GULP energy per Si atom -5576.277069 kJ/mol
# Density = 1.952516 g / cm^3
# Si number density = 19.569699 Si / 1000 Ang^3
#
#
#
# Elastic Constant Matrix: (Units=GPa)
#
#
# Indices 1 2 3 4 5 6 
#
# 1 162.7988 57.0901 36.7263 3.3668 14.0295 -17.6853
# 2 57.0901 92.3520 23.8682 0.2877 2.8620 -1.4816
# 3 36.7263 23.8682 59.5521 -4.1510 15.6825 -8.9638
# 4 3.3668 0.2877 -4.1510 26.6130 -7.1916 4.5992
# 5 14.0295 2.8620 15.6825 -7.1916 36.9666 -2.9934
# 6 -17.6853 -1.4816 -8.9638 4.5992 -2.9934 33.9111
#
#
#
# Elastic Compliance Matrix: (Units=1/GPa)
#
#
# Indices 1 2 3 4 5 6 
#
# 1 0.009118 -0.004792 -0.002726 -0.002803 -0.002153 0.004015
# 2 -0.004792 0.014676 -0.003886 0.000945 0.002287 -0.002811
# 3 -0.002726 -0.003886 0.022697 0.001213 -0.007769 0.003558
# 4 -0.002803 0.000945 0.001213 0.041314 0.008028 -0.005994
# 5 -0.002153 0.002287 -0.007769 0.008028 0.032444 -0.001301
# 6 0.004015 -0.002811 0.003558 -0.005994 -0.001301 0.033098
#
#
# Mechanical properties :
#
#
# Convention : Reuss Voigt Hill
#
# Bulk Modulus (GPa) = 42.22791 61.11911 51.67351
# Shear Modulus (GPa) = 27.16646 32.63270 29.89958
#
# Velocity S-wave (km/s) = 3.72988 4.08795 3.91301
# Velocity P-wave (km/s) = 6.33833 7.31991 6.84673
#
# Compressibility (1/GPa) = 0.02368102
#
# Stress axis : x y z
#
# Youngs Moduli (GPa) = 109.67726 68.13912 44.05842
#
# Poissons Ratio (x) = 0.32651 0.12013
# Poissons Ratio (y) = 0.52556 0.17123
# Poissons Ratio (z) = 0.29903 0.26482
#
# Static dielectric constant tensor:
#      x y z
#    x 1.742400 -0.033700 0.001790 
#    y -0.033700 1.698810 -0.018970 
#    z 0.001790 -0.018970 1.772560 
# 
# From -- ./inp_files/457421.got.cif
#   From: 2010.05.17/outbox.cif.g08.bks.cpg/sg2_229_cif.got.tgz:457421.got - 2010.06.03 11:33:40.
