data_PCOD9021909
_publ_section_title
;
Structure prediction by ZEFSAII (Michael W. Deem and Ramdas Pophale) SiO2 
 PCOD9021909
Probable space group: P -1
;
_chemical_formula_sum "Si O2"
_cell_formula_units_Z 13
_cell_length_a 10.568257
_cell_length_b 13.980186
_cell_length_c 12.231377
_cell_angle_alpha 148.435761
_cell_angle_beta 108.481646
_cell_angle_gamma 50.443376
_cell_volume 604.710178
_symmetry_space_group_name_H-M "P -1"
_symmetry_group_IT_number 2
_symmetry_cell_setting 'triclinic'
loop_
_space_group_symop_operation_xyz
x,y,z
-x,-y,-z
loop_
_atom_site_type_symbol
_atom_site_label
_atom_site_fract_x
_atom_site_fract_y
_atom_site_fract_z
Si Si1 0.422417 0.924216 0.165890
Si Si2 0.038973 0.519361 0.905411
Si Si3 0.500000 0.000000 0.500000
Si Si4 0.777803 0.487791 0.690629
Si Si5 0.051550 0.231327 0.235555
Si Si6 0.802956 0.051507 0.234531
Si Si7 0.626822 0.658702 0.582915
O O1 0.443875 0.939664 0.313803
O O2 0.223215 0.024203 0.169445
O O3 0.416646 0.128918 0.302796
O O4 0.615976 0.635536 0.886016
O O5 0.270172 0.305023 0.740802
O O6 0.946935 0.453786 0.740738
O O7 0.000000 0.500000 0.000000
O O8 0.916355 0.822776 0.135258
O O9 0.854653 0.210669 0.411875
O O10 0.669202 0.674982 0.735222
O O11 0.000000 0.500000 0.500000
O O12 0.835850 0.357797 0.311779
O O13 0.136788 0.097054 0.009671
O O14 0.566628 0.270324 0.398269
#
# Coordination Sequence:
#
# PCOD9021909 Si02
#       7
#     2   2   1   2   2   2   2
#     4  11  21  41  70  98 132 184 225 270 332 395
#     4  12  25  47  70  93 134 182 224 274 332 394
#     4  12  24  46  72  94 130 184 232 270 330 398
#     4  12  24  43  70 104 134 176 221 278 338 395
#     4  10  22  38  67 102 132 174 219 272 334 393
#     4  12  25  43  69 103 138 170 222 279 336 400
#     4  11  21  42  68  97 140 173 215 275 339 394
#
# _framework density 21.497900999999999
#
# number of rings (size 3 to 8) (size 9 to 14) (size 15 to 20)
#    0.000    0.615    4.615    5.538    0.000    1.231 
#    2.769    0.769    0.000    0.000    0.000    0.000 
#    0.000    0.000    0.000    0.000    0.000    0.000 
#
# Total GULP energy -72457.486608 kJ/mol
# GULP energy per Si atom -5573.652816 kJ/mol
# Density = 2.144897 g / cm^3
# Si number density = 21.497901 Si / 1000 Ang^3
#
#
#
# Elastic Constant Matrix: (Units=GPa)
#
#
# Indices 1 2 3 4 5 6 
#
# 1 49.7647 16.6401 26.1901 24.5550 0.0935 -9.2239
# 2 16.6401 123.5193 32.4231 15.0621 4.5500 -13.2696
# 3 26.1901 32.4231 84.9899 2.3461 -0.9940 1.2921
# 4 24.5550 15.0621 2.3461 26.3632 -5.3260 -14.3579
# 5 0.0935 4.5500 -0.9940 -5.3260 47.0713 5.2049
# 6 -9.2239 -13.2696 1.2921 -14.3579 5.2049 26.1554
#
#
#
# Elastic Compliance Matrix: (Units=1/GPa)
#
#
# Indices 1 2 3 4 5 6 
#
# 1 0.053753 0.003203 -0.016182 -0.056192 -0.006206 -0.008231
# 2 0.003203 0.010197 -0.004751 -0.007183 -0.002241 0.003040
# 3 -0.016182 -0.004751 0.018152 0.016439 0.002795 -0.000546
# 4 -0.056192 -0.007183 0.016439 0.115026 0.010092 0.036862
# 5 -0.006206 -0.002241 0.002795 0.010092 0.022950 -0.002491
# 6 -0.008231 0.003040 -0.000546 0.036862 -0.002491 0.057631
#
#
# Mechanical properties :
#
#
# Convention : Reuss Voigt Hill
#
# Bulk Modulus (GPa) = 21.44048 45.42005 33.43027
# Shear Modulus (GPa) = 15.21071 32.11935 23.66503
#
# Velocity S-wave (km/s) = 2.66286 3.86951 3.32144
# Velocity P-wave (km/s) = 4.41014 6.41387 5.50396
#
# Compressibility (1/GPa) = 0.04664074
#
# Stress axis : x y z
#
# Youngs Moduli (GPa) = 18.60375 98.07161 55.08887
#
# Poissons Ratio (x) = -0.31411 0.89147
# Poissons Ratio (y) = -0.05959 0.26173
# Poissons Ratio (z) = 0.30105 0.46595
#
# Static dielectric constant tensor:
#      x y z
#    x 1.838800 0.006640 -0.012140 
#    y 0.006640 1.758370 0.008070 
#    z -0.012140 0.008070 1.792310 
# 
# From -- ./inp_files/433519.got.cif
#   From: 2010.05.17/outbox.cif.g08.bks.cpg/sg2_217_cif.got.tgz:433519.got - 2010.06.03 11:33:40.
