data_PCOD9021991
_publ_section_title
;
Structure prediction by ZEFSAII (Michael W. Deem and Ramdas Pophale) SiO2 
 PCOD9021991
Probable space group: P -1
;
_chemical_formula_sum "Si O2"
_cell_formula_units_Z 14
_cell_length_a 5.424282
_cell_length_b 9.747685
_cell_length_c 11.904659
_cell_angle_alpha 113.837741
_cell_angle_beta 70.890183
_cell_angle_gamma 98.425568
_cell_volume 543.951504
_symmetry_space_group_name_H-M "P -1"
_symmetry_group_IT_number 2
_symmetry_cell_setting 'triclinic'
loop_
_space_group_symop_operation_xyz
x,y,z
-x,-y,-z
loop_
_atom_site_type_symbol
_atom_site_label
_atom_site_fract_x
_atom_site_fract_y
_atom_site_fract_z
Si Si1 0.578113 0.335344 0.895535
Si Si2 0.230856 0.369885 0.303106
Si Si3 0.863959 0.097487 0.214083
Si Si4 0.697150 0.256831 0.082822
Si Si5 0.438717 0.834088 0.499798
Si Si6 0.931482 0.654795 0.426688
Si Si7 0.083218 0.245035 0.850523
O O1 0.382711 0.285331 0.812676
O O2 0.877939 0.305207 0.812314
O O3 0.500000 0.500000 0.000000
O O4 0.546030 0.231321 0.978433
O O5 0.525381 0.372548 0.215843
O O6 0.206133 0.384871 0.444990
O O7 0.107616 0.210241 0.232488
O O8 0.053892 0.498001 0.319190
O O9 0.758921 0.121580 0.111902
O O10 0.643170 0.148471 0.351372
O O11 0.939564 0.931571 0.183769
O O12 0.968082 0.317481 0.007918
O O13 0.700440 0.737482 0.424069
O O14 0.180840 0.761822 0.456504
O O15 0.500000 0.000000 0.500000
#
# Coordination Sequence:
#
# PCOD9021991 Si02
#       7
#     2   2   2   2   2   2   2
#     4  10  23  44  60  87 132 169 210 251 307 370
#     4  10  22  39  66  95 124 164 203 272 305 371
#     4  11  23  40  65  96 128 160 217 251 322 366
#     4  10  22  38  68  91 132 158 212 255 315 363
#     4  11  24  45  64  91 129 167 209 262 305 375
#     4  10  23  42  66  90 127 161 215 254 321 360
#     4  10  24  39  66  92 128 168 203 261 306 376
#
# _framework density 25.737586
#
# number of rings (size 3 to 8) (size 9 to 14) (size 15 to 20)
#    0.857    0.857    1.429    2.143    4.000    2.857 
#    5.143    0.000    0.000    0.000    0.000    0.000 
#    0.000    0.000    0.000    0.000    0.000    0.000 
#
# Total GULP energy -78321.201994 kJ/mol
# GULP energy per Si atom -5594.371571 kJ/mol
# Density = 2.567901 g / cm^3
# Si number density = 25.737586 Si / 1000 Ang^3
#
#
#
# Elastic Constant Matrix: (Units=GPa)
#
#
# Indices 1 2 3 4 5 6 
#
# 1 175.9436 51.2011 40.9588 11.4327 -13.8618 -38.0435
# 2 51.2011 96.3343 17.1394 10.3863 15.6199 -25.5777
# 3 40.9588 17.1394 69.0422 -1.2073 -15.6994 -8.4741
# 4 11.4327 10.3863 -1.2073 44.7366 -6.4133 -6.8176
# 5 -13.8618 15.6199 -15.6994 -6.4133 41.3862 0.8830
# 6 -38.0435 -25.5777 -8.4741 -6.8176 0.8830 44.4531
#
#
#
# Elastic Compliance Matrix: (Units=1/GPa)
#
#
# Indices 1 2 3 4 5 6 
#
# 1 0.008613 -0.003123 -0.003130 -0.000432 0.002705 0.004857
# 2 -0.003123 0.015981 -0.003567 -0.003474 -0.009086 0.005490
# 3 -0.003130 -0.003567 0.019009 0.003171 0.008017 -0.000781
# 4 -0.000432 -0.003474 0.003171 0.024520 0.006129 0.001874
# 5 0.002705 -0.009086 0.008017 0.006129 0.032512 -0.001090
# 6 0.004857 0.005490 -0.000781 0.001874 -0.001090 0.029971
#
#
# Mechanical properties :
#
#
# Convention : Reuss Voigt Hill
#
# Bulk Modulus (GPa) = 41.73502 62.21320 51.97411
# Shear Modulus (GPa) = 31.59869 41.58323 36.59096
#
# Velocity S-wave (km/s) = 3.50769 4.02389 3.77463
# Velocity P-wave (km/s) = 5.71454 6.76857 6.26377
#
# Compressibility (1/GPa) = 0.02396069
#
# Stress axis : x y z
#
# Youngs Moduli (GPa) = 116.10794 62.57625 52.60626
#
# Poissons Ratio (x) = 0.19543 0.16468
# Poissons Ratio (y) = 0.36261 0.18767
# Poissons Ratio (z) = 0.36346 0.22323
#
# Static dielectric constant tensor:
#      x y z
#    x 2.062030 -0.006910 -0.000690 
#    y -0.006910 1.989440 -0.047460 
#    z -0.000690 -0.047460 2.074160 
# 
# From -- ./inp_files/127031.got.cif
#   From: 2010.05.17/outbox.cif.g08.bks.cpg/sg2_64_cif.got.tgz:127031.got - 2010.06.03 11:33:40.
