data_PCOD9021170
_publ_section_title
;
Structure prediction by ZEFSAII (Michael W. Deem and Ramdas Pophale) SiO2 
 PCOD9021170
Probable space group: P -1
;
_chemical_formula_sum "Si O2"
_cell_formula_units_Z 10
_cell_length_a 8.231711
_cell_length_b 16.073286
_cell_length_c 11.864734
_cell_angle_alpha 32.782301
_cell_angle_beta 58.098218
_cell_angle_gamma 33.881486
_cell_volume 392.074646
_symmetry_space_group_name_H-M "P -1"
_symmetry_group_IT_number 2
_symmetry_cell_setting 'triclinic'
loop_
_space_group_symop_operation_xyz
x,y,z
-x,-y,-z
loop_
_atom_site_type_symbol
_atom_site_label
_atom_site_fract_x
_atom_site_fract_y
_atom_site_fract_z
Si Si1 0.653317 0.395470 0.742390
Si Si2 0.526437 0.744847 0.873995
Si Si3 0.607220 0.185672 0.797220
Si Si4 0.886200 0.156024 0.249033
Si Si5 0.202655 0.263180 0.026142
O O1 0.688479 0.269394 0.760294
O O2 0.522507 0.646813 0.460023
O O3 0.417710 0.447310 0.851999
O O4 0.027642 0.154626 0.942850
O O5 0.182204 0.933360 0.714961
O O6 0.510599 0.890275 0.806449
O O7 0.841505 0.561610 0.879729
O O8 0.308569 0.285225 0.852199
O O9 0.147387 0.123587 0.178452
O O10 0.500000 0.500000 0.000000
O O11 0.000000 0.000000 0.500000
#
# Coordination Sequence:
#
# PCOD9021170 Si02
#       5
#     2   2   2   2   2
#     4   9  18  33  53  79 112 146 181 227 280 330
#     4   9  19  37  61  86 113 150 193 233 279 337
#     4   9  18  33  53  79 112 146 181 227 280 330
#     4  10  22  38  56  84 118 146 183 238 287 328
#     4   9  19  37  61  86 113 150 193 233 279 337
#
# _framework density 25.505348999999999
#
# number of rings (size 3 to 8) (size 9 to 14) (size 15 to 20)
#    0.000    2.800    0.000    0.000    0.000    7.200 
#    0.000   14.000    0.000    0.000    0.000    0.000 
#    0.000    0.000    0.000    0.000    0.000    0.000 
#
# Total GULP energy -55871.994479 kJ/mol
# GULP energy per Si atom -5587.199448 kJ/mol
# Density = 2.544730 g / cm^3
# Si number density = 25.505349 Si / 1000 Ang^3
#
#
#
# Elastic Constant Matrix: (Units=GPa)
#
#
# Indices 1 2 3 4 5 6 
#
# 1 200.6930 24.4804 67.6753 15.6799 7.0559 -5.0674
# 2 24.4804 112.9888 67.9717 16.5541 -9.4501 -34.3959
# 3 67.6753 67.9717 195.4615 19.2384 16.9170 -29.8757
# 4 15.6799 16.5541 19.2384 29.1165 6.0227 -15.0172
# 5 7.0559 -9.4501 16.9170 6.0227 26.4770 5.7872
# 6 -5.0674 -34.3959 -29.8757 -15.0172 5.7872 36.9081
#
#
#
# Elastic Compliance Matrix: (Units=1/GPa)
#
#
# Indices 1 2 3 4 5 6 
#
# 1 0.005873 -0.000234 -0.002119 -0.003156 0.000984 -0.002565
# 2 -0.000234 0.014902 -0.004154 -0.002731 0.006841 0.008309
# 3 -0.002119 -0.004154 0.008505 0.001950 -0.007833 0.004744
# 4 -0.003156 -0.002731 0.001950 0.051599 -0.018017 0.022420
# 5 0.000984 0.006841 -0.007833 -0.018017 0.052413 -0.015380
# 6 -0.002565 0.008309 0.004744 0.022420 -0.015380 0.049859
#
#
# Mechanical properties :
#
#
# Convention : Reuss Voigt Hill
#
# Bulk Modulus (GPa) = 61.47716 92.15535 76.81626
# Shear Modulus (GPa) = 24.80318 41.76806 33.28562
#
# Velocity S-wave (km/s) = 3.12183 4.05114 3.61646
# Velocity P-wave (km/s) = 6.09511 7.62185 6.90083
#
# Compressibility (1/GPa) = 0.01626620
#
# Stress axis : x y z
#
# Youngs Moduli (GPa) = 170.27282 67.10524 117.57267
#
# Poissons Ratio (x) = 0.01572 0.24908
# Poissons Ratio (y) = 0.03988 0.48843
# Poissons Ratio (z) = 0.36073 0.27878
#
# Static dielectric constant tensor:
#      x y z
#    x 2.027350 0.026670 0.011290 
#    y 0.026670 2.120100 -0.029140 
#    z 0.011290 -0.029140 1.981300 
# 
# From -- ./inp_files/16068.got.cif
#   From: 2010.05.17/outbox.cif.g08.bks.cpg/sg2_9_cif.got.tgz:16068.got - 2010.06.03 11:33:40.
