data_PCOD9021373
_publ_section_title
;
Structure prediction by ZEFSAII (Michael W. Deem and Ramdas Pophale) SiO2 
 PCOD9021373
Probable space group: P -1
;
_chemical_formula_sum "Si O2"
_cell_formula_units_Z 16
_cell_length_a 11.923711
_cell_length_b 5.492182
_cell_length_c 12.171188
_cell_angle_alpha 60.839608
_cell_angle_beta 70.995467
_cell_angle_gamma 84.517533
_cell_volume 656.171682
_symmetry_space_group_name_H-M "P -1"
_symmetry_group_IT_number 2
_symmetry_cell_setting 'triclinic'
loop_
_space_group_symop_operation_xyz
x,y,z
-x,-y,-z
loop_
_atom_site_type_symbol
_atom_site_label
_atom_site_fract_x
_atom_site_fract_y
_atom_site_fract_z
Si Si1 0.517521 0.842033 0.913933
Si Si2 0.645822 0.219425 0.418223
Si Si3 0.881469 0.113824 0.069896
Si Si4 0.849152 0.397219 0.804182
Si Si5 0.045149 0.805209 0.383762
Si Si6 0.365242 0.147544 0.715939
Si Si7 0.088721 0.730214 0.734417
Si Si8 0.723052 0.906222 0.670731
O O1 0.430910 0.975554 0.824845
O O2 0.647571 0.921948 0.802936
O O3 0.500000 0.500000 0.000000
O O4 0.500000 0.000000 0.000000
O O5 0.590301 0.521599 0.371204
O O6 0.782879 0.327893 0.331332
O O7 0.648865 0.034251 0.568555
O O8 0.615361 0.008106 0.372746
O O9 0.918981 0.289900 0.127463
O O10 0.775854 0.900467 0.197492
O O11 0.816855 0.282293 0.959022
O O12 0.000000 0.000000 0.000000
O O13 0.886075 0.164034 0.760774
O O14 0.975366 0.571039 0.748977
O O15 0.757724 0.584619 0.731026
O O16 0.147232 0.927156 0.405208
O O17 0.000000 0.500000 0.500000
O O18 0.927422 0.955734 0.366967
#
# Coordination Sequence:
#
# PCOD9021373 Si02
#       8
#     2   2   2   2   2   2   2   2
#     4  12  29  53  81 109 147 189 248 310 369 430
#     4  11  25  46  71 105 145 187 244 291 372 433
#     4  11  21  37  65  96 140 186 237 297 365 436
#     4  11  22  39  62 100 141 184 249 286 366 439
#     4  11  23  39  67 102 146 187 243 295 362 438
#     4  11  27  46  72 106 144 191 239 306 359 438
#     4  10  22  38  61 100 138 195 229 304 358 433
#     4  11  28  43  74 104 141 200 242 310 363 440
#
# _framework density 24.383865
#
# number of rings (size 3 to 8) (size 9 to 14) (size 15 to 20)
#    0.000    1.000    1.250    4.125   10.500    5.000 
#    0.000    0.000    0.000    0.000    0.000    0.000 
#    0.000    0.000    0.000    0.000    0.000    0.000 
#
# Total GULP energy -89390.876970 kJ/mol
# GULP energy per Si atom -5586.929811 kJ/mol
# Density = 2.432837 g / cm^3
# Si number density = 24.383865 Si / 1000 Ang^3
#
#
#
# Elastic Constant Matrix: (Units=GPa)
#
#
# Indices 1 2 3 4 5 6 
#
# 1 79.7877 26.2596 38.7301 -10.8223 9.3382 -12.5141
# 2 26.2596 115.6360 77.0052 -10.4913 26.3160 -13.1166
# 3 38.7301 77.0052 160.4131 10.3219 29.6145 0.3163
# 4 -10.8223 -10.4913 10.3219 47.1514 -7.2100 2.9208
# 5 9.3382 26.3160 29.6145 -7.2100 54.2690 2.9397
# 6 -12.5141 -13.1166 0.3163 2.9208 2.9397 26.1888
#
#
#
# Elastic Compliance Matrix: (Units=1/GPa)
#
#
# Indices 1 2 3 4 5 6 
#
# 1 0.016346 0.000647 -0.004448 0.004304 -0.000548 0.007770
# 2 0.000647 0.015350 -0.007149 0.004090 -0.003545 0.008025
# 3 -0.004448 -0.007149 0.011545 -0.005211 -0.002490 -0.004985
# 4 0.004304 0.004090 -0.005211 0.024694 0.003344 0.001039
# 5 -0.000548 -0.003545 -0.002490 0.003344 0.022308 -0.004884
# 6 0.007770 0.008025 -0.004985 0.001039 -0.004884 0.046409
#
#
# Mechanical properties :
#
#
# Convention : Reuss Voigt Hill
#
# Bulk Modulus (GPa) = 46.86205 71.09185 58.97695
# Shear Modulus (GPa) = 30.18115 39.77795 34.97955
#
# Velocity S-wave (km/s) = 3.52198 4.04335 3.79164
# Velocity P-wave (km/s) = 5.98326 7.14260 6.58848
#
# Compressibility (1/GPa) = 0.02133923
#
# Stress axis : x y z
#
# Youngs Moduli (GPa) = 61.17592 65.14682 86.62000
#
# Poissons Ratio (x) = -0.04213 0.38531
# Poissons Ratio (y) = -0.03956 0.61928
# Poissons Ratio (z) = 0.27212 0.46576
#
# Static dielectric constant tensor:
#      x y z
#    x 1.946150 -0.006030 -0.027010 
#    y -0.006030 2.027420 -0.012070 
#    z -0.027010 -0.012070 1.948130 
# 
# From -- ./inp_files/409842.got.cif
#   From: 2010.05.17/outbox.cif.g08.bks.cpg/sg2_205_cif.got.tgz:409842.got - 2010.06.03 11:33:40.
