data_PCOD9021756
_publ_section_title
;
Structure prediction by ZEFSAII (Michael W. Deem and Ramdas Pophale) SiO2 
 PCOD9021756
Probable space group: P -1
;
_chemical_formula_sum "Si O2"
_cell_formula_units_Z 16
_cell_length_a 25.805184
_cell_length_b 13.139570
_cell_length_c 13.189861
_cell_angle_alpha 148.218088
_cell_angle_beta 31.970347
_cell_angle_gamma 161.637863
_cell_volume 718.393393
_symmetry_space_group_name_H-M "P -1"
_symmetry_group_IT_number 2
_symmetry_cell_setting 'triclinic'
loop_
_space_group_symop_operation_xyz
x,y,z
-x,-y,-z
loop_
_atom_site_type_symbol
_atom_site_label
_atom_site_fract_x
_atom_site_fract_y
_atom_site_fract_z
Si Si1 0.050784 0.280406 0.907120
Si Si2 0.354108 0.843224 0.533738
Si Si3 0.566002 0.739811 0.937518
Si Si4 0.244323 0.029506 0.976849
Si Si5 0.188091 0.855003 0.303370
Si Si6 0.591650 0.254335 0.320991
Si Si7 0.131737 0.380202 0.326601
Si Si8 0.604495 0.027474 0.774859
O O1 0.209813 0.422054 0.718037
O O2 0.936546 0.937905 0.861982
O O3 0.112567 0.546582 0.106344
O O4 0.939604 0.184988 0.920269
O O5 0.227791 0.521768 0.397015
O O6 0.500000 0.000000 0.500000
O O7 0.243330 0.809020 0.753095
O O8 0.471114 0.142854 0.512040
O O9 0.383325 0.365785 0.960446
O O10 0.662684 0.829176 0.751481
O O11 0.687862 0.868188 0.935618
O O12 0.557178 0.961984 0.132253
O O13 0.286792 0.943574 0.314420
O O14 0.028499 0.734499 0.490357
O O15 0.542528 0.274683 0.314510
O O16 0.261722 0.661703 0.263119
O O17 0.500000 0.000000 0.000000
#
# Coordination Sequence:
#
# PCOD9021756 Si02
#       8
#     2   2   2   2   2   2   2   2
#     4  11  24  41  66  93 132 165 212 260 323 373
#     4  11  22  39  65  91 130 172 214 261 316 380
#     4  10  22  38  65  90 130 165 221 252 320 379
#     4  11  22  39  64  96 127 173 212 262 318 379
#     4  11  24  46  66  94 129 174 210 267 320 378
#     4  10  22  42  62  94 128 167 212 267 317 380
#     4  11  26  44  64  99 132 163 218 266 313 383
#     4  11  21  43  72  91 129 169 211 268 323 373
#
# _framework density 22.271920999999999
#
# number of rings (size 3 to 8) (size 9 to 14) (size 15 to 20)
#    0.000    1.250    5.000    1.875    3.500    3.500 
#    0.000    1.875    0.000    0.000    0.000    0.000 
#    0.000    0.000    0.000    0.000    0.000    0.000 
#
# Total GULP energy -89277.556488 kJ/mol
# GULP energy per Si atom -5579.847280 kJ/mol
# Density = 2.222123 g / cm^3
# Si number density = 22.271921 Si / 1000 Ang^3
#
#
#
# Elastic Constant Matrix: (Units=GPa)
#
#
# Indices 1 2 3 4 5 6 
#
# 1 144.5191 43.6479 31.5328 -10.2675 6.2889 34.8263
# 2 43.6479 65.6014 10.6808 -1.8595 -5.4163 11.2452
# 3 31.5328 10.6808 43.6082 -10.7976 -6.8731 2.0599
# 4 -10.2675 -1.8595 -10.7976 35.8277 0.1885 -8.9456
# 5 6.2889 -5.4163 -6.8731 0.1885 31.0788 -12.6981
# 6 34.8263 11.2452 2.0599 -8.9456 -12.6981 45.0367
#
#
#
# Elastic Compliance Matrix: (Units=1/GPa)
#
#
# Indices 1 2 3 4 5 6 
#
# 1 0.014968 -0.006958 -0.011055 -0.002652 -0.012091 -0.013267
# 2 -0.006958 0.019856 0.000952 -0.000208 0.005898 0.002001
# 3 -0.011055 0.000952 0.035160 0.010691 0.015506 0.013198
# 4 -0.002652 -0.000208 0.010691 0.032835 0.006770 0.010044
# 5 -0.012091 0.005898 0.015506 0.006770 0.048052 0.022061
# 6 -0.013267 0.002001 0.013198 0.010044 0.022061 0.039575
#
#
# Mechanical properties :
#
#
# Convention : Reuss Voigt Hill
#
# Bulk Modulus (GPa) = 27.88516 47.27240 37.57878
# Shear Modulus (GPa) = 21.13963 33.57981 27.35972
#
# Velocity S-wave (km/s) = 3.08419 3.88715 3.50871
# Velocity P-wave (km/s) = 5.02299 6.43566 5.77270
#
# Compressibility (1/GPa) = 0.03586137
#
# Stress axis : x y z
#
# Youngs Moduli (GPa) = 66.80949 50.36162 28.44180
#
# Poissons Ratio (x) = 0.35043 0.31441
# Poissons Ratio (y) = 0.46488 -0.02707
# Poissons Ratio (z) = 0.73855 -0.04792
#
# Static dielectric constant tensor:
#      x y z
#    x 1.843670 0.019260 0.000140 
#    y 0.019260 1.887170 0.062910 
#    z 0.000140 0.062910 1.862850 
# 
# From -- ./inp_files/237881.got.cif
#   From: 2010.05.17/outbox.cif.g08.bks.cpg/sg2_119_cif.got.tgz:237881.got - 2010.06.03 11:33:40.
