data_PCOD9021983
_publ_section_title
;
Structure prediction by ZEFSAII (Michael W. Deem and Ramdas Pophale) SiO2 
 PCOD9021983
Probable space group: P -1
;
_chemical_formula_sum "Si O2"
_cell_formula_units_Z 16
_cell_length_a 11.904643
_cell_length_b 14.969522
_cell_length_c 8.337073
_cell_angle_alpha 146.039997
_cell_angle_beta 104.053873
_cell_angle_gamma 80.804386
_cell_volume 802.727012
_symmetry_space_group_name_H-M "P -1"
_symmetry_group_IT_number 2
_symmetry_cell_setting 'triclinic'
loop_
_space_group_symop_operation_xyz
x,y,z
-x,-y,-z
loop_
_atom_site_type_symbol
_atom_site_label
_atom_site_fract_x
_atom_site_fract_y
_atom_site_fract_z
Si Si1 0.350276 0.295485 0.785875
Si Si2 0.397309 0.956044 0.273289
Si Si3 0.222131 0.160498 0.858470
Si Si4 0.454350 0.497706 0.665530
Si Si5 0.168194 0.832147 0.192980
Si Si6 0.464347 0.152733 0.119540
Si Si7 0.952282 0.676027 0.735489
Si Si8 0.770378 0.511608 0.230699
O O1 0.365270 0.128199 0.451077
O O2 0.271458 0.243036 0.834812
O O3 0.297590 0.426705 0.852190
O O4 0.471414 0.370498 0.010415
O O5 0.500000 0.000000 0.500000
O O6 0.287277 0.875310 0.204798
O O7 0.446256 0.842111 0.989841
O O8 0.334512 0.137873 0.976822
O O9 0.160048 0.985685 0.533481
O O10 0.134057 0.272561 0.078842
O O11 0.500000 0.500000 0.500000
O O12 0.319020 0.507409 0.676765
O O13 0.479148 0.319075 0.466004
O O14 0.179627 0.661911 0.031994
O O15 0.063543 0.801033 0.983264
O O16 0.500000 0.000000 0.000000
O O17 0.870571 0.651355 0.515041
O O18 0.000000 0.500000 0.500000
#
# Coordination Sequence:
#
# PCOD9021983 Si02
#       8
#     2   2   2   2   2   2   2   2
#     4  11  23  37  61  90 127 159 200 252 305 369
#     4  11  20  40  60  89 126 160 196 246 314 364
#     4  11  22  43  62  90 124 162 200 252 312 360
#     4  12  21  37  58  91 126 165 199 244 306 363
#     4  10  22  38  68  84 119 163 205 246 303 365
#     4  12  24  36  61  93 129 157 198 249 305 368
#     4  10  22  43  65  87 117 163 211 253 298 362
#     4  11  22  38  60  91 120 160 208 250 299 357
#
# _framework density 19.932055999999999
#
# number of rings (size 3 to 8) (size 9 to 14) (size 15 to 20)
#    0.000    1.000    5.000    3.000    1.750    1.000 
#    0.000    5.000    2.750    0.000    0.000    0.000 
#    0.000    0.000    0.000    0.000    0.000    0.000 
#
# Total GULP energy -89263.569917 kJ/mol
# GULP energy per Si atom -5578.973120 kJ/mol
# Density = 1.988669 g / cm^3
# Si number density = 19.932056 Si / 1000 Ang^3
#
#
#
# Elastic Constant Matrix: (Units=GPa)
#
#
# Indices 1 2 3 4 5 6 
#
# 1 89.6126 16.8518 32.4563 -6.2536 5.4692 -12.7505
# 2 16.8518 75.0301 11.9997 8.9352 7.7972 -3.9459
# 3 32.4563 11.9997 131.4966 18.6680 0.1329 -7.8039
# 4 -6.2536 8.9352 18.6680 26.7667 -8.8270 4.2368
# 5 5.4692 7.7972 0.1329 -8.8270 47.0926 -2.1414
# 6 -12.7505 -3.9459 -7.8039 4.2368 -2.1414 16.7879
#
#
#
# Elastic Compliance Matrix: (Units=1/GPa)
#
#
# Indices 1 2 3 4 5 6 
#
# 1 0.014484 -0.003022 -0.003724 0.005956 0.000267 0.007090
# 2 -0.003022 0.015388 0.000668 -0.007985 -0.003550 0.003195
# 3 -0.003724 0.000668 0.010005 -0.009130 -0.001230 0.004127
# 4 0.005956 -0.007985 -0.009130 0.053266 0.010014 -0.013763
# 5 0.000267 -0.003550 -0.001230 0.010014 0.023640 -0.000715
# 6 0.007090 0.003195 0.004127 -0.013763 -0.000715 0.071004
#
#
# Mechanical properties :
#
#
# Convention : Reuss Voigt Hill
#
# Bulk Modulus (GPa) = 36.07227 46.52833 41.30030
# Shear Modulus (GPa) = 23.90259 33.78489 28.84374
#
# Velocity S-wave (km/s) = 3.46671 4.12151 3.80821
# Velocity P-wave (km/s) = 5.84474 6.78552 6.33262
#
# Compressibility (1/GPa) = 0.02772212
#
# Stress axis : x y z
#
# Youngs Moduli (GPa) = 69.03934 64.98708 99.94652
#
# Poissons Ratio (x) = 0.19638 0.37224
# Poissons Ratio (y) = 0.20862 -0.06681
# Poissons Ratio (z) = 0.25713 -0.04344
#
# Static dielectric constant tensor:
#      x y z
#    x 1.712370 0.006000 0.000610 
#    y 0.006000 1.734960 0.012030 
#    z 0.000610 0.012030 1.728990 
# 
# From -- ./inp_files/184857.got.cif
#   From: 2010.05.17/outbox.cif.g08.bks.cpg/sg2_93_cif.got.tgz:184857.got - 2010.06.03 11:33:40.
