data_PCOD9021823
_publ_section_title
;
Structure prediction by ZEFSAII (Michael W. Deem and Ramdas Pophale) SiO2 
 PCOD9021823
Probable space group: P -1
;
_chemical_formula_sum "Si O2"
_cell_formula_units_Z 15
_cell_length_a 17.056949
_cell_length_b 19.862665
_cell_length_c 9.426680
_cell_angle_alpha 127.263612
_cell_angle_beta 39.942613
_cell_angle_gamma 157.780882
_cell_volume 700.212383
_symmetry_space_group_name_H-M "P -1"
_symmetry_group_IT_number 2
_symmetry_cell_setting 'triclinic'
loop_
_space_group_symop_operation_xyz
x,y,z
-x,-y,-z
loop_
_atom_site_type_symbol
_atom_site_label
_atom_site_fract_x
_atom_site_fract_y
_atom_site_fract_z
Si Si1 0.128715 0.955909 0.244824
Si Si2 0.331082 0.895899 0.953045
Si Si3 0.746651 0.525599 0.416845
Si Si4 0.277448 0.435001 0.184434
Si Si5 0.635082 0.813114 0.052504
Si Si6 0.500000 0.500000 0.500000
Si Si7 0.703248 0.005609 0.397285
Si Si8 0.810057 0.933471 0.389389
O O1 0.811845 0.743137 0.352696
O O2 0.109684 0.986491 0.463270
O O3 0.279986 0.959994 0.057258
O O4 0.318494 0.133705 0.106907
O O5 0.493186 0.944889 0.670834
O O6 0.018694 0.664338 0.128504
O O7 0.500000 0.000000 0.000000
O O8 0.828856 0.598328 0.557219
O O9 0.633876 0.537163 0.503829
O O10 0.494394 0.300937 0.487698
O O11 0.431084 0.607181 0.107625
O O12 0.004089 0.232049 0.217491
O O13 0.500000 0.500000 0.000000
O O14 0.562429 0.853697 0.287376
O O15 0.945192 0.977107 0.885870
O O16 0.793664 0.004103 0.402607
#
# Coordination Sequence:
#
# PCOD9021823 Si02
#       8
#     2   2   2   2   2   1   2   2
#     4  11  25  43  70 101 139 177 226 287 338 402
#     4  11  23  47  71  94 132 188 236 271 331 411
#     4  11  23  40  68 105 129 178 231 275 342 400
#     4  12  24  39  69 101 138 180 222 275 352 404
#     4  12  26  42  66 106 141 172 223 286 352 398
#     4  10  22  38  66 100 132 166 230 278 338 388
#     4  12  24  45  71  95 139 182 228 283 330 409
#     4  12  22  42  70 102 136 174 225 288 339 400
#
# _framework density 21.422072
#
# number of rings (size 3 to 8) (size 9 to 14) (size 15 to 20)
#    0.000    0.533    6.667    2.400    0.000    1.067 
#    4.800    0.667    0.000    0.000    0.000    0.000 
#    0.000    0.000    0.000    0.000    0.000    0.000 
#
# Total GULP energy -83676.184815 kJ/mol
# GULP energy per Si atom -5578.412321 kJ/mol
# Density = 2.137331 g / cm^3
# Si number density = 21.422072 Si / 1000 Ang^3
#
#
#
# Elastic Constant Matrix: (Units=GPa)
#
#
# Indices 1 2 3 4 5 6 
#
# 1 58.8695 8.3516 -5.9913 -2.2566 13.8348 -12.3816
# 2 8.3516 99.4236 9.7939 -19.7811 4.8961 -39.3891
# 3 -5.9913 9.7939 71.0654 9.6901 -6.5800 -18.6919
# 4 -2.2566 -19.7811 9.6901 37.0418 -7.6325 11.2770
# 5 13.8348 4.8961 -6.5800 -7.6325 34.4920 0.1258
# 6 -12.3816 -39.3891 -18.6919 11.2770 0.1258 25.9005
#
#
#
# Elastic Compliance Matrix: (Units=1/GPa)
#
#
# Indices 1 2 3 4 5 6 
#
# 1 0.032005 0.017398 0.016725 -0.014707 -0.015591 0.060308
# 2 0.017398 0.040029 0.019941 -0.012333 -0.011910 0.089012
# 3 0.016725 0.019941 0.033629 -0.020555 -0.007933 0.071579
# 4 -0.014707 -0.012333 -0.020555 0.046351 0.014207 -0.060871
# 5 -0.015591 -0.011910 -0.007933 0.014207 0.038704 -0.037665
# 6 0.060308 0.089012 0.071579 -0.060871 -0.037665 0.281151
#
#
# Mechanical properties :
#
#
# Convention : Reuss Voigt Hill
#
# Bulk Modulus (GPa) = 4.67747 28.18522 16.43135
# Shear Modulus (GPa) = 11.49416 33.96715 22.73066
#
# Velocity S-wave (km/s) = 2.31888 3.98630 3.26097
# Velocity P-wave (km/s) = 3.05906 5.86286 4.67605
#
# Compressibility (1/GPa) = 0.21379070
#
# Stress axis : x y z
#
# Youngs Moduli (GPa) = 31.24526 24.98179 29.73659
#
# Poissons Ratio (x) = -0.43464 -0.49733
# Poissons Ratio (y) = -0.54361 -0.59299
# Poissons Ratio (z) = -0.52257 -0.49817
#
# Static dielectric constant tensor:
#      x y z
#    x 1.763130 -0.013210 0.013860 
#    y -0.013210 1.816630 0.000460 
#    z 0.013860 0.000460 1.798530 
# 
# From -- ./inp_files/255708.got.cif
#   From: 2010.05.17/outbox.cif.g08.bks.cpg/sg2_128_cif.got.tgz:255708.got - 2010.06.03 11:33:40.
