data_PCOD9021434
_publ_section_title
;
Structure prediction by ZEFSAII (Michael W. Deem and Ramdas Pophale) SiO2 
 PCOD9021434
Probable space group: P -1
;
_chemical_formula_sum "Si O2"
_cell_formula_units_Z 16
_cell_length_a 9.093102
_cell_length_b 16.373208
_cell_length_c 9.445787
_cell_angle_alpha 103.965729
_cell_angle_beta 72.580460
_cell_angle_gamma 47.540473
_cell_volume 768.819415
_symmetry_space_group_name_H-M "P -1"
_symmetry_group_IT_number 2
_symmetry_cell_setting 'triclinic'
loop_
_space_group_symop_operation_xyz
x,y,z
-x,-y,-z
loop_
_atom_site_type_symbol
_atom_site_label
_atom_site_fract_x
_atom_site_fract_y
_atom_site_fract_z
Si Si1 0.557395 0.536103 0.869543
Si Si2 0.173855 0.962835 0.555628
Si Si3 0.004504 0.159716 0.926231
Si Si4 0.645457 0.866138 0.304676
Si Si5 0.795884 0.188639 0.268675
Si Si6 0.990137 0.442354 0.844608
Si Si7 0.187389 0.459110 0.542295
Si Si8 0.225367 0.620479 0.546938
O O1 0.707347 0.549913 0.900105
O O2 0.736523 0.416790 0.645089
O O3 0.500000 0.500000 0.000000
O O4 0.280572 0.674223 0.933168
O O5 0.427036 0.889373 0.371981
O O6 0.209648 0.878354 0.634864
O O7 0.045155 0.094884 0.738231
O O8 0.000000 0.000000 0.500000
O O9 0.228842 0.132551 0.856248
O O10 0.984872 0.104843 0.041821
O O11 0.890127 0.703349 0.223744
O O12 0.500000 0.000000 0.500000
O O13 0.493739 0.324875 0.358654
O O14 0.877212 0.241356 0.340338
O O15 0.162965 0.415086 0.670040
O O16 0.000000 0.500000 0.000000
O O17 0.090011 0.598278 0.643772
O O18 0.000000 0.500000 0.500000
O O19 0.500000 0.500000 0.500000
#
# Coordination Sequence:
#
# PCOD9021434 Si02
#       8
#     2   2   2   2   2   2   2   2
#     4  12  24  38  65 102 130 174 219 274 335 404
#     4  11  26  45  69  93 130 179 229 275 332 405
#     4  11  23  44  67  95 135 172 227 269 337 403
#     4  10  24  45  64  93 135 178 217 273 337 395
#     4  11  23  42  69  94 132 175 221 273 339 399
#     4  12  26  38  68 100 137 173 225 283 337 394
#     4  11  21  41  62  97 135 170 215 275 338 400
#     4  10  22  38  61  92 134 165 213 267 339 393
#
# _framework density 20.811129000000001
#
# number of rings (size 3 to 8) (size 9 to 14) (size 15 to 20)
#    0.000    1.000    6.250    0.375    8.750    0.000 
#    0.000    0.625    0.000    0.000    0.000    0.000 
#    0.000    0.000    0.000    0.000    0.000    0.000 
#
# Total GULP energy -89125.552086 kJ/mol
# GULP energy per Si atom -5570.347005 kJ/mol
# Density = 2.076376 g / cm^3
# Si number density = 20.811129 Si / 1000 Ang^3
#
#
#
# Elastic Constant Matrix: (Units=GPa)
#
#
# Indices 1 2 3 4 5 6 
#
# 1 137.1909 22.9969 44.6536 -16.9538 -15.1190 5.9025
# 2 22.9969 59.5896 25.5457 -16.1415 -10.3125 14.1648
# 3 44.6536 25.5457 92.7300 -26.6502 -12.7084 0.3853
# 4 -16.9538 -16.1415 -26.6502 35.1565 9.9984 -2.2179
# 5 -15.1190 -10.3125 -12.7084 9.9984 47.8478 -10.2659
# 6 5.9025 14.1648 0.3853 -2.2179 -10.2659 34.8831
#
#
#
# Elastic Compliance Matrix: (Units=1/GPa)
#
#
# Indices 1 2 3 4 5 6 
#
# 1 0.008923 -0.001429 -0.003563 0.000532 0.001356 -0.000457
# 2 -0.001429 0.022675 -0.003661 0.006319 0.000335 -0.008425
# 3 -0.003563 -0.003661 0.016154 0.008693 0.001161 0.002806
# 4 0.000532 0.006319 0.008693 0.039441 -0.004755 -0.001644
# 5 0.001356 0.000335 0.001161 -0.004755 0.024077 0.006405
# 6 -0.000457 -0.008425 0.002806 -0.001644 0.006405 0.033915
#
#
# Mechanical properties :
#
#
# Convention : Reuss Voigt Hill
#
# Bulk Modulus (GPa) = 32.84479 52.87811 42.86145
# Shear Modulus (GPa) = 28.96217 36.66511 32.81364
#
# Velocity S-wave (km/s) = 3.73455 4.20194 3.97512
# Velocity P-wave (km/s) = 5.86621 7.00039 6.45825
#
# Compressibility (1/GPa) = 0.03044623
#
# Stress axis : x y z
#
# Youngs Moduli (GPa) = 112.06916 44.10155 61.90379
#
# Poissons Ratio (x) = 0.06301 0.22054
# Poissons Ratio (y) = 0.16013 0.22666
# Poissons Ratio (z) = 0.39926 0.16148
#
# Static dielectric constant tensor:
#      x y z
#    x 1.768800 0.011810 0.025020 
#    y 0.011810 1.491420 0.118500 
#    z 0.025020 0.118500 1.829570 
# 
# From -- ./inp_files/207656.got.cif
#   From: 2010.05.17/outbox.cif.g08.bks.cpg/sg2_104_cif.got.tgz:207656.got - 2010.06.03 11:33:40.
