data_PCOD9021986
_publ_section_title
;
Structure prediction by ZEFSAII (Michael W. Deem and Ramdas Pophale) SiO2 
 PCOD9021986
Probable space group: P -1
;
_chemical_formula_sum "Si O2"
_cell_formula_units_Z 16
_cell_length_a 14.950864
_cell_length_b 9.155864
_cell_length_c 20.551647
_cell_angle_alpha 38.432815
_cell_angle_beta 142.402971
_cell_angle_gamma 150.367472
_cell_volume 805.796707
_symmetry_space_group_name_H-M "P -1"
_symmetry_group_IT_number 2
_symmetry_cell_setting 'triclinic'
loop_
_space_group_symop_operation_xyz
x,y,z
-x,-y,-z
loop_
_atom_site_type_symbol
_atom_site_label
_atom_site_fract_x
_atom_site_fract_y
_atom_site_fract_z
Si Si1 0.937374 0.085480 0.182251
Si Si2 0.028158 0.431292 0.612760
Si Si3 0.868054 0.977137 0.323265
Si Si4 0.269082 0.229580 0.959191
Si Si5 0.284136 0.765527 0.177833
Si Si6 0.316121 0.649745 0.502314
Si Si7 0.688908 0.542477 0.578128
Si Si8 0.269047 0.754138 0.756904
O O1 0.125585 0.447022 0.158494
O O2 0.843142 0.046646 0.211458
O O3 0.800769 0.944584 0.089973
O O4 0.994705 0.872243 0.297004
O O5 0.865974 0.372410 0.585613
O O6 0.000000 0.500000 0.500000
O O7 0.222780 0.699507 0.671583
O O8 0.723845 0.610789 0.381902
O O9 0.830052 0.138657 0.298397
O O10 0.091837 0.121286 0.408449
O O11 0.196972 0.422376 0.856573
O O12 0.500000 0.500000 0.000000
O O13 0.219853 0.970290 0.071443
O O14 0.300349 0.659761 0.294064
O O15 0.498540 0.978972 0.195644
O O16 0.332237 0.564313 0.469902
O O17 0.500000 0.000000 0.500000
O O18 0.500000 0.500000 0.500000
#
# Coordination Sequence:
#
# PCOD9021986 Si02
#       8
#     2   2   2   2   2   2   2   2
#     4  10  22  39  66  89 126 161 208 259 317 369
#     4  11  23  40  59  89 128 172 205 256 316 370
#     4  11  23  43  60  94 127 168 208 261 316 369
#     4   9  20  42  66  91 119 164 210 255 316 377
#     4  10  22  38  68  91 121 163 214 254 317 370
#     4  12  27  36  59  92 132 164 216 254 308 379
#     4  11  25  41  64  92 128 172 209 253 314 378
#     4  10  22  40  67  87 126 166 212 262 313 372
#
# _framework density 19.856124999999999
#
# number of rings (size 3 to 8) (size 9 to 14) (size 15 to 20)
#    0.000    1.500    2.500    1.500    8.750    1.000 
#    0.000    5.000    2.750    0.000    0.000    0.000 
#    0.000    0.000    0.000    0.000    0.000    0.000 
#
# Total GULP energy -89277.864473 kJ/mol
# GULP energy per Si atom -5579.866530 kJ/mol
# Density = 1.981093 g / cm^3
# Si number density = 19.856125 Si / 1000 Ang^3
#
#
#
# Elastic Constant Matrix: (Units=GPa)
#
#
# Indices 1 2 3 4 5 6 
#
# 1 84.3918 32.0922 14.8282 0.1669 -3.2775 -2.0995
# 2 32.0922 156.1959 45.5762 -1.2983 -5.7928 1.5056
# 3 14.8282 45.5762 104.8210 -13.4507 -2.0422 2.6301
# 4 0.1669 -1.2983 -13.4507 34.4521 -4.5120 1.4058
# 5 -3.2775 -5.7928 -2.0422 -4.5120 21.0807 0.3321
# 6 -2.0995 1.5056 2.6301 1.4058 0.3321 18.8281
#
#
#
# Elastic Compliance Matrix: (Units=1/GPa)
#
#
# Indices 1 2 3 4 5 6 
#
# 1 0.013004 -0.002394 -0.000874 -0.000414 0.001163 0.001774
# 2 -0.002394 0.007856 -0.003133 -0.000723 0.001335 -0.000427
# 3 -0.000874 -0.003133 0.011696 0.004681 0.001167 -0.001851
# 4 -0.000414 -0.000723 0.004681 0.031881 0.007064 -0.003147
# 5 0.001163 0.001335 0.001167 0.007064 0.049634 -0.001543
# 6 0.001774 -0.000427 -0.001851 -0.003147 -0.001543 0.053865
#
#
# Mechanical properties :
#
#
# Convention : Reuss Voigt Hill
#
# Bulk Modulus (GPa) = 50.62432 58.93357 54.77895
# Shear Modulus (GPa) = 26.69207 31.73298 29.21253
#
# Velocity S-wave (km/s) = 3.67041 4.00202 3.83980
# Velocity P-wave (km/s) = 6.59647 7.14840 6.87798
#
# Compressibility (1/GPa) = 0.01975335
#
# Stress axis : x y z
#
# Youngs Moduli (GPa) = 76.90197 127.29144 85.50105
#
# Poissons Ratio (x) = 0.30477 0.07469
# Poissons Ratio (y) = 0.18412 0.26789
# Poissons Ratio (z) = 0.06718 0.39883
#
# Static dielectric constant tensor:
#      x y z
#    x 1.670530 0.000090 0.002940 
#    y 0.000090 1.750350 0.014910 
#    z 0.002940 0.014910 1.776760 
# 
# From -- ./inp_files/201896.got.cif
#   From: 2010.05.17/outbox.cif.g08.bks.cpg/sg2_101_cif.got.tgz:201896.got - 2010.06.03 11:33:40.
