data_PCOD9021833
_publ_section_title
;
Structure prediction by ZEFSAII (Michael W. Deem and Ramdas Pophale) SiO2 
 PCOD9021833
Probable space group: P -1
;
_chemical_formula_sum "Si O2"
_cell_formula_units_Z 15
_cell_length_a 11.184618
_cell_length_b 11.635929
_cell_length_c 13.484694
_cell_angle_alpha 58.346716
_cell_angle_beta 21.547215
_cell_angle_gamma 65.960132
_cell_volume 530.044498
_symmetry_space_group_name_H-M "P -1"
_symmetry_group_IT_number 2
_symmetry_cell_setting 'triclinic'
loop_
_space_group_symop_operation_xyz
x,y,z
-x,-y,-z
loop_
_atom_site_type_symbol
_atom_site_label
_atom_site_fract_x
_atom_site_fract_y
_atom_site_fract_z
Si Si1 0.608548 0.255193 0.224237
Si Si2 0.737955 0.906990 0.823602
Si Si3 0.769250 0.706784 0.170243
Si Si4 0.900555 0.575801 0.638839
Si Si5 0.387620 0.916840 0.410668
Si Si6 0.500000 0.000000 0.500000
Si Si7 0.446535 0.487093 0.382089
Si Si8 0.473132 0.218597 0.139594
O O1 0.548058 0.388490 0.265437
O O2 0.714999 0.286167 0.014419
O O3 0.319320 0.112984 0.523247
O O4 0.872009 0.192627 0.116443
O O5 0.546665 0.770172 0.969339
O O6 0.980839 0.879372 0.735595
O O7 0.000000 0.000000 0.500000
O O8 0.500000 0.000000 0.000000
O O9 0.497950 0.792451 0.328454
O O10 0.760117 0.606010 0.129979
O O11 0.686174 0.607892 0.376230
O O12 0.858730 0.733214 0.591234
O O13 0.000000 0.500000 0.500000
O O14 0.164916 0.559159 0.525514
O O15 0.500000 0.500000 0.000000
O O16 0.572705 0.935525 0.364393
O O17 0.506037 0.062937 0.197869
#
# Coordination Sequence:
#
# PCOD9021833 Si02
#       8
#     2   2   2   2   2   1   2   2
#     4  11  22  44  68 105 143 186 246 301 370 440
#     4  10  23  43  66  99 139 183 229 285 357 427
#     4  11  24  43  70 102 142 194 242 298 371 440
#     4  12  26  47  72 106 144 191 246 302 366 438
#     4  10  22  42  66 102 140 179 241 291 369 433
#     4  10  22  38  66 102 140 178 230 298 370 426
#     4  11  24  45  69 100 147 188 249 299 365 442
#     4  10  23  44  70 103 138 187 237 306 362 428
#
# _framework density 28.299512
#
# number of rings (size 3 to 8) (size 9 to 14) (size 15 to 20)
#    0.000    1.333    2.667    2.000    0.000    7.467 
#    4.800    0.000    0.000    0.000    0.000    0.000 
#    0.000    0.000    0.000    0.000    0.000    0.000 
#
# Total GULP energy -83646.664713 kJ/mol
# GULP energy per Si atom -5576.444314 kJ/mol
# Density = 2.823510 g / cm^3
# Si number density = 28.299512 Si / 1000 Ang^3
#
#
#
# Elastic Constant Matrix: (Units=GPa)
#
#
# Indices 1 2 3 4 5 6 
#
# 1 138.6146 62.8646 34.4802 10.6918 -26.4342 34.8019
# 2 62.8646 148.7504 30.4864 32.6642 -11.2388 2.5482
# 3 34.4802 30.4864 108.3140 29.3229 -6.3187 4.1919
# 4 10.6918 32.6642 29.3229 50.9768 -9.7920 5.2403
# 5 -26.4342 -11.2388 -6.3187 -9.7920 40.0089 5.8173
# 6 34.8019 2.5482 4.1919 5.2403 5.8173 71.6477
#
#
#
# Elastic Compliance Matrix: (Units=1/GPa)
#
#
# Indices 1 2 3 4 5 6 
#
# 1 0.013775 -0.005408 -0.003410 0.005102 0.009373 -0.007434
# 2 -0.005408 0.010078 0.000328 -0.006325 -0.002664 0.002928
# 3 -0.003410 0.000328 0.011912 -0.006941 -0.002216 0.001635
# 4 0.005102 -0.006325 -0.006941 0.028636 0.008176 -0.004605
# 5 0.009373 -0.002664 -0.002216 0.008176 0.033199 -0.007622
# 6 -0.007434 0.002928 0.001635 -0.004605 -0.007622 0.018324
#
#
# Mechanical properties :
#
#
# Convention : Reuss Voigt Hill
#
# Bulk Modulus (GPa) = 53.22678 72.37125 62.79902
# Shear Modulus (GPa) = 35.92876 50.38321 43.15599
#
# Velocity S-wave (km/s) = 3.56700 4.22400 3.90933
# Velocity P-wave (km/s) = 5.98446 7.02983 6.52810
#
# Compressibility (1/GPa) = 0.01878753
#
# Stress axis : x y z
#
# Youngs Moduli (GPa) = 72.59423 99.22375 83.94933
#
# Poissons Ratio (x) = 0.53656 0.28625
# Poissons Ratio (y) = 0.39256 -0.02757
# Poissons Ratio (z) = 0.24753 -0.03259
#
# Static dielectric constant tensor:
#      x y z
#    x 2.291760 -0.053440 0.083710 
#    y -0.053440 2.162760 0.132160 
#    z 0.083710 0.132160 1.905340 
# 
# From -- ./inp_files/368871.got.cif
#   From: 2010.05.17/outbox.cif.g08.bks.cpg/sg2_185_cif.got.tgz:368871.got - 2010.06.03 11:33:40.
