data_PCOD9021849
_publ_section_title
;
Structure prediction by ZEFSAII (Michael W. Deem and Ramdas Pophale) SiO2 
 PCOD9021849
Probable space group: P -1
;
_chemical_formula_sum "Si O2"
_cell_formula_units_Z 16
_cell_length_a 10.947513
_cell_length_b 7.896449
_cell_length_c 26.468671
_cell_angle_alpha 138.587620
_cell_angle_beta 149.657910
_cell_angle_gamma 41.630053
_cell_volume 729.388717
_symmetry_space_group_name_H-M "P -1"
_symmetry_group_IT_number 2
_symmetry_cell_setting 'triclinic'
loop_
_space_group_symop_operation_xyz
x,y,z
-x,-y,-z
loop_
_atom_site_type_symbol
_atom_site_label
_atom_site_fract_x
_atom_site_fract_y
_atom_site_fract_z
Si Si1 0.208333 0.655295 0.718480
Si Si2 0.244209 0.083989 0.653878
Si Si3 0.662931 0.110884 0.464468
Si Si4 0.609554 0.560004 0.368878
Si Si5 0.982140 0.168569 0.963875
Si Si6 0.330599 0.252850 0.465590
Si Si7 0.640984 0.749074 0.959959
Si Si8 0.300426 0.194561 0.181021
O O1 0.225978 0.372669 0.688480
O O2 0.247205 0.638707 0.668458
O O3 0.431225 0.745187 0.842530
O O4 0.915878 0.813517 0.657513
O O5 0.960471 0.088171 0.568341
O O6 0.371790 0.890151 0.608729
O O7 0.428691 0.002744 0.749007
O O8 0.486887 0.313569 0.487948
O O9 0.607705 0.840066 0.405232
O O10 0.736394 0.534960 0.464140
O O11 0.347106 0.485218 0.265599
O O12 0.112347 0.197252 0.964274
O O13 0.190536 0.153235 0.078156
O O14 0.752457 0.444421 0.953099
O O15 0.889789 0.905250 0.873384
O O16 0.500000 0.000000 0.500000
O O17 0.500000 0.000000 0.000000
#
# Coordination Sequence:
#
# PCOD9021849 Si02
#       8
#     2   2   2   2   2   2   2   2
#     4  11  22  42  64  93 129 174 220 262 337 401
#     4  10  22  39  65  90 132 181 208 263 331 395
#     4   9  22  40  60  95 132 170 219 259 323 399
#     4  10  22  38  66  90 124 179 208 260 333 387
#     4  10  24  46  68 100 129 169 227 281 332 395
#     4  10  23  38  61  97 133 163 222 274 317 397
#     4  11  24  46  75  96 131 174 223 280 338 394
#     4  11  22  40  69  94 129 173 221 273 326 395
#
# _framework density 21.936177000000001
#
# number of rings (size 3 to 8) (size 9 to 14) (size 15 to 20)
#    0.000    1.750    2.500    0.375    8.750    3.500 
#    2.250    2.500    0.000    0.000    0.000    0.000 
#    0.000    0.000    0.000    0.000    0.000    0.000 
#
# Total GULP energy -89135.490102 kJ/mol
# GULP energy per Si atom -5570.968131 kJ/mol
# Density = 2.188625 g / cm^3
# Si number density = 21.936177 Si / 1000 Ang^3
#
#
#
# Elastic Constant Matrix: (Units=GPa)
#
#
# Indices 1 2 3 4 5 6 
#
# 1 125.6449 40.5176 37.0338 7.4844 18.9439 2.7836
# 2 40.5176 54.7258 14.4533 -6.1704 6.1841 0.9013
# 3 37.0338 14.4533 113.1041 -4.5897 29.7663 0.6056
# 4 7.4844 -6.1704 -4.5897 39.7341 15.2288 5.3539
# 5 18.9439 6.1841 29.7663 15.2288 23.1573 9.8709
# 6 2.7836 0.9013 0.6056 5.3539 9.8709 41.9101
#
#
#
# Elastic Compliance Matrix: (Units=1/GPa)
#
#
# Indices 1 2 3 4 5 6 
#
# 1 0.011837 -0.008110 -0.001984 -0.002403 -0.003635 0.000580
# 2 -0.008110 0.025840 0.002381 0.009522 -0.010058 0.001101
# 3 -0.001984 0.002381 0.020107 0.017097 -0.038996 0.006791
# 4 -0.002403 0.009522 0.017097 0.050700 -0.058925 0.007109
# 5 -0.003635 -0.010058 -0.038996 -0.058925 0.149037 -0.026553
# 6 0.000580 0.001101 0.006791 0.007109 -0.026553 0.029046
#
#
# Mechanical properties :
#
#
# Convention : Reuss Voigt Hill
#
# Bulk Modulus (GPa) = 23.60751 53.05382 38.33066
# Shear Modulus (GPa) = 15.81717 34.39164 25.10441
#
# Velocity S-wave (km/s) = 2.68816 3.96385 3.38661
# Velocity P-wave (km/s) = 4.51887 6.72216 5.72746
#
# Compressibility (1/GPa) = 0.04235941
#
# Stress axis : x y z
#
# Youngs Moduli (GPa) = 84.47953 38.69898 49.73394
#
# Poissons Ratio (x) = 0.31384 0.09865
# Poissons Ratio (y) = 0.68512 -0.11840
# Poissons Ratio (z) = 0.16757 -0.09213
#
# Static dielectric constant tensor:
#      x y z
#    x 1.855800 -0.035420 -0.002400 
#    y -0.035420 1.938570 0.070190 
#    z -0.002400 0.070190 1.834720 
# 
# From -- ./inp_files/622973.got.cif
#   From: 2010.05.17/outbox.cif.g08.bks.cpg/sg2_312_cif.got.tgz:622973.got - 2010.06.03 11:33:40.
