data_PCOD9021106
_publ_section_title
;
Structure prediction by ZEFSAII (Michael W. Deem and Ramdas Pophale) SiO2 
 PCOD9021106
Probable space group: P -1
;
_chemical_formula_sum "Si O2"
_cell_formula_units_Z 15
_cell_length_a 7.161226
_cell_length_b 7.447218
_cell_length_c 20.333616
_cell_angle_alpha 74.931332
_cell_angle_beta 129.473617
_cell_angle_gamma 69.557769
_cell_volume 584.817979
_symmetry_space_group_name_H-M "P -1"
_symmetry_group_IT_number 2
_symmetry_cell_setting 'triclinic'
loop_
_space_group_symop_operation_xyz
x,y,z
-x,-y,-z
loop_
_atom_site_type_symbol
_atom_site_label
_atom_site_fract_x
_atom_site_fract_y
_atom_site_fract_z
Si Si1 0.645650 0.528186 0.963908
Si Si2 0.700496 0.481216 0.234208
Si Si3 0.807224 0.477084 0.671982
Si Si4 0.763624 0.988679 0.520364
Si Si5 0.500000 0.500000 0.500000
Si Si6 0.361284 0.225274 0.592812
Si Si7 0.243926 0.014366 0.900993
Si Si8 0.251777 0.005506 0.161921
O O1 0.500403 0.519016 0.865789
O O2 0.459233 0.821680 0.907123
O O3 0.500000 0.500000 0.000000
O O4 0.049497 0.304758 0.076615
O O5 0.495988 0.762994 0.191797
O O6 0.018541 0.422402 0.281193
O O7 0.872314 0.250391 0.347349
O O8 0.877681 0.365228 0.625637
O O9 0.405084 0.715452 0.541825
O O10 0.921865 0.288134 0.773399
O O11 0.718925 0.931907 0.443264
O O12 0.500000 0.000000 0.500000
O O13 0.527381 0.288204 0.574472
O O14 0.585623 0.080728 0.721307
O O15 0.000000 0.500000 0.500000
O O16 0.075457 0.954312 0.915985
O O17 0.500000 0.000000 0.000000
#
# Coordination Sequence:
#
# PCOD9021106 Si02
#       8
#     2   2   2   2   1   2   2   2
#     4  10  24  40  70  91 124 181 232 274 348 422
#     4  11  22  44  65  99 128 176 231 279 344 416
#     4  11  23  37  67  92 136 172 226 278 339 412
#     4  10  22  37  67  94 135 181 219 278 346 421
#     4  12  22  40  66 102 136 182 220 282 352 400
#     4  12  23  44  69 105 140 180 233 281 357 415
#     4  11  25  43  63  97 128 172 231 286 337 411
#     4  11  23  43  68  93 134 176 225 286 338 418
#
# _framework density 25.649004000000001
#
# number of rings (size 3 to 8) (size 9 to 14) (size 15 to 20)
#    0.000    1.067    5.333    2.000   11.200    0.000 
#    0.000    5.333    0.000    0.000    0.000    0.000 
#    0.000    0.000    0.000    0.000    0.000    0.000 
#
# Total GULP energy -83539.540794 kJ/mol
# GULP energy per Si atom -5569.302720 kJ/mol
# Density = 2.559063 g / cm^3
# Si number density = 25.649004 Si / 1000 Ang^3
#
#
#
# Elastic Constant Matrix: (Units=GPa)
#
#
# Indices 1 2 3 4 5 6 
#
# 1 34.9321 3.0623 10.5081 -5.0096 6.6455 -2.9556
# 2 3.0623 98.9824 76.2911 -3.1950 -4.4639 -15.6343
# 3 10.5081 76.2911 193.9764 8.5129 2.5038 -1.7922
# 4 -5.0096 -3.1950 8.5129 68.7038 0.2217 8.7114
# 5 6.6455 -4.4639 2.5038 0.2217 29.7734 -7.2477
# 6 -2.9556 -15.6343 -1.7922 8.7114 -7.2477 27.1070
#
#
#
# Elastic Compliance Matrix: (Units=1/GPa)
#
#
# Indices 1 2 3 4 5 6 
#
# 1 0.030795 0.000409 -0.001842 0.002389 -0.006436 0.000984
# 2 0.000409 0.017384 -0.006843 0.000262 0.005786 0.011082
# 3 -0.001842 -0.006843 0.007980 -0.000938 -0.002232 -0.003916
# 4 0.002389 0.000262 -0.000938 0.015511 -0.001774 -0.005109
# 5 -0.006436 0.005786 -0.002232 -0.001774 0.039401 0.013593
# 6 0.000984 0.011082 -0.003916 -0.005109 0.013593 0.048407
#
#
# Mechanical properties :
#
#
# Convention : Reuss Voigt Hill
#
# Bulk Modulus (GPa) = 25.24747 56.40154 40.82451
# Shear Modulus (GPa) = 26.42231 40.98546 33.70389
#
# Velocity S-wave (km/s) = 3.21308 4.00176 3.62891
# Velocity P-wave (km/s) = 4.86107 6.58708 5.78876
#
# Compressibility (1/GPa) = 0.03960793
#
# Stress axis : x y z
#
# Youngs Moduli (GPa) = 32.47252 57.52282 125.30864
#
# Poissons Ratio (x) = -0.02353 0.23079
# Poissons Ratio (y) = -0.01328 0.85752
# Poissons Ratio (z) = 0.05981 0.39364
#
# Static dielectric constant tensor:
#      x y z
#    x 2.094040 0.219070 -0.038490 
#    y 0.219070 1.796500 -0.373020 
#    z -0.038490 -0.373020 2.157880 
# 
# From -- ./inp_files/237576.got.cif
#   From: 2010.05.17/outbox.cif.g08.bks.cpg/sg2_119_cif.got.tgz:237576.got - 2010.06.03 11:33:40.
