data_PCOD9021485
_publ_section_title
;
Structure prediction by ZEFSAII (Michael W. Deem and Ramdas Pophale) SiO2 
 PCOD9021485
Probable space group: P -1
;
_chemical_formula_sum "Si O2"
_cell_formula_units_Z 16
_cell_length_a 11.017846
_cell_length_b 13.589413
_cell_length_c 7.568129
_cell_angle_alpha 61.398603
_cell_angle_beta 41.614866
_cell_angle_gamma 53.484300
_cell_volume 603.598923
_symmetry_space_group_name_H-M "P -1"
_symmetry_group_IT_number 2
_symmetry_cell_setting 'triclinic'
loop_
_space_group_symop_operation_xyz
x,y,z
-x,-y,-z
loop_
_atom_site_type_symbol
_atom_site_label
_atom_site_fract_x
_atom_site_fract_y
_atom_site_fract_z
Si Si1 0.398100 0.491979 0.304164
Si Si2 0.243683 0.344278 0.373598
Si Si3 0.220500 0.525144 0.925830
Si Si4 0.401265 0.891927 0.378321
Si Si5 0.023414 0.995931 0.264694
Si Si6 0.809730 0.686524 0.087014
Si Si7 0.546317 0.095661 0.106668
Si Si8 0.976750 0.264929 0.521822
O O1 0.280253 0.408084 0.453145
O O2 0.583637 0.449042 0.274511
O O3 0.232312 0.628088 0.404122
O O4 0.500000 0.500000 0.000000
O O5 0.440513 0.222605 0.215742
O O6 0.060805 0.305886 0.568752
O O7 0.204951 0.448367 0.177745
O O8 0.016728 0.640325 0.008115
O O9 0.233979 0.428613 0.838308
O O10 0.185246 0.901315 0.665291
O O11 0.409892 0.019904 0.312935
O O12 0.610221 0.788476 0.297957
O O13 0.415486 0.878509 0.160770
O O14 0.042990 0.860342 0.314148
O O15 0.000000 0.000000 0.500000
O O16 0.235158 0.994556 0.982740
O O17 0.866923 0.745599 0.797020
#
# Coordination Sequence:
#
# PCOD9021485 Si02
#       8
#     2   2   2   2   2   2   2   2
#     4  10  21  33  51  74 101 136 182 220 252 305
#     4  10  18  35  53  76 106 137 175 219 259 304
#     4   9  19  34  50  75 104 140 172 208 263 308
#     4  10  17  31  49  76 108 136 167 211 263 317
#     4  10  19  26  49  79 106 135 166 213 267 314
#     4  10  19  33  53  72 112 140 163 213 263 320
#     4  10  17  31  50  77 107 130 171 218 265 303
#     4  11  19  32  51  80 105 135 173 213 273 311
#
# _framework density 26.507669
#
# number of rings (size 3 to 8) (size 9 to 14) (size 15 to 20)
#    0.000    2.000    3.750    3.375    1.750    0.500 
#    0.000    0.000    0.000    0.750    0.000    4.375 
#    0.000    0.000    0.000    0.000    0.000    0.000 
#
# Total GULP energy -89595.178537 kJ/mol
# GULP energy per Si atom -5599.698659 kJ/mol
# Density = 2.644734 g / cm^3
# Si number density = 26.507669 Si / 1000 Ang^3
#
#
#
# Elastic Constant Matrix: (Units=GPa)
#
#
# Indices 1 2 3 4 5 6 
#
# 1 157.7138 40.6593 51.3856 11.5802 -24.9132 16.7471
# 2 40.6593 73.9941 22.0365 34.9397 -10.3056 -0.2464
# 3 51.3856 22.0365 103.7093 34.3596 -44.2542 -14.2007
# 4 11.5802 34.9397 34.3596 41.6450 -11.4797 -13.2114
# 5 -24.9132 -10.3056 -44.2542 -11.4797 60.8860 7.3461
# 6 16.7471 -0.2464 -14.2007 -13.2114 7.3461 39.9102
#
#
#
# Elastic Compliance Matrix: (Units=1/GPa)
#
#
# Indices 1 2 3 4 5 6 
#
# 1 0.010201 -0.006986 -0.006399 0.006982 0.000179 -0.004322
# 2 -0.006986 0.029496 0.007504 -0.029734 0.002528 -0.004524
# 3 -0.006399 0.007504 0.022801 -0.019487 0.011271 0.002319
# 4 0.006982 -0.029734 -0.019487 0.065602 -0.005501 0.012681
# 5 0.000179 0.002528 0.011271 -0.005501 0.024364 -0.002354
# 6 -0.004322 -0.004524 0.002319 0.012681 -0.002354 0.032298
#
#
# Mechanical properties :
#
#
# Convention : Reuss Voigt Hill
#
# Bulk Modulus (GPa) = 19.70947 62.62001 41.16474
# Shear Modulus (GPa) = 23.42627 43.24397 33.33512
#
# Velocity S-wave (km/s) = 2.97603 4.04341 3.55006
# Velocity P-wave (km/s) = 4.38868 6.74341 5.68920
#
# Compressibility (1/GPa) = 0.05073703
#
# Stress axis : x y z
#
# Youngs Moduli (GPa) = 98.03010 33.90308 43.85738
#
# Poissons Ratio (x) = 0.23685 0.28063
# Poissons Ratio (y) = 0.68486 -0.32913
# Poissons Ratio (z) = 0.62727 -0.25442
#
# Static dielectric constant tensor:
#      x y z
#    x 2.177300 -0.027370 0.044440 
#    y -0.027370 2.061720 -0.031650 
#    z 0.044440 -0.031650 2.119520 
# 
# From -- ./inp_files/431376.got.cif
#   From: 2010.05.17/outbox.cif.g08.bks.cpg/sg2_216_cif.got.tgz:431376.got - 2010.06.03 11:33:40.
