data_PCOD9021188
_publ_section_title
;
Structure prediction by ZEFSAII (Michael W. Deem and Ramdas Pophale) SiO2 
 PCOD9021188
Probable space group: P -1
;
_chemical_formula_sum "Si O2"
_cell_formula_units_Z 14
_cell_length_a 17.800911
_cell_length_b 18.644478
_cell_length_c 21.494612
_cell_angle_alpha 162.255077
_cell_angle_beta 162.149399
_cell_angle_gamma 26.907919
_cell_volume 658.025799
_symmetry_space_group_name_H-M "P -1"
_symmetry_group_IT_number 2
_symmetry_cell_setting 'triclinic'
loop_
_space_group_symop_operation_xyz
x,y,z
-x,-y,-z
loop_
_atom_site_type_symbol
_atom_site_label
_atom_site_fract_x
_atom_site_fract_y
_atom_site_fract_z
Si Si1 0.209797 0.034047 0.246303
Si Si2 0.121348 0.542131 0.808984
Si Si3 0.572580 0.442313 0.323181
Si Si4 0.747670 0.484420 0.749470
Si Si5 0.546084 0.908686 0.891108
Si Si6 0.452583 0.480483 0.127788
Si Si7 0.941687 0.302066 0.344929
O O1 0.407186 0.255205 0.561692
O O2 0.064408 0.091071 0.240282
O O3 0.293285 0.782742 0.119049
O O4 0.000000 0.000000 0.000000
O O5 0.844143 0.587492 0.644425
O O6 0.079207 0.379588 0.581060
O O7 0.230752 0.431723 0.864079
O O8 0.461626 0.510962 0.357802
O O9 0.398833 0.478589 0.157246
O O10 0.610206 0.164607 0.120823
O O11 0.739954 0.724047 0.900720
O O12 0.673727 0.256131 0.457219
O O13 0.000000 0.500000 0.000000
O O14 0.500000 0.000000 0.000000
O O15 0.649244 0.298167 0.121547
O O16 0.000000 0.500000 0.500000
#
# Coordination Sequence:
#
# PCOD9021188 Si02
#       7
#     2   2   2   2   2   2   2
#     4  11  19  39  60  79 120 161 202 251 294 337
#     4  11  22  39  57  85 122 160 205 248 298 349
#     4  10  22  39  58  89 127 156 192 255 299 355
#     4  10  22  41  69  94 117 158 202 241 303 377
#     4   9  21  41  63  90 122 154 191 246 305 360
#     4  10  22  38  57  86 118 164 203 248 294 350
#     4   9  19  36  55  78 109 151 197 253 293 340
#
# _framework density 21.275762
#
# number of rings (size 3 to 8) (size 9 to 14) (size 15 to 20)
#    0.000    2.000    4.286    0.429    0.000   11.429 
#    2.571    0.000    0.000    0.000    0.000    0.000 
#    0.000    0.000    0.000    0.000    0.000    0.000 
#
# Total GULP energy -78002.741406 kJ/mol
# GULP energy per Si atom -5571.624386 kJ/mol
# Density = 2.122734 g / cm^3
# Si number density = 21.275762 Si / 1000 Ang^3
#
#
#
# Elastic Constant Matrix: (Units=GPa)
#
#
# Indices 1 2 3 4 5 6 
#
# 1 104.7671 20.1387 32.8398 -1.6078 -26.9838 14.3170
# 2 20.1387 62.4663 40.3565 -5.0214 -17.5672 29.8103
# 3 32.8398 40.3565 88.6242 4.0815 -23.5499 6.8715
# 4 -1.6078 -5.0214 4.0815 38.9357 14.4266 -10.1651
# 5 -26.9838 -17.5672 -23.5499 14.4266 34.1978 -2.5477
# 6 14.3170 29.8103 6.8715 -10.1651 -2.5477 38.3540
#
#
#
# Elastic Compliance Matrix: (Units=1/GPa)
#
#
# Indices 1 2 3 4 5 6 
#
# 1 0.014205 0.005295 -0.003035 -0.005959 0.013641 -0.009547
# 2 0.005295 0.044983 -0.014459 -0.008469 0.018265 -0.035379
# 3 -0.003035 -0.014459 0.020365 -0.004530 0.006706 0.007967
# 4 -0.005959 -0.008469 -0.004530 0.039840 -0.027612 0.018343
# 5 0.013641 0.018265 0.006706 -0.027612 0.063899 -0.023564
# 6 -0.009547 -0.035379 0.007967 0.018343 -0.023564 0.059004
#
#
# Mechanical properties :
#
#
# Convention : Reuss Voigt Hill
#
# Bulk Modulus (GPa) = 18.13095 49.16973 33.65034
# Shear Modulus (GPa) = 17.53897 33.13233 25.33565
#
# Velocity S-wave (km/s) = 2.87429 3.95052 3.45457
# Velocity P-wave (km/s) = 4.42219 6.63096 5.63584
#
# Compressibility (1/GPa) = 0.05515431
#
# Stress axis : x y z
#
# Youngs Moduli (GPa) = 70.39633 22.23085 49.10320
#
# Poissons Ratio (x) = -0.11770 0.14904
# Poissons Ratio (y) = -0.37272 0.70997
# Poissons Ratio (z) = 0.21367 0.32143
#
# Static dielectric constant tensor:
#      x y z
#    x 1.798340 0.007300 0.005790 
#    y 0.007300 1.852740 0.005320 
#    z 0.005790 0.005320 1.832910 
# 
# From -- ./inp_files/529726.got.cif
#   From: 2010.05.17/outbox.cif.g08.bks.cpg/sg2_265_cif.got.tgz:529726.got - 2010.06.03 11:33:40.
