data_PCOD9021222
_publ_section_title
;
Structure prediction by ZEFSAII (Michael W. Deem and Ramdas Pophale) SiO2 
 PCOD9021222
Probable space group: P -1
;
_chemical_formula_sum "Si O2"
_cell_formula_units_Z 14
_cell_length_a 5.081293
_cell_length_b 19.027328
_cell_length_c 10.029993
_cell_angle_alpha 41.054928
_cell_angle_beta 59.265862
_cell_angle_gamma 71.784116
_cell_volume 542.881377
_symmetry_space_group_name_H-M "P -1"
_symmetry_group_IT_number 2
_symmetry_cell_setting 'triclinic'
loop_
_space_group_symop_operation_xyz
x,y,z
-x,-y,-z
loop_
_atom_site_type_symbol
_atom_site_label
_atom_site_fract_x
_atom_site_fract_y
_atom_site_fract_z
Si Si1 0.929820 0.530359 0.765175
Si Si2 0.785677 0.920358 0.269007
Si Si3 0.817130 0.974184 0.761526
Si Si4 0.584931 0.797512 0.895833
Si Si5 0.896031 0.789631 0.197115
Si Si6 0.629830 0.610732 0.979472
Si Si7 0.535942 0.619388 0.377058
O O1 0.711665 0.457430 0.821590
O O2 0.120731 0.447370 0.917464
O O3 0.190714 0.621359 0.513219
O O4 0.723096 0.589123 0.835560
O O5 0.838350 0.811374 0.335892
O O6 0.442315 0.948548 0.302383
O O7 0.903395 0.954099 0.338144
O O8 0.000000 0.000000 0.000000
O O9 0.817328 0.901960 0.729779
O O10 0.715905 0.876109 0.035954
O O11 0.607546 0.736091 0.838324
O O12 0.643402 0.698692 0.116498
O O13 0.239694 0.816285 0.005315
O O14 0.758264 0.669276 0.363871
O O15 0.500000 0.500000 0.500000
#
# Coordination Sequence:
#
# PCOD9021222 Si02
#       7
#     2   2   2   2   2   2   2
#     4  10  22  40  54  73 104 151 184 216 264 311
#     4  10  17  31  49  71 112 139 170 214 273 321
#     4  10  19  31  50  76 110 139 169 219 274 314
#     4  11  21  32  55  84 112 137 183 222 271 314
#     4  10  21  30  50  80 110 143 174 216 273 324
#     4  10  22  38  57  73 103 145 190 221 254 317
#     4  11  22  34  52  81 115 144 176 222 270 316
#
# _framework density 25.788322000000001
#
# number of rings (size 3 to 8) (size 9 to 14) (size 15 to 20)
#    0.000    1.714    4.286    2.571    6.000    1.143 
#    0.000    0.000    0.000    0.000    0.000    2.000 
#    0.000    5.857    0.000    0.143    0.000    0.000 
#
# Total GULP energy -78153.672680 kJ/mol
# GULP energy per Si atom -5582.405191 kJ/mol
# Density = 2.572963 g / cm^3
# Si number density = 25.788322 Si / 1000 Ang^3
#
#
#
# Elastic Constant Matrix: (Units=GPa)
#
#
# Indices 1 2 3 4 5 6 
#
# 1 133.0800 57.8691 9.3245 -20.9219 -17.8298 13.7650
# 2 57.8691 218.8022 27.1685 -18.8230 -2.0807 27.1945
# 3 9.3245 27.1685 64.9171 -26.9850 -10.7636 12.3030
# 4 -20.9219 -18.8230 -26.9850 38.9440 5.6312 -4.8931
# 5 -17.8298 -2.0807 -10.7636 5.6312 18.4178 -8.3297
# 6 13.7650 27.1945 12.3030 -4.8931 -8.3297 39.7587
#
#
#
# Elastic Compliance Matrix: (Units=1/GPa)
#
#
# Indices 1 2 3 4 5 6 
#
# 1 0.010697 -0.002696 0.003594 0.005409 0.010444 -0.000118
# 2 -0.002696 0.005953 -0.002171 0.000188 -0.004826 -0.003454
# 3 0.003594 -0.002171 0.025008 0.016157 0.011508 -0.003098
# 4 0.005409 0.000188 0.016157 0.039379 0.001862 -0.001764
# 5 0.010444 -0.004826 0.011508 0.001862 0.075524 0.012176
# 6 -0.000118 -0.003454 -0.003098 -0.001764 0.012176 0.030848
#
#
# Mechanical properties :
#
#
# Convention : Reuss Voigt Hill
#
# Bulk Modulus (GPa) = 25.56819 67.28042 46.42430
# Shear Modulus (GPa) = 24.63160 40.91991 32.77576
#
# Velocity S-wave (km/s) = 3.09390 3.98774 3.56891
# Velocity P-wave (km/s) = 4.76436 6.88105 5.91811
#
# Compressibility (1/GPa) = 0.03911110
#
# Stress axis : x y z
#
# Youngs Moduli (GPa) = 93.48717 167.99338 39.98689
#
# Poissons Ratio (x) = 0.45293 -0.14373
# Poissons Ratio (y) = 0.25205 0.08683
# Poissons Ratio (z) = -0.33603 0.36479
#
# Static dielectric constant tensor:
#      x y z
#    x 2.167870 0.087190 0.083130 
#    y 0.087190 2.252930 0.029340 
#    z 0.083130 0.029340 2.120180 
# 
# From -- ./inp_files/123792.got.cif
#   From: 2010.05.17/outbox.cif.g08.bks.cpg/sg2_62_cif.got.tgz:123792.got - 2010.06.03 11:33:40.
