data_PCOD9021069
_publ_section_title
;
Structure prediction by ZEFSAII (Michael W. Deem and Ramdas Pophale) SiO2 
 PCOD9021069
Probable space group: P -1
;
_chemical_formula_sum "Si O2"
_cell_formula_units_Z 16
_cell_length_a 11.764965
_cell_length_b 8.679152
_cell_length_c 12.246664
_cell_angle_alpha 126.290959
_cell_angle_beta 69.292917
_cell_angle_gamma 140.036834
_cell_volume 635.183285
_symmetry_space_group_name_H-M "P -1"
_symmetry_group_IT_number 2
_symmetry_cell_setting 'triclinic'
loop_
_space_group_symop_operation_xyz
x,y,z
-x,-y,-z
loop_
_atom_site_type_symbol
_atom_site_label
_atom_site_fract_x
_atom_site_fract_y
_atom_site_fract_z
Si Si1 0.763221 0.116946 0.149464
Si Si2 0.114200 0.830607 0.093243
Si Si3 0.117141 0.066304 0.840960
Si Si4 0.750339 0.886765 0.419544
Si Si5 0.290236 0.943595 0.293950
Si Si6 0.644504 0.403919 0.865670
Si Si7 0.723488 0.480858 0.392063
Si Si8 0.608788 0.331642 0.600381
O O1 0.800108 0.382759 0.266245
O O2 0.915844 0.157791 0.166198
O O3 0.572310 0.860971 0.166116
O O4 0.743480 0.045455 0.999246
O O5 0.202723 0.962925 0.236127
O O6 0.008593 0.897609 0.121914
O O7 0.000000 0.500000 0.000000
O O8 0.161647 0.033433 0.693851
O O9 0.279795 0.349554 0.976005
O O10 0.786965 0.742879 0.419357
O O11 0.539517 0.677917 0.376974
O O12 0.793043 0.108368 0.581239
O O13 0.279362 0.710281 0.168646
O O14 0.504845 0.230336 0.348680
O O15 0.688589 0.467559 0.748926
O O16 0.746320 0.490154 0.518757
O O17 0.500000 0.000000 0.500000
#
# Coordination Sequence:
#
# PCOD9021069 Si02
#       8
#     2   2   2   2   2   2   2   2
#     4  11  24  42  65  96 131 168 219 270 323 378
#     4  12  26  45  64  91 137 178 214 264 321 391
#     4  12  25  42  66  98 131 174 216 266 323 391
#     4  11  22  39  66 100 131 164 219 264 330 384
#     4  10  22  40  66  94 130 171 210 267 322 380
#     4  11  22  39  70 101 126 168 216 272 328 380
#     4  10  22  37  66 103 128 167 213 273 325 382
#     4  11  17  36  61  97 132 159 201 273 327 372
#
# _framework density 25.189579999999999
#
# number of rings (size 3 to 8) (size 9 to 14) (size 15 to 20)
#    0.000    1.000    6.250    3.000    1.750    2.500 
#    0.000    0.000    0.000    2.250    0.000    0.000 
#    0.000    0.000    0.000    0.000    0.000    0.000 
#
# Total GULP energy -89578.827162 kJ/mol
# GULP energy per Si atom -5598.676698 kJ/mol
# Density = 2.513225 g / cm^3
# Si number density = 25.189580 Si / 1000 Ang^3
#
#
#
# Elastic Constant Matrix: (Units=GPa)
#
#
# Indices 1 2 3 4 5 6 
#
# 1 137.4401 14.0359 38.4465 12.9712 1.3583 -21.6198
# 2 14.0359 45.2772 12.7011 6.5531 7.1355 -10.0366
# 3 38.4465 12.7011 140.0875 -28.8593 5.4149 4.2289
# 4 12.9712 6.5531 -28.8593 42.8710 -14.2006 3.6910
# 5 1.3583 7.1355 5.4149 -14.2006 50.3709 6.5463
# 6 -21.6198 -10.0366 4.2289 3.6910 6.5463 33.4712
#
#
#
# Elastic Compliance Matrix: (Units=1/GPa)
#
#
# Indices 1 2 3 4 5 6 
#
# 1 0.011157 0.002458 -0.005439 -0.009697 -0.004165 0.010514
# 2 0.002458 0.029895 -0.006347 -0.013997 -0.009482 0.014752
# 3 -0.005439 -0.006347 0.011990 0.013020 0.004633 -0.009273
# 4 -0.009697 -0.013997 0.013020 0.044161 0.015905 -0.020086
# 5 -0.004165 -0.009482 0.004633 0.015905 0.027004 -0.013154
# 6 0.010514 0.014752 -0.009273 -0.020086 -0.013154 0.047050
#
#
# Mechanical properties :
#
#
# Convention : Reuss Voigt Hill
#
# Bulk Modulus (GPa) = 29.08301 50.35244 39.71772
# Shear Modulus (GPa) = 24.82931 42.51736 33.67334
#
# Velocity S-wave (km/s) = 3.14299 4.11286 3.66019
# Velocity P-wave (km/s) = 4.97412 6.52586 5.80210
#
# Compressibility (1/GPa) = 0.03438434
#
# Stress axis : x y z
#
# Youngs Moduli (GPa) = 89.63291 33.45049 83.40592
#
# Poissons Ratio (x) = -0.08221 0.45363
# Poissons Ratio (y) = -0.22029 0.52940
# Poissons Ratio (z) = 0.48750 0.21232
#
# Static dielectric constant tensor:
#      x y z
#    x 1.970560 0.036570 0.006690 
#    y 0.036570 2.012760 0.012460 
#    z 0.006690 0.012460 1.954900 
# 
# From -- ./inp_files/244385.got.cif
#   From: 2010.05.17/outbox.cif.g08.bks.cpg/sg2_123_cif.got.tgz:244385.got - 2010.06.03 11:33:40.
