data_PCOD9021720
_publ_section_title
;
Structure prediction by ZEFSAII (Michael W. Deem and Ramdas Pophale) SiO2 
 PCOD9021720
Probable space group: P -1
;
_chemical_formula_sum "Si O2"
_cell_formula_units_Z 15
_cell_length_a 11.608793
_cell_length_b 14.585083
_cell_length_c 8.139743
_cell_angle_alpha 73.623549
_cell_angle_beta 102.119323
_cell_angle_gamma 151.480864
_cell_volume 629.168916
_symmetry_space_group_name_H-M "P -1"
_symmetry_group_IT_number 2
_symmetry_cell_setting 'triclinic'
loop_
_space_group_symop_operation_xyz
x,y,z
-x,-y,-z
loop_
_atom_site_type_symbol
_atom_site_label
_atom_site_fract_x
_atom_site_fract_y
_atom_site_fract_z
Si Si1 0.013794 0.837928 0.778878
Si Si2 0.057517 0.432533 0.502372
Si Si3 0.500000 0.000000 0.000000
Si Si4 0.199084 0.135808 0.135771
Si Si5 0.436394 0.755000 0.232708
Si Si6 0.337288 0.778499 0.728953
Si Si7 0.737370 0.471239 0.023725
Si Si8 0.151716 0.898650 0.415085
O O1 0.038604 0.832063 0.596423
O O2 0.838486 0.800728 0.787630
O O3 0.942626 0.695381 0.940187
O O4 0.280587 0.058815 0.800202
O O5 0.864697 0.293765 0.362430
O O6 0.996768 0.287852 0.636446
O O7 0.000000 0.500000 0.500000
O O8 0.333031 0.632265 0.425809
O O9 0.404950 0.846629 0.173401
O O10 0.568627 0.117189 0.120297
O O11 0.149190 0.999878 0.277788
O O12 0.477194 0.332143 0.059341
O O13 0.000000 0.000000 0.000000
O O14 0.295972 0.603916 0.122219
O O15 0.566882 0.932914 0.599637
O O16 0.224971 0.591774 0.811586
#
# Coordination Sequence:
#
# PCOD9021720 Si02
#       8
#     2   2   1   2   2   2   2   2
#     4  12  23  44  73  94 143 179 224 297 344 407
#     4  12  24  41  65 101 146 181 228 281 350 411
#     4  10  22  38  64  96 136 186 226 278 336 392
#     4  11  24  46  71  99 132 177 238 289 350 413
#     4  11  23  38  64 101 135 177 231 272 341 403
#     4  10  23  42  68  99 144 181 236 277 340 426
#     4  10  23  43  67 102 133 176 232 280 345 417
#     4  11  24  44  67 103 136 181 231 286 349 415
#
# _framework density 23.840973000000002
#
# number of rings (size 3 to 8) (size 9 to 14) (size 15 to 20)
#    0.000    1.067    2.667    3.600    1.867    2.133 
#    0.000    4.000    0.000    0.000    0.000    0.000 
#    0.000    0.000    0.000    0.000    0.000    0.000 
#
# Total GULP energy -83615.819680 kJ/mol
# GULP energy per Si atom -5574.387979 kJ/mol
# Density = 2.378671 g / cm^3
# Si number density = 23.840973 Si / 1000 Ang^3
#
#
#
# Elastic Constant Matrix: (Units=GPa)
#
#
# Indices 1 2 3 4 5 6 
#
# 1 100.9644 14.0630 23.8548 -13.1403 -6.6448 -21.0447
# 2 14.0630 49.0479 22.8919 -26.8860 0.7734 -11.8915
# 3 23.8548 22.8919 84.3027 -25.0626 -3.6881 -5.0027
# 4 -13.1403 -26.8860 -25.0626 47.7551 -6.5649 1.8486
# 5 -6.6448 0.7734 -3.6881 -6.5649 29.6945 1.0485
# 6 -21.0447 -11.8915 -5.0027 1.8486 1.0485 40.2595
#
#
#
# Elastic Compliance Matrix: (Units=1/GPa)
#
#
# Indices 1 2 3 4 5 6 
#
# 1 0.012155 0.000367 -0.002327 0.002478 0.002758 0.005987
# 2 0.000367 0.033313 -0.003479 0.016998 0.002231 0.008761
# 3 -0.002327 -0.003479 0.015279 0.005828 0.002780 -0.000685
# 4 0.002478 0.016998 0.005828 0.035209 0.008436 0.005204
# 5 0.002758 0.002231 0.002780 0.008436 0.036406 0.001111
# 6 0.005987 0.008761 -0.000685 0.005204 0.001111 0.030203
#
#
# Mechanical properties :
#
#
# Convention : Reuss Voigt Hill
#
# Bulk Modulus (GPa) = 20.05222 39.54828 29.80025
# Shear Modulus (GPa) = 26.30668 35.10884 30.70776
#
# Velocity S-wave (km/s) = 3.32539 3.84164 3.59280
# Velocity P-wave (km/s) = 4.81387 6.02512 5.45323
#
# Compressibility (1/GPa) = 0.04986978
#
# Stress axis : x y z
#
# Youngs Moduli (GPa) = 82.27055 30.01825 65.45017
#
# Poissons Ratio (x) = -0.01102 0.15228
# Poissons Ratio (y) = -0.03020 0.22770
# Poissons Ratio (z) = 0.19141 0.10443
#
# Static dielectric constant tensor:
#      x y z
#    x 1.896300 -0.022970 -0.015930 
#    y -0.022970 1.925430 0.036870 
#    z -0.015930 0.036870 1.985620 
# 
# From -- ./inp_files/179570.got.cif
#   From: 2010.05.17/outbox.cif.g08.bks.cpg/sg2_90_cif.got.tgz:179570.got - 2010.06.03 11:33:40.
