data_PCOD9021813
_publ_section_title
;
Structure prediction by ZEFSAII (Michael W. Deem and Ramdas Pophale) SiO2 
 PCOD9021813
Probable space group: P -1
;
_chemical_formula_sum "Si O2"
_cell_formula_units_Z 15
_cell_length_a 6.827877
_cell_length_b 10.604167
_cell_length_c 12.036170
_cell_angle_alpha 130.241511
_cell_angle_beta 74.926343
_cell_angle_gamma 81.300963
_cell_volume 578.948119
_symmetry_space_group_name_H-M "P -1"
_symmetry_group_IT_number 2
_symmetry_cell_setting 'triclinic'
loop_
_space_group_symop_operation_xyz
x,y,z
-x,-y,-z
loop_
_atom_site_type_symbol
_atom_site_label
_atom_site_fract_x
_atom_site_fract_y
_atom_site_fract_z
Si Si1 0.741833 0.472538 0.315824
Si Si2 0.838235 0.015106 0.429459
Si Si3 0.500000 0.500000 0.000000
Si Si4 0.179216 0.473589 0.216093
Si Si5 0.391052 0.201234 0.735711
Si Si6 0.516000 0.947457 0.124965
Si Si7 0.758306 0.114425 0.048771
Si Si8 0.770714 0.326194 0.464357
O O1 0.722024 0.320470 0.152832
O O2 0.842070 0.362485 0.353489
O O3 0.495836 0.618952 0.467712
O O4 0.912970 0.541672 0.278381
O O5 0.582470 0.134418 0.576167
O O6 0.885195 0.124903 0.385467
O O7 0.825756 0.831714 0.282867
O O8 0.000000 0.000000 0.500000
O O9 0.682879 0.455398 0.844785
O O10 0.368758 0.394079 0.893260
O O11 0.200408 0.538464 0.373465
O O12 0.292713 0.252646 0.056878
O O13 0.498659 0.067229 0.750537
O O14 0.586843 0.100249 0.157132
O O15 0.300688 0.961146 0.097299
O O16 0.000000 0.000000 0.000000
#
# Coordination Sequence:
#
# PCOD9021813 Si02
#       8
#     2   2   1   2   2   2   2   2
#     4  11  24  41  71 102 140 190 232 293 365 424
#     4  11  25  48  72 102 140 188 246 296 368 433
#     4  10  22  46  74 100 142 178 242 302 350 432
#     4  11  21  43  66 102 135 186 238 290 362 420
#     4  10  23  45  70  98 138 185 235 304 359 429
#     4  10  22  38  65  98 142 177 234 296 360 427
#     4  11  21  39  64 100 141 185 232 298 357 435
#     4  11  24  45  66 101 146 178 240 298 350 443
#
# _framework density 25.909054999999999
#
# number of rings (size 3 to 8) (size 9 to 14) (size 15 to 20)
#    0.000    1.333    4.000    1.200    0.000    4.267 
#    0.000    1.333    0.000    0.000    0.000    0.000 
#    0.000    0.000    0.000    0.000    0.000    0.000 
#
# Total GULP energy -83760.996939 kJ/mol
# GULP energy per Si atom -5584.066463 kJ/mol
# Density = 2.585008 g / cm^3
# Si number density = 25.909055 Si / 1000 Ang^3
#
#
#
# Elastic Constant Matrix: (Units=GPa)
#
#
# Indices 1 2 3 4 5 6 
#
# 1 139.9477 43.3053 38.9644 -6.3677 25.9822 12.8922
# 2 43.3053 123.3885 15.9249 -26.4732 9.0838 15.0538
# 3 38.9644 15.9249 76.0700 0.4580 21.2256 14.3669
# 4 -6.3677 -26.4732 0.4580 38.8837 6.5098 -3.5670
# 5 25.9822 9.0838 21.2256 6.5098 50.4336 0.2075
# 6 12.8922 15.0538 14.3669 -3.5670 0.2075 35.1464
#
#
#
# Elastic Compliance Matrix: (Units=1/GPa)
#
#
# Indices 1 2 3 4 5 6 
#
# 1 0.009521 -0.002492 -0.003296 0.000327 -0.003107 -0.001026
# 2 -0.002492 0.010987 -0.000053 0.007057 -0.001571 -0.003045
# 3 -0.003296 -0.000053 0.017531 -0.000390 -0.005596 -0.005941
# 4 0.000327 0.007057 -0.000390 0.031497 -0.005342 0.000245
# 5 -0.003107 -0.001571 -0.005596 -0.005342 0.024742 0.003412
# 6 -0.001026 -0.003045 -0.005941 0.000245 0.003412 0.032566
#
#
# Mechanical properties :
#
#
# Convention : Reuss Voigt Hill
#
# Bulk Modulus (GPa) = 37.94075 59.53282 48.73679
# Shear Modulus (GPa) = 33.94178 40.97352 37.45765
#
# Velocity S-wave (km/s) = 3.62337 3.98104 3.80641
# Velocity P-wave (km/s) = 5.67280 6.64523 6.17818
#
# Compressibility (1/GPa) = 0.02635688
#
# Stress axis : x y z
#
# Youngs Moduli (GPa) = 105.03605 91.01674 57.04187
#
# Poissons Ratio (x) = 0.22680 0.18803
# Poissons Ratio (y) = 0.26173 0.00301
# Poissons Ratio (z) = 0.34623 0.00480
#
# Static dielectric constant tensor:
#      x y z
#    x 2.018500 -0.032510 0.021180 
#    y -0.032510 2.080210 0.052290 
#    z 0.021180 0.052290 1.995130 
# 
# From -- ./inp_files/365412.got.cif
#   From: 2010.05.17/outbox.cif.g08.bks.cpg/sg2_183_cif.got.tgz:365412.got - 2010.06.03 11:33:40.
