data_PCOD9021864
_publ_section_title
;
Structure prediction by ZEFSAII (Michael W. Deem and Ramdas Pophale) SiO2 
 PCOD9021864
Probable space group: P -1
;
_chemical_formula_sum "Si O2"
_cell_formula_units_Z 16
_cell_length_a 13.910457
_cell_length_b 10.182478
_cell_length_c 7.433059
_cell_angle_alpha 60.111609
_cell_angle_beta 78.305005
_cell_angle_gamma 45.635192
_cell_volume 634.276486
_symmetry_space_group_name_H-M "P -1"
_symmetry_group_IT_number 2
_symmetry_cell_setting 'triclinic'
loop_
_space_group_symop_operation_xyz
x,y,z
-x,-y,-z
loop_
_atom_site_type_symbol
_atom_site_label
_atom_site_fract_x
_atom_site_fract_y
_atom_site_fract_z
Si Si1 0.296910 0.023049 0.758629
Si Si2 0.437676 0.110816 0.144726
Si Si3 0.211396 0.446220 0.574036
Si Si4 0.326798 0.722274 0.215411
Si Si5 0.049998 0.041620 0.280425
Si Si6 0.160012 0.522522 0.119072
Si Si7 0.509664 0.710060 0.440592
Si Si8 0.915983 0.729751 0.650527
O O1 0.237302 0.237884 0.733905
O O2 0.204476 0.113762 0.555042
O O3 0.457697 0.892655 0.789618
O O4 0.288073 0.875142 0.965467
O O5 0.287654 0.347095 0.058617
O O6 0.440319 0.944531 0.355626
O O7 0.500000 0.000000 0.000000
O O8 0.209315 0.473259 0.340456
O O9 0.342317 0.398840 0.626777
O O10 0.060632 0.633681 0.582613
O O11 0.410511 0.731685 0.324775
O O12 0.436454 0.468480 0.310671
O O13 0.179052 0.826223 0.277152
O O14 0.112496 0.133473 0.263632
O O15 0.000000 0.000000 0.500000
O O16 0.923768 0.237375 0.071031
O O17 0.073040 0.460518 0.186850
#
# Coordination Sequence:
#
# PCOD9021864 Si02
#       8
#     2   2   2   2   2   2   2   2
#     4  10  22  38  66  93 125 168 213 266 320 379
#     4  11  23  40  69  94 126 169 218 268 317 379
#     4  10  22  42  66  94 131 169 217 267 322 381
#     4  11  22  42  64  95 131 175 214 260 324 389
#     4  12  27  40  65  96 135 169 218 265 322 389
#     4  11  25  43  67  97 127 171 218 269 321 385
#     4  10  23  38  68  92 129 170 216 260 323 377
#     4  11  23  41  66  95 132 170 217 268 318 385
#
# _framework density 25.22559
#
# number of rings (size 3 to 8) (size 9 to 14) (size 15 to 20)
#    0.000    1.250    1.250    4.875    5.250    6.500 
#    0.000    2.500    0.000    9.750    0.000    0.000 
#    0.000    0.000    0.000    0.000    0.000    0.000 
#
# Total GULP energy -89491.814992 kJ/mol
# GULP energy per Si atom -5593.238437 kJ/mol
# Density = 2.516818 g / cm^3
# Si number density = 25.225590 Si / 1000 Ang^3
#
#
#
# Elastic Constant Matrix: (Units=GPa)
#
#
# Indices 1 2 3 4 5 6 
#
# 1 85.3150 30.4069 10.6470 -2.2169 1.2329 -27.0607
# 2 30.4069 100.9729 40.4606 -6.5465 12.9974 -18.1387
# 3 10.6470 40.4606 154.1012 -37.7321 -6.1918 -7.8538
# 4 -2.2169 -6.5465 -37.7321 25.7808 0.6868 2.2619
# 5 1.2329 12.9974 -6.1918 0.6868 32.0559 -10.9891
# 6 -27.0607 -18.1387 -7.8538 2.2619 -10.9891 38.2723
#
#
#
# Elastic Compliance Matrix: (Units=1/GPa)
#
#
# Indices 1 2 3 4 5 6 
#
# 1 0.016571 -0.003848 0.000749 0.000406 0.004985 0.011454
# 2 -0.003848 0.013508 -0.004159 -0.002962 -0.005590 0.001398
# 3 0.000749 -0.004159 0.011616 0.015804 0.003955 0.001144
# 4 0.000406 -0.002962 0.015804 0.061194 0.002680 -0.000721
# 5 0.004985 -0.005590 0.003955 0.002680 0.038267 0.012517
# 6 0.011454 0.001398 0.001144 -0.000721 0.012517 0.038761
#
#
# Mechanical properties :
#
#
# Convention : Reuss Voigt Hill
#
# Bulk Modulus (GPa) = 36.79438 55.93534 46.36486
# Shear Modulus (GPa) = 24.57091 36.48011 30.52551
#
# Velocity S-wave (km/s) = 3.12436 3.80696 3.48242
# Velocity P-wave (km/s) = 5.25674 6.44563 5.88130
#
# Compressibility (1/GPa) = 0.02717806
#
# Stress axis : x y z
#
# Youngs Moduli (GPa) = 60.34704 74.03215 86.08512
#
# Poissons Ratio (x) = 0.28488 -0.06448
# Poissons Ratio (y) = 0.23222 0.35806
# Poissons Ratio (z) = -0.04520 0.30792
#
# Static dielectric constant tensor:
#      x y z
#    x 1.978140 -0.009860 -0.025800 
#    y -0.009860 2.002770 0.003730 
#    z -0.025800 0.003730 2.052560 
# 
# From -- ./inp_files/306485.got.cif
#   From: 2010.05.17/outbox.cif.g08.bks.cpg/sg2_154_cif.got.tgz:306485.got - 2010.06.03 11:33:40.
