data_PCOD9021134
_publ_section_title
;
Structure prediction by ZEFSAII (Michael W. Deem and Ramdas Pophale) SiO2 
 PCOD9021134
Probable space group: P -1
;
_chemical_formula_sum "Si O2"
_cell_formula_units_Z 16
_cell_length_a 8.592744
_cell_length_b 8.798323
_cell_length_c 12.741307
_cell_angle_alpha 101.654699
_cell_angle_beta 137.337983
_cell_angle_gamma 88.236185
_cell_volume 629.173464
_symmetry_space_group_name_H-M "P -1"
_symmetry_group_IT_number 2
_symmetry_cell_setting 'triclinic'
loop_
_space_group_symop_operation_xyz
x,y,z
-x,-y,-z
loop_
_atom_site_type_symbol
_atom_site_label
_atom_site_fract_x
_atom_site_fract_y
_atom_site_fract_z
Si Si1 0.205651 0.299415 0.278314
Si Si2 0.785474 0.569645 0.053284
Si Si3 0.888719 0.316625 0.432109
Si Si4 0.584227 0.102497 0.401700
Si Si5 0.620506 0.270162 0.079774
Si Si6 0.241429 0.176574 0.483994
Si Si7 0.701150 0.414061 0.763486
Si Si8 0.799529 0.093934 0.961078
O O1 0.369387 0.169194 0.353534
O O2 0.122642 0.278979 0.353470
O O3 0.347901 0.457382 0.326399
O O4 0.991104 0.258609 0.083827
O O5 0.650351 0.708523 0.041036
O O6 0.689590 0.487533 0.883922
O O7 0.736297 0.435203 0.100735
O O8 0.054619 0.625198 0.162565
O O9 0.744232 0.256712 0.455201
O O10 0.703980 0.269260 0.240325
O O11 0.000000 0.500000 0.500000
O O12 0.090119 0.210742 0.513268
O O13 0.740065 0.006438 0.535109
O O14 0.435327 0.979918 0.227473
O O15 0.686430 0.124867 0.024007
O O16 0.503371 0.264971 0.639176
O O17 0.000000 0.000000 0.000000
#
# Coordination Sequence:
#
# PCOD9021134 Si02
#       8
#     2   2   2   2   2   2   2   2
#     4  11  22  45  68  99 144 187 242 282 358 434
#     4  10  22  37  69 104 150 175 243 307 350 419
#     4  12  26  47  72  99 144 192 236 298 364 438
#     4  11  26  44  69 101 140 192 237 297 365 417
#     4  11  21  44  67 108 141 188 242 293 365 424
#     4  12  24  43  69 104 144 187 240 294 353 438
#     4  11  22  41  70 107 141 195 235 296 363 418
#     4  10  22  43  71  97 143 188 234 295 351 432
#
# _framework density 25.430188999999999
#
# number of rings (size 3 to 8) (size 9 to 14) (size 15 to 20)
#    0.000    1.000    2.500    4.125    1.750    2.500 
#    2.250    1.250    0.000    0.000    0.000    0.000 
#    0.000    0.000    0.000    0.000    0.000    0.000 
#
# Total GULP energy -89097.939362 kJ/mol
# GULP energy per Si atom -5568.621210 kJ/mol
# Density = 2.537231 g / cm^3
# Si number density = 25.430189 Si / 1000 Ang^3
#
#
#
# Elastic Constant Matrix: (Units=GPa)
#
#
# Indices 1 2 3 4 5 6 
#
# 1 78.8424 32.1642 10.6022 -16.1676 8.3143 -8.2654
# 2 32.1642 104.8721 21.4356 -22.2724 0.8934 -4.6726
# 3 10.6022 21.4356 55.3770 3.5751 1.9031 5.6735
# 4 -16.1676 -22.2724 3.5751 24.2580 -2.6520 2.8113
# 5 8.3143 0.8934 1.9031 -2.6520 37.5561 -2.9195
# 6 -8.2654 -4.6726 5.6735 2.8113 -2.9195 48.5511
#
#
#
# Elastic Compliance Matrix: (Units=1/GPa)
#
#
# Indices 1 2 3 4 5 6 
#
# 1 0.016335 -0.002514 -0.002837 0.008451 -0.002643 0.002222
# 2 -0.002514 0.014152 -0.005940 0.012237 0.001463 0.001008
# 3 -0.002837 -0.005940 0.021932 -0.010362 -0.001314 -0.003097
# 4 0.008451 0.012237 -0.010362 0.059845 0.002629 0.000520
# 5 -0.002643 0.001463 -0.001314 0.002629 0.027534 0.001348
# 6 0.002222 0.001008 -0.003097 0.000520 0.001348 0.021485
#
#
# Mechanical properties :
#
#
# Convention : Reuss Voigt Hill
#
# Bulk Modulus (GPa) = 33.51522 40.83283 37.17402
# Shear Modulus (GPa) = 25.79845 33.73234 29.76539
#
# Velocity S-wave (km/s) = 3.18855 3.64602 3.42493
# Velocity P-wave (km/s) = 5.17336 5.81518 5.50364
#
# Compressibility (1/GPa) = 0.02983719
#
# Stress axis : x y z
#
# Youngs Moduli (GPa) = 61.21762 70.66249 45.59585
#
# Poissons Ratio (x) = 0.17764 0.12934
# Poissons Ratio (y) = 0.15390 0.27085
# Poissons Ratio (z) = 0.17366 0.41974
#
# Static dielectric constant tensor:
#      x y z
#    x 2.111480 -0.026650 -0.034920 
#    y -0.026650 2.016330 -0.076370 
#    z -0.034920 -0.076370 2.085560 
# 
# From -- ./inp_files/495351.got.cif
#   From: 2010.05.17/outbox.cif.g08.bks.cpg/sg2_248_cif.got.tgz:495351.got - 2010.06.03 11:33:40.
