data_PCOD9021676
_publ_section_title
;
Structure prediction by ZEFSAII (Michael W. Deem and Ramdas Pophale) SiO2 
 PCOD9021676
Probable space group: P -1
;
_chemical_formula_sum "Si O2"
_cell_formula_units_Z 16
_cell_length_a 7.620903
_cell_length_b 14.342909
_cell_length_c 13.039772
_cell_angle_alpha 117.399388
_cell_angle_beta 149.142652
_cell_angle_gamma 70.833018
_cell_volume 642.036916
_symmetry_space_group_name_H-M "P -1"
_symmetry_group_IT_number 2
_symmetry_cell_setting 'triclinic'
loop_
_space_group_symop_operation_xyz
x,y,z
-x,-y,-z
loop_
_atom_site_type_symbol
_atom_site_label
_atom_site_fract_x
_atom_site_fract_y
_atom_site_fract_z
Si Si1 0.491215 0.320921 0.248359
Si Si2 0.925674 0.624270 0.284802
Si Si3 0.417731 0.845761 0.426221
Si Si4 0.726796 0.914249 0.028414
Si Si5 0.468629 0.036339 0.250143
Si Si6 0.399540 0.531989 0.810899
Si Si7 0.184150 0.620463 0.132785
Si Si8 0.779389 0.850528 0.393053
O O1 0.490247 0.203673 0.144217
O O2 0.667361 0.402230 0.289981
O O3 0.681642 0.339953 0.461615
O O4 0.089399 0.336739 0.058751
O O5 0.855904 0.505969 0.243523
O O6 0.762953 0.729748 0.288315
O O7 0.738682 0.596979 0.068383
O O8 0.293647 0.719621 0.312544
O O9 0.671208 0.856217 0.460780
O O10 0.432172 0.099864 0.368096
O O11 0.078157 0.900647 0.256870
O O12 0.801638 0.945549 0.963497
O O13 0.500000 0.000000 0.000000
O O14 0.839943 0.090230 0.414841
O O15 0.520023 0.915678 0.235450
O O16 0.466461 0.414784 0.751450
O O17 0.000000 0.500000 0.000000
#
# Coordination Sequence:
#
# PCOD9021676 Si02
#       8
#     2   2   2   2   2   2   2   2
#     4  10  22  38  64  91 131 172 219 272 332 393
#     4  11  22  39  64  94 130 171 226 268 335 403
#     4  11  24  45  68  96 138 175 224 278 332 401
#     4  11  24  41  66 102 133 175 228 274 329 403
#     4  11  25  43  69  97 132 180 222 277 339 388
#     4  10  22  40  63  94 128 174 218 276 333 392
#     4   9  20  38  62  92 129 172 215 268 328 385
#     4  11  23  43  69  97 132 177 225 274 335 402
#
# _framework density 24.920686
#
# number of rings (size 3 to 8) (size 9 to 14) (size 15 to 20)
#    0.000    1.500    2.500    2.250    7.000    1.000 
#    0.000    6.250    0.000    0.000    0.000    0.000 
#    0.000    0.000    0.000    0.000    0.000    0.000 
#
# Total GULP energy -89289.219032 kJ/mol
# GULP energy per Si atom -5580.576189 kJ/mol
# Density = 2.486397 g / cm^3
# Si number density = 24.920686 Si / 1000 Ang^3
#
#
#
# Elastic Constant Matrix: (Units=GPa)
#
#
# Indices 1 2 3 4 5 6 
#
# 1 77.8954 42.5267 24.3830 7.3689 -13.7350 -7.8355
# 2 42.5267 170.3194 55.7091 7.7207 -11.2529 -7.7184
# 3 24.3830 55.7091 124.3113 7.1710 -23.1213 -16.9229
# 4 7.3689 7.7207 7.1710 29.5838 2.8281 1.5368
# 5 -13.7350 -11.2529 -23.1213 2.8281 39.1240 4.1339
# 6 -7.8355 -7.7184 -16.9229 1.5368 4.1339 46.9727
#
#
#
# Elastic Compliance Matrix: (Units=1/GPa)
#
#
# Indices 1 2 3 4 5 6 
#
# 1 0.016099 -0.003360 -0.000367 -0.003568 0.004545 0.001718
# 2 -0.003360 0.007618 -0.002890 -0.000375 -0.000640 -0.000282
# 3 -0.000367 -0.002890 0.010967 -0.002484 0.005381 0.003023
# 4 -0.003568 -0.000375 -0.002484 0.036005 -0.005191 -0.002273
# 5 0.004545 -0.000640 0.005381 -0.005191 0.030519 0.000076
# 6 0.001718 -0.000282 0.003023 -0.002273 0.000076 0.022686
#
#
# Mechanical properties :
#
#
# Convention : Reuss Voigt Hill
#
# Bulk Modulus (GPa) = 46.62227 68.64044 57.63135
# Shear Modulus (GPa) = 34.65544 39.79658 37.22601
#
# Velocity S-wave (km/s) = 3.73316 4.00050 3.86914
# Velocity P-wave (km/s) = 6.10990 6.99585 6.56783
#
# Compressibility (1/GPa) = 0.02144898
#
# Stress axis : x y z
#
# Youngs Moduli (GPa) = 62.11757 131.27505 91.17960
#
# Poissons Ratio (x) = 0.44104 0.03347
# Poissons Ratio (y) = 0.20870 0.26355
# Poissons Ratio (z) = 0.02280 0.37945
#
# Static dielectric constant tensor:
#      x y z
#    x 2.519740 0.025200 0.115560 
#    y 0.025200 1.961560 -0.002660 
#    z 0.115560 -0.002660 2.022420 
# 
# From -- ./inp_files/504226.got.cif
#   From: 2010.05.17/outbox.cif.g08.bks.cpg/sg2_253_cif.got.tgz:504226.got - 2010.06.03 11:33:40.
