data_PCOD9021424
_publ_section_title
;
Structure prediction by ZEFSAII (Michael W. Deem and Ramdas Pophale) SiO2 
 PCOD9021424
Probable space group: P -1
;
_chemical_formula_sum "Si O2"
_cell_formula_units_Z 14
_cell_length_a 12.608124
_cell_length_b 10.562716
_cell_length_c 15.311285
_cell_angle_alpha 64.677312
_cell_angle_beta 27.872986
_cell_angle_gamma 83.121402
_cell_volume 681.953697
_symmetry_space_group_name_H-M "P -1"
_symmetry_group_IT_number 2
_symmetry_cell_setting 'triclinic'
loop_
_space_group_symop_operation_xyz
x,y,z
-x,-y,-z
loop_
_atom_site_type_symbol
_atom_site_label
_atom_site_fract_x
_atom_site_fract_y
_atom_site_fract_z
Si Si1 0.440270 0.660554 0.401406
Si Si2 0.223197 0.481240 0.187668
Si Si3 0.943585 0.817790 0.114740
Si Si4 0.630993 0.125943 0.732066
Si Si5 0.179478 0.612924 0.001322
Si Si6 0.303835 0.353990 0.470160
Si Si7 0.234886 0.753571 0.204045
O O1 0.690986 0.690763 0.267089
O O2 0.516045 0.835418 0.247440
O O3 0.369365 0.532987 0.408602
O O4 0.157676 0.560903 0.698698
O O5 0.265837 0.596443 0.039697
O O6 0.180424 0.574155 0.269317
O O7 0.964565 0.274652 0.421183
O O8 0.500000 0.500000 0.000000
O O9 0.838632 0.769687 0.304884
O O10 0.172655 0.778681 0.947004
O O11 0.000000 0.000000 0.000000
O O12 0.639468 0.187733 0.807267
O O13 0.473149 0.918937 0.919736
O O14 0.405640 0.617446 0.774914
O O15 0.065056 0.278133 0.589690
#
# Coordination Sequence:
#
# PCOD9021424 Si02
#       7
#     2   2   2   2   2   2   2
#     4  10  22  39  63  90 121 165 208 256 313 368
#     4  11  22  38  64  91 128 166 207 256 315 373
#     4  11  23  41  64  88 128 164 204 265 313 363
#     4  10  22  38  61  92 124 165 211 251 317 369
#     4  10  22  39  61  95 117 163 213 253 310 372
#     4  11  21  40  66  88 123 163 209 259 308 377
#     4  11  21  39  64  90 127 168 204 261 313 369
#
# _framework density 20.529252
#
# number of rings (size 3 to 8) (size 9 to 14) (size 15 to 20)
#    0.000    1.429    4.286    3.857    2.000    3.429 
#    0.000    1.429    0.000    0.000    0.000    0.000 
#    0.000    0.000    0.000    0.000    0.000    0.000 
#
# Total GULP energy -77999.730559 kJ/mol
# GULP energy per Si atom -5571.409326 kJ/mol
# Density = 2.048253 g / cm^3
# Si number density = 20.529252 Si / 1000 Ang^3
#
#
#
# Elastic Constant Matrix: (Units=GPa)
#
#
# Indices 1 2 3 4 5 6 
#
# 1 86.4753 11.2143 18.6746 7.2848 -11.0478 -22.7177
# 2 11.2143 60.5627 51.3948 4.1171 -5.8402 -17.7112
# 3 18.6746 51.3948 73.5106 12.5242 -5.9029 -10.5382
# 4 7.2848 4.1171 12.5242 41.2013 -5.0120 0.7013
# 5 -11.0478 -5.8402 -5.9029 -5.0120 33.1883 0.8740
# 6 -22.7177 -17.7112 -10.5382 0.7013 0.8740 36.6493
#
#
#
# Elastic Compliance Matrix: (Units=1/GPa)
#
#
# Indices 1 2 3 4 5 6 
#
# 1 0.015586 0.005752 -0.005879 -0.001153 0.004700 0.010660
# 2 0.005752 0.049615 -0.034040 0.004662 0.004833 0.017550
# 3 -0.005879 -0.034040 0.038748 -0.007425 -0.001946 -0.008764
# 4 -0.001153 0.004662 -0.007425 0.026673 0.003175 -0.001183
# 5 0.004700 0.004833 -0.001946 0.003175 0.032578 0.003852
# 6 0.010660 0.017550 -0.008764 -0.001183 0.003852 0.039786
#
#
# Mechanical properties :
#
#
# Convention : Reuss Voigt Hill
#
# Bulk Modulus (GPa) = 28.07712 42.56845 35.32279
# Shear Modulus (GPa) = 17.65591 31.49209 24.57400
#
# Velocity S-wave (km/s) = 2.93582 3.92089 3.46356
# Velocity P-wave (km/s) = 5.01980 6.42483 5.76527
#
# Compressibility (1/GPa) = 0.03561619
#
# Stress axis : x y z
#
# Youngs Moduli (GPa) = 64.16107 20.15506 25.80760
#
# Poissons Ratio (x) = -0.11594 0.15172
# Poissons Ratio (y) = -0.36906 0.87849
# Poissons Ratio (z) = 0.37720 0.68608
#
# Static dielectric constant tensor:
#      x y z
#    x 1.826080 0.021980 0.048110 
#    y 0.021980 1.752850 -0.038440 
#    z 0.048110 -0.038440 1.815320 
# 
# From -- ./inp_files/396280.got.cif
#   From: 2010.05.17/outbox.cif.g08.bks.cpg/sg2_199_cif.got.tgz:396280.got - 2010.06.03 11:33:40.
