data_PCOD9021884
_publ_section_title
;
Structure prediction by ZEFSAII (Michael W. Deem and Ramdas Pophale) SiO2 
 PCOD9021884
Probable space group: P -1
;
_chemical_formula_sum "Si O2"
_cell_formula_units_Z 13
_cell_length_a 5.238131
_cell_length_b 14.069856
_cell_length_c 11.554893
_cell_angle_alpha 137.459316
_cell_angle_beta 61.956942
_cell_angle_gamma 120.573766
_cell_volume 489.028981
_symmetry_space_group_name_H-M "P -1"
_symmetry_group_IT_number 2
_symmetry_cell_setting 'triclinic'
loop_
_space_group_symop_operation_xyz
x,y,z
-x,-y,-z
loop_
_atom_site_type_symbol
_atom_site_label
_atom_site_fract_x
_atom_site_fract_y
_atom_site_fract_z
Si Si1 0.863695 0.035825 0.941865
Si Si2 0.000000 0.500000 0.500000
Si Si3 0.645280 0.805522 0.345817
Si Si4 0.692815 0.268835 0.083979
Si Si5 0.364646 0.914649 0.281753
Si Si6 0.200377 0.263251 0.378822
Si Si7 0.425361 0.458201 0.727449
O O1 0.913686 0.909447 0.734977
O O2 0.943933 0.197696 0.018667
O O3 0.500000 0.000000 0.000000
O O4 0.000000 0.000000 0.000000
O O5 0.993540 0.342527 0.423790
O O6 0.239277 0.473371 0.329085
O O7 0.487362 0.840080 0.295255
O O8 0.568308 0.636858 0.246626
O O9 0.004030 0.858688 0.306469
O O10 0.558193 0.911951 0.556273
O O11 0.505155 0.294950 0.261801
O O12 0.750097 0.417340 0.132167
O O13 0.535860 0.145295 0.912226
O O14 0.277795 0.343888 0.555138
#
# Coordination Sequence:
#
# PCOD9021884 Si02
#       7
#     2   1   2   2   2   2   2
#     4  10  23  39  62  93 133 177 223 276 336 400
#     4  10  22  38  66  96 134 184 224 274 344 408
#     4  10  24  46  72  98 133 184 231 288 348 409
#     4  10  22  43  65 101 139 174 229 289 339 412
#     4  10  23  47  71 100 135 177 239 287 341 411
#     4  10  23  40  64  96 138 183 224 279 346 418
#     4  11  24  43  68 100 142 186 229 286 348 420
#
# _framework density 26.583295
#
# number of rings (size 3 to 8) (size 9 to 14) (size 15 to 20)
#    0.000    1.846    0.000    2.769    8.615    3.692 
#    8.308    0.000    0.000    0.000    0.000    0.000 
#    0.000    0.000    0.000    0.000    0.000    0.000 
#
# Total GULP energy -72510.940954 kJ/mol
# GULP energy per Si atom -5577.764689 kJ/mol
# Density = 2.652279 g / cm^3
# Si number density = 26.583295 Si / 1000 Ang^3
#
#
#
# Elastic Constant Matrix: (Units=GPa)
#
#
# Indices 1 2 3 4 5 6 
#
# 1 129.9978 54.7677 37.7964 3.9448 -17.9512 -40.4695
# 2 54.7677 155.8235 40.5085 41.8500 -15.4984 -58.5222
# 3 37.7964 40.5085 122.6584 27.4672 -0.3754 -33.1637
# 4 3.9448 41.8500 27.4672 50.5660 -14.7334 -21.6170
# 5 -17.9512 -15.4984 -0.3754 -14.7334 40.5436 1.8575
# 6 -40.4695 -58.5222 -33.1637 -21.6170 1.8575 61.2165
#
#
#
# Elastic Compliance Matrix: (Units=1/GPa)
#
#
# Indices 1 2 3 4 5 6 
#
# 1 0.012365 -0.002370 -0.002841 0.007470 0.006946 0.006796
# 2 -0.002370 0.011805 0.000298 -0.006226 0.000853 0.007656
# 3 -0.002841 0.000298 0.010865 -0.005899 -0.003293 0.002310
# 4 0.007470 -0.006226 -0.005899 0.034628 0.013107 0.007620
# 5 0.006946 0.000853 -0.003293 0.013107 0.032466 0.007266
# 6 0.006796 0.007656 0.002310 0.007620 0.007266 0.031869
#
#
# Mechanical properties :
#
#
# Convention : Reuss Voigt Hill
#
# Bulk Modulus (GPa) = 39.66760 74.95831 57.31295
# Shear Modulus (GPa) = 32.84548 48.82570 40.83559
#
# Velocity S-wave (km/s) = 3.51888 4.29033 3.92361
# Velocity P-wave (km/s) = 5.60931 7.26645 6.49098
#
# Compressibility (1/GPa) = 0.02520949
#
# Stress axis : x y z
#
# Youngs Moduli (GPa) = 80.87110 84.70702 92.03697
#
# Poissons Ratio (x) = 0.20078 0.26151
# Poissons Ratio (y) = 0.19169 -0.02747
# Poissons Ratio (z) = 0.22979 -0.02528
#
# Static dielectric constant tensor:
#      x y z
#    x 2.202920 0.083200 0.033880 
#    y 0.083200 2.103680 0.031430 
#    z 0.033880 0.031430 2.094870 
# 
# From -- ./inp_files/366485.got.cif
#   From: 2010.05.17/outbox.cif.g08.bks.cpg/sg2_184_cif.got.tgz:366485.got - 2010.06.03 11:33:40.
