data_PCOD9021796
_publ_section_title
;
Structure prediction by ZEFSAII (Michael W. Deem and Ramdas Pophale) SiO2 
 PCOD9021796
Probable space group: P -1
;
_chemical_formula_sum "Si O2"
_cell_formula_units_Z 14
_cell_length_a 22.248884
_cell_length_b 13.411525
_cell_length_c 27.834059
_cell_angle_alpha 23.359530
_cell_angle_beta 10.547808
_cell_angle_gamma 24.305479
_cell_volume 598.333078
_symmetry_space_group_name_H-M "P -1"
_symmetry_group_IT_number 2
_symmetry_cell_setting 'triclinic'
loop_
_space_group_symop_operation_xyz
x,y,z
-x,-y,-z
loop_
_atom_site_type_symbol
_atom_site_label
_atom_site_fract_x
_atom_site_fract_y
_atom_site_fract_z
Si Si1 0.343551 0.540766 0.687934
Si Si2 0.856537 0.683097 0.296972
Si Si3 0.365534 0.193273 0.732768
Si Si4 0.717958 0.248140 0.158890
Si Si5 0.748551 0.803669 0.769219
Si Si6 0.655470 0.229159 0.802778
Si Si7 0.422862 0.217479 0.189425
O O1 0.608911 0.543640 0.520120
O O2 0.439766 0.342249 0.656997
O O3 0.368049 0.794442 0.524542
O O4 0.000000 0.500000 0.000000
O O5 0.027671 0.468732 0.292615
O O6 0.663631 0.957201 0.341352
O O7 0.142568 0.751323 0.005539
O O8 0.347118 0.918688 0.889992
O O9 0.016531 0.299810 0.936808
O O10 0.453587 0.496236 0.257518
O O11 0.555115 0.888752 0.835118
O O12 0.497119 0.771260 0.024045
O O13 0.000000 0.000000 0.500000
O O14 0.049362 0.187173 0.511695
O O15 0.500000 0.000000 0.000000
O O16 0.500000 0.500000 0.000000
#
# Coordination Sequence:
#
# PCOD9021796 Si02
#       7
#     2   2   2   2   2   2   2
#     4  10  22  38  65  96 128 169 222 278 343 397
#     4   9  19  38  65  94 126 171 223 280 330 395
#     4  10  23  42  65  95 137 172 218 282 340 403
#     4   9  20  42  68  93 126 172 228 277 334 398
#     4  11  22  42  70  98 138 182 232 281 346 420
#     4  11  25  44  74  99 132 185 240 285 343 419
#     4  12  27  44  66 103 145 182 226 286 356 410
#
# _framework density 23.398337999999999
#
# number of rings (size 3 to 8) (size 9 to 14) (size 15 to 20)
#    0.000    1.714    1.429    1.714    6.000    6.286 
#    0.000    2.143    0.000    0.000    0.000    0.000 
#    0.000    0.000    0.000    0.000    0.000    0.000 
#
# Total GULP energy -78184.110157 kJ/mol
# GULP energy per Si atom -5584.579297 kJ/mol
# Density = 2.334508 g / cm^3
# Si number density = 23.398338 Si / 1000 Ang^3
#
#
#
# Elastic Constant Matrix: (Units=GPa)
#
#
# Indices 1 2 3 4 5 6 
#
# 1 96.9659 15.4350 32.2568 5.6832 19.2596 -10.5139
# 2 15.4350 83.5935 -10.8545 -6.9383 8.6322 -12.9289
# 3 32.2568 -10.8545 64.4130 -1.3529 21.6349 8.8046
# 4 5.6832 -6.9383 -1.3529 28.5395 9.7991 -4.0801
# 5 19.2596 8.6322 21.6349 9.7991 39.8877 -6.3113
# 6 -10.5139 -12.9289 8.8046 -4.0801 -6.3113 40.0784
#
#
#
# Elastic Compliance Matrix: (Units=1/GPa)
#
#
# Indices 1 2 3 4 5 6 
#
# 1 0.014284 -0.003338 -0.008283 -0.003392 -0.000198 0.004113
# 2 -0.003338 0.014986 0.006162 0.007114 -0.006353 0.002329
# 3 -0.008283 0.006162 0.027103 0.008610 -0.015365 -0.007682
# 4 -0.003392 0.007114 0.008610 0.043204 -0.014938 0.001560
# 5 -0.000198 -0.006353 -0.015365 -0.014938 0.039490 0.005972
# 6 0.004113 0.002329 -0.007682 0.001560 0.005972 0.029568
#
#
# Mechanical properties :
#
#
# Convention : Reuss Voigt Hill
#
# Bulk Modulus (GPa) = 21.99997 35.40523 28.70260
# Shear Modulus (GPa) = 25.68010 35.57679 30.62845
#
# Velocity S-wave (km/s) = 3.31648 3.90357 3.62194
# Velocity P-wave (km/s) = 4.90797 5.95663 5.45755
#
# Compressibility (1/GPa) = 0.04545461
#
# Stress axis : x y z
#
# Youngs Moduli (GPa) = 70.01032 66.73022 36.89677
#
# Poissons Ratio (x) = 0.22273 0.30560
# Poissons Ratio (y) = 0.23368 -0.22735
# Poissons Ratio (z) = 0.57986 -0.41117
#
# Static dielectric constant tensor:
#      x y z
#    x 1.886210 0.018610 0.031550 
#    y 0.018610 1.993470 -0.042390 
#    z 0.031550 -0.042390 1.871850 
# 
# From -- ./inp_files/624189.got.cif
#   From: 2010.05.17/outbox.cif.g08.bks.cpg/sg2_313_cif.got.tgz:624189.got - 2010.06.03 11:33:40.
