data_PCOD9021298
_publ_section_title
;
Structure prediction by ZEFSAII (Michael W. Deem and Ramdas Pophale) SiO2 
 PCOD9021298
Probable space group: P -1
;
_chemical_formula_sum "Si O2"
_cell_formula_units_Z 14
_cell_length_a 22.099614
_cell_length_b 5.592720
_cell_length_c 6.804253
_cell_angle_alpha 105.646581
_cell_angle_beta 118.546562
_cell_angle_gamma 100.814065
_cell_volume 659.695153
_symmetry_space_group_name_H-M "P -1"
_symmetry_group_IT_number 2
_symmetry_cell_setting 'triclinic'
loop_
_space_group_symop_operation_xyz
x,y,z
-x,-y,-z
loop_
_atom_site_type_symbol
_atom_site_label
_atom_site_fract_x
_atom_site_fract_y
_atom_site_fract_z
Si Si1 0.815846 0.791282 0.843491
Si Si2 0.643117 0.499280 0.555139
Si Si3 0.079625 0.406995 0.310011
Si Si4 0.571365 0.855491 0.258773
Si Si5 0.916540 0.269886 0.936148
Si Si6 0.076930 0.244148 0.698208
Si Si7 0.447387 0.492422 0.229888
O O1 0.730810 0.610022 0.679286
O O2 0.863060 0.694351 0.736506
O O3 0.838349 0.091308 0.866759
O O4 0.855889 0.821211 0.122249
O O5 0.612479 0.686924 0.410565
O O6 0.625372 0.528769 0.765409
O O7 0.607392 0.178120 0.387985
O O8 0.090990 0.695175 0.298772
O O9 0.095467 0.403531 0.560760
O O10 0.991384 0.228491 0.104362
O O11 0.491263 0.754761 0.223817
O O12 0.563957 0.742329 0.999148
O O13 0.935177 0.562487 0.116242
O O14 0.000000 0.000000 0.500000
O O15 0.500000 0.500000 0.500000
#
# Coordination Sequence:
#
# PCOD9021298 Si02
#       7
#     2   2   2   2   2   2   2
#     4  11  25  40  60  89 129 168 215 272 338 393
#     4  11  25  43  66 101 146 177 222 279 336 403
#     4  10  22  38  60  83 116 157 217 271 328 385
#     4  10  23  43  72 103 135 182 224 266 336 405
#     4  10  22  38  60  84 116 164 214 276 328 395
#     4  11  23  38  61  91 115 160 227 278 328 392
#     4   9  21  44  74 104 136 177 226 273 324 401
#
# _framework density 21.221920999999998
#
# number of rings (size 3 to 8) (size 9 to 14) (size 15 to 20)
#    0.000    1.714    1.429    1.286    8.000    8.571 
#    2.571    0.000    0.000    0.000    0.000    0.000 
#    0.000    0.000    0.000    0.000    0.000    0.000 
#
# Total GULP energy -77987.365203 kJ/mol
# GULP energy per Si atom -5570.526086 kJ/mol
# Density = 2.117362 g / cm^3
# Si number density = 21.221921 Si / 1000 Ang^3
#
#
#
# Elastic Constant Matrix: (Units=GPa)
#
#
# Indices 1 2 3 4 5 6 
#
# 1 87.0968 16.3948 22.6716 8.5445 0.1832 26.0460
# 2 16.3948 99.1132 30.5890 0.1106 3.6999 13.1227
# 3 22.6716 30.5890 70.9151 -22.5593 -17.2911 11.4340
# 4 8.5445 0.1106 -22.5593 40.5713 6.1059 -0.9058
# 5 0.1832 3.6999 -17.2911 6.1059 28.8769 2.8888
# 6 26.0460 13.1227 11.4340 -0.9058 2.8888 33.1977
#
#
#
# Elastic Compliance Matrix: (Units=1/GPa)
#
#
# Indices 1 2 3 4 5 6 
#
# 1 0.017294 0.000826 -0.006739 -0.007423 -0.001516 -0.011644
# 2 0.000826 0.012971 -0.007973 -0.003897 -0.005350 -0.002670
# 3 -0.006739 -0.007973 0.028539 0.014968 0.015219 -0.002307
# 4 -0.007423 -0.003897 0.014968 0.034317 0.001955 0.002975
# 5 -0.001516 -0.005350 0.015219 0.001955 0.044601 -0.005765
# 6 -0.011644 -0.002670 -0.002307 0.002975 -0.005765 0.041691
#
#
# Mechanical properties :
#
#
# Convention : Reuss Voigt Hill
#
# Bulk Modulus (GPa) = 32.22414 44.04841 38.13627
# Shear Modulus (GPa) = 22.98556 33.02718 28.00637
#
# Velocity S-wave (km/s) = 3.29463 3.94925 3.63670
# Velocity P-wave (km/s) = 5.44886 6.44954 5.97020
#
# Compressibility (1/GPa) = 0.03103264
#
# Stress axis : x y z
#
# Youngs Moduli (GPa) = 57.82444 77.09491 35.03986
#
# Poissons Ratio (x) = -0.06365 0.23612
# Poissons Ratio (y) = -0.04774 0.27936
# Poissons Ratio (z) = 0.38965 0.61465
#
# Static dielectric constant tensor:
#      x y z
#    x 1.825490 -0.082040 0.021960 
#    y -0.082040 1.994830 -0.034760 
#    z 0.021960 -0.034760 1.796020 
# 
# From -- ./inp_files/121802.got.cif
#   From: 2010.05.17/outbox.cif.g08.bks.cpg/sg2_61_cif.got.tgz:121802.got - 2010.06.03 11:33:40.
