data_PCOD9021054
_publ_section_title
;
Structure prediction by ZEFSAII (Michael W. Deem and Ramdas Pophale) SiO2 
 PCOD9021054
Probable space group: P -1
;
_chemical_formula_sum "Si O2"
_cell_formula_units_Z 12
_cell_length_a 13.672731
_cell_length_b 14.168333
_cell_length_c 11.896734
_cell_angle_alpha 137.721222
_cell_angle_beta 136.142247
_cell_angle_gamma 21.793785
_cell_volume 570.239714
_symmetry_space_group_name_H-M "P -1"
_symmetry_group_IT_number 2
_symmetry_cell_setting 'triclinic'
loop_
_space_group_symop_operation_xyz
x,y,z
-x,-y,-z
loop_
_atom_site_type_symbol
_atom_site_label
_atom_site_fract_x
_atom_site_fract_y
_atom_site_fract_z
Si Si1 0.754240 0.954017 0.463098
Si Si2 0.146871 0.408084 0.423167
Si Si3 0.729599 0.772248 0.078071
Si Si4 0.949559 0.047382 0.813289
Si Si5 0.369280 0.750189 0.064994
Si Si6 0.805580 0.493495 0.085863
O O1 0.751633 0.889021 0.279945
O O2 0.983258 0.675919 0.472712
O O3 0.461653 0.175137 0.470642
O O4 0.848982 0.035077 0.619245
O O5 0.000000 0.500000 0.500000
O O6 0.071953 0.342282 0.219214
O O7 0.691002 0.674663 0.045716
O O8 0.000000 0.500000 0.000000
O O9 0.500000 0.000000 0.000000
O O10 0.844436 0.046865 0.835905
O O11 0.848970 0.291195 0.928379
O O12 0.247965 0.820666 0.904177
O O13 0.585984 0.686959 0.173535
O O14 0.500000 0.500000 0.000000
#
# Coordination Sequence:
#
# PCOD9021054 Si02
#       6
#     2   2   2   2   2   2
#     4  11  25  42  64  96 129 172 216 275 327 381
#     4  11  24  38  62  98 139 171 213 254 321 405
#     4  11  25  48  69  89 123 173 230 288 332 369
#     4  10  22  37  65  95 138 168 209 258 325 404
#     4   9  20  36  60  95 137 174 203 242 329 400
#     4  10  23  39  66  92 126 175 217 264 324 392
#
# _framework density 21.043780999999999
#
# number of rings (size 3 to 8) (size 9 to 14) (size 15 to 20)
#    0.000    1.667    0.000    3.500   18.667    0.000 
#    0.000    1.667    0.000    0.000    0.000    0.000 
#    0.000    0.000    0.000    0.000    0.000    0.000 
#
# Total GULP energy -66892.094099 kJ/mol
# GULP energy per Si atom -5574.341175 kJ/mol
# Density = 2.099588 g / cm^3
# Si number density = 21.043781 Si / 1000 Ang^3
#
#
#
# Elastic Constant Matrix: (Units=GPa)
#
#
# Indices 1 2 3 4 5 6 
#
# 1 65.2704 29.9277 33.8574 1.0350 7.7349 13.5831
# 2 29.9277 125.3919 51.3098 -6.2231 3.8909 1.6854
# 3 33.8574 51.3098 159.0437 6.5332 15.7727 15.9213
# 4 1.0350 -6.2231 6.5332 23.0319 0.1548 -2.3042
# 5 7.7349 3.8909 15.7727 0.1548 36.9409 -0.3689
# 6 13.5831 1.6854 15.9213 -2.3042 -0.3689 39.0061
#
#
#
# Elastic Compliance Matrix: (Units=1/GPa)
#
#
# Indices 1 2 3 4 5 6 
#
# 1 0.019742 -0.003819 -0.001996 -0.001937 -0.002931 -0.006037
# 2 -0.003819 0.010248 -0.002994 0.004019 0.001005 0.002356
# 3 -0.001996 -0.002994 0.008383 -0.003360 -0.002860 -0.002823
# 4 -0.001937 0.004019 -0.003360 0.045996 0.001270 0.004602
# 5 -0.002931 0.001005 -0.002860 0.001270 0.028819 0.002492
# 6 -0.006037 0.002356 -0.002823 0.004602 0.002492 0.029085
#
#
# Mechanical properties :
#
#
# Convention : Reuss Voigt Hill
#
# Bulk Modulus (GPa) = 48.18164 64.43289 56.30727
# Shear Modulus (GPa) = 29.97447 35.43650 32.70548
#
# Velocity S-wave (km/s) = 3.77820 4.10804 3.94657
# Velocity P-wave (km/s) = 6.47909 7.29289 6.89800
#
# Compressibility (1/GPa) = 0.02075479
#
# Stress axis : x y z
#
# Youngs Moduli (GPa) = 50.65382 97.57831 119.29554
#
# Poissons Ratio (x) = 0.37267 0.23810
# Poissons Ratio (y) = 0.19346 0.35715
# Poissons Ratio (z) = 0.10110 0.29213
#
# Static dielectric constant tensor:
#      x y z
#    x 1.794740 -0.070200 -0.028100 
#    y -0.070200 1.825930 0.008330 
#    z -0.028100 0.008330 1.865790 
# 
# From -- ./inp_files/32865.got.cif
#   From: 2010.05.17/outbox.cif.g08.bks.cpg/sg2_17_cif.got.tgz:32865.got - 2010.06.03 11:33:40.
