data_PCOD9021199
_publ_section_title
;
Structure prediction by ZEFSAII (Michael W. Deem and Ramdas Pophale) SiO2 
 PCOD9021199
Probable space group: P -1
;
_chemical_formula_sum "Si O2"
_cell_formula_units_Z 16
_cell_length_a 8.665302
_cell_length_b 17.477293
_cell_length_c 14.687919
_cell_angle_alpha 30.848922
_cell_angle_beta 42.016871
_cell_angle_gamma 40.534219
_cell_volume 713.469895
_symmetry_space_group_name_H-M "P -1"
_symmetry_group_IT_number 2
_symmetry_cell_setting 'triclinic'
loop_
_space_group_symop_operation_xyz
x,y,z
-x,-y,-z
loop_
_atom_site_type_symbol
_atom_site_label
_atom_site_fract_x
_atom_site_fract_y
_atom_site_fract_z
Si Si1 0.342673 0.549272 0.429734
Si Si2 0.882726 0.853444 0.966029
Si Si3 0.548081 0.351981 0.364115
Si Si4 0.938244 0.855429 0.626125
Si Si5 0.396457 0.043243 0.712142
Si Si6 0.063466 0.546135 0.321900
Si Si7 0.783882 0.977056 0.378327
Si Si8 0.597192 0.126004 0.940922
O O1 0.500000 0.500000 0.500000
O O2 0.472084 0.413586 0.436964
O O3 0.345701 0.716949 0.223202
O O4 0.070156 0.555824 0.568439
O O5 0.734816 0.030760 0.888995
O O6 0.695160 0.827869 0.000417
O O7 0.137121 0.867350 0.805370
O O8 0.940486 0.721796 0.154853
O O9 0.471114 0.198426 0.534381
O O10 0.357108 0.489483 0.246329
O O11 0.840498 0.300715 0.278151
O O12 0.943242 0.866080 0.502784
O O13 0.652541 0.893842 0.734356
O O14 0.000000 0.000000 0.500000
O O15 0.209745 0.064227 0.689267
O O16 0.309356 0.996951 0.892216
O O17 0.000000 0.500000 0.500000
O O18 0.500000 0.000000 0.500000
#
# Coordination Sequence:
#
# PCOD9021199 Si02
#       8
#     2   2   2   2   2   2   2   2
#     4  11  23  39  60  94 139 173 218 268 338 397
#     4  11  23  41  66  96 136 172 225 273 325 399
#     4  10  22  39  63  90 129 177 213 269 333 379
#     4   9  19  41  69  91 122 168 219 266 319 388
#     4  10  22  40  67  96 128 167 225 271 326 390
#     4  10  22  38  57  91 137 171 208 268 334 389
#     4  10  23  40  69 100 126 165 225 277 323 384
#     4  11  24  39  67  99 128 177 220 272 334 395
#
# _framework density 22.425615000000001
#
# number of rings (size 3 to 8) (size 9 to 14) (size 15 to 20)
#    0.000    1.750    1.250    3.000    8.750    0.500 
#    0.000    0.625    0.000    7.500    0.000    0.000 
#    0.000    0.000    0.000    0.000    0.000    0.000 
#
# Total GULP energy -89185.412878 kJ/mol
# GULP energy per Si atom -5574.088305 kJ/mol
# Density = 2.237457 g / cm^3
# Si number density = 22.425615 Si / 1000 Ang^3
#
#
#
# Elastic Constant Matrix: (Units=GPa)
#
#
# Indices 1 2 3 4 5 6 
#
# 1 145.3377 36.2758 13.6900 -3.3630 0.3146 -13.4035
# 2 36.2758 64.1264 -1.4270 -6.5336 -5.5736 -15.7321
# 3 13.6900 -1.4270 65.4226 -5.6051 -7.8012 -3.0104
# 4 -3.3630 -6.5336 -5.6051 21.1903 -4.0292 1.5065
# 5 0.3146 -5.5736 -7.8012 -4.0292 34.8000 6.8787
# 6 -13.4035 -15.7321 -3.0104 1.5065 6.8787 26.7478
#
#
#
# Elastic Compliance Matrix: (Units=1/GPa)
#
#
# Indices 1 2 3 4 5 6 
#
# 1 0.008368 -0.004613 -0.002074 -0.001102 -0.001755 0.001760
# 2 -0.004613 0.021529 0.002789 0.006535 0.002988 0.009528
# 3 -0.002074 0.002789 0.016889 0.005831 0.004738 0.000955
# 4 -0.001102 0.006535 0.005831 0.052308 0.008662 -0.001226
# 5 -0.001755 0.002988 0.004738 0.008662 0.032779 -0.007506
# 6 0.001760 0.009528 0.000955 -0.001226 -0.007506 0.045979
#
#
# Mechanical properties :
#
#
# Convention : Reuss Voigt Hill
#
# Bulk Modulus (GPa) = 25.64760 41.32935 33.48848
# Shear Modulus (GPa) = 25.17074 31.63748 28.40411
#
# Velocity S-wave (km/s) = 3.35387 3.76010 3.56278
# Velocity P-wave (km/s) = 5.14388 6.10907 5.64713
#
# Compressibility (1/GPa) = 0.03899000
#
# Stress axis : x y z
#
# Youngs Moduli (GPa) = 119.50465 46.44946 59.21151
#
# Poissons Ratio (x) = 0.21426 0.12282
# Poissons Ratio (y) = 0.55125 -0.16517
# Poissons Ratio (z) = 0.24789 -0.12957
#
# Static dielectric constant tensor:
#      x y z
#    x 1.837790 -0.040690 0.002080 
#    y -0.040690 1.962460 0.035000 
#    z 0.002080 0.035000 1.865570 
# 
# From -- ./inp_files/495754.got.cif
#   From: 2010.05.17/outbox.cif.g08.bks.cpg/sg2_248_cif.got.tgz:495754.got - 2010.06.03 11:33:40.
