data_PCOD9021230
_publ_section_title
;
Structure prediction by ZEFSAII (Michael W. Deem and Ramdas Pophale) SiO2 
 PCOD9021230
Probable space group: P -1
;
_chemical_formula_sum "Si O2"
_cell_formula_units_Z 16
_cell_length_a 14.301859
_cell_length_b 14.386922
_cell_length_c 15.325771
_cell_angle_alpha 36.032011
_cell_angle_beta 40.026731
_cell_angle_gamma 20.238290
_cell_volume 641.300594
_symmetry_space_group_name_H-M "P -1"
_symmetry_group_IT_number 2
_symmetry_cell_setting 'triclinic'
loop_
_space_group_symop_operation_xyz
x,y,z
-x,-y,-z
loop_
_atom_site_type_symbol
_atom_site_label
_atom_site_fract_x
_atom_site_fract_y
_atom_site_fract_z
Si Si1 0.886140 0.072553 0.288140
Si Si2 0.378551 0.756862 0.086227
Si Si3 0.739779 0.838606 0.013289
Si Si4 0.926987 0.385086 0.657653
Si Si5 0.661745 0.592608 0.339964
Si Si6 0.473956 0.207672 0.518490
Si Si7 0.463360 0.838926 0.779254
Si Si8 0.929802 0.902093 0.704739
O O1 0.768699 0.005358 0.436770
O O2 0.094090 0.928457 0.173020
O O3 0.031048 0.994695 0.332627
O O4 0.623975 0.423695 0.195926
O O5 0.360255 0.928613 0.029795
O O6 0.423568 0.772252 0.944172
O O7 0.803490 0.631029 0.185807
O O8 0.962681 0.714864 0.885495
O O9 0.500000 0.000000 0.000000
O O10 0.728203 0.539914 0.601221
O O11 0.000000 0.500000 0.500000
O O12 0.212249 0.044448 0.736362
O O13 0.738883 0.545345 0.755800
O O14 0.610119 0.645636 0.439275
O O15 0.850862 0.298188 0.376169
O O16 0.367444 0.842018 0.317111
O O17 0.470308 0.020197 0.661271
#
# Coordination Sequence:
#
# PCOD9021230 Si02
#       8
#     2   2   2   2   2   2   2   2
#     4  11  25  42  64  93 141 172 206 261 333 377
#     4  11  23  43  66  95 127 176 216 262 320 383
#     4   9  18  37  59  89 123 161 214 262 307 355
#     4  10  23  43  69  98 132 162 207 281 334 367
#     4  11  22  37  63  94 122 169 224 258 304 385
#     4  11  25  44  67  99 128 171 216 266 323 395
#     4  11  23  46  72  97 124 167 223 270 318 382
#     4  10  22  38  58  91 134 170 204 267 317 364
#
# _framework density 24.949299
#
# number of rings (size 3 to 8) (size 9 to 14) (size 15 to 20)
#    0.000    1.500    1.250    4.875    0.000   11.000 
#    0.000    3.750    0.000    0.000    0.000    0.000 
#    0.000    0.000    0.000    0.000    0.000    0.000 
#
# Total GULP energy -89656.766802 kJ/mol
# GULP energy per Si atom -5603.547925 kJ/mol
# Density = 2.489251 g / cm^3
# Si number density = 24.949299 Si / 1000 Ang^3
#
#
#
# Elastic Constant Matrix: (Units=GPa)
#
#
# Indices 1 2 3 4 5 6 
#
# 1 118.0733 14.4596 51.2521 19.2719 4.6275 -19.0105
# 2 14.4596 112.7133 26.7128 31.1709 1.5631 1.0543
# 3 51.2521 26.7128 134.8128 40.1402 14.3943 5.8548
# 4 19.2719 31.1709 40.1402 49.1661 8.6755 -1.2319
# 5 4.6275 1.5631 14.3943 8.6755 41.5085 9.1226
# 6 -19.0105 1.0543 5.8548 -1.2319 9.1226 28.9352
#
#
#
# Elastic Compliance Matrix: (Units=1/GPa)
#
#
# Indices 1 2 3 4 5 6 
#
# 1 0.012211 -0.000494 -0.004759 -0.000032 -0.001788 0.009566
# 2 -0.000494 0.010859 0.000035 -0.007007 0.001423 -0.001474
# 3 -0.004759 0.000035 0.011886 -0.007878 -0.000705 -0.005646
# 4 -0.000032 -0.007007 -0.007878 0.032183 -0.004760 0.004699
# 5 -0.001788 0.001423 -0.000705 -0.004760 0.027677 -0.010012
# 6 0.009566 -0.001474 -0.005646 0.004699 -0.010012 0.045398
#
#
# Mechanical properties :
#
#
# Convention : Reuss Voigt Hill
#
# Bulk Modulus (GPa) = 40.78516 61.16093 50.97304
# Shear Modulus (GPa) = 31.48092 42.13361 36.80726
#
# Velocity S-wave (km/s) = 3.55603 4.11392 3.84511
# Velocity P-wave (km/s) = 5.76569 6.86536 6.33941
#
# Compressibility (1/GPa) = 0.02451872
#
# Stress axis : x y z
#
# Youngs Moduli (GPa) = 81.89119 92.08818 84.13074
#
# Poissons Ratio (x) = 0.04552 0.40041
# Poissons Ratio (y) = 0.04048 -0.00292
# Poissons Ratio (z) = 0.38975 -0.00320
#
# Static dielectric constant tensor:
#      x y z
#    x 2.019400 0.076840 -0.051370 
#    y 0.076840 1.996660 -0.050720 
#    z -0.051370 -0.050720 2.006770 
# 
# From -- ./inp_files/534259.got.cif
#   From: 2010.05.17/outbox.cif.g08.bks.cpg/sg2_268_cif.got.tgz:534259.got - 2010.06.03 11:33:40.
