data_PCOD9021101
_publ_section_title
;
Structure prediction by ZEFSAII (Michael W. Deem and Ramdas Pophale) SiO2 
 PCOD9021101
Probable space group: P -1
;
_chemical_formula_sum "Si O2"
_cell_formula_units_Z 10
_cell_length_a 12.500553
_cell_length_b 16.953803
_cell_length_c 11.005497
_cell_angle_alpha 22.586839
_cell_angle_beta 144.564219
_cell_angle_gamma 156.349945
_cell_volume 352.023574
_symmetry_space_group_name_H-M "P -1"
_symmetry_group_IT_number 2
_symmetry_cell_setting 'triclinic'
loop_
_space_group_symop_operation_xyz
x,y,z
-x,-y,-z
loop_
_atom_site_type_symbol
_atom_site_label
_atom_site_fract_x
_atom_site_fract_y
_atom_site_fract_z
Si Si1 0.935500 0.325982 0.450822
Si Si2 0.432812 0.733380 0.981705
Si Si3 0.541365 0.267610 0.510412
Si Si4 0.166416 0.094160 0.218279
Si Si5 0.689406 0.848273 0.290932
O O1 0.818744 0.391596 0.152912
O O2 0.176107 0.599941 0.370428
O O3 0.694663 0.041479 0.717352
O O4 0.010663 0.189672 0.631783
O O5 0.489634 0.811039 0.068217
O O6 0.406809 0.466432 0.336477
O O7 0.371623 0.106054 0.459457
O O8 0.335478 0.089898 0.684533
O O9 0.652826 0.593357 0.129146
O O10 0.979086 0.060361 0.189674
#
# Coordination Sequence:
#
# PCOD9021101 Si02
#       5
#     2   2   2   2   2
#     4  11  21  43  63  90 126 163 196 258 300 361
#     4  10  22  37  67  92 121 162 207 243 311 354
#     4  11  23  40  64  92 123 162 202 249 306 361
#     4  11  23  40  64  92 123 162 202 249 306 361
#     4  11  21  40  64  93 119 162 203 253 294 371
#
# _framework density 28.407188999999999
#
# number of rings (size 3 to 8) (size 9 to 14) (size 15 to 20)
#    0.000    1.200    4.000    3.600    0.000    3.200 
#    0.000   10.000    0.000    0.000    0.000    0.000 
#    0.000    0.000    0.000    0.000    0.000    0.000 
#
# Total GULP energy -56067.565614 kJ/mol
# GULP energy per Si atom -5606.756561 kJ/mol
# Density = 2.834253 g / cm^3
# Si number density = 28.407189 Si / 1000 Ang^3
#
#
#
# Elastic Constant Matrix: (Units=GPa)
#
#
# Indices 1 2 3 4 5 6 
#
# 1 84.6635 39.5882 17.2571 -7.6704 -30.7882 11.9103
# 2 39.5882 168.8004 59.3835 28.2581 -14.3358 -19.2841
# 3 17.2571 59.3835 182.5623 37.9275 -33.8184 1.4193
# 4 -7.6704 28.2581 37.9275 68.7748 1.2820 -5.7290
# 5 -30.7882 -14.3358 -33.8184 1.2820 35.8914 0.6775
# 6 11.9103 -19.2841 1.4193 -5.7290 0.6775 48.1988
#
#
#
# Elastic Compliance Matrix: (Units=1/GPa)
#
#
# Indices 1 2 3 4 5 6 
#
# 1 0.022587 -0.005992 0.003121 0.002213 0.019997 -0.008089
# 2 -0.005992 0.008859 -0.002611 -0.002386 -0.004068 0.004875
# 3 0.003121 -0.002611 0.008692 -0.003781 0.010010 -0.002662
# 4 0.002213 -0.002386 -0.003781 0.017980 -0.003275 0.000793
# 5 0.019997 -0.004068 0.010010 -0.003275 0.053091 -0.007999
# 6 -0.008089 0.004875 -0.002662 0.000793 -0.007999 0.024982
#
#
# Mechanical properties :
#
#
# Convention : Reuss Voigt Hill
#
# Bulk Modulus (GPa) = 34.27481 74.27600 54.27540
# Shear Modulus (GPa) = 31.87168 51.89283 41.88225
#
# Velocity S-wave (km/s) = 3.35320 4.27869 3.84390
# Velocity P-wave (km/s) = 5.20420 7.11430 6.23285
#
# Compressibility (1/GPa) = 0.02917594
#
# Stress axis : x y z
#
# Youngs Moduli (GPa) = 44.27242 112.88155 115.04352
#
# Poissons Ratio (x) = 0.67635 -0.35908
# Poissons Ratio (y) = 0.26527 0.30038
# Poissons Ratio (z) = -0.13819 0.29473
#
# Static dielectric constant tensor:
#      x y z
#    x 2.221130 -0.000340 0.112430 
#    y -0.000340 2.163830 0.051500 
#    z 0.112430 0.051500 2.190340 
# 
# From -- ./inp_files/144638.got.cif
#   From: 2010.05.17/outbox.cif.g08.bks.cpg/sg2_73_cif.got.tgz:144638.got - 2010.06.03 11:33:40.
