data_PCOD9021883
_publ_section_title
;
Structure prediction by ZEFSAII (Michael W. Deem and Ramdas Pophale) SiO2 
 PCOD9021883
Probable space group: P -1
;
_chemical_formula_sum "Si O2"
_cell_formula_units_Z 16
_cell_length_a 9.984827
_cell_length_b 9.733225
_cell_length_c 10.346286
_cell_angle_alpha 86.043334
_cell_angle_beta 138.832774
_cell_angle_gamma 97.052108
_cell_volume 656.449532
_symmetry_space_group_name_H-M "P -1"
_symmetry_group_IT_number 2
_symmetry_cell_setting 'triclinic'
loop_
_space_group_symop_operation_xyz
x,y,z
-x,-y,-z
loop_
_atom_site_type_symbol
_atom_site_label
_atom_site_fract_x
_atom_site_fract_y
_atom_site_fract_z
Si Si1 0.907736 0.633543 0.977138
Si Si2 0.659276 0.831950 0.698618
Si Si3 0.795678 0.615422 0.417949
Si Si4 0.807233 0.132686 0.702088
Si Si5 0.459547 0.780159 0.094972
Si Si6 0.424651 0.089405 0.086800
Si Si7 0.090978 0.868072 0.515304
Si Si8 0.160914 0.521171 0.809590
O O1 0.755695 0.690200 0.758751
O O2 0.808043 0.583063 0.044824
O O3 0.000000 0.500000 0.000000
O O4 0.079457 0.761534 0.121564
O O5 0.426291 0.831922 0.485399
O O6 0.668167 0.849421 0.859166
O O7 0.786554 0.969712 0.728962
O O8 0.602259 0.700081 0.299736
O O9 0.750894 0.525802 0.260428
O O10 0.976765 0.732612 0.503834
O O11 0.915204 0.526050 0.610559
O O12 0.920572 0.145700 0.646231
O O13 0.375283 0.922809 0.066780
O O14 0.605684 0.836409 0.076203
O O15 0.279359 0.667358 0.927234
O O16 0.669361 0.114313 0.280355
O O17 0.000000 0.000000 0.500000
#
# Coordination Sequence:
#
# PCOD9021883 Si02
#       8
#     2   2   2   2   2   2   2   2
#     4  12  27  46  68 100 134 182 231 279 331 401
#     4  10  24  47  70  96 133 180 228 279 334 401
#     4  11  22  40  62  92 135 173 213 273 337 398
#     4  10  24  46  72  98 134 180 227 279 337 395
#     4  11  22  38  61 100 129 172 219 275 339 394
#     4  10  22  38  66  96 134 170 221 282 337 394
#     4  11  20  39  67  99 132 169 215 278 340 393
#     4  11  25  41  61  92 135 179 219 268 338 403
#
# _framework density 24.373539999999998
#
# number of rings (size 3 to 8) (size 9 to 14) (size 15 to 20)
#    0.000    1.250    3.750    1.500    1.750    2.500 
#    2.250    0.000    0.000    0.000    0.000    0.000 
#    0.000    0.000    0.000    0.000    0.000    0.000 
#
# Total GULP energy -89575.561782 kJ/mol
# GULP energy per Si atom -5598.472611 kJ/mol
# Density = 2.431807 g / cm^3
# Si number density = 24.373540 Si / 1000 Ang^3
#
#
#
# Elastic Constant Matrix: (Units=GPa)
#
#
# Indices 1 2 3 4 5 6 
#
# 1 24.6785 7.2984 2.5310 -0.8452 6.1196 -0.5819
# 2 7.2984 106.4455 38.3518 -12.1254 20.5063 -8.5055
# 3 2.5310 38.3518 84.4301 -15.4004 11.6794 5.9047
# 4 -0.8452 -12.1254 -15.4004 53.4618 4.6810 4.5430
# 5 6.1196 20.5063 11.6794 4.6810 17.1381 -2.3925
# 6 -0.5819 -8.5055 5.9047 4.5430 -2.3925 29.4871
#
#
#
# Elastic Compliance Matrix: (Units=1/GPa)
#
#
# Indices 1 2 3 4 5 6 
#
# 1 0.044939 0.000016 0.001818 0.002961 -0.018310 -0.001414
# 2 0.000016 0.014334 -0.004150 0.003063 -0.014704 0.003301
# 3 0.001818 -0.004150 0.016252 0.005058 -0.008967 -0.005922
# 4 0.002961 0.003063 0.005058 0.022624 -0.015015 -0.004775
# 5 -0.018310 -0.014704 -0.008967 -0.015015 0.093686 0.007107
# 6 -0.001414 0.003301 -0.005922 -0.004775 0.007107 0.037336
#
#
# Mechanical properties :
#
#
# Convention : Reuss Voigt Hill
#
# Bulk Modulus (GPa) = 14.10612 34.65739 24.38176
# Shear Modulus (GPa) = 19.42254 31.17558 25.29906
#
# Velocity S-wave (km/s) = 2.82595 3.58030 3.22525
# Velocity P-wave (km/s) = 4.05562 5.59835 4.88823
#
# Compressibility (1/GPa) = 0.07089123
#
# Stress axis : x y z
#
# Youngs Moduli (GPa) = 22.25260 69.76461 61.53189
#
# Poissons Ratio (x) = -0.00108 -0.11184
# Poissons Ratio (y) = -0.00035 0.25534
# Poissons Ratio (z) = -0.04045 0.28950
#
# Static dielectric constant tensor:
#      x y z
#    x 1.994420 -0.085420 0.018990 
#    y -0.085420 1.986680 -0.083320 
#    z 0.018990 -0.083320 2.007740 
# 
# From -- ./inp_files/417460.got.cif
#   From: 2010.05.17/outbox.cif.g08.bks.cpg/sg2_209_cif.got.tgz:417460.got - 2010.06.03 11:33:40.
