data_PCOD9021872
_publ_section_title
;
Structure prediction by ZEFSAII (Michael W. Deem and Ramdas Pophale) SiO2 
 PCOD9021872
Probable space group: P -1
;
_chemical_formula_sum "Si O2"
_cell_formula_units_Z 16
_cell_length_a 11.723736
_cell_length_b 8.419117
_cell_length_c 14.660957
_cell_angle_alpha 82.055569
_cell_angle_beta 43.740844
_cell_angle_gamma 53.536584
_cell_volume 685.519438
_symmetry_space_group_name_H-M "P -1"
_symmetry_group_IT_number 2
_symmetry_cell_setting 'triclinic'
loop_
_space_group_symop_operation_xyz
x,y,z
-x,-y,-z
loop_
_atom_site_type_symbol
_atom_site_label
_atom_site_fract_x
_atom_site_fract_y
_atom_site_fract_z
Si Si1 0.019180 0.868780 0.889100
Si Si2 0.629654 0.597557 0.352519
Si Si3 0.817810 0.026785 0.538818
Si Si4 0.750347 0.435475 0.770614
Si Si5 0.097486 0.283343 0.873176
Si Si6 0.726787 0.744878 0.648969
Si Si7 0.577312 0.184004 0.345837
Si Si8 0.696297 0.409690 0.013596
O O1 0.156521 0.683110 0.742874
O O2 0.262003 0.785861 0.793692
O O3 0.842532 0.138929 0.952978
O O4 0.892019 0.828192 0.031116
O O5 0.769488 0.643832 0.216792
O O6 0.541193 0.692964 0.498926
O O7 0.392734 0.736155 0.415312
O O8 0.704264 0.950144 0.660790
O O9 0.987122 0.811967 0.385711
O O10 0.000000 0.000000 0.500000
O O11 0.662327 0.673725 0.774239
O O12 0.708225 0.454023 0.899484
O O13 0.573896 0.439131 0.818603
O O14 0.819970 0.461089 0.996862
O O15 0.226290 0.092774 0.733271
O O16 0.597937 0.770899 0.630262
O O17 0.000000 0.500000 0.500000
#
# Coordination Sequence:
#
# PCOD9021872 Si02
#       8
#     2   2   2   2   2   2   2   2
#     4  11  24  42  66 103 141 176 223 285 355 405
#     4  12  26  41  69 107 141 176 222 295 353 396
#     4  11  25  42  66 100 139 173 219 280 346 410
#     4  10  22  44  65  96 129 183 234 268 341 401
#     4  11  22  40  69  97 136 180 229 280 340 412
#     4  10  22  38  66  94 129 178 225 275 329 405
#     4  11  22  42  68 100 134 177 237 283 326 410
#     4  10  22  41  70  93 130 180 233 280 322 419
#
# _framework density 23.339963999999998
#
# number of rings (size 3 to 8) (size 9 to 14) (size 15 to 20)
#    0.000    1.250    1.250    5.625    8.750    0.000 
#    0.000    0.000    0.000    3.000    0.000    0.000 
#    0.000    0.000    0.000    0.000    0.000    0.000 
#
# Total GULP energy -89159.519261 kJ/mol
# GULP energy per Si atom -5572.469954 kJ/mol
# Density = 2.328684 g / cm^3
# Si number density = 23.339964 Si / 1000 Ang^3
#
#
#
# Elastic Constant Matrix: (Units=GPa)
#
#
# Indices 1 2 3 4 5 6 
#
# 1 63.4255 33.7096 37.6590 -13.2540 -5.1807 -9.2091
# 2 33.7096 67.9004 47.7783 -8.5373 5.3788 -10.3112
# 3 37.6590 47.7783 99.1228 -7.6805 -6.4221 2.8392
# 4 -13.2540 -8.5373 -7.6805 46.1709 5.0972 3.3664
# 5 -5.1807 5.3788 -6.4221 5.0972 46.8676 8.5657
# 6 -9.2091 -10.3112 2.8392 3.3664 8.5657 31.5284
#
#
#
# Elastic Compliance Matrix: (Units=1/GPa)
#
#
# Indices 1 2 3 4 5 6 
#
# 1 0.024554 -0.007168 -0.005571 0.004306 0.001489 0.004465
# 2 -0.007168 0.029144 -0.012024 0.001433 -0.007860 0.010503
# 3 -0.005571 -0.012024 0.018511 -0.000668 0.004925 -0.008493
# 4 0.004306 0.001433 -0.000668 0.023308 -0.002301 -0.000077
# 5 0.001489 -0.007860 0.004925 -0.002301 0.024996 -0.009125
# 6 0.004465 0.010503 -0.008493 -0.000077 -0.009125 0.039709
#
#
# Mechanical properties :
#
#
# Convention : Reuss Voigt Hill
#
# Bulk Modulus (GPa) = 44.08468 52.08250 48.08359
# Shear Modulus (GPa) = 23.00860 32.33350 27.67105
#
# Velocity S-wave (km/s) = 3.14316 3.72604 3.44694
# Velocity P-wave (km/s) = 5.66583 6.39330 6.04053
#
# Compressibility (1/GPa) = 0.02268362
#
# Stress axis : x y z
#
# Youngs Moduli (GPa) = 40.72638 34.31197 54.02121
#
# Poissons Ratio (x) = 0.24596 0.30096
# Poissons Ratio (y) = 0.29194 0.64953
# Poissons Ratio (z) = 0.22689 0.41255
#
# Static dielectric constant tensor:
#      x y z
#    x 1.963480 0.049660 -0.077600 
#    y 0.049660 1.952580 -0.025290 
#    z -0.077600 -0.025290 2.010680 
# 
# From -- ./inp_files/515311.got.cif
#   From: 2010.05.17/outbox.cif.g08.bks.cpg/sg2_258_cif.got.tgz:515311.got - 2010.06.03 11:33:40.
