data_PCOD9021627
_publ_section_title
;
Structure prediction by ZEFSAII (Michael W. Deem and Ramdas Pophale) SiO2 
 PCOD9021627
Probable space group: P -1
;
_chemical_formula_sum "Si O2"
_cell_formula_units_Z 16
_cell_length_a 8.061930
_cell_length_b 8.801047
_cell_length_c 11.759965
_cell_angle_alpha 85.361002
_cell_angle_beta 93.079326
_cell_angle_gamma 56.901068
_cell_volume 691.915328
_symmetry_space_group_name_H-M "P -1"
_symmetry_group_IT_number 2
_symmetry_cell_setting 'triclinic'
loop_
_space_group_symop_operation_xyz
x,y,z
-x,-y,-z
loop_
_atom_site_type_symbol
_atom_site_label
_atom_site_fract_x
_atom_site_fract_y
_atom_site_fract_z
Si Si1 0.284484 0.183839 0.955275
Si Si2 0.843794 0.945862 0.869960
Si Si3 0.573722 0.118656 0.437892
Si Si4 0.436384 0.752638 0.334453
Si Si5 0.806657 0.782243 0.310226
Si Si6 0.742361 0.198264 0.070798
Si Si7 0.252254 0.512441 0.303786
Si Si8 0.312909 0.448535 0.063826
O O1 0.218958 0.171591 0.828461
O O2 0.292094 0.362219 0.953128
O O3 0.500000 0.000000 0.000000
O O4 0.161093 0.218896 0.066267
O O5 0.682792 0.074532 0.765360
O O6 0.795081 0.052842 0.982342
O O7 0.061718 0.882201 0.842305
O O8 0.643079 0.184165 0.543973
O O9 0.391795 0.306981 0.367303
O O10 0.500000 0.000000 0.500000
O O11 0.728831 0.971695 0.362108
O O12 0.662334 0.708442 0.337976
O O13 0.379092 0.608039 0.305971
O O14 0.040166 0.636181 0.351717
O O15 0.535466 0.284490 0.120894
O O16 0.708479 0.368515 0.987587
O O17 0.192227 0.504000 0.172133
#
# Coordination Sequence:
#
# PCOD9021627 Si02
#       8
#     2   2   2   2   2   2   2   2
#     4  12  22  39  66  97 144 181 218 279 346 405
#     4  11  22  40  65  99 135 182 223 275 346 413
#     4  10  26  50  74 101 137 180 238 295 344 408
#     4  11  24  47  71 102 140 177 236 288 342 408
#     4  11  26  48  72 103 142 186 230 288 344 411
#     4  10  22  38  63  96 143 176 216 277 336 415
#     4  12  26  46  75 102 137 185 233 288 352 411
#     4  11  23  41  62 102 140 175 225 279 341 416
#
# _framework density 23.124216000000001
#
# number of rings (size 3 to 8) (size 9 to 14) (size 15 to 20)
#    0.000    1.000    3.750    1.875    5.250    4.500 
#    0.000    3.750    0.000    0.000    0.000    0.000 
#    0.000    0.000    0.000    0.000    0.000    0.000 
#
# Total GULP energy -89226.859326 kJ/mol
# GULP energy per Si atom -5576.678708 kJ/mol
# Density = 2.307158 g / cm^3
# Si number density = 23.124216 Si / 1000 Ang^3
#
#
#
# Elastic Constant Matrix: (Units=GPa)
#
#
# Indices 1 2 3 4 5 6 
#
# 1 80.2119 34.1736 7.6107 1.5332 -2.9003 -21.9305
# 2 34.1736 101.4775 30.4902 10.7574 -6.4049 -12.6952
# 3 7.6107 30.4902 96.9169 12.6583 -8.4875 1.0288
# 4 1.5332 10.7574 12.6583 32.1486 5.3678 -0.4012
# 5 -2.9003 -6.4049 -8.4875 5.3678 15.4190 3.2666
# 6 -21.9305 -12.6952 1.0288 -0.4012 3.2666 45.2890
#
#
#
# Elastic Compliance Matrix: (Units=1/GPa)
#
#
# Indices 1 2 3 4 5 6 
#
# 1 0.016273 -0.004800 -0.000037 0.001046 -0.000715 0.006596
# 2 -0.004800 0.013131 -0.002940 -0.003657 0.003972 0.001104
# 3 -0.000037 -0.002940 0.012663 -0.005354 0.007977 -0.001753
# 4 0.001046 -0.003657 -0.005354 0.037327 -0.017518 0.001198
# 5 -0.000715 0.003972 0.007977 -0.017518 0.077960 -0.005192
# 6 0.006596 0.001104 -0.001753 0.001198 -0.005192 0.026009
#
#
# Mechanical properties :
#
#
# Convention : Reuss Voigt Hill
#
# Bulk Modulus (GPa) = 37.71920 47.01725 42.36822
# Shear Modulus (GPa) = 24.06693 32.32679 28.19686
#
# Velocity S-wave (km/s) = 3.22959 3.74299 3.49573
# Velocity P-wave (km/s) = 5.50036 6.24953 5.88687
#
# Compressibility (1/GPa) = 0.02651170
#
# Stress axis : x y z
#
# Youngs Moduli (GPa) = 61.45153 76.15729 78.97309
#
# Poissons Ratio (x) = 0.36554 0.00294
# Poissons Ratio (y) = 0.29495 0.23221
# Poissons Ratio (z) = 0.00228 0.22393
#
# Static dielectric constant tensor:
#      x y z
#    x 2.111440 0.038430 -0.023980 
#    y 0.038430 1.909110 0.021600 
#    z -0.023980 0.021600 1.834100 
# 
# From -- ./inp_files/382370.got.cif
#   From: 2010.05.17/outbox.cif.g08.bks.cpg/sg2_192_cif.got.tgz:382370.got - 2010.06.03 11:33:40.
