data_PCOD9021543
_publ_section_title
;
Structure prediction by ZEFSAII (Michael W. Deem and Ramdas Pophale) SiO2 
 PCOD9021543
Probable space group: P -1
;
_chemical_formula_sum "Si O2"
_cell_formula_units_Z 16
_cell_length_a 8.872964
_cell_length_b 8.659034
_cell_length_c 18.205504
_cell_angle_alpha 63.744698
_cell_angle_beta 43.773010
_cell_angle_gamma 92.918092
_cell_volume 696.269491
_symmetry_space_group_name_H-M "P -1"
_symmetry_group_IT_number 2
_symmetry_cell_setting 'triclinic'
loop_
_space_group_symop_operation_xyz
x,y,z
-x,-y,-z
loop_
_atom_site_type_symbol
_atom_site_label
_atom_site_fract_x
_atom_site_fract_y
_atom_site_fract_z
Si Si1 0.915912 0.055444 0.091319
Si Si2 0.299533 0.175649 0.506597
Si Si3 0.917639 0.479761 0.247586
Si Si4 0.792272 0.727607 0.331512
Si Si5 0.084808 0.366431 0.454106
Si Si6 0.200871 0.494335 0.877252
Si Si7 0.548410 0.884957 0.751111
Si Si8 0.844355 0.704606 0.721366
O O1 0.812029 0.880269 0.228604
O O2 0.673487 0.077645 0.158185
O O3 0.000000 0.000000 0.000000
O O4 0.186864 0.298675 0.958721
O O5 0.601923 0.266680 0.406901
O O6 0.132191 0.145689 0.645945
O O7 0.310705 0.366493 0.420356
O O8 0.123556 0.948000 0.576044
O O9 0.961536 0.646610 0.258266
O O10 0.920287 0.563971 0.148907
O O11 0.122015 0.421719 0.201521
O O12 0.500000 0.500000 0.500000
O O13 0.000000 0.500000 0.500000
O O14 0.165031 0.398434 0.332889
O O15 0.823684 0.119654 0.599943
O O16 0.454023 0.744673 0.738859
O O17 0.000000 0.500000 0.000000
O O18 0.612406 0.740504 0.804487
#
# Coordination Sequence:
#
# PCOD9021543 Si02
#       8
#     2   2   2   2   2   2   2   2
#     4  11  23  43  71  97 134 181 234 281 331 404
#     4  10  22  38  62  98 135 173 226 273 336 405
#     4  11  21  37  65  96 133 172 226 277 330 397
#     4  10  23  39  66 102 133 168 226 285 338 388
#     4  11  23  39  64  98 142 180 218 278 352 405
#     4  10  22  41  66  92 125 181 232 271 327 403
#     4  10  24  41  64  96 133 179 230 271 339 401
#     4  11  23  39  62  98 140 177 217 280 344 401
#
# _framework density 22.979607999999999
#
# number of rings (size 3 to 8) (size 9 to 14) (size 15 to 20)
#    0.000    1.500    1.250    4.125   10.500    1.000 
#    0.000    2.500    0.000    3.750    0.000    0.000 
#    0.000    0.000    0.000    0.000    0.000    0.000 
#
# Total GULP energy -89134.589090 kJ/mol
# GULP energy per Si atom -5570.911818 kJ/mol
# Density = 2.292731 g / cm^3
# Si number density = 22.979608 Si / 1000 Ang^3
#
#
#
# Elastic Constant Matrix: (Units=GPa)
#
#
# Indices 1 2 3 4 5 6 
#
# 1 114.1790 40.8112 25.6476 7.6556 7.8369 -28.0512
# 2 40.8112 133.5211 29.5782 2.7741 6.0661 -11.3298
# 3 25.6476 29.5782 69.0621 -7.1175 18.4649 -6.3299
# 4 7.6556 2.7741 -7.1175 39.4116 -2.8542 -0.3802
# 5 7.8369 6.0661 18.4649 -2.8542 31.0901 5.2282
# 6 -28.0512 -11.3298 -6.3299 -0.3802 5.2282 44.9051
#
#
#
# Elastic Compliance Matrix: (Units=1/GPa)
#
#
# Indices 1 2 3 4 5 6 
#
# 1 0.012258 -0.002434 -0.002468 -0.002775 -0.002576 0.006972
# 2 -0.002434 0.008932 -0.003143 -0.000675 0.000640 0.000210
# 3 -0.002468 -0.003143 0.020133 0.003579 -0.010692 0.001778
# 4 -0.002775 -0.000675 0.003579 0.026693 0.001380 -0.001334
# 5 -0.002576 0.000640 -0.010692 0.001380 0.040453 -0.007653
# 6 0.006972 0.000210 0.001778 -0.001334 -0.007653 0.027808
#
#
# Mechanical properties :
#
#
# Convention : Reuss Voigt Hill
#
# Bulk Modulus (GPa) = 39.62976 56.53736 48.08356
# Shear Modulus (GPa) = 31.09847 37.79638 34.44742
#
# Velocity S-wave (km/s) = 3.68272 4.05999 3.87595
# Velocity P-wave (km/s) = 5.94696 6.82896 6.40316
#
# Compressibility (1/GPa) = 0.02523356
#
# Stress axis : x y z
#
# Youngs Moduli (GPa) = 81.57798 111.95180 49.66918
#
# Poissons Ratio (x) = 0.27246 0.12259
# Poissons Ratio (y) = 0.19854 0.15612
# Poissons Ratio (z) = 0.20135 0.35190
#
# Static dielectric constant tensor:
#      x y z
#    x 1.935820 0.020780 -0.044170 
#    y 0.020780 1.836850 -0.028130 
#    z -0.044170 -0.028130 1.976650 
# 
# From -- ./inp_files/557098.got.cif
#   From: 2010.05.17/outbox.cif.g08.bks.cpg/sg2_279_cif.got.tgz:557098.got - 2010.06.03 11:33:40.
