data_PCOD9021430
_publ_section_title
;
Structure prediction by ZEFSAII (Michael W. Deem and Ramdas Pophale) SiO2 
 PCOD9021430
Probable space group: P -1
;
_chemical_formula_sum "Si O2"
_cell_formula_units_Z 14
_cell_length_a 12.844222
_cell_length_b 7.538341
_cell_length_c 8.640779
_cell_angle_alpha 123.869487
_cell_angle_beta 101.240675
_cell_angle_gamma 61.095727
_cell_volume 604.933329
_symmetry_space_group_name_H-M "P -1"
_symmetry_group_IT_number 2
_symmetry_cell_setting 'triclinic'
loop_
_space_group_symop_operation_xyz
x,y,z
-x,-y,-z
loop_
_atom_site_type_symbol
_atom_site_label
_atom_site_fract_x
_atom_site_fract_y
_atom_site_fract_z
Si Si1 0.534043 0.140980 0.208728
Si Si2 0.361693 0.113297 0.396800
Si Si3 0.890775 0.719632 0.653238
Si Si4 0.628040 0.401979 0.782582
Si Si5 0.110101 0.891480 0.358808
Si Si6 0.966295 0.349588 0.039670
Si Si7 0.302107 0.298356 0.809989
O O1 0.458795 0.142367 0.336815
O O2 0.485514 0.409027 0.257625
O O3 0.667841 0.948570 0.205422
O O4 0.500000 0.000000 0.000000
O O5 0.382943 0.835126 0.281713
O O6 0.235122 0.274972 0.353706
O O7 0.352657 0.222524 0.616756
O O8 0.000000 0.500000 0.500000
O O9 0.938008 0.762338 0.851259
O O10 0.859410 0.904588 0.593670
O O11 0.753931 0.321498 0.683252
O O12 0.644501 0.548168 0.004920
O O13 0.054696 0.834106 0.162479
O O14 0.000000 0.000000 0.500000
O O15 0.838393 0.530762 0.160068
O O16 0.000000 0.500000 0.000000
#
# Coordination Sequence:
#
# PCOD9021430 Si02
#       7
#     2   2   2   2   2   2   2
#     4  10  23  42  67  93 126 168 213 263 316 375
#     4  11  23  42  67  91 129 166 213 260 321 377
#     4  11  22  38  61  92 122 166 206 256 320 375
#     4   9  23  42  63  94 129 164 211 264 314 374
#     4  10  22  38  61  92 130 161 210 260 314 382
#     4  11  23  38  64  91 128 164 205 264 316 376
#     4  10  22  42  63  93 127 165 215 259 312 382
#
# _framework density 23.143044
#
# number of rings (size 3 to 8) (size 9 to 14) (size 15 to 20)
#    0.000    1.714    1.429    1.714   10.000    2.857 
#    0.000    2.857    3.143    0.000    0.000    0.000 
#    0.000    0.000    0.000    0.000    0.000    0.000 
#
# Total GULP energy -78094.803740 kJ/mol
# GULP energy per Si atom -5578.200267 kJ/mol
# Density = 2.309037 g / cm^3
# Si number density = 23.143044 Si / 1000 Ang^3
#
#
#
# Elastic Constant Matrix: (Units=GPa)
#
#
# Indices 1 2 3 4 5 6 
#
# 1 32.4753 3.0013 14.5209 1.5510 -1.2070 -2.2560
# 2 3.0013 96.6362 26.6558 1.8054 1.2813 -7.6327
# 3 14.5209 26.6558 122.8497 1.8101 -12.0749 -2.4409
# 4 1.5510 1.8054 1.8101 31.1340 -0.5651 5.8107
# 5 -1.2070 1.2813 -12.0749 -0.5651 28.2912 -4.2289
# 6 -2.2560 -7.6327 -2.4409 5.8107 -4.2289 45.6485
#
#
#
# Elastic Compliance Matrix: (Units=1/GPa)
#
#
# Indices 1 2 3 4 5 6 
#
# 1 0.032694 0.000212 -0.003857 -0.001728 -0.000047 0.001661
# 2 0.000212 0.011214 -0.002543 -0.000861 -0.001342 0.001735
# 3 -0.003857 -0.002543 0.009557 -0.000198 0.004070 0.000297
# 4 -0.001728 -0.000861 -0.000198 0.033098 -0.000125 -0.004465
# 5 -0.000047 -0.001342 0.004070 -0.000125 0.037663 0.003496
# 6 0.001661 0.001735 0.000297 -0.004465 0.003496 0.023187
#
#
# Mechanical properties :
#
#
# Convention : Reuss Voigt Hill
#
# Bulk Modulus (GPa) = 24.33712 37.81303 31.07507
# Shear Modulus (GPa) = 28.82142 34.86694 31.84418
#
# Velocity S-wave (km/s) = 3.53279 3.88569 3.71343
# Velocity P-wave (km/s) = 5.21341 6.04199 5.64293
#
# Compressibility (1/GPa) = 0.04108950
#
# Stress axis : x y z
#
# Youngs Moduli (GPa) = 30.58702 89.17533 104.64039
#
# Poissons Ratio (x) = -0.01895 0.40357
# Poissons Ratio (y) = -0.00650 0.26611
# Poissons Ratio (z) = 0.11797 0.22678
#
# Static dielectric constant tensor:
#      x y z
#    x 1.732260 -0.313370 -0.165060 
#    y -0.313370 1.744600 -0.191290 
#    z -0.165060 -0.191290 1.650390 
# 
# From -- ./inp_files/212217.got.cif
#   From: 2010.05.17/outbox.cif.g08.bks.cpg/sg2_107_cif.got.tgz:212217.got - 2010.06.03 11:33:40.
