data_PCOD9021628
_publ_section_title
;
Structure prediction by ZEFSAII (Michael W. Deem and Ramdas Pophale) SiO2 
 PCOD9021628
Probable space group: P -1
;
_chemical_formula_sum "Si O2"
_cell_formula_units_Z 16
_cell_length_a 17.855028
_cell_length_b 15.421385
_cell_length_c 24.692868
_cell_angle_alpha 17.992982
_cell_angle_beta 19.344067
_cell_angle_gamma 27.075096
_cell_volume 694.066378
_symmetry_space_group_name_H-M "P -1"
_symmetry_group_IT_number 2
_symmetry_cell_setting 'triclinic'
loop_
_space_group_symop_operation_xyz
x,y,z
-x,-y,-z
loop_
_atom_site_type_symbol
_atom_site_label
_atom_site_fract_x
_atom_site_fract_y
_atom_site_fract_z
Si Si1 0.509169 0.745630 0.601353
Si Si2 0.741324 0.947844 0.222957
Si Si3 0.281756 0.418907 0.139912
Si Si4 0.753450 0.658206 0.915209
Si Si5 0.824059 0.145173 0.653495
Si Si6 0.181318 0.400979 0.819288
Si Si7 0.453554 0.107901 0.722565
Si Si8 0.678729 0.638544 0.128540
O O1 0.334415 0.650988 0.726179
O O2 0.500000 0.000000 0.500000
O O3 0.720432 0.827014 0.369600
O O4 0.483742 0.467585 0.821703
O O5 0.632865 0.792063 0.336518
O O6 0.641705 0.253509 0.109253
O O7 0.000000 0.000000 0.000000
O O8 0.222132 0.355223 0.156450
O O9 0.056382 0.340933 0.376015
O O10 0.475949 0.208288 0.143668
O O11 0.929584 0.450537 0.943413
O O12 0.804754 0.972229 0.713659
O O13 0.584879 0.283514 0.739891
O O14 0.820878 0.891741 0.849930
O O15 0.279088 0.159159 0.859218
O O16 0.325237 0.691628 0.533338
O O17 0.224325 0.369268 0.872620
#
# Coordination Sequence:
#
# PCOD9021628 Si02
#       8
#     2   2   2   2   2   2   2   2
#     4  11  23  43  66  99 127 174 223 265 324 395
#     4  12  25  45  71  94 134 178 224 267 327 404
#     4  12  23  41  65  93 139 171 220 271 331 398
#     4  11  23  39  69  97 128 174 216 277 329 388
#     4  10  22  38  63  97 125 169 221 266 339 379
#     4  11  23  41  66  97 136 168 225 279 324 392
#     4  11  25  40  64 100 131 174 221 276 330 387
#     4  10  22  41  65  94 132 169 218 282 325 390
#
# _framework density 23.052551999999999
#
# number of rings (size 3 to 8) (size 9 to 14) (size 15 to 20)
#    0.000    1.000    3.750    3.000    3.500    3.000 
#    0.000    0.000    0.000    2.250    0.000    0.000 
#    0.000    0.000    0.000    0.000    0.000    0.000 
#
# Total GULP energy -89264.793971 kJ/mol
# GULP energy per Si atom -5579.049623 kJ/mol
# Density = 2.300008 g / cm^3
# Si number density = 23.052552 Si / 1000 Ang^3
#
#
#
# Elastic Constant Matrix: (Units=GPa)
#
#
# Indices 1 2 3 4 5 6 
#
# 1 113.2655 25.6823 5.5606 13.7979 16.4476 25.6353
# 2 25.6823 67.1235 -0.7215 4.8974 0.7531 14.1379
# 3 5.5606 -0.7215 64.7381 7.8406 19.9726 9.1105
# 4 13.7979 4.8974 7.8406 39.1157 10.0876 3.2021
# 5 16.4476 0.7531 19.9726 10.0876 24.4991 4.1808
# 6 25.6353 14.1379 9.1105 3.2021 4.1808 30.6130
#
#
#
# Elastic Compliance Matrix: (Units=1/GPa)
#
#
# Indices 1 2 3 4 5 6 
#
# 1 0.012827 -0.002751 0.003046 -0.001802 -0.008733 -0.008996
# 2 -0.002751 0.017319 0.000736 -0.001454 0.002351 -0.006083
# 3 0.003046 0.000736 0.021956 -0.000178 -0.018725 -0.006849
# 4 -0.001802 -0.001454 -0.000178 0.029126 -0.010704 0.000649
# 5 -0.008733 0.002351 -0.018725 -0.010704 0.065605 0.003960
# 6 -0.008996 -0.006083 -0.006849 0.000649 0.003960 0.044438
#
#
# Mechanical properties :
#
#
# Convention : Reuss Voigt Hill
#
# Bulk Modulus (GPa) = 18.46215 34.01887 26.24051
# Shear Modulus (GPa) = 24.12397 33.15259 28.63828
#
# Velocity S-wave (km/s) = 3.23844 3.79638 3.52846
# Velocity P-wave (km/s) = 4.69142 5.83145 5.29222
#
# Compressibility (1/GPa) = 0.05416488
#
# Stress axis : x y z
#
# Youngs Moduli (GPa) = 77.96230 57.73929 45.54631
#
# Poissons Ratio (x) = 0.15882 -0.13874
# Poissons Ratio (y) = 0.21445 -0.03353
# Poissons Ratio (z) = -0.23748 -0.04251
#
# Static dielectric constant tensor:
#      x y z
#    x 1.851340 0.020350 0.004310 
#    y 0.020350 1.930060 -0.001350 
#    z 0.004310 -0.001350 2.002250 
# 
# From -- ./inp_files/613226.got.cif
#   From: 2010.05.17/outbox.cif.g08.bks.cpg/sg2_307_cif.got.tgz:613226.got - 2010.06.03 11:33:40.
