data_PCOD9021742
_publ_section_title
;
Structure prediction by ZEFSAII (Michael W. Deem and Ramdas Pophale) SiO2 
 PCOD9021742
Probable space group: P -1
;
_chemical_formula_sum "Si O2"
_cell_formula_units_Z 16
_cell_length_a 9.255064
_cell_length_b 11.212917
_cell_length_c 17.123110
_cell_angle_alpha 54.634599
_cell_angle_beta 139.489699
_cell_angle_gamma 92.905112
_cell_volume 638.227808
_symmetry_space_group_name_H-M "P -1"
_symmetry_group_IT_number 2
_symmetry_cell_setting 'triclinic'
loop_
_space_group_symop_operation_xyz
x,y,z
-x,-y,-z
loop_
_atom_site_type_symbol
_atom_site_label
_atom_site_fract_x
_atom_site_fract_y
_atom_site_fract_z
Si Si1 0.144004 0.286941 0.681228
Si Si2 0.331551 0.109478 0.585110
Si Si3 0.695805 0.240069 0.944098
Si Si4 0.174888 0.744569 0.565350
Si Si5 0.078061 0.148123 0.983020
Si Si6 0.832457 0.211243 0.686071
Si Si7 0.410395 0.176503 0.338893
Si Si8 0.880900 0.543324 0.748022
O O1 0.496886 0.181323 0.884523
O O2 0.000000 0.500000 0.500000
O O3 0.073684 0.193538 0.626548
O O4 0.965069 0.303515 0.675555
O O5 0.128071 0.320858 0.368080
O O6 0.055958 0.141502 0.497631
O O7 0.594880 0.898929 0.718519
O O8 0.561413 0.079634 0.754610
O O9 0.463792 0.480013 0.792050
O O10 0.815976 0.243696 0.908301
O O11 0.019206 0.014363 0.201503
O O12 0.334150 0.816889 0.575371
O O13 0.926076 0.163190 0.834433
O O14 0.142364 0.290079 0.943428
O O15 0.456955 0.378201 0.443099
O O16 0.126099 0.392956 0.190151
O O17 0.500000 0.000000 0.500000
#
# Coordination Sequence:
#
# PCOD9021742 Si02
#       8
#     2   2   2   2   2   2   2   2
#     4  10  22  38  64  99 141 180 215 277 345 407
#     4  11  26  43  71  97 138 178 232 288 339 401
#     4  11  23  40  66 102 143 181 221 274 344 415
#     4  11  22  44  67 100 136 174 227 282 347 395
#     4  12  25  43  69 105 139 183 231 274 344 412
#     4  12  23  41  67 101 144 179 229 278 338 416
#     4  10  22  46  73  97 128 182 237 282 344 396
#     4  11  23  43  68 100 135 182 226 287 336 408
#
# _framework density 25.069419
#
# number of rings (size 3 to 8) (size 9 to 14) (size 15 to 20)
#    0.000    1.000    3.750    3.000    5.250    0.500 
#    0.000    0.000    0.000    3.000    0.000    0.000 
#    0.000    0.000    0.000    0.000    0.000    0.000 
#
# Total GULP energy -89289.842696 kJ/mol
# GULP energy per Si atom -5580.615169 kJ/mol
# Density = 2.501236 g / cm^3
# Si number density = 25.069419 Si / 1000 Ang^3
#
#
#
# Elastic Constant Matrix: (Units=GPa)
#
#
# Indices 1 2 3 4 5 6 
#
# 1 141.9036 32.9393 27.4788 7.2306 -5.3416 27.6464
# 2 32.9393 98.5493 15.5150 -4.7153 -5.6024 24.3386
# 3 27.4788 15.5150 58.8030 -12.4441 -9.8270 -0.1236
# 4 7.2306 -4.7153 -12.4441 31.6492 2.1160 6.2970
# 5 -5.3416 -5.6024 -9.8270 2.1160 31.4931 4.7346
# 6 27.6464 24.3386 -0.1236 6.2970 4.7346 48.8825
#
#
#
# Elastic Compliance Matrix: (Units=1/GPa)
#
#
# Indices 1 2 3 4 5 6 
#
# 1 0.009279 -0.001476 -0.004539 -0.003345 0.000746 -0.004166
# 2 -0.001476 0.012648 -0.001748 0.002584 0.002184 -0.006012
# 3 -0.004539 -0.001748 0.022298 0.008837 0.005002 0.001871
# 4 -0.003345 0.002584 0.008837 0.037006 0.000797 -0.004217
# 5 0.000746 0.002184 0.005002 0.000797 0.034519 -0.004943
# 6 -0.004166 -0.006012 0.001871 -0.004217 -0.004943 0.026833
#
#
# Mechanical properties :
#
#
# Convention : Reuss Voigt Hill
#
# Bulk Modulus (GPa) = 34.84334 50.12466 42.48400
# Shear Modulus (GPa) = 29.81973 37.29313 33.55643
#
# Velocity S-wave (km/s) = 3.45263 3.86112 3.66258
# Velocity P-wave (km/s) = 5.46106 6.31786 5.90502
#
# Compressibility (1/GPa) = 0.02869989
#
# Stress axis : x y z
#
# Youngs Moduli (GPa) = 107.77544 79.06236 44.84688
#
# Poissons Ratio (x) = 0.11666 0.20354
# Poissons Ratio (y) = 0.15903 0.07841
# Poissons Ratio (z) = 0.48914 0.13823
#
# Static dielectric constant tensor:
#      x y z
#    x 2.052340 -0.038600 0.053750 
#    y -0.038600 2.082760 -0.011750 
#    z 0.053750 -0.011750 2.089830 
# 
# From -- ./inp_files/320255.got.cif
#   From: 2010.05.17/outbox.cif.g08.bks.cpg/sg2_161_cif.got.tgz:320255.got - 2010.06.03 11:33:40.
