data_PCOD9021559
_publ_section_title
;
Structure prediction by ZEFSAII (Michael W. Deem and Ramdas Pophale) SiO2 
 PCOD9021559
Probable space group: P -1
;
_chemical_formula_sum "Si O2"
_cell_formula_units_Z 10
_cell_length_a 5.496846
_cell_length_b 12.029944
_cell_length_c 11.724200
_cell_angle_alpha 41.607651
_cell_angle_beta 73.908414
_cell_angle_gamma 87.079235
_cell_volume 479.567270
_symmetry_space_group_name_H-M "P -1"
_symmetry_group_IT_number 2
_symmetry_cell_setting 'triclinic'
loop_
_space_group_symop_operation_xyz
x,y,z
-x,-y,-z
loop_
_atom_site_type_symbol
_atom_site_label
_atom_site_fract_x
_atom_site_fract_y
_atom_site_fract_z
Si Si1 0.346455 0.012853 0.333820
Si Si2 0.394404 0.847150 0.043623
Si Si3 0.486186 0.468792 0.355146
Si Si4 0.884973 0.618019 0.337562
Si Si5 0.742729 0.818181 0.556673
O O1 0.551041 0.916356 0.438868
O O2 0.053785 0.894100 0.437216
O O3 0.301235 0.150547 0.328300
O O4 0.483307 0.096774 0.137417
O O5 0.461188 0.665664 0.205338
O O6 0.081044 0.791058 0.138756
O O7 0.500000 0.000000 0.000000
O O8 0.786097 0.501732 0.328458
O O9 0.343443 0.355789 0.568414
O O10 0.366480 0.373732 0.330166
O O11 0.000000 0.500000 0.500000
#
# Coordination Sequence:
#
# PCOD9021559 Si02
#       5
#     2   2   2   2   2
#     4  10  24  43  65  94 124 162 209 258 305 363
#     4  11  24  37  60  93 126 158 206 263 308 360
#     4  10  22  38  63  87 122 169 205 250 311 374
#     4   9  21  38  57  91 122 163 203 251 313 368
#     4  10  23  44  67  88 124 170 207 249 309 373
#
# _framework density 20.852132000000001
#
# number of rings (size 3 to 8) (size 9 to 14) (size 15 to 20)
#    0.000    2.000    0.000    1.200   16.800    1.600 
#    0.000    1.000    0.000    0.000    0.000    0.000 
#    0.000    0.000    0.000    0.000    0.000    0.000 
#
# Total GULP energy -55695.108014 kJ/mol
# GULP energy per Si atom -5569.510801 kJ/mol
# Density = 2.080467 g / cm^3
# Si number density = 20.852132 Si / 1000 Ang^3
#
#
#
# Elastic Constant Matrix: (Units=GPa)
#
#
# Indices 1 2 3 4 5 6 
#
# 1 91.7489 44.2583 41.7407 -10.0925 -21.9237 26.6917
# 2 44.2583 147.8890 85.8642 -18.8205 -17.5780 34.3051
# 3 41.7407 85.8642 129.7670 14.4135 -30.0246 9.2174
# 4 -10.0925 -18.8205 14.4135 34.0361 3.3529 -8.0931
# 5 -21.9237 -17.5780 -30.0246 3.3529 39.3422 -10.1890
# 6 26.6917 34.3051 9.2174 -8.0931 -10.1890 35.4805
#
#
#
# Elastic Compliance Matrix: (Units=1/GPa)
#
#
# Indices 1 2 3 4 5 6 
#
# 1 0.017266 0.002237 -0.006374 0.006109 0.002271 -0.011450
# 2 0.002237 0.020800 -0.017011 0.016366 -0.007962 -0.015928
# 3 -0.006374 -0.017011 0.025382 -0.020060 0.013544 0.013963
# 4 0.006109 0.016366 -0.020060 0.048046 -0.010574 -0.007286
# 5 0.002271 -0.007962 0.013544 -0.010574 0.037141 0.010726
# 6 -0.011450 -0.015928 0.013963 -0.007286 0.010726 0.049990
#
#
# Mechanical properties :
#
#
# Convention : Reuss Voigt Hill
#
# Bulk Modulus (GPa) = 47.27655 79.23682 63.25669
# Shear Modulus (GPa) = 20.16356 34.94120 27.55238
#
# Velocity S-wave (km/s) = 3.11300 4.09793 3.63894
# Velocity P-wave (km/s) = 5.97014 7.77641 6.93236
#
# Compressibility (1/GPa) = 0.02115214
#
# Stress axis : x y z
#
# Youngs Moduli (GPa) = 57.91843 48.07639 39.39739
#
# Poissons Ratio (x) = -0.10755 0.25111
# Poissons Ratio (y) = -0.12956 0.67020
# Poissons Ratio (z) = 0.36916 0.81784
#
# Static dielectric constant tensor:
#      x y z
#    x 2.052400 -0.058360 -0.054630 
#    y -0.058360 1.815690 -0.000730 
#    z -0.054630 -0.000730 1.707180 
# 
# From -- ./inp_files/18717.got.cif
#   From: 2010.05.17/outbox.cif.g08.bks.cpg/sg2_10_cif.got.tgz:18717.got - 2010.06.03 11:33:40.
