data_PCOD9021258
_publ_section_title
;
Structure prediction by ZEFSAII (Michael W. Deem and Ramdas Pophale) SiO2 
 PCOD9021258
Probable space group: P -1
;
_chemical_formula_sum "Si O2"
_cell_formula_units_Z 14
_cell_length_a 8.092114
_cell_length_b 9.247080
_cell_length_c 8.213865
_cell_angle_alpha 101.351610
_cell_angle_beta 106.059796
_cell_angle_gamma 88.215274
_cell_volume 578.912189
_symmetry_space_group_name_H-M "P -1"
_symmetry_group_IT_number 2
_symmetry_cell_setting 'triclinic'
loop_
_space_group_symop_operation_xyz
x,y,z
-x,-y,-z
loop_
_atom_site_type_symbol
_atom_site_label
_atom_site_fract_x
_atom_site_fract_y
_atom_site_fract_z
Si Si1 0.062756 0.774661 0.837060
Si Si2 0.644911 0.151345 0.497396
Si Si3 0.866551 0.960539 0.311364
Si Si4 0.356107 0.209510 0.996915
Si Si5 0.329322 0.339064 0.335724
Si Si6 0.671758 0.092408 0.862525
Si Si7 0.180266 0.587554 0.549867
O O1 0.188518 0.670619 0.743595
O O2 0.869913 0.714297 0.753062
O O3 0.063974 0.932598 0.785692
O O4 0.151052 0.813336 0.039089
O O5 0.468363 0.231796 0.427808
O O6 0.796202 0.276899 0.540266
O O7 0.690784 0.029500 0.349131
O O8 0.352043 0.914971 0.337959
O O9 0.803331 0.806681 0.178375
O O10 0.000000 0.000000 0.500000
O O11 0.376858 0.346390 0.157451
O O12 0.330666 0.065186 0.078270
O O13 0.525748 0.184810 0.933294
O O14 0.314138 0.473031 0.489007
O O15 0.000000 0.500000 0.500000
#
# Coordination Sequence:
#
# PCOD9021258 Si02
#       7
#     2   2   2   2   2   2   2
#     4   9  21  40  62  86 124 163 199 248 309 354
#     4  11  23  38  66  93 119 158 212 250 294 363
#     4  10  23  38  60  89 126 159 201 251 302 365
#     4  10  22  38  59  88 128 165 195 247 309 353
#     4  11  22  38  66  90 119 165 202 248 307 360
#     4  10  22  40  60  90 129 159 199 252 300 361
#     4   9  20  44  65  86 120 163 203 250 307 361
#
# _framework density 24.183291000000001
#
# number of rings (size 3 to 8) (size 9 to 14) (size 15 to 20)
#    0.000    2.000    0.000    3.857    6.000    2.286 
#    0.000    5.714    0.000    0.000    0.000    0.000 
#    0.000    0.000    0.000    0.000    0.000    0.000 
#
# Total GULP energy -78066.721776 kJ/mol
# GULP energy per Si atom -5576.194413 kJ/mol
# Density = 2.412825 g / cm^3
# Si number density = 24.183291 Si / 1000 Ang^3
#
#
#
# Elastic Constant Matrix: (Units=GPa)
#
#
# Indices 1 2 3 4 5 6 
#
# 1 117.5147 24.1180 14.8904 4.3491 -7.3566 -7.4747
# 2 24.1180 25.8352 18.4670 8.9787 -0.8487 -5.1484
# 3 14.8904 18.4670 119.2476 -2.4851 8.5647 -15.2272
# 4 4.3491 8.9787 -2.4851 28.5843 -6.5902 -8.0497
# 5 -7.3566 -0.8487 8.5647 -6.5902 44.1237 8.0859
# 6 -7.4747 -5.1484 -15.2272 -8.0497 8.0859 43.4659
#
#
#
# Elastic Compliance Matrix: (Units=1/GPa)
#
#
# Indices 1 2 3 4 5 6 
#
# 1 0.010784 -0.010982 0.000387 0.002474 0.001730 0.000826
# 2 -0.010982 0.061429 -0.008518 -0.018978 -0.001684 -0.000798
# 3 0.000387 -0.008518 0.010395 0.004100 -0.002214 0.003871
# 4 0.002474 -0.018978 0.004100 0.043917 0.004546 0.006901
# 5 0.001730 -0.001684 -0.002214 0.004546 0.024845 -0.004458
# 6 0.000826 -0.000798 0.003871 0.006901 -0.004458 0.026517
#
#
# Mechanical properties :
#
#
# Convention : Reuss Voigt Hill
#
# Bulk Modulus (GPa) = 22.53176 41.94981 32.24079
# Shear Modulus (GPa) = 21.65365 36.90958 29.28161
#
# Velocity S-wave (km/s) = 2.99556 3.91095 3.48346
# Velocity P-wave (km/s) = 4.61539 6.14641 5.43508
#
# Compressibility (1/GPa) = 0.04438179
#
# Stress axis : x y z
#
# Youngs Moduli (GPa) = 92.73315 16.27899 96.19570
#
# Poissons Ratio (x) = 0.17877 -0.03721
# Poissons Ratio (y) = 1.01837 0.81941
# Poissons Ratio (z) = -0.03587 0.13867
#
# Static dielectric constant tensor:
#      x y z
#    x 2.031450 -0.037670 0.081800 
#    y -0.037670 1.938070 0.045580 
#    z 0.081800 0.045580 2.040620 
# 
# From -- ./inp_files/250267.got.cif
#   From: 2010.05.17/outbox.cif.g08.bks.cpg/sg2_126_cif.got.tgz:250267.got - 2010.06.03 11:33:40.
