data_PCOD9021673
_publ_section_title
;
Structure prediction by ZEFSAII (Michael W. Deem and Ramdas Pophale) SiO2 
 PCOD9021673
Probable space group: P -1
;
_chemical_formula_sum "Si O2"
_cell_formula_units_Z 16
_cell_length_a 14.561892
_cell_length_b 12.337397
_cell_length_c 9.178005
_cell_angle_alpha 64.353459
_cell_angle_beta 29.757075
_cell_angle_gamma 65.266951
_cell_volume 734.394927
_symmetry_space_group_name_H-M "P -1"
_symmetry_group_IT_number 2
_symmetry_cell_setting 'triclinic'
loop_
_space_group_symop_operation_xyz
x,y,z
-x,-y,-z
loop_
_atom_site_type_symbol
_atom_site_label
_atom_site_fract_x
_atom_site_fract_y
_atom_site_fract_z
Si Si1 0.688518 0.000670 0.338793
Si Si2 0.100138 0.786758 0.139788
Si Si3 0.875783 0.732175 0.232804
Si Si4 0.273920 0.808368 0.175347
Si Si5 0.572151 0.948107 0.088221
Si Si6 0.123194 0.398573 0.299563
Si Si7 0.413713 0.391551 0.106621
Si Si8 0.889260 0.740951 0.863348
O O1 0.611020 0.063543 0.556596
O O2 0.500000 0.000000 0.500000
O O3 0.769223 0.864448 0.332012
O O4 0.860816 0.073230 0.006944
O O5 0.258605 0.754832 0.062212
O O6 0.071524 0.733698 0.049475
O O7 0.926653 0.732498 0.491605
O O8 0.748995 0.641964 0.540135
O O9 0.881108 0.720726 0.058666
O O10 0.079357 0.798690 0.528676
O O11 0.441139 0.722151 0.058165
O O12 0.323923 0.944158 0.043588
O O13 0.714166 0.828533 0.989610
O O14 0.500000 0.000000 0.000000
O O15 0.325829 0.424255 0.052545
O O16 0.096742 0.384070 0.174084
O O17 0.000000 0.500000 0.500000
O O18 0.500000 0.500000 0.000000
#
# Coordination Sequence:
#
# PCOD9021673 Si02
#       8
#     2   2   2   2   2   2   2   2
#     4  12  21  39  62  92 136 172 214 265 326 382
#     4  10  22  38  64  91 124 177 211 257 323 389
#     4  11  23  41  64  96 131 170 218 268 322 383
#     4  11  22  41  61  92 134 174 216 259 326 386
#     4  12  25  37  62  96 137 171 218 267 323 384
#     4  10  23  46  70  92 128 171 217 264 329 391
#     4  11  22  43  71  95 122 176 219 264 321 388
#     4  11  24  41  64  97 131 166 218 271 320 386
#
# _framework density 21.786643999999999
#
# number of rings (size 3 to 8) (size 9 to 14) (size 15 to 20)
#    0.000    1.000    3.750    3.000    5.250    1.000 
#    0.000    6.250    0.000    0.000    0.000    0.000 
#    0.000    0.000    0.000    0.000    0.000    0.000 
#
# Total GULP energy -89108.326990 kJ/mol
# GULP energy per Si atom -5569.270437 kJ/mol
# Density = 2.173706 g / cm^3
# Si number density = 21.786644 Si / 1000 Ang^3
#
#
#
# Elastic Constant Matrix: (Units=GPa)
#
#
# Indices 1 2 3 4 5 6 
#
# 1 135.0543 11.1922 31.9251 5.8397 10.3540 15.8943
# 2 11.1922 57.3462 29.4735 -0.4678 0.7351 20.8037
# 3 31.9251 29.4735 61.8256 -2.2496 5.9528 10.8401
# 4 5.8397 -0.4678 -2.2496 43.9209 8.5027 -10.4070
# 5 10.3540 0.7351 5.9528 8.5027 30.6164 -4.2875
# 6 15.8943 20.8037 10.8401 -10.4070 -4.2875 31.5615
#
#
#
# Elastic Compliance Matrix: (Units=1/GPa)
#
#
# Indices 1 2 3 4 5 6 
#
# 1 0.009357 0.002983 -0.005042 -0.002441 -0.002429 -0.006081
# 2 0.002983 0.030195 -0.012787 -0.005084 -0.000462 -0.018752
# 3 -0.005042 -0.012787 0.024765 0.003157 -0.003251 0.003062
# 4 -0.002441 -0.005084 0.003157 0.027035 -0.005542 0.011658
# 5 -0.002429 -0.000462 -0.003251 -0.005542 0.036474 0.005772
# 6 -0.006081 -0.018752 0.003062 0.011658 0.005772 0.050684
#
#
# Mechanical properties :
#
#
# Convention : Reuss Voigt Hill
#
# Bulk Modulus (GPa) = 28.88226 44.37860 36.63043
# Shear Modulus (GPa) = 22.75358 33.32878 28.04118
#
# Velocity S-wave (km/s) = 3.23520 3.91548 3.59148
# Velocity P-wave (km/s) = 5.21929 6.39181 5.83507
#
# Compressibility (1/GPa) = 0.03462334
#
# Stress axis : x y z
#
# Youngs Moduli (GPa) = 106.87639 33.11768 40.37917
#
# Poissons Ratio (x) = -0.09878 0.20359
# Poissons Ratio (y) = -0.31877 0.51635
# Poissons Ratio (z) = 0.53888 0.42349
#
# Static dielectric constant tensor:
#      x y z
#    x 1.898410 -0.035220 0.028540 
#    y -0.035220 1.759410 -0.032350 
#    z 0.028540 -0.032350 1.794640 
# 
# From -- ./inp_files/306868.got.cif
#   From: 2010.05.17/outbox.cif.g08.bks.cpg/sg2_154_cif.got.tgz:306868.got - 2010.06.03 11:33:40.
