data_PCOD9021031
_publ_section_title
;
Structure prediction by ZEFSAII (Michael W. Deem and Ramdas Pophale) SiO2 
 PCOD9021031
Probable space group: P -1
;
_chemical_formula_sum "Si O2"
_cell_formula_units_Z 16
_cell_length_a 13.698191
_cell_length_b 9.030876
_cell_length_c 17.619299
_cell_angle_alpha 29.595688
_cell_angle_beta 136.263748
_cell_angle_gamma 139.808057
_cell_volume 682.974091
_symmetry_space_group_name_H-M "P -1"
_symmetry_group_IT_number 2
_symmetry_cell_setting 'triclinic'
loop_
_space_group_symop_operation_xyz
x,y,z
-x,-y,-z
loop_
_atom_site_type_symbol
_atom_site_label
_atom_site_fract_x
_atom_site_fract_y
_atom_site_fract_z
Si Si1 0.594061 0.617702 0.079016
Si Si2 0.464552 0.744903 0.231709
Si Si3 0.092626 0.342442 0.548994
Si Si4 0.939618 0.683106 0.213183
Si Si5 0.785667 0.084435 0.287663
Si Si6 0.855109 0.667378 0.773096
Si Si7 0.888308 0.602091 0.995199
Si Si8 0.569459 0.353251 0.341855
O O1 0.772775 0.682879 0.137491
O O2 0.528619 0.369725 0.223470
O O3 0.500000 0.500000 0.000000
O O4 0.584707 0.957227 0.946633
O O5 0.309440 0.463227 0.301154
O O6 0.519193 0.593370 0.258317
O O7 0.612304 0.890709 0.304720
O O8 0.245483 0.509286 0.609888
O O9 0.023143 0.591647 0.370375
O O10 0.147360 0.175772 0.584161
O O11 0.959792 0.036512 0.648698
O O12 0.899481 0.374257 0.273100
O O13 0.057940 0.043424 0.094366
O O14 0.772503 0.295046 0.113143
O O15 0.829412 0.619164 0.870277
O O16 0.957879 0.469367 0.895264
O O17 0.500000 0.000000 0.500000
#
# Coordination Sequence:
#
# PCOD9021031 Si02
#       8
#     2   2   2   2   2   2   2   2
#     4  12  26  46  72 110 145 186 236 299 360 416
#     4  11  24  44  72 101 142 188 237 292 353 426
#     4  10  25  45  68  98 138 185 235 284 350 421
#     4  12  23  42  70  99 141 179 237 283 355 414
#     4  10  23  43  64  98 137 184 224 288 350 418
#     4  10  22  40  65  97 128 174 235 282 340 410
#     4  10  22  37  64  97 129 173 229 283 338 406
#     4  11  28  49  73 105 143 190 241 293 357 427
#
# _framework density 23.426950000000001
#
# number of rings (size 3 to 8) (size 9 to 14) (size 15 to 20)
#    0.000    1.250    2.500    1.875   10.500    1.000 
#    2.250    3.750    0.000    0.000    0.000    0.000 
#    0.000    0.000    0.000    0.000    0.000    0.000 
#
# Total GULP energy -89495.417598 kJ/mol
# GULP energy per Si atom -5593.463600 kJ/mol
# Density = 2.337363 g / cm^3
# Si number density = 23.426950 Si / 1000 Ang^3
#
#
#
# Elastic Constant Matrix: (Units=GPa)
#
#
# Indices 1 2 3 4 5 6 
#
# 1 42.3612 36.9892 29.4270 -0.4248 12.9689 10.8423
# 2 36.9892 129.6728 49.1964 -14.1879 3.0322 14.5729
# 3 29.4270 49.1964 115.7255 -3.1188 7.6575 3.8811
# 4 -0.4248 -14.1879 -3.1188 27.5663 3.8441 0.1142
# 5 12.9689 3.0322 7.6575 3.8441 34.8597 -3.9466
# 6 10.8423 14.5729 3.8811 0.1142 -3.9466 47.1130
#
#
#
# Elastic Compliance Matrix: (Units=1/GPa)
#
#
# Indices 1 2 3 4 5 6 
#
# 1 0.041366 -0.008747 -0.005694 -0.002532 -0.013949 -0.007507
# 2 -0.008747 0.011962 -0.002810 0.005418 0.002087 -0.001294
# 3 -0.005694 -0.002810 0.011229 -0.000278 0.000069 0.001261
# 4 -0.002532 0.005418 -0.000278 0.039558 -0.004000 -0.001501
# 5 -0.013949 0.002087 0.000069 -0.004000 0.034740 0.005479
# 6 -0.007507 -0.001294 0.001261 -0.001501 0.005479 0.023712
#
#
# Mechanical properties :
#
#
# Convention : Reuss Voigt Hill
#
# Bulk Modulus (GPa) = 33.27060 57.66496 45.46778
# Shear Modulus (GPa) = 24.14437 33.38424 28.76430
#
# Velocity S-wave (km/s) = 3.21382 3.77906 3.50784
# Velocity P-wave (km/s) = 5.29190 6.61135 5.98808
#
# Compressibility (1/GPa) = 0.03005657
#
# Stress axis : x y z
#
# Youngs Moduli (GPa) = 24.17455 83.59658 89.05453
#
# Poissons Ratio (x) = 0.73119 0.50706
# Poissons Ratio (y) = 0.21145 0.25023
# Poissons Ratio (z) = 0.13764 0.23489
#
# Static dielectric constant tensor:
#      x y z
#    x 1.916400 -0.024550 -0.022010 
#    y -0.024550 1.919580 0.010190 
#    z -0.022010 0.010190 1.881990 
# 
# From -- ./inp_files/572796.got.cif
#   From: 2010.05.17/outbox.cif.g08.bks.cpg/sg2_287_cif.got.tgz:572796.got - 2010.06.03 11:33:40.
