data_PCOD9021750
_publ_section_title
;
Structure prediction by ZEFSAII (Michael W. Deem and Ramdas Pophale) SiO2 
 PCOD9021750
Probable space group: P -1
;
_chemical_formula_sum "Si O2"
_cell_formula_units_Z 12
_cell_length_a 13.303475
_cell_length_b 9.823490
_cell_length_c 9.385688
_cell_angle_alpha 50.442021
_cell_angle_beta 133.379126
_cell_angle_gamma 146.822371
_cell_volume 481.903280
_symmetry_space_group_name_H-M "P -1"
_symmetry_group_IT_number 2
_symmetry_cell_setting 'triclinic'
loop_
_space_group_symop_operation_xyz
x,y,z
-x,-y,-z
loop_
_atom_site_type_symbol
_atom_site_label
_atom_site_fract_x
_atom_site_fract_y
_atom_site_fract_z
Si Si1 0.535524 0.595365 0.635392
Si Si2 0.908803 0.719321 0.958573
Si Si3 0.554695 0.025701 0.329260
Si Si4 0.207688 0.758887 0.856958
Si Si5 0.158064 0.087971 0.713382
Si Si6 0.164638 0.682449 0.351348
O O1 0.500000 0.500000 0.500000
O O2 0.711359 0.644859 0.843472
O O3 0.340891 0.383458 0.678217
O O4 0.580314 0.841388 0.506351
O O5 0.841430 0.478391 0.965120
O O6 0.047587 0.968623 0.833773
O O7 0.036233 0.746351 0.189470
O O8 0.616705 0.111750 0.170586
O O9 0.717903 0.263762 0.430250
O O10 0.335832 0.868652 0.275944
O O11 0.003907 0.604999 0.671641
O O12 0.235176 0.960501 0.836841
O O13 0.000000 0.000000 0.500000
#
# Coordination Sequence:
#
# PCOD9021750 Si02
#       6
#     2   2   2   2   2   2
#     4  12  24  39  62  93 123 161 201 246 311 358
#     4  10  25  39  59  97 119 160 201 251 304 351
#     4  11  21  44  65  88 121 163 204 246 301 365
#     4  10  22  38  65  87 123 157 204 254 291 363
#     4  12  22  39  61  90 128 159 200 249 305 359
#     4   9  24  40  65  90 119 161 207 247 299 355
#
# _framework density 24.901263
#
# number of rings (size 3 to 8) (size 9 to 14) (size 15 to 20)
#    1.000    0.333    3.333    2.000    2.333    1.333 
#    0.000    0.833    0.000    0.000    0.000    0.000 
#    0.000    0.000    0.000    0.000    0.000    0.000 
#
# Total GULP energy -67129.551964 kJ/mol
# GULP energy per Si atom -5594.129330 kJ/mol
# Density = 2.484459 g / cm^3
# Si number density = 24.901263 Si / 1000 Ang^3
#
#
#
# Elastic Constant Matrix: (Units=GPa)
#
#
# Indices 1 2 3 4 5 6 
#
# 1 49.7134 20.8289 21.6709 16.6383 6.8054 21.1956
# 2 20.8289 74.6477 20.4475 -2.6418 5.5212 20.0681
# 3 21.6709 20.4475 75.6393 12.1048 16.8213 11.6453
# 4 16.6383 -2.6418 12.1048 40.2697 11.4096 6.4457
# 5 6.8054 5.5212 16.8213 11.4096 39.8579 -0.8704
# 6 21.1956 20.0681 11.6453 6.4457 -0.8704 48.4598
#
#
#
# Elastic Compliance Matrix: (Units=1/GPa)
#
#
# Indices 1 2 3 4 5 6 
#
# 1 0.031909 -0.005603 -0.004528 -0.010766 0.000122 -0.009114
# 2 -0.005603 0.017381 -0.002806 0.005639 -0.001987 -0.004859
# 3 -0.004528 -0.002806 0.016894 -0.001708 -0.005496 -0.000789
# 4 -0.010766 0.005639 -0.001708 0.032583 -0.007586 -0.001686
# 5 0.000122 -0.001987 -0.005496 -0.007586 0.029914 0.003637
# 6 -0.009114 -0.004859 -0.000789 -0.001686 0.003637 0.027113
#
#
# Mechanical properties :
#
#
# Convention : Reuss Voigt Hill
#
# Bulk Modulus (GPa) = 24.80829 36.21055 30.50942
# Shear Modulus (GPa) = 25.62719 34.85436 30.24078
#
# Velocity S-wave (km/s) = 3.21152 3.74532 3.48864
# Velocity P-wave (km/s) = 4.87197 5.76857 5.33913
#
# Compressibility (1/GPa) = 0.04030910
#
# Stress axis : x y z
#
# Youngs Moduli (GPa) = 31.33893 57.53416 59.19436
#
# Poissons Ratio (x) = 0.32237 0.26806
# Poissons Ratio (y) = 0.17559 0.16609
# Poissons Ratio (z) = 0.14192 0.16143
#
# Static dielectric constant tensor:
#      x y z
#    x 2.028440 -0.056550 -0.018140 
#    y -0.056550 1.967980 0.036300 
#    z -0.018140 0.036300 1.987930 
# 
# From -- ./inp_files/170975.got.cif
#   From: 2010.05.17/outbox.cif.g08.bks.cpg/sg2_86_cif.got.tgz:170975.got - 2010.06.03 11:33:40.
