data_PCOD9021933
_publ_section_title
;
Structure prediction by ZEFSAII (Michael W. Deem and Ramdas Pophale) SiO2 
 PCOD9021933
Probable space group: P -1
;
_chemical_formula_sum "Si O2"
_cell_formula_units_Z 14
_cell_length_a 12.917270
_cell_length_b 13.655626
_cell_length_c 9.779168
_cell_angle_alpha 102.218782
_cell_angle_beta 35.700535
_cell_angle_gamma 127.183665
_cell_volume 641.311915
_symmetry_space_group_name_H-M "P -1"
_symmetry_group_IT_number 2
_symmetry_cell_setting 'triclinic'
loop_
_space_group_symop_operation_xyz
x,y,z
-x,-y,-z
loop_
_atom_site_type_symbol
_atom_site_label
_atom_site_fract_x
_atom_site_fract_y
_atom_site_fract_z
Si Si1 0.748188 0.237606 0.865582
Si Si2 0.902917 0.232695 0.200738
Si Si3 0.744293 0.661009 0.708577
Si Si4 0.608833 0.819046 0.989648
Si Si5 0.507420 0.470131 0.640417
Si Si6 0.324624 0.955856 0.879508
Si Si7 0.167540 0.573348 0.616940
O O1 0.500938 0.168430 0.019932
O O2 0.318940 0.871420 0.979089
O O3 0.979662 0.280739 0.541151
O O4 0.895920 0.398274 0.816369
O O5 0.636569 0.095166 0.534552
O O6 0.897360 0.349892 0.220261
O O7 0.859545 0.158902 0.082080
O O8 0.192499 0.328863 0.982412
O O9 0.669406 0.612216 0.613539
O O10 0.500000 0.500000 0.000000
O O11 0.757508 0.781763 0.774017
O O12 0.759519 0.969042 0.959396
O O13 0.347222 0.672801 0.317807
O O14 0.500000 0.500000 0.500000
O O15 0.652284 0.425245 0.487126
#
# Coordination Sequence:
#
# PCOD9021933 Si02
#       7
#     2   2   2   2   2   2   2
#     4  11  22  39  63  95 128 155 213 270 303 374
#     4  10  22  44  65  84 132 172 201 258 320 371
#     4  11  23  39  67  98 120 161 216 262 316 364
#     4  11  22  40  62  94 126 171 205 257 321 369
#     4  11  23  40  66  99 123 157 213 272 306 365
#     4  10  24  41  60  94 130 170 209 250 315 389
#     4  10  22  38  67  94 117 162 221 258 310 369
#
# _framework density 21.830252000000002
#
# number of rings (size 3 to 8) (size 9 to 14) (size 15 to 20)
#    0.000    1.429    2.857    3.429    4.000    4.000 
#    0.000   10.714    0.000    0.000    0.000    0.000 
#    0.000    0.000    0.000    0.000    0.000    0.000 
#
# Total GULP energy -78340.350671 kJ/mol
# GULP energy per Si atom -5595.739334 kJ/mol
# Density = 2.178057 g / cm^3
# Si number density = 21.830252 Si / 1000 Ang^3
#
#
#
# Elastic Constant Matrix: (Units=GPa)
#
#
# Indices 1 2 3 4 5 6 
#
# 1 53.8530 23.9056 -0.9595 5.4153 11.2088 1.8241
# 2 23.9056 187.7656 30.5885 23.2873 -5.1216 -2.6899
# 3 -0.9595 30.5885 47.1848 7.8898 -6.5233 2.4396
# 4 5.4153 23.2873 7.8898 21.2797 -6.4810 2.1853
# 5 11.2088 -5.1216 -6.5233 -6.4810 37.5504 -10.2314
# 6 1.8241 -2.6899 2.4396 2.1853 -10.2314 19.0653
#
#
#
# Elastic Compliance Matrix: (Units=1/GPa)
#
#
# Indices 1 2 3 4 5 6 
#
# 1 0.022794 -0.002961 0.002359 -0.005654 -0.009824 -0.007524
# 2 -0.002961 0.007073 -0.003719 -0.005594 0.001043 0.002958
# 3 0.002359 -0.003719 0.024834 -0.005007 0.001552 -0.002522
# 4 -0.005654 -0.005594 -0.005007 0.059580 0.010054 -0.001041
# 5 -0.009824 0.001043 0.001552 0.010054 0.037057 0.019623
# 6 -0.007524 0.002958 -0.002522 -0.001041 0.019623 0.064561
#
#
# Mechanical properties :
#
#
# Convention : Reuss Voigt Hill
#
# Bulk Modulus (GPa) = 21.71078 43.98585 32.84832
# Shear Modulus (GPa) = 20.84264 31.26367 26.05315
#
# Velocity S-wave (km/s) = 3.09327 3.78845 3.45837
# Velocity P-wave (km/s) = 4.76704 6.27130 5.57018
#
# Compressibility (1/GPa) = 0.04606006
#
# Stress axis : x y z
#
# Youngs Moduli (GPa) = 43.87203 141.37777 40.26713
#
# Poissons Ratio (x) = 0.41859 -0.09500
# Poissons Ratio (y) = 0.12990 0.14975
# Poissons Ratio (z) = -0.10351 0.52577
#
# Static dielectric constant tensor:
#      x y z
#    x 1.779310 0.036660 0.048370 
#    y 0.036660 1.804800 -0.011210 
#    z 0.048370 -0.011210 1.830360 
# 
# From -- ./inp_files/415131.got.cif
#   From: 2010.05.17/outbox.cif.g08.bks.cpg/sg2_208_cif.got.tgz:415131.got - 2010.06.03 11:33:40.
