data_PCOD9021087
_publ_section_title
;
Structure prediction by ZEFSAII (Michael W. Deem and Ramdas Pophale) SiO2 
 PCOD9021087
Probable space group: P -1
;
_chemical_formula_sum "Si O2"
_cell_formula_units_Z 16
_cell_length_a 15.169634
_cell_length_b 15.300121
_cell_length_c 10.176448
_cell_angle_alpha 36.967996
_cell_angle_beta 150.563270
_cell_angle_gamma 137.685197
_cell_volume 690.417566
_symmetry_space_group_name_H-M "P -1"
_symmetry_group_IT_number 2
_symmetry_cell_setting 'triclinic'
loop_
_space_group_symop_operation_xyz
x,y,z
-x,-y,-z
loop_
_atom_site_type_symbol
_atom_site_label
_atom_site_fract_x
_atom_site_fract_y
_atom_site_fract_z
Si Si1 0.427427 0.137338 0.174389
Si Si2 0.428461 0.272323 0.746741
Si Si3 0.101236 0.679544 0.073203
Si Si4 0.221650 0.539811 0.139733
Si Si5 0.848644 0.865801 0.655303
Si Si6 0.708573 0.388620 0.356862
Si Si7 0.917691 0.669758 0.226622
Si Si8 0.012868 0.100234 0.763856
O O1 0.543220 0.286891 0.198893
O O2 0.216568 0.115562 0.958544
O O3 0.500000 0.000000 0.500000
O O4 0.447195 0.153939 0.024391
O O5 0.305458 0.398272 0.478876
O O6 0.619790 0.365027 0.848007
O O7 0.328946 0.188271 0.594041
O O8 0.149484 0.643143 0.031069
O O9 0.269551 0.662223 0.404956
O O10 0.940148 0.544410 0.056775
O O11 0.015001 0.823770 0.830604
O O12 0.849095 0.770868 0.902955
O O13 0.886025 0.029237 0.567184
O O14 0.735760 0.562230 0.162769
O O15 0.900713 0.368659 0.561641
O O16 0.003588 0.744459 0.381854
O O17 0.000000 0.000000 0.000000
#
# Coordination Sequence:
#
# PCOD9021087 Si02
#       8
#     2   2   2   2   2   2   2   2
#     4  12  26  42  61  93 131 173 214 265 319 379
#     4  10  23  38  64  92 129 167 212 269 319 377
#     4   9  18  36  62  94 131 164 202 256 323 393
#     4   9  20  38  61  97 132 158 210 269 324 371
#     4   9  19  40  63  91 125 174 207 260 319 385
#     4  10  22  37  66  95 131 165 208 265 321 381
#     4   9  20  38  67  98 123 168 212 261 324 378
#     4  10  22  43  65  88 130 171 214 264 314 388
#
# _framework density 23.174382000000001
#
# number of rings (size 3 to 8) (size 9 to 14) (size 15 to 20)
#    0.000    2.250    0.000    2.250   10.500    3.000 
#    0.000    1.250    0.000    9.750    0.000    0.000 
#    0.000    0.000    0.000    0.000    0.000    0.000 
#
# Total GULP energy -89287.064086 kJ/mol
# GULP energy per Si atom -5580.441505 kJ/mol
# Density = 2.312164 g / cm^3
# Si number density = 23.174382 Si / 1000 Ang^3
#
#
#
# Elastic Constant Matrix: (Units=GPa)
#
#
# Indices 1 2 3 4 5 6 
#
# 1 59.1259 35.8525 7.5041 -2.9980 -0.5899 -6.9883
# 2 35.8525 91.1911 1.7891 18.1969 -4.0091 -8.0232
# 3 7.5041 1.7891 36.2778 2.5133 -8.6005 3.4794
# 4 -2.9980 18.1969 2.5133 34.4184 5.8511 -2.4987
# 5 -0.5899 -4.0091 -8.6005 5.8511 10.2789 6.2502
# 6 -6.9883 -8.0232 3.4794 -2.4987 6.2502 43.1866
#
#
#
# Elastic Compliance Matrix: (Units=1/GPa)
#
#
# Indices 1 2 3 4 5 6 
#
# 1 0.030300 -0.016009 -0.015663 0.018658 -0.033803 0.009163
# 2 -0.016009 0.021863 0.011555 -0.019531 0.031527 -0.005152
# 3 -0.015663 0.011555 0.049520 -0.023795 0.068077 -0.015607
# 4 0.018658 -0.019531 -0.023795 0.055048 -0.066364 0.014097
# 5 -0.033803 0.031527 0.068077 -0.066364 0.227868 -0.041915
# 6 0.009163 -0.005152 -0.015607 0.014097 -0.041915 0.031820
#
#
# Mechanical properties :
#
#
# Convention : Reuss Voigt Hill
#
# Bulk Modulus (GPa) = 16.27380 30.76515 23.51948
# Shear Modulus (GPa) = 10.47917 27.00669 18.74293
#
# Velocity S-wave (km/s) = 2.12878 3.41745 2.84699
# Velocity P-wave (km/s) = 3.61660 5.37367 4.58018
#
# Compressibility (1/GPa) = 0.06144845
#
# Stress axis : x y z
#
# Youngs Moduli (GPa) = 33.00325 45.73877 20.19399
#
# Poissons Ratio (x) = 0.73221 0.31631
# Poissons Ratio (y) = 0.52834 -0.23334
# Poissons Ratio (z) = 0.51694 -0.52850
#
# Static dielectric constant tensor:
#      x y z
#    x 1.832560 -0.023710 0.010280 
#    y -0.023710 1.975380 -0.160110 
#    z 0.010280 -0.160110 1.972360 
# 
# From -- ./inp_files/465799.got.cif
#   From: 2010.05.17/outbox.cif.g08.bks.cpg/sg2_233_cif.got.tgz:465799.got - 2010.06.03 11:33:40.
