data_PCOD9021441
_publ_section_title
;
Structure prediction by ZEFSAII (Michael W. Deem and Ramdas Pophale) SiO2 
 PCOD9021441
Probable space group: P -1
;
_chemical_formula_sum "Si O2"
_cell_formula_units_Z 12
_cell_length_a 11.428412
_cell_length_b 8.015236
_cell_length_c 15.949227
_cell_angle_alpha 110.604060
_cell_angle_beta 36.745202
_cell_angle_gamma 81.818347
_cell_volume 533.925450
_symmetry_space_group_name_H-M "P -1"
_symmetry_group_IT_number 2
_symmetry_cell_setting 'triclinic'
loop_
_space_group_symop_operation_xyz
x,y,z
-x,-y,-z
loop_
_atom_site_type_symbol
_atom_site_label
_atom_site_fract_x
_atom_site_fract_y
_atom_site_fract_z
Si Si1 0.547954 0.725706 0.481272
Si Si2 0.717998 0.570218 0.694304
Si Si3 0.365303 0.526060 0.441134
Si Si4 0.281144 0.899083 0.143477
Si Si5 0.518552 0.378706 0.858708
Si Si6 0.982870 0.650887 0.111124
O O1 0.530919 0.585337 0.393918
O O2 0.652759 0.580892 0.484818
O O3 0.788174 0.702117 0.307573
O O4 0.214571 0.037744 0.740723
O O5 0.527036 0.657675 0.735147
O O6 0.767098 0.343123 0.672378
O O7 0.000000 0.500000 0.500000
O O8 0.515262 0.803639 0.922604
O O9 0.040052 0.807274 0.643669
O O10 0.387549 0.835363 0.166943
O O11 0.288339 0.677994 0.088006
O O12 0.323540 0.442726 0.906108
O O13 0.000000 0.500000 0.000000
#
# Coordination Sequence:
#
# PCOD9021441 Si02
#       6
#     2   2   2   2   2   2
#     4  10  24  39  65  94 125 173 209 256 317 378
#     4  10  22  38  61  94 125 167 214 253 316 381
#     4  11  22  42  64  93 134 164 207 266 318 373
#     4   9  21  41  63  87 131 164 203 263 315 366
#     4   9  20  43  62  91 130 163 209 262 312 372
#     4  11  22  43  66  92 126 168 217 257 310 380
#
# _framework density 22.475047
#
# number of rings (size 3 to 8) (size 9 to 14) (size 15 to 20)
#    1.000    1.000    1.667    1.000    2.333    2.667 
#    3.000    4.167    0.000    0.000    0.000    0.000 
#    0.000    0.000    0.000    0.000    0.000    0.000 
#
# Total GULP energy -66880.158979 kJ/mol
# GULP energy per Si atom -5573.346582 kJ/mol
# Density = 2.242389 g / cm^3
# Si number density = 22.475047 Si / 1000 Ang^3
#
#
#
# Elastic Constant Matrix: (Units=GPa)
#
#
# Indices 1 2 3 4 5 6 
#
# 1 117.9257 45.2212 17.0737 -3.4578 9.9413 -16.4816
# 2 45.2212 113.1708 38.5949 -6.8418 -9.1609 -32.1411
# 3 17.0737 38.5949 75.6613 -12.4272 -4.7797 -8.8996
# 4 -3.4578 -6.8418 -12.4272 29.3527 3.8302 -1.5116
# 5 9.9413 -9.1609 -4.7797 3.8302 28.3395 0.0220
# 6 -16.4816 -32.1411 -8.8996 -1.5116 0.0220 34.9969
#
#
#
# Elastic Compliance Matrix: (Units=1/GPa)
#
#
# Indices 1 2 3 4 5 6 
#
# 1 0.010795 -0.004261 -0.000319 0.000898 -0.005340 0.001131
# 2 -0.004261 0.016167 -0.005441 0.000813 0.005684 0.011488
# 3 -0.000319 -0.005441 0.016975 0.005795 0.000433 -0.000581
# 4 0.000898 0.000813 0.005795 0.037579 -0.004158 0.004269
# 5 -0.005340 0.005684 0.000433 -0.004158 0.039630 0.002611
# 6 0.001131 0.011488 -0.000581 0.004269 0.002611 0.039693
#
#
# Mechanical properties :
#
#
# Convention : Reuss Voigt Hill
#
# Bulk Modulus (GPa) = 41.85216 56.50416 49.17816
# Shear Modulus (GPa) = 26.47654 32.26234 29.36944
#
# Velocity S-wave (km/s) = 3.43598 3.79288 3.61883
# Velocity P-wave (km/s) = 5.86544 6.66158 6.27614
#
# Compressibility (1/GPa) = 0.02389363
#
# Stress axis : x y z
#
# Youngs Moduli (GPa) = 92.63663 61.85586 58.90977
#
# Poissons Ratio (x) = 0.26359 0.01879
# Poissons Ratio (y) = 0.39476 0.32053
# Poissons Ratio (z) = 0.02955 0.33656
#
# Static dielectric constant tensor:
#      x y z
#    x 1.882040 0.030670 0.041250 
#    y 0.030670 1.865210 0.014840 
#    z 0.041250 0.014840 1.865290 
# 
# From -- ./inp_files/513314.got.cif
#   From: 2010.05.17/outbox.cif.g08.bks.cpg/sg2_257_cif.got.tgz:513314.got - 2010.06.03 11:33:40.
