data_PCOD9021834
_publ_section_title
;
Structure prediction by ZEFSAII (Michael W. Deem and Ramdas Pophale) SiO2 
 PCOD9021834
Probable space group: P -1
;
_chemical_formula_sum "Si O2"
_cell_formula_units_Z 14
_cell_length_a 6.255351
_cell_length_b 10.909308
_cell_length_c 16.225151
_cell_angle_alpha 30.114051
_cell_angle_beta 87.711026
_cell_angle_gamma 90.095319
_cell_volume 553.629095
_symmetry_space_group_name_H-M "P -1"
_symmetry_group_IT_number 2
_symmetry_cell_setting 'triclinic'
loop_
_space_group_symop_operation_xyz
x,y,z
-x,-y,-z
loop_
_atom_site_type_symbol
_atom_site_label
_atom_site_fract_x
_atom_site_fract_y
_atom_site_fract_z
Si Si1 0.267832 0.965379 0.592615
Si Si2 0.794950 0.356668 0.628842
Si Si3 0.562406 0.285476 0.522157
Si Si4 0.929747 0.776483 0.836233
Si Si5 0.877357 0.712637 0.204588
Si Si6 0.133069 0.816869 0.983314
Si Si7 0.372448 0.331091 0.234145
O O1 0.451753 0.105855 0.563064
O O2 0.251382 0.137453 0.413369
O O3 0.063669 0.926306 0.676173
O O4 0.378170 0.708541 0.728214
O O5 0.674858 0.186810 0.659793
O O6 0.626151 0.551286 0.540671
O O7 0.000000 0.500000 0.500000
O O8 0.893161 0.263195 0.765338
O O9 0.743834 0.463293 0.372733
O O10 0.696706 0.732142 0.822564
O O11 0.022539 0.879194 0.862105
O O12 0.000000 0.500000 0.000000
O O13 0.942025 0.729113 0.099613
O O14 0.761937 0.937490 0.117194
O O15 0.292133 0.599799 0.097099
#
# Coordination Sequence:
#
# PCOD9021834 Si02
#       7
#     2   2   2   2   2   2   2
#     4  11  24  41  72 100 130 171 227 282 337 391
#     4   9  20  37  62  94 134 168 216 267 329 391
#     4  10  22  38  66 103 130 168 226 277 329 397
#     4  10  24  43  67  95 132 178 220 274 337 399
#     4  10  22  43  65  97 136 183 218 271 334 399
#     4  10  23  43  68  94 140 179 224 268 334 406
#     4  10  24  46  67  99 129 177 225 281 331 395
#
# _framework density 25.287689
#
# number of rings (size 3 to 8) (size 9 to 14) (size 15 to 20)
#    0.000    2.000    0.000    1.286    8.000    9.143 
#    0.000   10.714    0.000    0.000    0.000    0.000 
#    0.000    0.000    0.000    0.000    0.000    0.000 
#
# Total GULP energy -78231.899415 kJ/mol
# GULP energy per Si atom -5587.992815 kJ/mol
# Density = 2.523013 g / cm^3
# Si number density = 25.287689 Si / 1000 Ang^3
#
#
#
# Elastic Constant Matrix: (Units=GPa)
#
#
# Indices 1 2 3 4 5 6 
#
# 1 44.1124 20.3666 23.7203 8.9083 12.4382 9.5232
# 2 20.3666 117.2344 19.6936 8.1174 11.1779 12.6592
# 3 23.7203 19.6936 67.2719 12.1512 28.7462 10.0525
# 4 8.9083 8.1174 12.1512 47.9539 -2.5296 -2.3457
# 5 12.4382 11.1779 28.7462 -2.5296 43.7197 0.0859
# 6 9.5232 12.6592 10.0525 -2.3457 0.0859 34.6817
#
#
#
# Elastic Compliance Matrix: (Units=1/GPa)
#
#
# Indices 1 2 3 4 5 6 
#
# 1 0.030781 -0.002960 -0.006837 -0.003957 -0.003722 -0.005648
# 2 -0.002960 0.009629 -0.000656 -0.001106 -0.001247 -0.002583
# 3 -0.006837 -0.000656 0.026044 -0.006313 -0.015365 -0.005821
# 4 -0.003957 -0.001106 -0.006313 0.023982 0.006937 0.004925
# 5 -0.003722 -0.001247 -0.015365 0.006937 0.034742 0.006314
# 6 -0.005648 -0.002583 -0.005821 0.004925 0.006314 0.033332
#
#
# Mechanical properties :
#
#
# Convention : Reuss Voigt Hill
#
# Bulk Modulus (GPa) = 21.95598 39.57554 30.76576
# Shear Modulus (GPa) = 25.69373 36.26027 30.97700
#
# Velocity S-wave (km/s) = 3.19102 3.79081 3.50377
# Velocity P-wave (km/s) = 4.71997 5.90291 5.34428
#
# Compressibility (1/GPa) = 0.04554569
#
# Stress axis : x y z
#
# Youngs Moduli (GPa) = 32.48783 103.85473 38.39669
#
# Poissons Ratio (x) = 0.30741 0.26253
# Poissons Ratio (y) = 0.09616 0.02521
# Poissons Ratio (z) = 0.22213 0.06818
#
# Static dielectric constant tensor:
#      x y z
#    x 2.036020 -0.058250 0.051100 
#    y -0.058250 2.094170 -0.046630 
#    z 0.051100 -0.046630 2.025160 
# 
# From -- ./inp_files/549377.got.cif
#   From: 2010.05.17/outbox.cif.g08.bks.cpg/sg2_275_cif.got.tgz:549377.got - 2010.06.03 11:33:40.
