data_PCOD9021797
_publ_section_title
;
Structure prediction by ZEFSAII (Michael W. Deem and Ramdas Pophale) SiO2 
 PCOD9021797
Probable space group: P -1
;
_chemical_formula_sum "Si O2"
_cell_formula_units_Z 16
_cell_length_a 21.835156
_cell_length_b 9.217474
_cell_length_c 5.462388
_cell_angle_alpha 119.731191
_cell_angle_beta 94.893149
_cell_angle_gamma 48.162506
_cell_volume 658.066494
_symmetry_space_group_name_H-M "P -1"
_symmetry_group_IT_number 2
_symmetry_cell_setting 'triclinic'
loop_
_space_group_symop_operation_xyz
x,y,z
-x,-y,-z
loop_
_atom_site_type_symbol
_atom_site_label
_atom_site_fract_x
_atom_site_fract_y
_atom_site_fract_z
Si Si1 0.739810 0.011967 0.549503
Si Si2 0.033553 0.587007 0.252858
Si Si3 0.080931 0.956763 0.072511
Si Si4 0.168172 0.077795 0.007530
Si Si5 0.808168 0.526166 0.038741
Si Si6 0.630771 0.816142 0.954415
Si Si7 0.451389 0.689712 0.414962
Si Si8 0.497521 0.852279 0.193653
O O1 0.766988 0.048306 0.841321
O O2 0.636890 0.228799 0.635647
O O3 0.788092 0.973268 0.282151
O O4 0.766912 0.763248 0.369658
O O5 0.097358 0.364306 0.278357
O O6 0.100735 0.581883 0.137858
O O7 0.956555 0.842573 0.567833
O O8 0.000000 0.500000 0.000000
O O9 0.116076 0.006947 0.914295
O O10 0.161660 0.686523 0.965526
O O11 0.000000 0.000000 0.000000
O O12 0.733557 0.614390 0.892165
O O13 0.600699 0.929697 0.770498
O O14 0.576642 0.751668 0.948741
O O15 0.587647 0.059516 0.280970
O O16 0.500000 0.500000 0.500000
O O17 0.504051 0.664363 0.178506
O O18 0.500000 0.000000 0.500000
#
# Coordination Sequence:
#
# PCOD9021797 Si02
#       8
#     2   2   2   2   2   2   2   2
#     4  10  24  45  67  98 139 184 232 282 360 423
#     4  11  23  43  73  97 142 191 235 289 368 427
#     4  12  24  41  66 105 136 181 240 300 352 421
#     4  11  24  45  68  97 138 186 226 289 357 428
#     4  10  22  40  67 100 132 179 234 293 342 422
#     4   9  20  41  63  94 131 180 221 278 357 411
#     4  10  22  38  65  96 128 179 229 285 340 418
#     4   9  19  39  65  91 132 172 223 276 350 417
#
# _framework density 24.313652999999999
#
# number of rings (size 3 to 8) (size 9 to 14) (size 15 to 20)
#    0.000    1.750    0.000    3.750    5.250    2.500 
#    9.000    0.000    0.000    0.000    0.000    0.000 
#    0.000    0.000    0.000    0.000    0.000    0.000 
#
# Total GULP energy -89444.932536 kJ/mol
# GULP energy per Si atom -5590.308283 kJ/mol
# Density = 2.425831 g / cm^3
# Si number density = 24.313653 Si / 1000 Ang^3
#
#
#
# Elastic Constant Matrix: (Units=GPa)
#
#
# Indices 1 2 3 4 5 6 
#
# 1 130.8952 63.9351 38.7916 -5.2758 2.3100 9.8461
# 2 63.9351 153.7080 48.5470 -6.7876 -0.7725 6.3279
# 3 38.7916 48.5470 67.3410 -3.6081 -0.8046 -2.3080
# 4 -5.2758 -6.7876 -3.6081 40.5563 -9.4681 10.5751
# 5 2.3100 -0.7725 -0.8046 -9.4681 30.8817 -8.9550
# 6 9.8461 6.3279 -2.3080 10.5751 -8.9550 52.8082
#
#
#
# Elastic Compliance Matrix: (Units=1/GPa)
#
#
# Indices 1 2 3 4 5 6 
#
# 1 0.010487 -0.003009 -0.003921 0.000756 -0.001353 -0.002147
# 2 -0.003009 0.009437 -0.005040 0.001075 0.000387 -0.000940
# 3 -0.003921 -0.005040 0.020855 0.000208 0.001487 0.002457
# 4 0.000756 0.001075 0.000208 0.027832 0.007170 -0.004618
# 5 -0.001353 0.000387 0.001487 0.007170 0.036170 0.004969
# 6 -0.002147 -0.000940 0.002457 -0.004618 0.004969 0.021324
#
#
# Mechanical properties :
#
#
# Convention : Reuss Voigt Hill
#
# Bulk Modulus (GPa) = 59.38521 72.72129 66.05325
# Shear Modulus (GPa) = 32.12122 38.22728 35.17425
#
# Velocity S-wave (km/s) = 3.63866 3.96947 3.80766
# Velocity P-wave (km/s) = 6.49083 7.14027 6.82328
#
# Compressibility (1/GPa) = 0.01683921
#
# Stress axis : x y z
#
# Youngs Moduli (GPa) = 95.35393 105.96182 47.94900
#
# Poissons Ratio (x) = 0.31881 0.18803
# Poissons Ratio (y) = 0.28689 0.24168
# Poissons Ratio (z) = 0.37392 0.53409
#
# Static dielectric constant tensor:
#      x y z
#    x 1.960550 0.019070 -0.036860 
#    y 0.019070 2.029250 -0.207470 
#    z -0.036860 -0.207470 2.318370 
# 
# From -- ./inp_files/117403.got.cif
#   From: 2010.05.17/outbox.cif.g08.bks.cpg/sg2_59_cif.got.tgz:117403.got - 2010.06.03 11:33:40.
