data_PCOD9021532
_publ_section_title
;
Structure prediction by ZEFSAII (Michael W. Deem and Ramdas Pophale) SiO2 
 PCOD9021532
Probable space group: P -1
;
_chemical_formula_sum "Si O2"
_cell_formula_units_Z 14
_cell_length_a 15.986568
_cell_length_b 13.130150
_cell_length_c 8.582675
_cell_angle_alpha 125.061988
_cell_angle_beta 133.381578
_cell_angle_gamma 27.705580
_cell_volume 605.734905
_symmetry_space_group_name_H-M "P -1"
_symmetry_group_IT_number 2
_symmetry_cell_setting 'triclinic'
loop_
_space_group_symop_operation_xyz
x,y,z
-x,-y,-z
loop_
_atom_site_type_symbol
_atom_site_label
_atom_site_fract_x
_atom_site_fract_y
_atom_site_fract_z
Si Si1 0.928491 0.750866 0.741237
Si Si2 0.443113 0.416993 0.425540
Si Si3 0.013160 0.839589 0.378700
Si Si4 0.623375 0.223380 0.832938
Si Si5 0.194778 0.675529 0.803023
Si Si6 0.615463 0.059240 0.093725
Si Si7 0.780975 0.713161 0.234840
O O1 0.859006 0.736255 0.487137
O O2 0.081097 0.720804 0.845337
O O3 0.049715 0.540849 0.810304
O O4 0.737443 0.991232 0.779883
O O5 0.500000 0.500000 0.500000
O O6 0.546712 0.312192 0.635278
O O7 0.524051 0.235462 0.260405
O O8 0.201061 0.629276 0.328906
O O9 0.070030 0.754932 0.556167
O O10 0.798671 0.971777 0.174591
O O11 0.000000 0.000000 0.500000
O O12 0.422411 0.417489 0.851297
O O13 0.772985 0.205023 0.044556
O O14 0.717106 0.850563 0.125825
O O15 0.418896 0.179939 0.862512
#
# Coordination Sequence:
#
# PCOD9021532 Si02
#       7
#     2   2   2   2   2   2   2
#     4  11  21  43  64  90 123 174 213 257 317 361
#     4  11  22  37  65  97 125 163 208 259 327 375
#     4  11  22  38  64  94 127 161 203 263 323 372
#     4  10  22  39  63  95 130 160 205 270 323 370
#     4  10  22  38  62  96 129 157 210 266 317 384
#     4  11  22  45  60  92 134 162 214 261 308 379
#     4  10  24  40  67  88 126 179 213 254 304 380
#
# _framework density 23.11242
#
# number of rings (size 3 to 8) (size 9 to 14) (size 15 to 20)
#    0.000    1.429    4.286    0.429    2.000    2.286 
#    0.000    8.571    0.000    0.000    0.000    0.000 
#    0.000    0.000    0.000    0.000    0.000    0.000 
#
# Total GULP energy -78409.229949 kJ/mol
# GULP energy per Si atom -5600.659282 kJ/mol
# Density = 2.305981 g / cm^3
# Si number density = 23.112420 Si / 1000 Ang^3
#
#
#
# Elastic Constant Matrix: (Units=GPa)
#
#
# Indices 1 2 3 4 5 6 
#
# 1 69.7843 23.6065 12.2896 -1.6218 15.4356 -0.5200
# 2 23.6065 163.7474 13.3360 5.5514 2.4736 7.6795
# 3 12.2896 13.3360 57.7445 -2.6456 18.1943 -6.2897
# 4 -1.6218 5.5514 -2.6456 22.3674 -5.8510 3.8582
# 5 15.4356 2.4736 18.1943 -5.8510 34.4798 -0.9117
# 6 -0.5200 7.6795 -6.2897 3.8582 -0.9117 36.8284
#
#
#
# Elastic Compliance Matrix: (Units=1/GPa)
#
#
# Indices 1 2 3 4 5 6 
#
# 1 0.016771 -0.002258 -0.000827 -0.000207 -0.006934 0.000416
# 2 -0.002258 0.006670 -0.001643 -0.001460 0.001111 -0.001523
# 3 -0.000827 -0.001643 0.021721 -0.000616 -0.010977 0.003833
# 4 -0.000207 -0.001460 -0.000616 0.048016 0.008548 -0.004622
# 5 -0.006934 0.001111 -0.010977 0.008548 0.039213 -0.002129
# 6 0.000416 -0.001523 0.003833 -0.004622 -0.002129 0.028563
#
#
# Mechanical properties :
#
#
# Convention : Reuss Voigt Hill
#
# Bulk Modulus (GPa) = 28.00644 43.30449 35.65546
# Shear Modulus (GPa) = 27.42533 34.87138 31.14835
#
# Velocity S-wave (km/s) = 3.44845 3.88851 3.67507
# Velocity P-wave (km/s) = 5.29146 6.24001 5.78521
#
# Compressibility (1/GPa) = 0.03570607
#
# Stress axis : x y z
#
# Youngs Moduli (GPa) = 59.62522 149.91474 46.03836
#
# Poissons Ratio (x) = 0.33854 0.03809
# Poissons Ratio (y) = 0.13465 0.07563
# Poissons Ratio (z) = 0.04933 0.24628
#
# Static dielectric constant tensor:
#      x y z
#    x 1.869410 0.012740 -0.015300 
#    y 0.012740 1.837120 -0.042500 
#    z -0.015300 -0.042500 1.863490 
# 
# From -- ./inp_files/199267.got.cif
#   From: 2010.05.17/outbox.cif.g08.bks.cpg/sg2_100_cif.got.tgz:199267.got - 2010.06.03 11:33:40.
