data_PCOD9021108
_publ_section_title
;
Structure prediction by ZEFSAII (Michael W. Deem and Ramdas Pophale) SiO2 
 PCOD9021108
Probable space group: P -1
;
_chemical_formula_sum "Si O2"
_cell_formula_units_Z 16
_cell_length_a 9.428745
_cell_length_b 11.964754
_cell_length_c 20.563120
_cell_angle_alpha 150.221159
_cell_angle_beta 49.675894
_cell_angle_gamma 141.751655
_cell_volume 708.738787
_symmetry_space_group_name_H-M "P -1"
_symmetry_group_IT_number 2
_symmetry_cell_setting 'triclinic'
loop_
_space_group_symop_operation_xyz
x,y,z
-x,-y,-z
loop_
_atom_site_type_symbol
_atom_site_label
_atom_site_fract_x
_atom_site_fract_y
_atom_site_fract_z
Si Si1 0.930002 0.381496 0.056262
Si Si2 0.817117 0.177460 0.613496
Si Si3 0.824056 0.928702 0.957928
Si Si4 0.905746 0.549573 0.661814
Si Si5 0.644459 0.673257 0.607306
Si Si6 0.920989 0.812911 0.332945
Si Si7 0.377066 0.876878 0.104671
Si Si8 0.319129 0.780037 0.563269
O O1 0.804442 0.525683 0.185446
O O2 0.188909 0.633588 0.086311
O O3 0.780760 0.180803 0.940130
O O4 0.930116 0.208800 0.026991
O O5 0.955224 0.431864 0.651134
O O6 0.945442 0.209180 0.657651
O O7 0.775652 0.908573 0.454382
O O8 0.559837 0.079834 0.652429
O O9 0.803290 0.702528 0.800613
O O10 0.581110 0.849613 0.016131
O O11 0.000000 0.000000 0.000000
O O12 0.748883 0.291707 0.528445
O O13 0.126141 0.753482 0.653435
O O14 0.500000 0.500000 0.500000
O O15 0.667960 0.469209 0.540897
O O16 0.531619 0.815941 0.743363
O O17 0.893986 0.936557 0.642448
#
# Coordination Sequence:
#
# PCOD9021108 Si02
#       8
#     2   2   2   2   2   2   2   2
#     4  10  23  46  66  97 133 175 228 275 327 397
#     4  11  22  39  62  97 125 166 212 273 326 377
#     4  12  27  42  68  96 138 182 217 273 330 414
#     4  11  26  43  59  94 133 173 220 254 330 400
#     4  11  21  40  69  96 129 164 221 281 327 379
#     4  10  22  37  67  97 129 161 216 281 327 379
#     4  10  25  43  69 100 129 179 225 277 332 391
#     4  11  24  41  64  91 128 174 210 272 324 384
#
# _framework density 22.575310999999999
#
# number of rings (size 3 to 8) (size 9 to 14) (size 15 to 20)
#    0.000    1.250    2.500    2.250    5.250    1.500 
#    0.000    0.000    0.000    0.000    0.000    0.000 
#    0.000    0.000    0.000    0.000    0.000    0.000 
#
# Total GULP energy -89469.415930 kJ/mol
# GULP energy per Si atom -5591.838496 kJ/mol
# Density = 2.252393 g / cm^3
# Si number density = 22.575311 Si / 1000 Ang^3
#
#
#
# Elastic Constant Matrix: (Units=GPa)
#
#
# Indices 1 2 3 4 5 6 
#
# 1 45.9230 24.6365 -0.9632 -1.1635 -4.6821 -5.3675
# 2 24.6365 70.5337 16.1927 -15.5873 -1.2887 -3.4265
# 3 -0.9632 16.1927 122.2062 -20.8695 -9.0208 4.1307
# 4 -1.1635 -15.5873 -20.8695 29.3927 5.0929 -13.0333
# 5 -4.6821 -1.2887 -9.0208 5.0929 25.1462 -3.8987
# 6 -5.3675 -3.4265 4.1307 -13.0333 -3.8987 33.5537
#
#
#
# Elastic Compliance Matrix: (Units=1/GPa)
#
#
# Indices 1 2 3 4 5 6 
#
# 1 0.028476 -0.010807 0.001438 -0.003514 0.006387 0.002652
# 2 -0.010807 0.021260 -0.001102 0.012927 -0.003125 0.005236
# 3 0.001438 -0.001102 0.009606 0.006650 0.002592 0.001819
# 4 -0.003514 0.012927 0.006650 0.055717 -0.005646 0.020926
# 5 0.006387 -0.003125 0.002592 -0.005646 0.043371 0.003230
# 6 0.002652 0.005236 0.001819 0.020926 0.003230 0.039041
#
#
# Mechanical properties :
#
#
# Convention : Reuss Voigt Hill
#
# Bulk Modulus (GPa) = 26.04269 35.37719 30.70994
# Shear Modulus (GPa) = 21.62511 30.87165 26.24838
#
# Velocity S-wave (km/s) = 3.09837 3.70198 3.41354
# Velocity P-wave (km/s) = 4.93567 5.82903 5.40085
#
# Compressibility (1/GPa) = 0.03839849
#
# Stress axis : x y z
#
# Youngs Moduli (GPa) = 35.11759 47.03771 104.10341
#
# Poissons Ratio (x) = 0.50835 -0.14972
# Poissons Ratio (y) = 0.37953 0.11474
# Poissons Ratio (z) = -0.05051 0.05184
#
# Static dielectric constant tensor:
#      x y z
#    x 1.818730 0.009200 -0.011230 
#    y 0.009200 1.868780 -0.046870 
#    z -0.011230 -0.046870 1.892140 
# 
# From -- ./inp_files/577897.got.cif
#   From: 2010.05.17/outbox.cif.g08.bks.cpg/sg2_289_cif.got.tgz:577897.got - 2010.06.03 11:33:40.
