data_PCOD9021599
_publ_section_title
;
Structure prediction by ZEFSAII (Michael W. Deem and Ramdas Pophale) SiO2 
 PCOD9021599
Probable space group: P -1
;
_chemical_formula_sum "Si O2"
_cell_formula_units_Z 16
_cell_length_a 15.275679
_cell_length_b 8.873014
_cell_length_c 7.060718
_cell_angle_alpha 123.193645
_cell_angle_beta 106.632522
_cell_angle_gamma 110.276890
_cell_volume 597.375835
_symmetry_space_group_name_H-M "P -1"
_symmetry_group_IT_number 2
_symmetry_cell_setting 'triclinic'
loop_
_space_group_symop_operation_xyz
x,y,z
-x,-y,-z
loop_
_atom_site_type_symbol
_atom_site_label
_atom_site_fract_x
_atom_site_fract_y
_atom_site_fract_z
Si Si1 0.382517 0.472047 0.921103
Si Si2 0.788387 0.335173 0.351722
Si Si3 0.646167 0.818107 0.792923
Si Si4 0.578215 0.276774 0.272901
Si Si5 0.230822 0.979673 0.373928
Si Si6 0.233066 0.574430 0.042730
Si Si7 0.992802 0.233363 0.172942
Si Si8 0.151928 0.189039 0.998054
O O1 0.389576 0.581227 0.801391
O O2 0.275833 0.194513 0.686746
O O3 0.500000 0.500000 0.000000
O O4 0.355293 0.608911 0.136393
O O5 0.705172 0.350505 0.449485
O O6 0.924703 0.489951 0.591898
O O7 0.721178 0.064378 0.114418
O O8 0.791126 0.411790 0.185958
O O9 0.717006 0.725116 0.825684
O O10 0.511657 0.698634 0.665503
O O11 0.670282 0.882274 0.632575
O O12 0.500000 0.000000 0.000000
O O13 0.229744 0.766566 0.271555
O O14 0.109262 0.876167 0.121941
O O15 0.146451 0.324097 0.916925
O O16 0.094622 0.218765 0.164867
O O17 0.933419 0.091430 0.232799
#
# Coordination Sequence:
#
# PCOD9021599 Si02
#       8
#     2   2   2   2   2   2   2   2
#     4  11  24  44  66  94 136 169 210 272 330 379
#     4   9  20  40  65  92 134 170 211 265 320 384
#     4   9  19  39  64  97 125 168 221 261 323 380
#     4   9  19  38  65  95 126 163 214 268 310 379
#     4  10  24  45  65  92 136 171 214 269 323 382
#     4  10  23  43  64  98 128 172 217 257 330 381
#     4  10  23  43  63  94 132 171 212 269 321 375
#     4  10  22  38  63  93 130 166 219 263 320 382
#
# _framework density 26.783805999999998
#
# number of rings (size 3 to 8) (size 9 to 14) (size 15 to 20)
#    0.000    2.250    0.000    1.500   10.500    6.500 
#    9.000    0.000    0.000    0.000    0.000    0.000 
#    0.000    0.000    0.000    0.000    0.000    0.000 
#
# Total GULP energy -89248.684665 kJ/mol
# GULP energy per Si atom -5578.042792 kJ/mol
# Density = 2.672285 g / cm^3
# Si number density = 26.783806 Si / 1000 Ang^3
#
#
#
# Elastic Constant Matrix: (Units=GPa)
#
#
# Indices 1 2 3 4 5 6 
#
# 1 180.9943 49.2499 48.8460 22.1970 7.2122 -15.0273
# 2 49.2499 161.3667 37.1464 10.8185 7.4545 -24.1733
# 3 48.8460 37.1464 104.9851 35.6781 21.3685 -14.5060
# 4 22.1970 10.8185 35.6781 37.0599 -3.3555 -4.1321
# 5 7.2122 7.4545 21.3685 -3.3555 53.4101 16.4005
# 6 -15.0273 -24.1733 -14.5060 -4.1321 16.4005 45.5223
#
#
#
# Elastic Compliance Matrix: (Units=1/GPa)
#
#
# Indices 1 2 3 4 5 6 
#
# 1 0.006694 -0.001353 -0.001836 -0.001782 -0.000361 0.000875
# 2 -0.001353 0.007513 -0.001245 0.000093 -0.001496 0.003693
# 3 -0.001836 -0.001245 0.020383 -0.018328 -0.011221 0.007607
# 4 -0.001782 0.000093 -0.018328 0.046054 0.012514 -0.006708
# 5 -0.000361 -0.001496 -0.011221 0.012514 0.028431 -0.013596
# 6 0.000875 0.003693 0.007607 -0.006708 -0.013596 0.030931
#
#
# Mechanical properties :
#
#
# Convention : Reuss Voigt Hill
#
# Bulk Modulus (GPa) = 38.87730 79.75897 59.31813
# Shear Modulus (GPa) = 31.75636 48.00538 39.88087
#
# Velocity S-wave (km/s) = 3.44707 4.23818 3.86293
# Velocity P-wave (km/s) = 5.51269 7.33437 6.48779
#
# Compressibility (1/GPa) = 0.02572195
#
# Stress axis : x y z
#
# Youngs Moduli (GPa) = 149.38073 133.10361 49.05946
#
# Poissons Ratio (x) = 0.18014 0.09006
# Poissons Ratio (y) = 0.20217 0.06109
# Poissons Ratio (z) = 0.27422 0.16575
#
# Static dielectric constant tensor:
#      x y z
#    x 2.132140 -0.040570 -0.138430 
#    y -0.040570 2.160690 0.040720 
#    z -0.138430 0.040720 2.385140 
# 
# From -- ./inp_files/299786.got.cif
#   From: 2010.05.17/outbox.cif.g08.bks.cpg/sg2_150_cif.got.tgz:299786.got - 2010.06.03 11:33:40.
