data_PCOD9021198
_publ_section_title
;
Structure prediction by ZEFSAII (Michael W. Deem and Ramdas Pophale) SiO2 
 PCOD9021198
Probable space group: P -1
;
_chemical_formula_sum "Si O2"
_cell_formula_units_Z 15
_cell_length_a 7.271383
_cell_length_b 12.428576
_cell_length_c 14.525199
_cell_angle_alpha 30.220719
_cell_angle_beta 86.008158
_cell_angle_gamma 88.939227
_cell_volume 656.843543
_symmetry_space_group_name_H-M "P -1"
_symmetry_group_IT_number 2
_symmetry_cell_setting 'triclinic'
loop_
_space_group_symop_operation_xyz
x,y,z
-x,-y,-z
loop_
_atom_site_type_symbol
_atom_site_label
_atom_site_fract_x
_atom_site_fract_y
_atom_site_fract_z
Si Si1 0.407942 0.573042 0.820288
Si Si2 0.351356 0.781367 0.844321
Si Si3 0.590924 0.848744 0.294239
Si Si4 0.035149 0.303949 0.985506
Si Si5 0.500000 0.000000 0.000000
Si Si6 0.462761 0.465492 0.696645
Si Si7 0.031326 0.455821 0.677907
Si Si8 0.011036 0.852748 0.251409
O O1 0.390802 0.773137 0.740374
O O2 0.457241 0.598926 0.692697
O O3 0.206247 0.440063 0.925075
O O4 0.557968 0.424460 0.965954
O O5 0.438484 0.987168 0.744072
O O6 0.133680 0.755980 0.895619
O O7 0.576914 0.612412 0.511300
O O8 0.797622 0.902882 0.209030
O O9 0.464405 0.869001 0.195696
O O10 0.966991 0.430390 0.804305
O O11 0.105817 0.083346 0.104752
O O12 0.524559 0.230379 0.885068
O O13 0.251199 0.431818 0.693462
O O14 0.940675 0.265619 0.756728
O O15 0.014415 0.680598 0.460928
#
# Coordination Sequence:
#
# PCOD9021198 Si02
#       8
#     2   2   2   2   1   2   2   2
#     4  10  22  42  67  94 123 167 217 263 317 373
#     4  10  22  42  67  94 123 167 217 263 317 373
#     4  11  24  40  65  94 128 168 208 261 318 378
#     4  10  22  40  64  88 126 169 203 268 318 368
#     4  12  22  40  60  96 134 168 202 262 314 388
#     4  11  24  40  65  94 128 168 208 261 318 378
#     4  10  22  38  57  91 126 166 209 255 310 379
#     4  10  22  38  57  91 126 166 209 255 310 379
#
# _framework density 22.836487999999999
#
# number of rings (size 3 to 8) (size 9 to 14) (size 15 to 20)
#    0.000    1.600    2.667    1.200    3.733    0.533 
#    9.600    0.000    0.000    4.000    0.000    0.000 
#    0.000    0.000    0.000    0.000    0.000    0.000 
#
# Total GULP energy -83629.633035 kJ/mol
# GULP energy per Si atom -5575.308869 kJ/mol
# Density = 2.278451 g / cm^3
# Si number density = 22.836488 Si / 1000 Ang^3
#
#
#
# Elastic Constant Matrix: (Units=GPa)
#
#
# Indices 1 2 3 4 5 6 
#
# 1 55.9963 2.4044 -7.3399 2.6975 4.3060 -0.1279
# 2 2.4044 129.4053 15.4560 -5.1819 -4.1082 9.4670
# 3 -7.3399 15.4560 71.6251 4.0595 -4.5402 -5.3480
# 4 2.6975 -5.1819 4.0595 25.0703 -0.7916 -2.5090
# 5 4.3060 -4.1082 -4.5402 -0.7916 18.3206 1.5081
# 6 -0.1279 9.4670 -5.3480 -2.5090 1.5081 20.2908
#
#
#
# Elastic Compliance Matrix: (Units=1/GPa)
#
#
# Indices 1 2 3 4 5 6 
#
# 1 0.018621 -0.000909 0.002059 -0.002551 -0.004270 0.001086
# 2 -0.000909 0.008475 -0.002232 0.001827 0.002008 -0.004472
# 3 0.002059 -0.002232 0.015292 -0.002627 0.002314 0.004588
# 4 -0.002551 0.001827 -0.002627 0.041366 0.001864 0.003416
# 5 -0.004270 0.002008 0.002314 0.001864 0.057050 -0.004364
# 6 0.001086 -0.004472 0.004588 0.003416 -0.004364 0.053333
#
#
# Mechanical properties :
#
#
# Convention : Reuss Voigt Hill
#
# Bulk Modulus (GPa) = 24.86022 30.89643 27.87832
# Shear Modulus (GPa) = 23.84249 29.17009 26.50629
#
# Velocity S-wave (km/s) = 3.23469 3.57787 3.41060
# Velocity P-wave (km/s) = 4.98605 5.53417 5.26725
#
# Compressibility (1/GPa) = 0.04022491
#
# Stress axis : x y z
#
# Youngs Moduli (GPa) = 53.70282 117.99134 65.39166
#
# Poissons Ratio (x) = 0.10727 -0.13467
# Poissons Ratio (y) = 0.04882 0.14597
# Poissons Ratio (z) = -0.11060 0.26338
#
# Static dielectric constant tensor:
#      x y z
#    x 1.918840 -0.017940 0.005940 
#    y -0.017940 1.887000 0.008950 
#    z 0.005940 0.008950 1.882130 
# 
# From -- ./inp_files/497318.got.cif
#   From: 2010.05.17/outbox.cif.g08.bks.cpg/sg2_249_cif.got.tgz:497318.got - 2010.06.03 11:33:40.
