data_PCOD9021367
_publ_section_title
;
Structure prediction by ZEFSAII (Michael W. Deem and Ramdas Pophale) SiO2 
 PCOD9021367
Probable space group: P -1
;
_chemical_formula_sum "Si O2"
_cell_formula_units_Z 16
_cell_length_a 12.463978
_cell_length_b 9.218522
_cell_length_c 14.851951
_cell_angle_alpha 86.531848
_cell_angle_beta 46.083907
_cell_angle_gamma 125.460081
_cell_volume 615.311167
_symmetry_space_group_name_H-M "P -1"
_symmetry_group_IT_number 2
_symmetry_cell_setting 'triclinic'
loop_
_space_group_symop_operation_xyz
x,y,z
-x,-y,-z
loop_
_atom_site_type_symbol
_atom_site_label
_atom_site_fract_x
_atom_site_fract_y
_atom_site_fract_z
Si Si1 0.258144 0.599592 0.866913
Si Si2 0.802890 0.612349 0.257887
Si Si3 0.437286 0.025671 0.830259
Si Si4 0.890788 0.834419 0.945947
Si Si5 0.797721 0.657308 0.825126
Si Si6 0.820999 0.700073 0.611071
Si Si7 0.752853 0.324769 0.813933
Si Si8 0.726434 0.447338 0.502936
O O1 0.128688 0.345902 0.998594
O O2 0.376824 0.631076 0.702982
O O3 0.469901 0.884233 0.790121
O O4 0.000000 0.500000 0.000000
O O5 0.679828 0.493534 0.435193
O O6 0.123291 0.801221 0.066102
O O7 0.894989 0.852230 0.160381
O O8 0.684360 0.284564 0.748211
O O9 0.460587 0.146570 0.723405
O O10 0.541839 0.588919 0.164194
O O11 0.980536 0.888815 0.786886
O O12 0.916307 0.726563 0.653933
O O13 0.712224 0.420778 0.904464
O O14 0.500000 0.500000 0.000000
O O15 0.881381 0.677179 0.480653
O O16 0.000000 0.000000 0.500000
O O17 0.066627 0.515595 0.638201
O O18 0.500000 0.000000 0.000000
#
# Coordination Sequence:
#
# PCOD9021367 Si02
#       8
#     2   2   2   2   2   2   2   2
#     4  10  25  43  73  98 131 185 241 290 334 402
#     4  11  23  46  69  96 132 185 237 283 337 402
#     4  11  22  45  64  99 143 177 228 284 345 407
#     4  11  22  44  72  96 139 182 230 286 345 405
#     4  10  22  38  60  98 131 175 213 263 340 412
#     4  11  24  38  64 104 145 175 218 275 346 428
#     4  12  23  37  67 101 138 179 219 273 351 417
#     4  12  25  40  70 102 144 180 224 286 349 418
#
# _framework density 26.003105000000001
#
# number of rings (size 3 to 8) (size 9 to 14) (size 15 to 20)
#    0.000    1.000    3.750    3.000    7.000    0.500 
#    0.000    0.625    5.500    0.000    0.000    0.000 
#    0.000    0.000    0.000    0.000    0.000    0.000 
#
# Total GULP energy -89335.366370 kJ/mol
# GULP energy per Si atom -5583.460398 kJ/mol
# Density = 2.594392 g / cm^3
# Si number density = 26.003105 Si / 1000 Ang^3
#
#
#
# Elastic Constant Matrix: (Units=GPa)
#
#
# Indices 1 2 3 4 5 6 
#
# 1 71.9292 16.7588 29.2432 11.2169 20.1839 -11.1171
# 2 16.7588 199.5877 19.3858 25.3196 12.8886 -15.8241
# 3 29.2432 19.3858 94.9894 15.2605 10.4939 1.2739
# 4 11.2169 25.3196 15.2605 30.3098 2.0479 -1.6553
# 5 20.1839 12.8886 10.4939 2.0479 57.9672 6.9748
# 6 -11.1171 -15.8241 1.2739 -1.6553 6.9748 32.9970
#
#
#
# Elastic Compliance Matrix: (Units=1/GPa)
#
#
# Indices 1 2 3 4 5 6 
#
# 1 0.019635 0.000468 -0.004792 -0.004325 -0.006915 0.008269
# 2 0.000468 0.005958 -0.000480 -0.004628 -0.001615 0.003143
# 3 -0.004792 -0.000480 0.012857 -0.004432 -0.000089 -0.002545
# 4 -0.004325 -0.004628 -0.004432 0.040440 0.002141 -0.001929
# 5 -0.006915 -0.001615 -0.000089 0.002141 0.020849 -0.007401
# 6 0.008269 0.003143 -0.002545 -0.001929 -0.007401 0.036165
#
#
# Mechanical properties :
#
#
# Convention : Reuss Voigt Hill
#
# Bulk Modulus (GPa) = 34.67340 55.25355 44.96347
# Shear Modulus (GPa) = 32.23156 44.32938 38.28047
#
# Velocity S-wave (km/s) = 3.52451 4.13337 3.84102
# Velocity P-wave (km/s) = 5.47048 6.63887 6.08279
#
# Compressibility (1/GPa) = 0.02884056
#
# Stress axis : x y z
#
# Youngs Moduli (GPa) = 50.92937 167.83421 77.78007
#
# Poissons Ratio (x) = -0.07849 0.37274
# Poissons Ratio (y) = -0.02382 0.03735
# Poissons Ratio (z) = 0.24407 0.08059
#
# Static dielectric constant tensor:
#      x y z
#    x 2.265000 0.156060 0.166420 
#    y 0.156060 1.669130 -0.095740 
#    z 0.166420 -0.095740 2.103480 
# 
# From -- ./inp_files/304598.got.cif
#   From: 2010.05.17/outbox.cif.g08.bks.cpg/sg2_153_cif.got.tgz:304598.got - 2010.06.03 11:33:40.
