data_PCOD9021547
_publ_section_title
;
Structure prediction by ZEFSAII (Michael W. Deem and Ramdas Pophale) SiO2 
 PCOD9021547
Probable space group: P -1
;
_chemical_formula_sum "Si O2"
_cell_formula_units_Z 15
_cell_length_a 12.820753
_cell_length_b 10.335836
_cell_length_c 13.300083
_cell_angle_alpha 58.264952
_cell_angle_beta 138.468007
_cell_angle_gamma 145.445510
_cell_volume 643.304218
_symmetry_space_group_name_H-M "P -1"
_symmetry_group_IT_number 2
_symmetry_cell_setting 'triclinic'
loop_
_space_group_symop_operation_xyz
x,y,z
-x,-y,-z
loop_
_atom_site_type_symbol
_atom_site_label
_atom_site_fract_x
_atom_site_fract_y
_atom_site_fract_z
Si Si1 0.445771 0.584589 0.225245
Si Si2 0.220282 0.284552 0.352363
Si Si3 0.000000 0.000000 0.500000
Si Si4 0.431445 0.029201 0.225062
Si Si5 0.895007 0.350884 0.694873
Si Si6 0.422816 0.811223 0.947288
Si Si7 0.145596 0.880806 0.439887
Si Si8 0.346440 0.572383 0.626108
O O1 0.226351 0.418586 0.215403
O O2 0.707389 0.824643 0.361614
O O3 0.485274 0.438769 0.282040
O O4 0.416414 0.655903 0.073353
O O5 0.500000 0.500000 0.500000
O O6 0.173469 0.079733 0.361064
O O7 0.048521 0.161425 0.375763
O O8 0.403600 0.052399 0.079981
O O9 0.626657 0.036280 0.378675
O O10 0.549252 0.260093 0.272638
O O11 0.197068 0.805557 0.210032
O O12 0.905927 0.247558 0.648211
O O13 0.699115 0.334654 0.529340
O O14 0.151220 0.619437 0.785777
O O15 0.500000 0.000000 0.000000
O O16 0.913443 0.693800 0.423369
#
# Coordination Sequence:
#
# PCOD9021547 Si02
#       8
#     2   2   1   2   2   2   2   2
#     4  11  25  42  66  97 134 172 225 274 335 394
#     4  10  22  38  63 100 133 166 220 278 328 383
#     4  10  22  40  64  94 126 174 216 272 326 384
#     4  11  23  43  72  99 133 177 226 276 335 398
#     4  11  23  44  71  99 131 178 225 279 339 389
#     4  12  29  46  62  98 144 182 216 271 338 412
#     4  11  19  42  73 103 131 170 228 289 327 392
#     4  11  20  43  76 102 126 172 232 286 330 384
#
# _framework density 23.317115999999999
#
# number of rings (size 3 to 8) (size 9 to 14) (size 15 to 20)
#    0.000    1.067    4.000    4.000    5.600    2.133 
#    0.000    1.333    0.000    0.000    0.000    0.000 
#    0.000    0.000    0.000    0.000    0.000    0.000 
#
# Total GULP energy -83675.397621 kJ/mol
# GULP energy per Si atom -5578.359841 kJ/mol
# Density = 2.326405 g / cm^3
# Si number density = 23.317116 Si / 1000 Ang^3
#
#
#
# Elastic Constant Matrix: (Units=GPa)
#
#
# Indices 1 2 3 4 5 6 
#
# 1 60.8496 40.6285 30.2898 -18.1153 -19.3843 13.0484
# 2 40.6285 136.6737 31.2508 -29.6011 -23.0793 27.1794
# 3 30.2898 31.2508 87.7820 -28.5969 -34.9173 5.6974
# 4 -18.1153 -29.6011 -28.5969 47.6317 16.9009 -22.0423
# 5 -19.3843 -23.0793 -34.9173 16.9009 26.8455 -13.0185
# 6 13.0484 27.1794 5.6974 -22.0423 -13.0185 57.3491
#
#
#
# Elastic Compliance Matrix: (Units=1/GPa)
#
#
# Indices 1 2 3 4 5 6 
#
# 1 0.024247 -0.004710 -0.002702 0.001284 0.008891 -0.000504
# 2 -0.004710 0.010150 0.000119 0.002615 0.002811 -0.002107
# 3 -0.002702 0.000119 0.027285 0.007571 0.032859 0.008217
# 4 0.001284 0.002615 0.007571 0.033325 -0.003206 0.009797
# 5 0.008891 0.002811 0.032859 -0.003206 0.097803 0.014350
# 6 -0.000504 -0.002107 0.008217 0.009797 0.014350 0.024757
#
#
# Mechanical properties :
#
#
# Convention : Reuss Voigt Hill
#
# Bulk Modulus (GPa) = 21.23368 54.40481 37.81925
# Shear Modulus (GPa) = 20.17337 38.57435 29.37386
#
# Velocity S-wave (km/s) = 2.94458 4.07177 3.55315
# Velocity P-wave (km/s) = 4.54829 6.74455 5.75221
#
# Compressibility (1/GPa) = 0.04709499
#
# Stress axis : x y z
#
# Youngs Moduli (GPa) = 41.24292 98.52401 36.64973
#
# Poissons Ratio (x) = 0.46406 0.09903
# Poissons Ratio (y) = 0.19426 -0.00435
# Poissons Ratio (z) = 0.11144 -0.01170
#
# Static dielectric constant tensor:
#      x y z
#    x 1.863590 0.150370 0.006930 
#    y 0.150370 1.641540 -0.084830 
#    z 0.006930 -0.084830 1.941540 
# 
# From -- ./inp_files/451145.got.cif
#   From: 2010.05.17/outbox.cif.g08.bks.cpg/sg2_226_cif.got.tgz:451145.got - 2010.06.03 11:33:40.
