data_PCOD9021961
_publ_section_title
;
Structure prediction by ZEFSAII (Michael W. Deem and Ramdas Pophale) SiO2 
 PCOD9021961
Probable space group: P -1
;
_chemical_formula_sum "Si O2"
_cell_formula_units_Z 15
_cell_length_a 12.335005
_cell_length_b 11.462330
_cell_length_c 9.206340
_cell_angle_alpha 121.246144
_cell_angle_beta 43.263488
_cell_angle_gamma 137.480990
_cell_volume 602.457402
_symmetry_space_group_name_H-M "P -1"
_symmetry_group_IT_number 2
_symmetry_cell_setting 'triclinic'
loop_
_space_group_symop_operation_xyz
x,y,z
-x,-y,-z
loop_
_atom_site_type_symbol
_atom_site_label
_atom_site_fract_x
_atom_site_fract_y
_atom_site_fract_z
Si Si1 0.730716 0.307547 0.425657
Si Si2 0.042553 0.317179 0.439501
Si Si3 0.391921 0.821589 0.228498
Si Si4 0.656838 0.524194 0.982598
Si Si5 0.629225 0.732596 0.381094
Si Si6 0.866299 0.800218 0.462190
Si Si7 0.170860 0.881966 0.991061
Si Si8 0.000000 0.000000 0.000000
O O1 0.882630 0.490858 0.474310
O O2 0.604484 0.180514 0.600542
O O3 0.582354 0.311247 0.469265
O O4 0.837428 0.250497 0.191993
O O5 0.124222 0.322487 0.202974
O O6 0.165073 0.289488 0.413649
O O7 0.806158 0.193791 0.618878
O O8 0.365655 0.649936 0.095047
O O9 0.605921 0.988888 0.078184
O O10 0.500000 0.500000 0.000000
O O11 0.636572 0.594020 0.196238
O O12 0.682127 0.743087 0.504112
O O13 0.801702 0.907838 0.242123
O O14 0.000000 0.000000 0.500000
O O15 0.006052 0.781465 0.211429
O O16 0.121229 0.987960 0.010423
#
# Coordination Sequence:
#
# PCOD9021961 Si02
#       8
#     2   2   2   2   2   2   2   1
#     4  11  23  44  70 111 133 180 237 290 349 413
#     4  11  27  45  68 102 154 180 227 293 350 419
#     4  11  24  41  72 107 140 182 229 297 346 411
#     4  11  21  43  74 105 136 175 241 285 352 406
#     4  11  24  42  72 103 135 185 234 288 349 415
#     4  11  30  47  67 101 141 192 233 285 352 424
#     4  11  25  43  71 100 138 184 237 282 355 410
#     4  10  22  38  68 100 132 172 234 292 330 404
#
# _framework density 24.898026999999999
#
# number of rings (size 3 to 8) (size 9 to 14) (size 15 to 20)
#    0.000    1.067    4.000    2.000   14.933    1.600 
#    0.000    0.000    0.000    0.000    0.000    0.000 
#    0.000    0.000    0.000    0.000    0.000    0.000 
#
# Total GULP energy -83850.979029 kJ/mol
# GULP energy per Si atom -5590.065269 kJ/mol
# Density = 2.484136 g / cm^3
# Si number density = 24.898027 Si / 1000 Ang^3
#
#
#
# Elastic Constant Matrix: (Units=GPa)
#
#
# Indices 1 2 3 4 5 6 
#
# 1 157.7323 10.0405 25.9053 1.3388 -0.3901 27.2566
# 2 10.0405 41.6091 6.9391 2.2521 3.3212 3.5861
# 3 25.9053 6.9391 79.0130 13.0194 -2.5591 0.3267
# 4 1.3388 2.2521 13.0194 46.1405 9.5818 -4.5869
# 5 -0.3901 3.3212 -2.5591 9.5818 33.0411 -12.1770
# 6 27.2566 3.5861 0.3267 -4.5869 -12.1770 28.3686
#
#
#
# Elastic Compliance Matrix: (Units=1/GPa)
#
#
# Indices 1 2 3 4 5 6 
#
# 1 0.008491 -0.000463 -0.002893 0.000414 -0.003737 -0.009604
# 2 -0.000463 0.025262 -0.002162 -0.000162 -0.004370 -0.004626
# 3 -0.002893 -0.002162 0.014632 -0.004387 0.004027 0.003904
# 4 0.000414 -0.000162 -0.004387 0.024458 -0.007216 0.000531
# 5 -0.003737 -0.004370 0.004027 -0.007216 0.040561 0.020340
# 6 -0.009604 -0.004626 0.003904 0.000531 0.020340 0.053834
#
#
# Mechanical properties :
#
#
# Convention : Reuss Voigt Hill
#
# Bulk Modulus (GPa) = 26.77508 40.45824 33.61666
# Shear Modulus (GPa) = 26.21597 37.20802 31.71200
#
# Velocity S-wave (km/s) = 3.24841 3.86996 3.57273
# Velocity P-wave (km/s) = 4.98466 6.02110 5.52723
#
# Compressibility (1/GPa) = 0.03734817
#
# Stress axis : x y z
#
# Youngs Moduli (GPa) = 117.76913 39.58546 68.34466
#
# Poissons Ratio (x) = 0.01833 0.19770
# Poissons Ratio (y) = 0.05453 0.14779
# Poissons Ratio (z) = 0.34068 0.08560
#
# Static dielectric constant tensor:
#      x y z
#    x 1.972960 -0.021420 -0.041270 
#    y -0.021420 2.165980 0.047860 
#    z -0.041270 0.047860 1.985600 
# 
# From -- ./inp_files/262887.got.cif
#   From: 2010.05.17/outbox.cif.g08.bks.cpg/sg2_132_cif.got.tgz:262887.got - 2010.06.03 11:33:40.
