data_PCOD9021061
_publ_section_title
;
Structure prediction by ZEFSAII (Michael W. Deem and Ramdas Pophale) SiO2 
 PCOD9021061
Probable space group: P -1
;
_chemical_formula_sum "Si O2"
_cell_formula_units_Z 16
_cell_length_a 17.860583
_cell_length_b 9.011998
_cell_length_c 21.465917
_cell_angle_alpha 147.199358
_cell_angle_beta 19.797423
_cell_angle_gamma 148.898883
_cell_volume 592.331027
_symmetry_space_group_name_H-M "P -1"
_symmetry_group_IT_number 2
_symmetry_cell_setting 'triclinic'
loop_
_space_group_symop_operation_xyz
x,y,z
-x,-y,-z
loop_
_atom_site_type_symbol
_atom_site_label
_atom_site_fract_x
_atom_site_fract_y
_atom_site_fract_z
Si Si1 0.487760 0.962059 0.185392
Si Si2 0.855027 0.555884 0.954218
Si Si3 0.325660 0.827273 0.762334
Si Si4 0.553635 0.532658 0.676495
Si Si5 0.761701 0.815073 0.346762
Si Si6 0.058547 0.311911 0.483170
Si Si7 0.227859 0.087648 0.160872
Si Si8 0.895706 0.231510 0.290549
O O1 0.625433 0.962428 0.141407
O O2 0.558479 0.286127 0.214396
O O3 0.555386 0.797560 0.016470
O O4 0.210949 0.885237 0.388125
O O5 0.782305 0.201673 0.893151
O O6 0.086612 0.731115 0.875497
O O7 0.917296 0.656869 0.870733
O O8 0.636290 0.626301 0.178511
O O9 0.553449 0.918201 0.571437
O O10 0.316713 0.524972 0.695611
O O11 0.775458 0.768501 0.624237
O O12 0.676525 0.329774 0.475818
O O13 0.997137 0.957343 0.252978
O O14 0.818358 0.904650 0.261857
O O15 0.036654 0.588932 0.634063
O O16 0.195965 0.327294 0.316730
#
# Coordination Sequence:
#
# PCOD9021061 Si02
#       8
#     2   2   2   2   2   2   2   2
#     4  11  21  41  67 100 123 173 214 266 321 366
#     4  10  22  42  63  97 125 173 216 265 313 373
#     4  10  23  43  72  90 129 165 226 265 305 394
#     4   9  23  37  64  96 132 165 215 257 320 384
#     4  10  22  43  64  96 126 173 213 264 319 379
#     4  10  22  37  65  98 133 165 209 264 324 387
#     4  10  22  38  66  97 127 168 218 258 316 380
#     4  10  24  41  64  94 135 169 205 266 332 373
#
# _framework density 27.011921000000001
#
# number of rings (size 3 to 8) (size 9 to 14) (size 15 to 20)
#    0.750    1.250    1.250    1.125    7.000    6.500 
#    2.250    1.250    0.000    0.000    0.000    0.000 
#    0.000    0.000    0.000    0.000    0.000    0.000 
#
# Total GULP energy -89526.964816 kJ/mol
# GULP energy per Si atom -5595.435301 kJ/mol
# Density = 2.695044 g / cm^3
# Si number density = 27.011921 Si / 1000 Ang^3
#
#
#
# Elastic Constant Matrix: (Units=GPa)
#
#
# Indices 1 2 3 4 5 6 
#
# 1 128.6818 34.0634 60.5763 -6.8511 26.4300 -8.5324
# 2 34.0634 68.4729 28.2207 -1.5858 12.5800 -22.2863
# 3 60.5763 28.2207 136.4774 -21.0408 17.2818 -15.3499
# 4 -6.8511 -1.5858 -21.0408 35.0537 2.1544 3.4211
# 5 26.4300 12.5800 17.2818 2.1544 41.6364 -3.9830
# 6 -8.5324 -22.2863 -15.3499 3.4211 -3.9830 40.8491
#
#
#
# Elastic Compliance Matrix: (Units=1/GPa)
#
#
# Indices 1 2 3 4 5 6 
#
# 1 0.011451 -0.003753 -0.003860 0.000194 -0.004694 -0.001580
# 2 -0.003753 0.020647 -0.001442 -0.001488 -0.002238 0.009845
# 3 -0.003860 -0.001442 0.010585 0.005461 -0.001621 0.001769
# 4 0.000194 -0.001488 0.005461 0.032182 -0.003776 -0.001783
# 5 -0.004694 -0.002238 -0.001621 -0.003776 0.028569 0.000291
# 6 -0.001580 0.009845 0.001769 -0.001783 0.000291 0.030364
#
#
# Mechanical properties :
#
#
# Convention : Reuss Voigt Hill
#
# Bulk Modulus (GPa) = 40.69666 64.37256 52.53461
# Shear Modulus (GPa) = 31.23037 37.55927 34.39482
#
# Velocity S-wave (km/s) = 3.40394 3.73295 3.57223
# Velocity P-wave (km/s) = 5.52702 6.51634 6.04197
#
# Compressibility (1/GPa) = 0.02457204
#
# Stress axis : x y z
#
# Youngs Moduli (GPa) = 87.32519 48.43339 94.47470
#
# Poissons Ratio (x) = 0.18178 0.36468
# Poissons Ratio (y) = 0.32776 0.13625
# Poissons Ratio (z) = 0.33708 0.06985
#
# Static dielectric constant tensor:
#      x y z
#    x 2.109910 0.014460 0.014970 
#    y 0.014460 2.154790 0.049240 
#    z 0.014970 0.049240 2.093620 
# 
# From -- ./inp_files/599770.got.cif
#   From: 2010.05.17/outbox.cif.g08.bks.cpg/sg2_300_cif.got.tgz:599770.got - 2010.06.03 11:33:40.
