data_PCOD9021196
_publ_section_title
;
Structure prediction by ZEFSAII (Michael W. Deem and Ramdas Pophale) SiO2 
 PCOD9021196
Probable space group: P -1
;
_chemical_formula_sum "Si O2"
_cell_formula_units_Z 14
_cell_length_a 8.887858
_cell_length_b 15.648586
_cell_length_c 17.708292
_cell_angle_alpha 28.195782
_cell_angle_beta 37.789039
_cell_angle_gamma 29.664003
_cell_volume 572.771466
_symmetry_space_group_name_H-M "P -1"
_symmetry_group_IT_number 2
_symmetry_cell_setting 'triclinic'
loop_
_space_group_symop_operation_xyz
x,y,z
-x,-y,-z
loop_
_atom_site_type_symbol
_atom_site_label
_atom_site_fract_x
_atom_site_fract_y
_atom_site_fract_z
Si Si1 0.276059 0.163627 0.089227
Si Si2 0.316435 0.697903 0.228715
Si Si3 0.240827 0.213649 0.390723
Si Si4 0.724214 0.241173 0.632672
Si Si5 0.282870 0.521069 0.241392
Si Si6 0.353488 0.427385 0.054140
Si Si7 0.862374 0.227432 0.333744
O O1 0.126367 0.219110 0.189251
O O2 0.374347 0.919699 0.216358
O O3 0.563502 0.166340 0.958785
O O4 0.984379 0.357002 0.004001
O O5 0.176418 0.782892 0.300382
O O6 0.643037 0.448467 0.300713
O O7 0.127203 0.664141 0.268305
O O8 0.141396 0.434878 0.308596
O O9 0.332300 0.248656 0.245806
O O10 0.987719 0.172670 0.523463
O O11 0.500000 0.000000 0.500000
O O12 0.500000 0.500000 0.500000
O O13 0.599939 0.295526 0.322701
O O14 0.409608 0.643413 0.052605
O O15 0.500000 0.500000 0.000000
O O16 0.000000 0.000000 0.500000
#
# Coordination Sequence:
#
# PCOD9021196 Si02
#       7
#     2   2   2   2   2   2   2
#     4  11  21  39  62  89 126 171 215 252 310 388
#     4  10  22  38  57  89 126 163 206 258 316 371
#     4  11  22  41  65  94 126 166 214 259 313 378
#     4  12  25  40  63  96 131 166 209 266 323 366
#     4   8  20  37  58  88 119 162 207 254 308 370
#     4   9  18  36  62  88 119 163 214 256 299 376
#     4   9  18  35  59  92 122 157 212 259 307 366
#
# _framework density 24.442557000000001
#
# number of rings (size 3 to 8) (size 9 to 14) (size 15 to 20)
#    0.857    1.143    0.000    5.143    0.000    1.714 
#    0.000    0.000    0.000    8.571    0.000    0.000 
#    0.000    0.000    0.000    0.000    0.000    0.000 
#
# Total GULP energy -78122.687956 kJ/mol
# GULP energy per Si atom -5580.191997 kJ/mol
# Density = 2.438692 g / cm^3
# Si number density = 24.442557 Si / 1000 Ang^3
#
#
#
# Elastic Constant Matrix: (Units=GPa)
#
#
# Indices 1 2 3 4 5 6 
#
# 1 94.1564 -3.1835 24.7363 9.0109 1.7856 30.5167
# 2 -3.1835 26.7548 17.0912 -1.9778 4.5716 12.9980
# 3 24.7363 17.0912 156.4175 0.8784 9.9658 9.9836
# 4 9.0109 -1.9778 0.8784 29.4562 8.3736 3.3987
# 5 1.7856 4.5716 9.9658 8.3736 38.7266 -0.2519
# 6 30.5167 12.9980 9.9836 3.3987 -0.2519 35.4252
#
#
#
# Elastic Compliance Matrix: (Units=1/GPa)
#
#
# Indices 1 2 3 4 5 6 
#
# 1 0.018685 0.014143 -0.003106 -0.001928 -0.001447 -0.020235
# 2 0.014143 0.061126 -0.006319 0.006035 -0.007764 -0.033464
# 3 -0.003106 -0.006319 0.007459 0.000278 -0.001072 0.002857
# 4 -0.001928 0.006035 0.000278 0.037976 -0.008935 -0.004339
# 5 -0.001447 -0.007764 -0.001072 -0.008935 0.029049 0.005461
# 6 -0.020235 -0.033464 0.002857 -0.004339 0.005461 0.057588
#
#
# Mechanical properties :
#
#
# Convention : Reuss Voigt Hill
#
# Bulk Modulus (GPa) = 10.34057 39.40183 24.87120
# Shear Modulus (GPa) = 21.30538 36.63392 28.96965
#
# Velocity S-wave (km/s) = 2.95558 3.87560 3.44643
# Velocity P-wave (km/s) = 3.98585 6.01517 5.10241
#
# Compressibility (1/GPa) = 0.09670649
#
# Stress axis : x y z
#
# Youngs Moduli (GPa) = 53.51894 16.35956 134.06473
#
# Poissons Ratio (x) = -0.23137 0.41636
# Poissons Ratio (y) = -0.75690 0.84714
# Poissons Ratio (z) = 0.16621 0.10337
#
# Static dielectric constant tensor:
#      x y z
#    x 2.033270 -0.045840 0.023550 
#    y -0.045840 2.330280 -0.148390 
#    z 0.023550 -0.148390 1.984220 
# 
# From -- ./inp_files/270969.got.cif
#   From: 2010.05.17/outbox.cif.g08.bks.cpg/sg2_136_cif.got.tgz:270969.got - 2010.06.03 11:33:40.
