data_PCOD9021703
_publ_section_title
;
Structure prediction by ZEFSAII (Michael W. Deem and Ramdas Pophale) SiO2 
 PCOD9021703
Probable space group: P -1
;
_chemical_formula_sum "Si O2"
_cell_formula_units_Z 16
_cell_length_a 12.627485
_cell_length_b 9.269417
_cell_length_c 14.861881
_cell_angle_alpha 143.358091
_cell_angle_beta 116.143927
_cell_angle_gamma 82.677281
_cell_volume 844.925099
_symmetry_space_group_name_H-M "P -1"
_symmetry_group_IT_number 2
_symmetry_cell_setting 'triclinic'
loop_
_space_group_symop_operation_xyz
x,y,z
-x,-y,-z
loop_
_atom_site_type_symbol
_atom_site_label
_atom_site_fract_x
_atom_site_fract_y
_atom_site_fract_z
Si Si1 0.369083 0.497871 0.906402
Si Si2 0.547482 0.056382 0.717230
Si Si3 0.705212 0.717706 0.576081
Si Si4 0.635050 0.381177 0.743701
Si Si5 0.870972 0.238520 0.799253
Si Si6 0.873772 0.048056 0.501028
Si Si7 0.465035 0.691500 0.842843
Si Si8 0.713604 0.341499 0.545353
O O1 0.248072 0.217181 0.709853
O O2 0.401976 0.608203 0.874523
O O3 0.500000 0.500000 0.000000
O O4 0.346526 0.703673 0.066520
O O5 0.528194 0.168878 0.668425
O O6 0.597791 0.830231 0.610043
O O7 0.415721 0.924953 0.660621
O O8 0.639017 0.494605 0.362761
O O9 0.728843 0.577930 0.602825
O O10 0.827982 0.982024 0.720398
O O11 0.759190 0.347844 0.813745
O O12 0.590939 0.621826 0.852332
O O13 0.669488 0.371572 0.645937
O O14 0.874188 0.114538 0.640325
O O15 0.000000 0.500000 0.000000
O O16 0.840837 0.281978 0.562433
O O17 0.000000 0.000000 0.500000
O O18 0.500000 0.000000 0.000000
#
# Coordination Sequence:
#
# PCOD9021703 Si02
#       8
#     2   2   2   2   2   2   2   2
#     4  12  23  39  64  99 131 168 220 266 325 388
#     4  11  21  36  67  92 130 170 210 260 325 384
#     4  11  24  40  66  94 132 167 216 267 330 389
#     4  10  22  38  64  94 126 170 218 260 315 390
#     4  10  24  47  68  88 123 175 226 264 317 392
#     4  11  25  43  67  94 129 170 223 270 319 390
#     4  12  24  38  60 101 138 162 205 274 337 382
#     4  11  21  40  63  96 128 170 210 269 325 384
#
# _framework density 18.936589000000001
#
# number of rings (size 3 to 8) (size 9 to 14) (size 15 to 20)
#    0.000    1.000    5.000    1.500    7.000    0.000 
#    0.000    4.375    0.000    0.000    0.000    0.000 
#    0.000    0.000    0.000    0.000    0.000    0.000 
#
# Total GULP energy -89071.905237 kJ/mol
# GULP energy per Si atom -5566.994077 kJ/mol
# Density = 1.889349 g / cm^3
# Si number density = 18.936589 Si / 1000 Ang^3
#
#
#
# Elastic Constant Matrix: (Units=GPa)
#
#
# Indices 1 2 3 4 5 6 
#
# 1 98.2620 61.2278 36.9597 10.5315 -6.3150 -8.5541
# 2 61.2278 177.3941 54.9551 21.1834 0.5569 -3.8308
# 3 36.9597 54.9551 119.6715 12.2273 -4.3804 7.0588
# 4 10.5315 21.1834 12.2273 27.6890 4.0192 -10.2140
# 5 -6.3150 0.5569 -4.3804 4.0192 33.2273 4.2986
# 6 -8.5541 -3.8308 7.0588 -10.2140 4.2986 23.9729
#
#
#
# Elastic Compliance Matrix: (Units=1/GPa)
#
#
# Indices 1 2 3 4 5 6 
#
# 1 0.014243 -0.003988 -0.002879 0.000606 0.001641 0.005257
# 2 -0.003988 0.008111 -0.002012 -0.004181 -0.000495 -0.001227
# 3 -0.002879 -0.002012 0.011263 -0.005469 0.002598 -0.007462
# 4 0.000606 -0.004181 -0.005469 0.052283 -0.010126 0.025250
# 5 0.001641 -0.000495 0.002598 -0.010126 0.033348 -0.010553
# 6 0.005257 -0.001227 -0.007462 0.025250 -0.010553 0.058241
#
#
# Mechanical properties :
#
#
# Convention : Reuss Voigt Hill
#
# Bulk Modulus (GPa) = 63.05436 77.95697 70.50566
# Shear Modulus (GPa) = 24.93336 33.12351 29.02843
#
# Velocity S-wave (km/s) = 3.63254 4.18686 3.91951
# Velocity P-wave (km/s) = 7.13889 8.03926 7.60242
#
# Compressibility (1/GPa) = 0.01585933
#
# Stress axis : x y z
#
# Youngs Moduli (GPa) = 70.21000 123.28722 88.78387
#
# Poissons Ratio (x) = 0.49167 0.25565
# Poissons Ratio (y) = 0.28000 0.17860
# Poissons Ratio (z) = 0.20217 0.24800
#
# Static dielectric constant tensor:
#      x y z
#    x 1.703070 0.004570 -0.031600 
#    y 0.004570 1.658570 -0.000790 
#    z -0.031600 -0.000790 1.770760 
# 
# From -- ./inp_files/514772.got.cif
#   From: 2010.05.17/outbox.cif.g08.bks.cpg/sg2_258_cif.got.tgz:514772.got - 2010.06.03 11:33:40.
