data_PCOD9021453
_publ_section_title
;
Structure prediction by ZEFSAII (Michael W. Deem and Ramdas Pophale) SiO2 
 PCOD9021453
Probable space group: P -1
;
_chemical_formula_sum "Si O2"
_cell_formula_units_Z 16
_cell_length_a 22.242395
_cell_length_b 20.771452
_cell_length_c 8.945068
_cell_angle_alpha 31.973461
_cell_angle_beta 31.757758
_cell_angle_gamma 19.660186
_cell_volume 704.897972
_symmetry_space_group_name_H-M "P -1"
_symmetry_group_IT_number 2
_symmetry_cell_setting 'triclinic'
loop_
_space_group_symop_operation_xyz
x,y,z
-x,-y,-z
loop_
_atom_site_type_symbol
_atom_site_label
_atom_site_fract_x
_atom_site_fract_y
_atom_site_fract_z
Si Si1 0.005784 0.353041 0.238344
Si Si2 0.208433 0.364867 0.374234
Si Si3 0.454116 0.285212 0.773275
Si Si4 0.803617 0.875226 0.001095
Si Si5 0.814124 0.990764 0.064216
Si Si6 0.807252 0.398111 0.824074
Si Si7 0.439612 0.568257 0.322144
Si Si8 0.602057 0.040705 0.668151
O O1 0.847209 0.423569 0.529982
O O2 0.197377 0.144750 0.315102
O O3 0.028491 0.298253 0.125630
O O4 0.000000 0.500000 0.000000
O O5 0.284773 0.181982 0.659460
O O6 0.216273 0.472707 0.258802
O O7 0.000000 0.500000 0.500000
O O8 0.317549 0.309519 0.102951
O O9 0.392189 0.474928 0.549749
O O10 0.486201 0.230886 0.639437
O O11 0.652443 0.090580 0.819487
O O12 0.858405 0.890006 0.011651
O O13 0.657034 0.042728 0.383589
O O14 0.725027 0.196895 0.816669
O O15 0.006887 0.829735 0.065997
O O16 0.627097 0.466640 0.056877
O O17 0.500000 0.500000 0.500000
O O18 0.500000 0.000000 0.000000
#
# Coordination Sequence:
#
# PCOD9021453 Si02
#       8
#     2   2   2   2   2   2   2   2
#     4  10  22  38  62 101 138 171 222 282 352 408
#     4  12  22  37  66 103 134 169 225 288 348 406
#     4  11  25  45  67 100 135 182 231 278 342 411
#     4  11  21  40  69  96 136 176 224 287 355 402
#     4  11  24  45  70 100 137 183 234 285 336 404
#     4  11  24  44  67 101 142 176 233 285 337 409
#     4  12  25  47  72  95 140 191 236 277 331 409
#     4  10  24  42  69 101 139 172 222 293 349 408
#
# _framework density 22.698321
#
# number of rings (size 3 to 8) (size 9 to 14) (size 15 to 20)
#    0.000    1.000    5.000    1.125    3.500    2.000 
#    2.250    5.625    0.000    0.000    0.000    0.000 
#    0.000    0.000    0.000    0.000    0.000    0.000 
#
# Total GULP energy -89504.565382 kJ/mol
# GULP energy per Si atom -5594.035336 kJ/mol
# Density = 2.264666 g / cm^3
# Si number density = 22.698321 Si / 1000 Ang^3
#
#
#
# Elastic Constant Matrix: (Units=GPa)
#
#
# Indices 1 2 3 4 5 6 
#
# 1 63.8610 31.0399 17.6224 -2.6795 17.6062 14.8577
# 2 31.0399 94.8387 41.6317 -16.3838 16.2238 17.4630
# 3 17.6224 41.6317 101.0407 -6.0689 11.4900 15.4034
# 4 -2.6795 -16.3838 -6.0689 61.1953 6.7051 6.5467
# 5 17.6062 16.2238 11.4900 6.7051 33.9416 3.1602
# 6 14.8577 17.4630 15.4034 6.5467 3.1602 41.2009
#
#
#
# Elastic Compliance Matrix: (Units=1/GPa)
#
#
# Indices 1 2 3 4 5 6 
#
# 1 0.021519 -0.004253 -0.000079 0.001351 -0.008861 -0.005463
# 2 -0.004253 0.016261 -0.004542 0.004651 -0.004571 -0.004049
# 3 -0.000079 -0.004542 0.012423 0.000496 -0.001847 -0.002628
# 4 0.001351 0.004651 0.000496 0.018943 -0.006353 -0.005167
# 5 -0.008861 -0.004571 -0.001847 -0.006353 0.037757 0.003936
# 6 -0.005463 -0.004049 -0.002628 -0.005167 0.003936 0.029459
#
#
# Mechanical properties :
#
#
# Convention : Reuss Voigt Hill
#
# Bulk Modulus (GPa) = 30.81292 48.92537 39.86915
# Shear Modulus (GPa) = 30.31640 38.56398 34.44019
#
# Velocity S-wave (km/s) = 3.65858 4.12634 3.89948
# Velocity P-wave (km/s) = 5.60816 6.65610 6.15447
#
# Compressibility (1/GPa) = 0.03245392
#
# Stress axis : x y z
#
# Youngs Moduli (GPa) = 46.47154 61.49748 80.49871
#
# Poissons Ratio (x) = 0.26155 0.00637
# Poissons Ratio (y) = 0.19765 0.36561
# Poissons Ratio (z) = 0.00368 0.27931
#
# Static dielectric constant tensor:
#      x y z
#    x 1.865400 -0.009400 0.047220 
#    y -0.009400 1.868140 -0.001430 
#    z 0.047220 -0.001430 1.818650 
# 
# From -- ./inp_files/355239.got.cif
#   From: 2010.05.17/outbox.cif.g08.bks.cpg/sg2_178_cif.got.tgz:355239.got - 2010.06.03 11:33:40.
