data_PCOD9021091
_publ_section_title
;
Structure prediction by ZEFSAII (Michael W. Deem and Ramdas Pophale) SiO2 
 PCOD9021091
Probable space group: P -1
;
_chemical_formula_sum "Si O2"
_cell_formula_units_Z 15
_cell_length_a 14.222367
_cell_length_b 25.060694
_cell_length_c 8.607100
_cell_angle_alpha 40.384400
_cell_angle_beta 49.524502
_cell_angle_gamma 18.805321
_cell_volume 601.525229
_symmetry_space_group_name_H-M "P -1"
_symmetry_group_IT_number 2
_symmetry_cell_setting 'triclinic'
loop_
_space_group_symop_operation_xyz
x,y,z
-x,-y,-z
loop_
_atom_site_type_symbol
_atom_site_label
_atom_site_fract_x
_atom_site_fract_y
_atom_site_fract_z
Si Si1 0.047324 0.184601 0.857447
Si Si2 0.084233 0.366818 0.615130
Si Si3 0.446374 0.382961 0.585198
Si Si4 0.323957 0.337317 0.081980
Si Si5 0.500000 0.000000 0.000000
Si Si6 0.713799 0.949762 0.423285
Si Si7 0.793367 0.204464 0.307885
Si Si8 0.153644 0.576291 0.984022
O O1 0.278293 0.109864 0.846112
O O2 0.198938 0.060071 0.812605
O O3 0.738471 0.421405 0.610816
O O4 0.956403 0.180689 0.102748
O O5 0.440864 0.137440 0.705560
O O6 0.000000 0.500000 0.500000
O O7 0.802756 0.519717 0.463390
O O8 0.099301 0.282768 0.917886
O O9 0.717275 0.243556 0.485742
O O10 0.491205 0.302761 0.869011
O O11 0.539960 0.125646 0.316248
O O12 0.224530 0.449162 0.093995
O O13 0.000000 0.500000 0.000000
O O14 0.009462 0.731248 0.680658
O O15 0.500000 0.000000 0.500000
O O16 0.461569 0.406727 0.126170
O O17 0.000000 0.000000 0.500000
#
# Coordination Sequence:
#
# PCOD9021091 Si02
#       8
#     2   2   2   2   1   2   2   2
#     4  11  23  46  71 100 142 184 236 299 349 425
#     4  10  22  37  66  96 136 175 225 288 343 409
#     4  10  22  44  66 101 136 183 235 287 350 418
#     4  12  23  43  73 105 147 185 234 294 352 425
#     4  10  24  38  70 104 128 178 238 282 358 402
#     4  12  24  43  71 105 146 184 230 298 363 412
#     4  11  26  48  70 100 143 191 241 291 352 423
#     4  11  25  45  66 104 139 184 239 282 356 421
#
# _framework density 24.936610000000002
#
# number of rings (size 3 to 8) (size 9 to 14) (size 15 to 20)
#    0.000    1.067    2.667    2.800    5.600    3.733 
#    7.200    1.333    0.000    0.000    0.000    0.000 
#    0.000    0.000    0.000    0.000    0.000    0.000 
#
# Total GULP energy -83670.547341 kJ/mol
# GULP energy per Si atom -5578.036489 kJ/mol
# Density = 2.487985 g / cm^3
# Si number density = 24.936610 Si / 1000 Ang^3
#
#
#
# Elastic Constant Matrix: (Units=GPa)
#
#
# Indices 1 2 3 4 5 6 
#
# 1 44.4981 19.8697 19.0101 5.1933 -1.6347 19.1136
# 2 19.8697 116.0449 62.0892 15.3060 9.5864 15.3038
# 3 19.0101 62.0892 118.7853 10.2776 -11.2430 17.9501
# 4 5.1933 15.3060 10.2776 59.7144 21.6387 -1.8018
# 5 -1.6347 9.5864 -11.2430 21.6387 37.6134 -2.2411
# 6 19.1136 15.3038 17.9501 -1.8018 -2.2411 49.6297
#
#
#
# Elastic Compliance Matrix: (Units=1/GPa)
#
#
# Indices 1 2 3 4 5 6 
#
# 1 0.028894 -0.002902 -0.001120 -0.002858 0.002720 -0.009809
# 2 -0.002902 0.013410 -0.006978 0.000063 -0.005710 -0.000749
# 3 -0.001120 -0.006978 0.013553 -0.003234 0.007516 -0.002097
# 4 -0.002858 0.000063 -0.003234 0.022687 -0.014013 0.002442
# 5 0.002720 -0.005710 0.007516 -0.014013 0.038422 -0.000779
# 6 -0.009809 -0.000749 -0.002097 0.002442 -0.000779 0.024970
#
#
# Mechanical properties :
#
#
# Convention : Reuss Voigt Hill
#
# Bulk Modulus (GPa) = 29.53605 53.47405 41.50505
# Shear Modulus (GPa) = 28.53544 41.28211 34.90878
#
# Velocity S-wave (km/s) = 3.38645 4.07318 3.74558
# Velocity P-wave (km/s) = 5.21161 6.60390 5.94863
#
# Compressibility (1/GPa) = 0.03385693
#
# Stress axis : x y z
#
# Youngs Moduli (GPa) = 34.60932 74.57209 73.78414
#
# Poissons Ratio (x) = 0.21643 0.08265
# Poissons Ratio (y) = 0.10045 0.51483
# Poissons Ratio (z) = 0.03877 0.52033
#
# Static dielectric constant tensor:
#      x y z
#    x 2.017530 -0.048710 -0.007210 
#    y -0.048710 1.912450 -0.045860 
#    z -0.007210 -0.045860 2.185870 
# 
# From -- ./inp_files/320660.got.cif
#   From: 2010.05.17/outbox.cif.g08.bks.cpg/sg2_161_cif.got.tgz:320660.got - 2010.06.03 11:33:40.
