data_PCOD9021233
_publ_section_title
;
Structure prediction by ZEFSAII (Michael W. Deem and Ramdas Pophale) SiO2 
 PCOD9021233
Probable space group: P -1
;
_chemical_formula_sum "Si O2"
_cell_formula_units_Z 14
_cell_length_a 14.576635
_cell_length_b 7.244061
_cell_length_c 7.149363
_cell_angle_alpha 58.269142
_cell_angle_beta 80.011250
_cell_angle_gamma 55.035645
_cell_volume 517.257626
_symmetry_space_group_name_H-M "P -1"
_symmetry_group_IT_number 2
_symmetry_cell_setting 'triclinic'
loop_
_space_group_symop_operation_xyz
x,y,z
-x,-y,-z
loop_
_atom_site_type_symbol
_atom_site_label
_atom_site_fract_x
_atom_site_fract_y
_atom_site_fract_z
Si Si1 0.155327 0.678573 0.126920
Si Si2 0.052527 0.149002 0.150549
Si Si3 0.531643 0.166800 0.028725
Si Si4 0.370749 0.666815 0.385616
Si Si5 0.713124 0.339307 0.213188
Si Si6 0.687143 0.749406 0.477387
Si Si7 0.852944 0.555706 0.206180
O O1 0.256939 0.368347 0.278573
O O2 0.121891 0.838281 0.249124
O O3 0.201457 0.810133 0.907626
O O4 0.044729 0.728623 0.042814
O O5 0.978265 0.276297 0.295789
O O6 0.128208 0.255986 0.024779
O O7 0.583494 0.030460 0.283917
O O8 0.625017 0.175424 0.872812
O O9 0.414408 0.456984 0.926669
O O10 0.500000 0.000000 0.000000
O O11 0.500000 0.500000 0.500000
O O12 0.294175 0.804642 0.525816
O O13 0.351035 0.445634 0.451481
O O14 0.763776 0.500359 0.185100
O O15 0.797042 0.680433 0.357256
#
# Coordination Sequence:
#
# PCOD9021233 Si02
#       7
#     2   2   2   2   2   2   2
#     4  10  22  38  58  92 129 156 191 257 322 358
#     4   9  20  40  63  82 123 160 204 258 297 357
#     4  11  19  36  63  90 122 158 208 252 282 363
#     4   9  18  36  60  84 116 161 208 245 282 353
#     4   9  19  38  61  90 124 158 203 243 305 364
#     4  11  22  34  62  94 121 159 203 247 306 364
#     4   9  18  37  65  89 106 162 217 240 287 365
#
# _framework density 27.065818
#
# number of rings (size 3 to 8) (size 9 to 14) (size 15 to 20)
#    0.000    2.286    4.286    0.000    2.000    1.714 
#    0.000    4.286    0.000    0.000    0.000    0.000 
#    0.000    0.000    0.000    0.000    0.000    0.000 
#
# Total GULP energy -78246.289651 kJ/mol
# GULP energy per Si atom -5589.020689 kJ/mol
# Density = 2.700422 g / cm^3
# Si number density = 27.065818 Si / 1000 Ang^3
#
#
#
# Elastic Constant Matrix: (Units=GPa)
#
#
# Indices 1 2 3 4 5 6 
#
# 1 125.4535 32.4630 54.2566 -11.2760 -22.1775 -22.3986
# 2 32.4630 54.8174 10.3970 6.5513 -18.7884 -9.8088
# 3 54.2566 10.3970 130.4894 -2.8044 -16.7310 -8.9773
# 4 -11.2760 6.5513 -2.8044 49.2892 -11.9388 -10.2416
# 5 -22.1775 -18.7884 -16.7310 -11.9388 45.5401 1.2123
# 6 -22.3986 -9.8088 -8.9773 -10.2416 1.2123 39.6147
#
#
#
# Elastic Compliance Matrix: (Units=1/GPa)
#
#
# Indices 1 2 3 4 5 6 
#
# 1 0.013677 -0.005310 -0.004094 0.006104 0.004381 0.006935
# 2 -0.005310 0.024358 0.001342 -0.002061 0.007348 0.002575
# 3 -0.004094 0.001342 0.009526 -0.000058 0.002042 0.000099
# 4 0.006104 -0.002061 -0.000058 0.026005 0.008669 0.009386
# 5 0.004381 0.007348 0.002042 0.008669 0.029985 0.006083
# 6 0.006935 0.002575 0.000099 0.009386 0.006083 0.032064
#
#
# Mechanical properties :
#
#
# Convention : Reuss Voigt Hill
#
# Bulk Modulus (GPa) = 31.80897 56.11039 43.95968
# Shear Modulus (GPa) = 30.82279 41.13172 35.97726
#
# Velocity S-wave (km/s) = 3.37829 3.90255 3.64984
# Velocity P-wave (km/s) = 5.19568 6.40957 5.83428
#
# Compressibility (1/GPa) = 0.03143768
#
# Stress axis : x y z
#
# Youngs Moduli (GPa) = 73.11657 41.05440 104.97543
#
# Poissons Ratio (x) = 0.21800 0.42973
# Poissons Ratio (y) = 0.38825 -0.14088
# Poissons Ratio (z) = 0.29931 -0.05510
#
# Static dielectric constant tensor:
#      x y z
#    x 2.080780 0.041460 0.025790 
#    y 0.041460 2.274820 0.022670 
#    z 0.025790 0.022670 2.157840 
# 
# From -- ./inp_files/293964.got.cif
#   From: 2010.05.17/outbox.cif.g08.bks.cpg/sg2_147_cif.got.tgz:293964.got - 2010.06.03 11:33:40.
