data_PCOD9021287
_publ_section_title
;
Structure prediction by ZEFSAII (Michael W. Deem and Ramdas Pophale) SiO2 
 PCOD9021287
Probable space group: P -1
;
_chemical_formula_sum "Si O2"
_cell_formula_units_Z 16
_cell_length_a 10.515227
_cell_length_b 8.061320
_cell_length_c 15.201371
_cell_angle_alpha 91.132893
_cell_angle_beta 98.257889
_cell_angle_gamma 148.029164
_cell_volume 650.081131
_symmetry_space_group_name_H-M "P -1"
_symmetry_group_IT_number 2
_symmetry_cell_setting 'triclinic'
loop_
_space_group_symop_operation_xyz
x,y,z
-x,-y,-z
loop_
_atom_site_type_symbol
_atom_site_label
_atom_site_fract_x
_atom_site_fract_y
_atom_site_fract_z
Si Si1 0.995419 0.327766 0.627888
Si Si2 0.791617 0.390433 0.023884
Si Si3 0.439859 0.108703 0.540008
Si Si4 0.758923 0.578913 0.862164
Si Si5 0.306363 0.235661 0.734023
Si Si6 0.968228 0.809559 0.197670
Si Si7 0.861405 0.518649 0.707375
Si Si8 0.270653 0.368120 0.563127
O O1 0.899981 0.105924 0.697462
O O2 0.979933 0.489513 0.673258
O O3 0.239602 0.501934 0.620330
O O4 0.845333 0.176077 0.519081
O O5 0.892665 0.568401 0.129405
O O6 0.783552 0.546668 0.963128
O O7 0.000000 0.500000 0.000000
O O8 0.500000 0.000000 0.000000
O O9 0.572371 0.227427 0.646992
O O10 0.576007 0.405232 0.502898
O O11 0.500000 0.000000 0.500000
O O12 0.470035 0.287078 0.804010
O O13 0.869098 0.552609 0.812604
O O14 0.883076 0.889099 0.842988
O O15 0.385541 0.367527 0.644618
O O16 0.278435 0.366869 0.793477
O O17 0.025794 0.853582 0.691688
O O18 0.000000 0.000000 0.500000
#
# Coordination Sequence:
#
# PCOD9021287 Si02
#       8
#     2   2   2   2   2   2   2   2
#     4  10  23  40  66  92 141 178 240 290 354 419
#     4  12  30  51  81 113 146 189 239 301 373 440
#     4  10  22  38  59  95 132 182 235 289 349 408
#     4  11  25  44  75  99 140 185 234 297 363 439
#     4  10  23  41  68 100 137 186 232 290 363 419
#     4  10  24  47  70 104 141 182 239 294 362 437
#     4  10  22  40  62  99 138 179 238 295 352 426
#     4  11  22  39  61  92 132 183 232 286 340 419
#
# _framework density 24.612313
#
# number of rings (size 3 to 8) (size 9 to 14) (size 15 to 20)
#    0.000    1.500    1.250    1.875    8.750    5.000 
#    4.500    0.000    0.000    0.000    0.000    0.000 
#    0.000    0.000    0.000    0.000    0.000    0.000 
#
# Total GULP energy -89291.387038 kJ/mol
# GULP energy per Si atom -5580.711690 kJ/mol
# Density = 2.455629 g / cm^3
# Si number density = 24.612313 Si / 1000 Ang^3
#
#
#
# Elastic Constant Matrix: (Units=GPa)
#
#
# Indices 1 2 3 4 5 6 
#
# 1 129.6531 4.2703 14.7638 6.9976 -18.7647 -7.5730
# 2 4.2703 81.9348 23.2432 -8.6530 0.9941 -6.1008
# 3 14.7638 23.2432 94.3575 -10.1793 3.2357 -1.9857
# 4 6.9976 -8.6530 -10.1793 31.2295 -8.3842 1.3396
# 5 -18.7647 0.9941 3.2357 -8.3842 48.1380 -2.4292
# 6 -7.5730 -6.1008 -1.9857 1.3396 -2.4292 26.4297
#
#
#
# Elastic Compliance Matrix: (Units=1/GPa)
#
#
# Indices 1 2 3 4 5 6 
#
# 1 0.008624 -0.000014 -0.001583 -0.001680 0.003314 0.002739
# 2 -0.000014 0.013554 -0.002993 0.002809 0.000547 0.002808
# 3 -0.001583 -0.002993 0.011948 0.003220 -0.000822 -0.000486
# 4 -0.001680 0.002809 0.003220 0.035671 0.005237 -0.000918
# 5 0.003314 0.000547 -0.000822 0.005237 0.023167 0.002878
# 6 0.002739 0.002808 -0.000486 -0.000918 0.002878 0.039544
#
#
# Mechanical properties :
#
#
# Convention : Reuss Voigt Hill
#
# Bulk Modulus (GPa) = 40.08759 43.38886 41.73823
# Shear Modulus (GPa) = 33.33266 38.73730 36.03498
#
# Velocity S-wave (km/s) = 3.68409 3.97154 3.83051
# Velocity P-wave (km/s) = 5.86682 6.22078 6.04639
#
# Compressibility (1/GPa) = 0.02494538
#
# Stress axis : x y z
#
# Youngs Moduli (GPa) = 115.95688 73.78033 83.69357
#
# Poissons Ratio (x) = 0.00104 0.13250
# Poissons Ratio (y) = 0.00163 0.25050
# Poissons Ratio (z) = 0.18358 0.22083
#
# Static dielectric constant tensor:
#      x y z
#    x 2.005060 0.015200 -0.037390 
#    y 0.015200 2.018700 0.023060 
#    z -0.037390 0.023060 1.966300 
# 
# From -- ./inp_files/39759.got.cif
#   From: 2010.05.17/outbox.cif.g08.bks.cpg/sg2_20_cif.got.tgz:39759.got - 2010.06.03 11:33:40.
