data_PCOD9021171
_publ_section_title
;
Structure prediction by ZEFSAII (Michael W. Deem and Ramdas Pophale) SiO2 
 PCOD9021171
Probable space group: P -1
;
_chemical_formula_sum "Si O2"
_cell_formula_units_Z 13
_cell_length_a 13.881759
_cell_length_b 14.603561
_cell_length_c 6.880100
_cell_angle_alpha 100.106609
_cell_angle_beta 94.615790
_cell_angle_gamma 149.782767
_cell_volume 610.539374
_symmetry_space_group_name_H-M "P -1"
_symmetry_group_IT_number 2
_symmetry_cell_setting 'triclinic'
loop_
_space_group_symop_operation_xyz
x,y,z
-x,-y,-z
loop_
_atom_site_type_symbol
_atom_site_label
_atom_site_fract_x
_atom_site_fract_y
_atom_site_fract_z
Si Si1 0.271676 0.460645 0.527124
Si Si2 0.335676 0.482712 0.099613
Si Si3 0.783516 0.763489 0.305643
Si Si4 0.443864 0.738035 0.934581
Si Si5 0.500000 0.000000 0.500000
Si Si6 0.805497 0.295640 0.025469
Si Si7 0.830491 0.179319 0.337837
O O1 0.272814 0.449383 0.294888
O O2 0.290076 0.376855 0.600715
O O3 0.454958 0.689015 0.720132
O O4 0.048111 0.317970 0.495835
O O5 0.585158 0.662884 0.204140
O O6 0.195787 0.280434 0.902628
O O7 0.326359 0.567481 0.002310
O O8 0.000000 0.000000 0.500000
O O9 0.306554 0.713689 0.888034
O O10 0.670746 0.962999 0.146545
O O11 0.629004 0.105092 0.772995
O O12 0.705358 0.125928 0.467320
O O13 0.877587 0.287170 0.201851
O O14 0.000000 0.500000 0.000000
#
# Coordination Sequence:
#
# PCOD9021171 Si02
#       7
#     2   2   2   2   1   2   2
#     4  11  23  39  62  89 119 156 197 246 303 354
#     4  10  22  39  61  88 119 155 197 247 299 356
#     4  10  22  41  62  88 119 153 195 244 301 362
#     4  10  22  38  56  86 120 153 200 247 292 353
#     4  10  22  40  60  82 120 162 200 248 296 346
#     4  11  23  39  60  87 121 160 204 250 298 354
#     4  11  24  39  60  91 121 161 208 246 298 357
#
# _framework density 21.292646999999999
#
# number of rings (size 3 to 8) (size 9 to 14) (size 15 to 20)
#    0.000    1.538    0.000    5.077    0.000   11.692 
#    0.000    0.000    0.000    0.000    0.000    0.000 
#    0.000    0.000    0.000    0.000    0.000    0.000 
#
# Total GULP energy -72411.627956 kJ/mol
# GULP energy per Si atom -5570.125227 kJ/mol
# Density = 2.124418 g / cm^3
# Si number density = 21.292647 Si / 1000 Ang^3
#
#
#
# Elastic Constant Matrix: (Units=GPa)
#
#
# Indices 1 2 3 4 5 6 
#
# 1 48.9245 13.6405 27.4379 -7.8002 -1.3529 -16.2771
# 2 13.6405 46.3243 34.0118 7.0535 -22.4079 -9.3826
# 3 27.4379 34.0118 120.3438 -0.2621 -27.1433 -9.9263
# 4 -7.8002 7.0535 -0.2621 35.8058 2.6001 -5.1198
# 5 -1.3529 -22.4079 -27.1433 2.6001 33.5875 -6.3879
# 6 -16.2771 -9.3826 -9.9263 -5.1198 -6.3879 20.9778
#
#
#
# Elastic Compliance Matrix: (Units=1/GPa)
#
#
# Indices 1 2 3 4 5 6 
#
# 1 0.034593 -0.003890 -0.004984 0.011975 -0.001354 0.025253
# 2 -0.003890 0.048826 -0.002650 -0.009346 0.035991 0.026244
# 3 -0.004984 -0.002650 0.012451 -0.000630 0.008781 0.003359
# 4 0.011975 -0.009346 -0.000630 0.034463 -0.006809 0.011151
# 5 -0.001354 0.035991 0.008781 -0.006809 0.068665 0.038449
# 6 0.025253 0.026244 0.003359 0.011151 0.038449 0.095021
#
#
# Mechanical properties :
#
#
# Convention : Reuss Voigt Hill
#
# Bulk Modulus (GPa) = 13.73235 40.64146 27.18691
# Shear Modulus (GPa) = 14.64806 27.44104 21.04455
#
# Velocity S-wave (km/s) = 2.62571 3.59382 3.14721
# Velocity P-wave (km/s) = 3.95674 6.02903 5.09927
#
# Compressibility (1/GPa) = 0.07282075
#
# Stress axis : x y z
#
# Youngs Moduli (GPa) = 28.90769 20.48077 80.31405
#
# Poissons Ratio (x) = 0.07968 0.40027
# Poissons Ratio (y) = 0.11246 0.21287
# Poissons Ratio (z) = 0.14407 0.05428
#
# Static dielectric constant tensor:
#      x y z
#    x 1.743270 -0.011710 -0.018090 
#    y -0.011710 1.769140 0.035350 
#    z -0.018090 0.035350 1.792440 
# 
# From -- ./inp_files/31993.got.cif
#   From: 2010.05.17/outbox.cif.g08.bks.cpg/sg2_16_cif.got.tgz:31993.got - 2010.06.03 11:33:40.
