data_PCOD9021659
_publ_section_title
;
Structure prediction by ZEFSAII (Michael W. Deem and Ramdas Pophale) SiO2 
 PCOD9021659
Probable space group: P -1
;
_chemical_formula_sum "Si O2"
_cell_formula_units_Z 12
_cell_length_a 8.000514
_cell_length_b 12.292243
_cell_length_c 8.468565
_cell_angle_alpha 89.947718
_cell_angle_beta 109.768997
_cell_angle_gamma 50.529453
_cell_volume 577.675927
_symmetry_space_group_name_H-M "P -1"
_symmetry_group_IT_number 2
_symmetry_cell_setting 'triclinic'
loop_
_space_group_symop_operation_xyz
x,y,z
-x,-y,-z
loop_
_atom_site_type_symbol
_atom_site_label
_atom_site_fract_x
_atom_site_fract_y
_atom_site_fract_z
Si Si1 0.442807 0.182233 0.448004
Si Si2 0.031970 0.740592 0.715042
Si Si3 0.370742 0.203891 0.793828
Si Si4 0.144262 0.080657 0.632501
Si Si5 0.994939 0.521147 0.810557
Si Si6 0.155241 0.914134 0.896943
O O1 0.457285 0.188367 0.641082
O O2 0.257791 0.157365 0.355444
O O3 0.282901 0.348088 0.330529
O O4 0.679518 0.059954 0.426235
O O5 0.117835 0.585530 0.795364
O O6 0.138897 0.794578 0.847689
O O7 0.042468 0.774610 0.536013
O O8 0.299589 0.107040 0.774320
O O9 0.132939 0.370487 0.761250
O O10 0.575023 0.157885 0.979640
O O11 0.048035 0.033746 0.724718
O O12 0.000000 0.500000 0.000000
O O13 0.000000 0.000000 0.000000
#
# Coordination Sequence:
#
# PCOD9021659 Si02
#       6
#     2   2   2   2   2   2
#     4   9  20  40  63  88 115 155 204 238 289 352
#     4   9  22  38  60  85 124 151 196 237 301 338
#     4  11  22  38  63  90 118 157 201 238 293 356
#     4  11  21  39  66  86 118 159 199 242 291 350
#     4  10  22  38  64  87 120 156 198 243 290 354
#     4  12  24  36  59  93 123 150 198 250 295 343
#
# _framework density 20.772894000000001
#
# number of rings (size 3 to 8) (size 9 to 14) (size 15 to 20)
#    1.000    0.667    0.000    6.500    2.333    0.667 
#    0.000    0.000    0.000    3.000    0.000    0.000 
#    0.000    0.000    0.000    0.000    0.000    0.000 
#
# Total GULP energy -66932.304525 kJ/mol
# GULP energy per Si atom -5577.692044 kJ/mol
# Density = 2.072561 g / cm^3
# Si number density = 20.772894 Si / 1000 Ang^3
#
#
#
# Elastic Constant Matrix: (Units=GPa)
#
#
# Indices 1 2 3 4 5 6 
#
# 1 58.5961 40.5760 37.2756 8.4949 -14.7543 11.4319
# 2 40.5760 102.6885 47.0971 5.0556 -16.8352 9.6164
# 3 37.2756 47.0971 92.1740 13.9172 8.1805 13.2570
# 4 8.4949 5.0556 13.9172 32.3881 5.5996 -5.0576
# 5 -14.7543 -16.8352 8.1805 5.5996 53.3195 1.4516
# 6 11.4319 9.6164 13.2570 -5.0576 1.4516 16.6071
#
#
#
# Elastic Compliance Matrix: (Units=1/GPa)
#
#
# Indices 1 2 3 4 5 6 
#
# 1 0.032938 -0.006043 -0.007331 -0.008861 0.009721 -0.016870
# 2 -0.006043 0.015479 -0.005965 0.001023 0.004025 -0.000082
# 3 -0.007331 -0.005965 0.019454 -0.005744 -0.006069 -0.008248
# 4 -0.008861 0.001023 -0.005744 0.040127 -0.006084 0.022844
# 5 0.009721 0.004025 -0.006069 -0.006084 0.024508 -0.008173
# 6 -0.016870 -0.000082 -0.008248 0.022844 -0.008173 0.086131
#
#
# Mechanical properties :
#
#
# Convention : Reuss Voigt Hill
#
# Bulk Modulus (GPa) = 34.25581 55.92843 45.09212
# Shear Modulus (GPa) = 18.72336 29.03026 23.87681
#
# Velocity S-wave (km/s) = 3.00548 3.74238 3.39399
# Velocity P-wave (km/s) = 5.34512 6.75693 6.09206
#
# Compressibility (1/GPa) = 0.02919213
#
# Stress axis : x y z
#
# Youngs Moduli (GPa) = 30.36045 64.60320 51.40336
#
# Poissons Ratio (x) = 0.39038 0.37684
# Poissons Ratio (y) = 0.18346 0.30665
# Poissons Ratio (z) = 0.22257 0.38539
#
# Static dielectric constant tensor:
#      x y z
#    x 1.772840 0.022810 0.027990 
#    y 0.022810 1.756250 -0.052770 
#    z 0.027990 -0.052770 1.788410 
# 
# From -- ./inp_files/181915.got.cif
#   From: 2010.05.17/outbox.cif.g08.bks.cpg/sg2_91_cif.got.tgz:181915.got - 2010.06.03 11:33:40.
