data_PCOD9021356
_publ_section_title
;
Structure prediction by ZEFSAII (Michael W. Deem and Ramdas Pophale) SiO2 
 PCOD9021356
Probable space group: P -1
;
_chemical_formula_sum "Si O2"
_cell_formula_units_Z 14
_cell_length_a 23.156101
_cell_length_b 7.513623
_cell_length_c 11.341493
_cell_angle_alpha 43.386368
_cell_angle_beta 31.586894
_cell_angle_gamma 36.899430
_cell_volume 614.036551
_symmetry_space_group_name_H-M "P -1"
_symmetry_group_IT_number 2
_symmetry_cell_setting 'triclinic'
loop_
_space_group_symop_operation_xyz
x,y,z
-x,-y,-z
loop_
_atom_site_type_symbol
_atom_site_label
_atom_site_fract_x
_atom_site_fract_y
_atom_site_fract_z
Si Si1 0.602281 0.258560 0.597284
Si Si2 0.355212 0.368667 0.832909
Si Si3 0.153059 0.326514 0.520801
Si Si4 0.921110 0.553437 0.990621
Si Si5 0.122587 0.909429 0.595824
Si Si6 0.840281 0.182408 0.862604
Si Si7 0.375603 0.760703 0.150686
O O1 0.477225 0.289908 0.740052
O O2 0.619186 0.527194 0.386915
O O3 0.595564 0.247287 0.755349
O O4 0.727701 0.949408 0.490398
O O5 0.235711 0.647671 0.969943
O O6 0.341382 0.077738 0.000606
O O7 0.192303 0.566742 0.298772
O O8 0.023295 0.466219 0.751965
O O9 0.129317 0.180455 0.515862
O O10 0.872290 0.318531 0.202447
O O11 0.000000 0.500000 0.000000
O O12 0.178854 0.093226 0.007810
O O13 0.248029 0.737358 0.381043
O O14 0.991322 0.038968 0.692337
O O15 0.500000 0.500000 0.000000
#
# Coordination Sequence:
#
# PCOD9021356 Si02
#       7
#     2   2   2   2   2   2   2
#     4  10  23  43  69  94 126 176 217 263 327 379
#     4  11  23  43  69  94 131 171 218 268 319 395
#     4  11  21  40  67  93 129 170 216 264 322 384
#     4  10  22  38  60  94 129 164 213 262 315 384
#     4  10  22  42  63  93 132 168 209 269 324 378
#     4  11  22  40  65  99 127 170 216 263 326 380
#     4  11  25  44  67  95 131 169 219 270 324 385
#
# _framework density 22.799945999999998
#
# number of rings (size 3 to 8) (size 9 to 14) (size 15 to 20)
#    0.000    1.429    2.857    3.429    0.000    6.286 
#    2.571    0.000    0.000    0.000    0.000    0.000 
#    0.000    0.000    0.000    0.000    0.000    0.000 
#
# Total GULP energy -78311.131147 kJ/mol
# GULP energy per Si atom -5593.652225 kJ/mol
# Density = 2.274805 g / cm^3
# Si number density = 22.799946 Si / 1000 Ang^3
#
#
#
# Elastic Constant Matrix: (Units=GPa)
#
#
# Indices 1 2 3 4 5 6 
#
# 1 41.2238 -3.0785 -19.0273 0.5318 -1.6850 -10.6148
# 2 -3.0785 123.1864 41.0736 -6.5084 9.2152 10.3900
# 3 -19.0273 41.0736 93.6067 -7.1877 10.3136 8.6579
# 4 0.5318 -6.5084 -7.1877 56.1947 -9.1472 5.1307
# 5 -1.6850 9.2152 10.3136 -9.1472 25.2676 12.9732
# 6 -10.6148 10.3900 8.6579 5.1307 12.9732 26.9906
#
#
#
# Elastic Compliance Matrix: (Units=1/GPa)
#
#
# Indices 1 2 3 4 5 6 
#
# 1 0.030795 -0.002209 0.006557 -0.002544 -0.008711 0.015529
# 2 -0.002209 0.009863 -0.004399 0.000959 0.000217 -0.003541
# 3 0.006557 -0.004399 0.014311 0.000339 -0.004621 0.001838
# 4 -0.002544 0.000959 0.000339 0.021174 0.013055 -0.011779
# 5 -0.008711 0.000217 -0.004621 0.013055 0.063519 -0.035040
# 6 0.015529 -0.003541 0.001838 -0.011779 -0.035040 0.063011
#
#
# Mechanical properties :
#
#
# Convention : Reuss Voigt Hill
#
# Bulk Modulus (GPa) = 18.22638 32.88361 25.55500
# Shear Modulus (GPa) = 22.61777 37.62719 30.12248
#
# Velocity S-wave (km/s) = 3.15304 4.06682 3.63873
# Velocity P-wave (km/s) = 4.61161 6.04202 5.37461
#
# Compressibility (1/GPa) = 0.05486552
#
# Stress axis : x y z
#
# Youngs Moduli (GPa) = 32.47316 101.39375 69.87440
#
# Poissons Ratio (x) = 0.22401 -0.45817
# Poissons Ratio (y) = 0.07174 0.30741
# Poissons Ratio (z) = -0.21293 0.44607
#
# Static dielectric constant tensor:
#      x y z
#    x 1.852460 0.001460 -0.011510 
#    y 0.001460 1.869010 -0.013900 
#    z -0.011510 -0.013900 1.871700 
# 
# From -- ./inp_files/476361.got.cif
#   From: 2010.05.17/outbox.cif.g08.bks.cpg/sg2_239_cif.got.tgz:476361.got - 2010.06.03 11:33:40.
