data_PCOD9021326
_publ_section_title
;
Structure prediction by ZEFSAII (Michael W. Deem and Ramdas Pophale) SiO2 
 PCOD9021326
Probable space group: P -1
;
_chemical_formula_sum "Si O2"
_cell_formula_units_Z 11
_cell_length_a 5.889829
_cell_length_b 4.824618
_cell_length_c 16.580791
_cell_angle_alpha 86.937154
_cell_angle_beta 83.872753
_cell_angle_gamma 82.151374
_cell_volume 463.721314
_symmetry_space_group_name_H-M "P -1"
_symmetry_group_IT_number 2
_symmetry_cell_setting 'triclinic'
loop_
_space_group_symop_operation_xyz
x,y,z
-x,-y,-z
loop_
_atom_site_type_symbol
_atom_site_label
_atom_site_fract_x
_atom_site_fract_y
_atom_site_fract_z
Si Si1 0.052660 0.899101 0.330094
Si Si2 0.218665 0.552838 0.937307
Si Si3 0.789398 0.731556 0.480380
Si Si4 0.500000 0.000000 0.000000
Si Si5 0.527488 0.555287 0.627789
Si Si6 0.123149 0.580945 0.753439
O O1 0.279698 0.690209 0.345593
O O2 0.904121 0.951633 0.417985
O O3 0.917773 0.718110 0.276036
O O4 0.072644 0.188650 0.280807
O O5 0.411668 0.287012 0.946530
O O6 0.134557 0.584057 0.848095
O O7 0.321254 0.826957 0.958882
O O8 0.000000 0.500000 0.000000
O O9 0.643454 0.784497 0.567184
O O10 0.630561 0.585737 0.427374
O O11 0.000000 0.500000 0.500000
O O12 0.361021 0.659674 0.705441
#
# Coordination Sequence:
#
# PCOD9021326 Si02
#       6
#     2   2   2   1   2   2
#     4  10  22  38  60  90 123 164 210 260 318 377
#     4  11  24  44  68  98 134 170 215 272 325 392
#     4   8  16  36  60  87 121 164 210 255 313 372
#     4  10  24  44  72 100 124 172 220 258 334 402
#     4   9  19  37  60  87 124 164 208 263 310 373
#     4  11  24  40  61  92 125 163 211 260 321 381
#
# _framework density 23.721143999999999
#
# number of rings (size 3 to 8) (size 9 to 14) (size 15 to 20)
#    0.000    2.182    0.000    1.636    0.000    8.000 
#    0.000   30.909    0.000    0.000    0.000    0.000 
#    0.000    0.000    0.000    0.000    0.000    0.000 
#
# Total GULP energy -61302.221814 kJ/mol
# GULP energy per Si atom -5572.929256 kJ/mol
# Density = 2.366715 g / cm^3
# Si number density = 23.721144 Si / 1000 Ang^3
#
#
#
# Elastic Constant Matrix: (Units=GPa)
#
#
# Indices 1 2 3 4 5 6 
#
# 1 82.9951 13.9167 53.6281 6.5716 10.0816 -0.9675
# 2 13.9167 127.1436 33.0160 4.2958 9.4018 16.6288
# 3 53.6281 33.0160 193.9501 -11.1503 2.7875 -3.2173
# 4 6.5716 4.2958 -11.1503 29.5711 -0.6312 16.4516
# 5 10.0816 9.4018 2.7875 -0.6312 28.8268 -4.2710
# 6 -0.9675 16.6288 -3.2173 16.4516 -4.2710 34.0655
#
#
#
# Elastic Compliance Matrix: (Units=1/GPa)
#
#
# Indices 1 2 3 4 5 6 
#
# 1 0.016379 -0.000353 -0.004761 -0.007183 -0.004858 0.003048
# 2 -0.000353 0.009250 -0.001446 0.001308 -0.003576 -0.005742
# 3 -0.004761 -0.001446 0.006933 0.004280 0.001463 -0.000658
# 4 -0.007183 0.001308 0.004280 0.050765 -0.000931 -0.025072
# 5 -0.004858 -0.003576 0.001463 -0.000931 0.038433 0.007014
# 6 0.003048 -0.005742 -0.000658 -0.025072 0.007014 0.045170
#
#
# Mechanical properties :
#
#
# Convention : Reuss Voigt Hill
#
# Bulk Modulus (GPa) = 51.43522 67.24561 59.34042
# Shear Modulus (GPa) = 26.80514 38.72789 32.76651
#
# Velocity S-wave (km/s) = 3.36521 4.04497 3.72064
# Velocity P-wave (km/s) = 6.06876 7.08700 6.59756
#
# Compressibility (1/GPa) = 0.01944193
#
# Stress axis : x y z
#
# Youngs Moduli (GPa) = 61.05293 108.10345 144.24324
#
# Poissons Ratio (x) = 0.03816 0.68680
# Poissons Ratio (y) = 0.02155 0.20854
# Poissons Ratio (z) = 0.29070 0.15629
#
# Static dielectric constant tensor:
#      x y z
#    x 1.973520 0.005870 -0.022670 
#    y 0.005870 1.893400 -0.000670 
#    z -0.022670 -0.000670 1.860420 
# 
# From -- ./inp_files/545261.got.cif
#   From: 2010.05.17/outbox.cif.g08.bks.cpg/sg2_273_cif.got.tgz:545261.got - 2010.06.03 11:33:40.
