data_PCOD9021345
_publ_section_title
;
Structure prediction by ZEFSAII (Michael W. Deem and Ramdas Pophale) SiO2 
 PCOD9021345
Probable space group: P -1
;
_chemical_formula_sum "Si O2"
_cell_formula_units_Z 16
_cell_length_a 7.292112
_cell_length_b 8.777027
_cell_length_c 16.240601
_cell_angle_alpha 107.796581
_cell_angle_beta 81.814032
_cell_angle_gamma 49.824782
_cell_volume 668.787538
_symmetry_space_group_name_H-M "P -1"
_symmetry_group_IT_number 2
_symmetry_cell_setting 'triclinic'
loop_
_space_group_symop_operation_xyz
x,y,z
-x,-y,-z
loop_
_atom_site_type_symbol
_atom_site_label
_atom_site_fract_x
_atom_site_fract_y
_atom_site_fract_z
Si Si1 0.760714 0.608982 0.264650
Si Si2 0.851891 0.108974 0.772313
Si Si3 0.738608 0.369885 0.097622
Si Si4 0.782657 0.207549 0.610960
Si Si5 0.440527 0.034252 0.246685
Si Si6 0.197444 0.004458 0.886025
Si Si7 0.270395 0.275205 0.546476
Si Si8 0.285925 0.444231 0.425584
O O1 0.853958 0.397623 0.172727
O O2 0.465801 0.752455 0.346090
O O3 0.699027 0.783911 0.231573
O O4 0.894426 0.582092 0.335346
O O5 0.557238 0.369701 0.858019
O O6 0.916047 0.139473 0.682205
O O7 0.789439 0.957535 0.744985
O O8 0.072175 0.015706 0.810468
O O9 0.710847 0.204274 0.099910
O O10 0.950574 0.244452 0.989447
O O11 0.644341 0.450916 0.619398
O O12 0.000000 0.000000 0.500000
O O13 0.553400 0.035806 0.155268
O O14 0.372392 0.226000 0.340523
O O15 0.371326 0.364725 0.502066
O O16 0.040494 0.337709 0.515868
O O17 0.500000 0.000000 0.500000
#
# Coordination Sequence:
#
# PCOD9021345 Si02
#       8
#     2   2   2   2   2   2   2   2
#     4  10  22  40  61  88 132 157 215 271 310 384
#     4  10  24  41  64  93 132 168 213 273 323 382
#     4   9  22  43  62  98 125 159 224 273 312 404
#     4  10  22  38  60  93 127 164 217 263 311 389
#     4  10  22  41  62  99 124 165 225 262 315 399
#     4  11  22  42  71  87 130 174 210 268 338 381
#     4  11  23  39  63  91 123 171 212 255 322 383
#     4  11  24  38  63  89 130 166 210 271 310 386
#
# _framework density 23.923891000000001
#
# number of rings (size 3 to 8) (size 9 to 14) (size 15 to 20)
#    0.000    2.000    1.250    2.625    8.750    3.500 
#    0.000    2.500    0.000    0.000    0.000    0.000 
#    0.000    0.000    0.000    0.000    0.000    0.000 
#
# Total GULP energy -89407.504579 kJ/mol
# GULP energy per Si atom -5587.969036 kJ/mol
# Density = 2.386944 g / cm^3
# Si number density = 23.923891 Si / 1000 Ang^3
#
#
#
# Elastic Constant Matrix: (Units=GPa)
#
#
# Indices 1 2 3 4 5 6 
#
# 1 54.9903 14.4214 20.7211 -3.3258 -2.0182 13.4055
# 2 14.4214 75.5688 10.7912 5.3759 -1.0699 17.4645
# 3 20.7211 10.7912 120.2770 7.0884 -6.1367 13.5922
# 4 -3.3258 5.3759 7.0884 38.7676 2.0543 1.6005
# 5 -2.0182 -1.0699 -6.1367 2.0543 30.7762 -8.0248
# 6 13.4055 17.4645 13.5922 1.6005 -8.0248 37.4144
#
#
#
# Elastic Compliance Matrix: (Units=1/GPa)
#
#
# Indices 1 2 3 4 5 6 
#
# 1 0.021568 -0.002580 -0.003065 0.003058 -0.000991 -0.005753
# 2 -0.002580 0.015340 -0.000157 -0.001995 -0.001190 -0.006349
# 3 -0.003065 -0.000157 0.009242 -0.001924 0.001288 -0.001827
# 4 0.003058 -0.001995 -0.001924 0.026855 -0.002336 -0.001116
# 5 -0.000991 -0.001190 0.001288 -0.002336 0.034892 0.008026
# 6 -0.005753 -0.006349 -0.001827 -0.001116 0.008026 0.034185
#
#
# Mechanical properties :
#
#
# Convention : Reuss Voigt Hill
#
# Bulk Modulus (GPa) = 28.94811 38.07818 33.51315
# Shear Modulus (GPa) = 30.26595 35.05182 32.65889
#
# Velocity S-wave (km/s) = 3.56067 3.83187 3.69876
# Velocity P-wave (km/s) = 5.38803 5.96058 5.68152
#
# Compressibility (1/GPa) = 0.03454456
#
# Stress axis : x y z
#
# Youngs Moduli (GPa) = 46.36569 65.18838 108.20335
#
# Poissons Ratio (x) = 0.16820 0.33162
# Poissons Ratio (y) = 0.11964 0.01704
# Poissons Ratio (z) = 0.14210 0.01027
#
# Static dielectric constant tensor:
#      x y z
#    x 2.052340 -0.037950 0.060620 
#    y -0.037950 1.997160 -0.105350 
#    z 0.060620 -0.105350 1.999380 
# 
# From -- ./inp_files/495203.got.cif
#   From: 2010.05.17/outbox.cif.g08.bks.cpg/sg2_248_cif.got.tgz:495203.got - 2010.06.03 11:33:40.
