data_PCOD9021403
_publ_section_title
;
Structure prediction by ZEFSAII (Michael W. Deem and Ramdas Pophale) SiO2 
 PCOD9021403
Probable space group: P -1
;
_chemical_formula_sum "Si O2"
_cell_formula_units_Z 16
_cell_length_a 7.873209
_cell_length_b 17.246918
_cell_length_c 5.352754
_cell_angle_alpha 112.376952
_cell_angle_beta 64.601112
_cell_angle_gamma 103.552416
_cell_volume 604.947232
_symmetry_space_group_name_H-M "P -1"
_symmetry_group_IT_number 2
_symmetry_cell_setting 'triclinic'
loop_
_space_group_symop_operation_xyz
x,y,z
-x,-y,-z
loop_
_atom_site_type_symbol
_atom_site_label
_atom_site_fract_x
_atom_site_fract_y
_atom_site_fract_z
Si Si1 0.303908 0.970078 0.218798
Si Si2 0.295237 0.480627 0.233109
Si Si3 0.513451 0.633736 0.708416
Si Si4 0.891643 0.412959 0.864809
Si Si5 0.265269 0.873370 0.633844
Si Si6 0.102892 0.083422 0.175160
Si Si7 0.363883 0.203075 0.836276
Si Si8 0.194149 0.322593 0.790338
O O1 0.316643 0.942916 0.463448
O O2 0.174593 0.046830 0.344523
O O3 0.239719 0.896788 0.970355
O O4 0.500000 0.000000 0.000000
O O5 0.359750 0.444242 0.408900
O O6 0.500000 0.500000 0.000000
O O7 0.182439 0.560019 0.328581
O O8 0.182463 0.398008 0.086536
O O9 0.295742 0.611298 0.882123
O O10 0.589808 0.660783 0.424050
O O11 0.580484 0.714579 0.931409
O O12 0.000000 0.500000 0.000000
O O13 0.033522 0.340645 0.715590
O O14 0.442652 0.819050 0.441000
O O15 0.052894 0.849363 0.642666
O O16 0.279363 0.126625 0.967024
O O17 0.000000 0.000000 0.000000
O O18 0.199562 0.231569 0.794206
#
# Coordination Sequence:
#
# PCOD9021403 Si02
#       8
#     2   2   2   2   2   2   2   2
#     4  11  22  43  72 101 133 171 231 294 350 407
#     4   8  17  36  60  88 123 158 212 265 317 387
#     4  10  22  40  60  92 131 172 213 266 338 404
#     4   9  19  38  64  96 123 164 221 273 322 400
#     4  11  25  44  69  99 136 179 227 290 350 409
#     4  10  24  45  69  98 129 174 234 290 342 407
#     4  11  25  44  61  93 135 178 221 273 348 411
#     4  10  22  38  61  89 131 170 213 270 330 405
#
# _framework density 26.448588999999998
#
# number of rings (size 3 to 8) (size 9 to 14) (size 15 to 20)
#    0.000    2.000    1.250    0.750    3.500    7.000 
#    6.750    8.750    0.000    0.000    0.000    0.000 
#    0.000    0.000    0.000    0.000    0.000    0.000 
#
# Total GULP energy -89302.872409 kJ/mol
# GULP energy per Si atom -5581.429526 kJ/mol
# Density = 2.638839 g / cm^3
# Si number density = 26.448589 Si / 1000 Ang^3
#
#
#
# Elastic Constant Matrix: (Units=GPa)
#
#
# Indices 1 2 3 4 5 6 
#
# 1 116.3491 56.5589 26.2839 13.3045 -23.5387 -23.7902
# 2 56.5589 117.9686 39.1581 6.0144 2.9420 -26.7330
# 3 26.2839 39.1581 91.3712 -3.6860 -20.4071 3.4666
# 4 13.3045 6.0144 -3.6860 42.5584 1.4688 -3.8580
# 5 -23.5387 2.9420 -20.4071 1.4688 49.4616 -0.0501
# 6 -23.7902 -26.7330 3.4666 -3.8580 -0.0501 55.7275
#
#
#
# Elastic Compliance Matrix: (Units=1/GPa)
#
#
# Indices 1 2 3 4 5 6 
#
# 1 0.013949 -0.006002 -0.000114 -0.003508 0.007055 0.002846
# 2 -0.006002 0.014645 -0.006132 -0.000071 -0.006250 0.004834
# 3 -0.000114 -0.006132 0.015282 0.001653 0.006563 -0.003821
# 4 -0.003508 -0.000071 0.001653 0.024814 -0.001720 0.000082
# 5 0.007055 -0.006250 0.006563 -0.001720 0.026705 -0.000490
# 6 0.002846 0.004834 -0.003821 0.000082 -0.000490 0.021721
#
#
# Mechanical properties :
#
#
# Convention : Reuss Voigt Hill
#
# Bulk Modulus (GPa) = 51.59911 63.29896 57.44903
# Shear Modulus (GPa) = 33.76760 43.12871 38.44815
#
# Velocity S-wave (km/s) = 3.57701 4.04253 3.81687
# Velocity P-wave (km/s) = 6.05075 6.76566 6.41816
#
# Compressibility (1/GPa) = 0.01938018
#
# Stress axis : x y z
#
# Youngs Moduli (GPa) = 71.69224 68.28481 65.43467
#
# Poissons Ratio (x) = 0.40983 0.00747
# Poissons Ratio (y) = 0.43028 0.40123
# Poissons Ratio (z) = 0.00818 0.41871
#
# Static dielectric constant tensor:
#      x y z
#    x 2.163120 -0.001560 0.047110 
#    y -0.001560 2.164710 0.032480 
#    z 0.047110 0.032480 2.132750 
# 
# From -- ./inp_files/44885.got.cif
#   From: 2010.05.17/outbox.cif.g08.bks.cpg/sg2_23_cif.got.tgz:44885.got - 2010.06.03 11:33:40.
