data_PCOD9021798
_publ_section_title
;
Structure prediction by ZEFSAII (Michael W. Deem and Ramdas Pophale) SiO2 
 PCOD9021798
Probable space group: P -1
;
_chemical_formula_sum "Si O2"
_cell_formula_units_Z 14
_cell_length_a 9.688915
_cell_length_b 24.264592
_cell_length_c 9.155804
_cell_angle_alpha 141.988549
_cell_angle_beta 124.645818
_cell_angle_gamma 28.304338
_cell_volume 567.823118
_symmetry_space_group_name_H-M "P -1"
_symmetry_group_IT_number 2
_symmetry_cell_setting 'triclinic'
loop_
_space_group_symop_operation_xyz
x,y,z
-x,-y,-z
loop_
_atom_site_type_symbol
_atom_site_label
_atom_site_fract_x
_atom_site_fract_y
_atom_site_fract_z
Si Si1 0.891571 0.791565 0.881053
Si Si2 0.548760 0.855376 0.568566
Si Si3 0.302834 0.663721 0.631056
Si Si4 0.385408 0.805974 0.830322
Si Si5 0.715278 0.192179 0.548292
Si Si6 0.507731 0.467792 0.102558
Si Si7 0.553855 0.079698 0.667579
O O1 0.801156 0.751029 0.635656
O O2 0.013203 0.809716 0.872537
O O3 0.166362 0.646986 0.861378
O O4 0.608359 0.973651 0.169509
O O5 0.303551 0.890340 0.544652
O O6 0.641858 0.797193 0.335563
O O7 0.500000 0.500000 0.500000
O O8 0.446143 0.692617 0.732485
O O9 0.233432 0.642950 0.395735
O O10 0.460851 0.746131 0.584244
O O11 0.528906 0.826386 0.040494
O O12 0.000000 0.000000 0.000000
O O13 0.534680 0.348983 0.864580
O O14 0.072205 0.067320 0.461288
O O15 0.500000 0.500000 0.000000
O O16 0.500000 0.000000 0.500000
#
# Coordination Sequence:
#
# PCOD9021798 Si02
#       7
#     2   2   2   2   2   2   2
#     4  10  23  41  66  96 136 173 227 273 347 396
#     4  11  24  41  69  99 137 173 225 290 341 401
#     4  10  22  40  68  95 137 180 224 273 345 407
#     4  10  22  38  65  96 132 167 226 281 337 395
#     4  11  23  41  66  99 132 175 227 274 348 402
#     4  11  22  41  69  95 132 182 226 272 338 415
#     4  11  25  39  67 102 137 173 224 286 344 404
#
# _framework density 24.655564999999999
#
# number of rings (size 3 to 8) (size 9 to 14) (size 15 to 20)
#    0.000    1.429    2.857    2.143   12.000    0.000 
#    0.000    1.429    6.286    0.000    0.000    0.000 
#    0.000    0.000    0.000    0.000    0.000    0.000 
#
# Total GULP energy -78156.353207 kJ/mol
# GULP energy per Si atom -5582.596658 kJ/mol
# Density = 2.459945 g / cm^3
# Si number density = 24.655565 Si / 1000 Ang^3
#
#
#
# Elastic Constant Matrix: (Units=GPa)
#
#
# Indices 1 2 3 4 5 6 
#
# 1 127.7235 37.5989 19.7710 -25.0883 28.6496 13.1237
# 2 37.5989 92.8274 28.9787 -37.1674 6.0125 13.6373
# 3 19.7710 28.9787 132.4594 -33.8589 19.5992 5.2140
# 4 -25.0883 -37.1674 -33.8589 49.7507 5.9266 -0.2415
# 5 28.6496 6.0125 19.5992 5.9266 43.0242 -5.9513
# 6 13.1237 13.6373 5.2140 -0.2415 -5.9513 22.9530
#
#
#
# Elastic Compliance Matrix: (Units=1/GPa)
#
#
# Indices 1 2 3 4 5 6 
#
# 1 0.013779 0.000667 0.003248 0.011268 -0.014034 -0.012533
# 2 0.000667 0.019347 0.001772 0.016910 -0.008254 -0.014241
# 3 0.003248 0.001772 0.011646 0.012100 -0.010510 -0.008153
# 4 0.011268 0.016910 0.012100 0.049591 -0.025721 -0.025385
# 5 -0.014034 -0.008254 -0.010510 -0.025721 0.045796 0.026919
# 6 -0.012533 -0.014241 -0.008153 -0.025385 0.026919 0.067759
#
#
# Mechanical properties :
#
#
# Convention : Reuss Voigt Hill
#
# Bulk Modulus (GPa) = 17.81091 58.41194 38.11142
# Shear Modulus (GPa) = 23.22771 40.92301 32.07536
#
# Velocity S-wave (km/s) = 3.07268 4.07847 3.61076
# Velocity P-wave (km/s) = 4.45287 6.77652 5.73364
#
# Compressibility (1/GPa) = 0.05614537
#
# Stress axis : x y z
#
# Youngs Moduli (GPa) = 72.57169 51.68834 85.86593
#
# Poissons Ratio (x) = -0.03446 -0.27885
# Poissons Ratio (y) = -0.04839 -0.15218
# Poissons Ratio (z) = -0.23568 -0.09161
#
# Static dielectric constant tensor:
#      x y z
#    x 1.983400 -0.085220 -0.073080 
#    y -0.085220 2.122570 0.057120 
#    z -0.073080 0.057120 2.048500 
# 
# From -- ./inp_files/174760.got.cif
#   From: 2010.05.17/outbox.cif.g08.bks.cpg/sg2_88_cif.got.tgz:174760.got - 2010.06.03 11:33:40.
