data_PCOD9021571
_publ_section_title
;
Structure prediction by ZEFSAII (Michael W. Deem and Ramdas Pophale) SiO2 
 PCOD9021571
Probable space group: P -1
;
_chemical_formula_sum "Si O2"
_cell_formula_units_Z 16
_cell_length_a 11.674549
_cell_length_b 15.744325
_cell_length_c 14.976321
_cell_angle_alpha 140.251577
_cell_angle_beta 28.076257
_cell_angle_gamma 139.972647
_cell_volume 792.746949
_symmetry_space_group_name_H-M "P -1"
_symmetry_group_IT_number 2
_symmetry_cell_setting 'triclinic'
loop_
_space_group_symop_operation_xyz
x,y,z
-x,-y,-z
loop_
_atom_site_type_symbol
_atom_site_label
_atom_site_fract_x
_atom_site_fract_y
_atom_site_fract_z
Si Si1 0.139100 0.084887 0.758409
Si Si2 0.095649 0.863225 0.318278
Si Si3 0.610886 0.045517 0.162757
Si Si4 0.065309 0.790215 0.481049
Si Si5 0.254909 0.423212 0.166569
Si Si6 0.346472 0.263524 0.601148
Si Si7 0.356640 0.142761 0.844069
Si Si8 0.240363 0.474984 0.427244
O O1 0.314235 0.209725 0.681560
O O2 0.267397 0.071234 0.753301
O O3 0.086984 0.945191 0.623963
O O4 0.867861 0.106745 0.982268
O O5 0.033194 0.785219 0.392777
O O6 0.933194 0.770142 0.277057
O O7 0.400230 0.927734 0.157348
O O8 0.000000 0.000000 0.500000
O O9 0.488842 0.164863 0.373410
O O10 0.672561 0.967045 0.144833
O O11 0.343700 0.776074 0.300095
O O12 0.851019 0.675902 0.587416
O O13 0.298250 0.462302 0.272674
O O14 0.999615 0.462365 0.348025
O O15 0.500000 0.500000 0.000000
O O16 0.213294 0.258285 0.052805
O O17 0.517395 0.420519 0.608402
#
# Coordination Sequence:
#
# PCOD9021571 Si02
#       8
#     2   2   2   2   2   2   2   2
#     4  12  22  36  66  91 118 158 207 250 301 364
#     4   9  19  43  63  86 122 157 204 263 301 340
#     4  10  22  38  63  90 119 161 200 259 305 349
#     4  11  22  40  64  88 124 165 198 251 307 360
#     4  11  22  40  60  87 134 164 194 241 305 374
#     4  11  23  41  60  91 123 156 209 252 295 362
#     4  11  21  38  62  92 124 156 201 256 301 356
#     4  11  25  38  63  92 123 170 197 238 313 366
#
# _framework density 20.182984999999999
#
# number of rings (size 3 to 8) (size 9 to 14) (size 15 to 20)
#    0.000    1.250    5.000    3.000    1.750    1.000 
#    0.000    0.000    0.000    3.750    0.000    0.000 
#    0.000    0.000    0.000    0.000    0.000    0.000 
#
# Total GULP energy -89404.213247 kJ/mol
# GULP energy per Si atom -5587.763328 kJ/mol
# Density = 2.013705 g / cm^3
# Si number density = 20.182985 Si / 1000 Ang^3
#
#
#
# Elastic Constant Matrix: (Units=GPa)
#
#
# Indices 1 2 3 4 5 6 
#
# 1 50.1264 0.5829 -10.9138 0.2947 -5.3538 11.5282
# 2 0.5829 84.8022 -0.9133 -13.8795 5.8649 3.9499
# 3 -10.9138 -0.9133 60.2553 -12.2947 4.5610 -6.9468
# 4 0.2947 -13.8795 -12.2947 18.3295 3.6020 0.1119
# 5 -5.3538 5.8649 4.5610 3.6020 12.2234 5.1472
# 6 11.5282 3.9499 -6.9468 0.1119 5.1472 17.3686
#
#
#
# Elastic Compliance Matrix: (Units=1/GPa)
#
#
# Indices 1 2 3 4 5 6 
#
# 1 0.029259 -0.002498 -0.002191 -0.009474 0.029598 -0.028439
# 2 -0.002498 0.016290 0.006156 0.020357 -0.019796 0.006151
# 3 -0.002191 0.006156 0.026662 0.028452 -0.030486 0.019569
# 4 -0.009474 0.020357 0.028452 0.102468 -0.068488 0.032675
# 5 0.029598 -0.019796 -0.030486 -0.068488 0.168138 -0.076723
# 6 -0.028439 0.006151 0.019569 0.032675 -0.076723 0.105406
#
#
# Mechanical properties :
#
#
# Convention : Reuss Voigt Hill
#
# Bulk Modulus (GPa) = 13.30743 19.18839 16.24791
# Shear Modulus (GPa) = 10.63070 23.34618 16.98844
#
# Velocity S-wave (km/s) = 2.29752 3.40476 2.90439
# Velocity P-wave (km/s) = 3.69403 4.99843 4.39489
#
# Compressibility (1/GPa) = 0.07514598
#
# Stress axis : x y z
#
# Youngs Moduli (GPa) = 34.17742 61.38728 37.50690
#
# Poissons Ratio (x) = 0.15333 0.08216
# Poissons Ratio (y) = 0.08536 -0.23089
# Poissons Ratio (z) = 0.07487 -0.37789
#
# Static dielectric constant tensor:
#      x y z
#    x 1.720810 0.010160 -0.011810 
#    y 0.010160 1.714520 -0.009510 
#    z -0.011810 -0.009510 1.725500 
# 
# From -- ./inp_files/454778.got.cif
#   From: 2010.05.17/outbox.cif.g08.bks.cpg/sg2_228_cif.got.tgz:454778.got - 2010.06.03 11:33:40.
