data_PCOD9021217
_publ_section_title
;
Structure prediction by ZEFSAII (Michael W. Deem and Ramdas Pophale) SiO2 
 PCOD9021217
Probable space group: P -1
;
_chemical_formula_sum "Si O2"
_cell_formula_units_Z 16
_cell_length_a 6.269496
_cell_length_b 13.467833
_cell_length_c 11.685756
_cell_angle_alpha 112.908435
_cell_angle_beta 85.092225
_cell_angle_gamma 63.234305
_cell_volume 769.600733
_symmetry_space_group_name_H-M "P -1"
_symmetry_group_IT_number 2
_symmetry_cell_setting 'triclinic'
loop_
_space_group_symop_operation_xyz
x,y,z
-x,-y,-z
loop_
_atom_site_type_symbol
_atom_site_label
_atom_site_fract_x
_atom_site_fract_y
_atom_site_fract_z
Si Si1 0.912879 0.361537 0.625763
Si Si2 0.156646 0.947632 0.151169
Si Si3 0.633506 0.128455 0.136372
Si Si4 0.370152 0.928732 0.524382
Si Si5 0.761115 0.838818 0.662985
Si Si6 0.575973 0.383173 0.320299
Si Si7 0.171237 0.823142 0.306679
Si Si8 0.207900 0.461901 0.571908
O O1 0.656039 0.495544 0.678089
O O2 0.001807 0.271449 0.467622
O O3 0.880420 0.283002 0.692133
O O4 0.131121 0.394622 0.639175
O O5 0.241974 0.825669 0.172941
O O6 0.189711 0.048057 0.269116
O O7 0.328328 0.912908 0.015282
O O8 0.869997 0.015811 0.146304
O O9 0.358305 0.172626 0.218694
O O10 0.660729 0.250139 0.201724
O O11 0.533962 0.865907 0.600489
O O12 0.352906 0.835861 0.393826
O O13 0.500000 0.000000 0.500000
O O14 0.089516 0.040981 0.614798
O O15 0.466735 0.384299 0.453030
O O16 0.788646 0.417817 0.329421
O O17 0.000000 0.500000 0.500000
#
# Coordination Sequence:
#
# PCOD9021217 Si02
#       8
#     2   2   2   2   2   2   2   2
#     4  11  23  33  61  98 117 151 190 255 313 361
#     4  11  25  41  59  88 120 169 204 241 290 359
#     4  11  25  42  61  82 124 166 209 244 283 361
#     4  11  20  35  58  91 122 158 185 254 310 356
#     4  12  22  36  65  93 122 149 203 250 311 356
#     4  10  22  38  58  87 122 155 200 247 307 351
#     4  11  22  37  58  91 127 152 199 242 312 366
#     4   9  20  35  56  88 117 156 192 245 308 350
#
# _framework density 20.790002000000001
#
# number of rings (size 3 to 8) (size 9 to 14) (size 15 to 20)
#    0.000    1.250    5.000    1.125    7.000    0.000 
#    0.000    0.625    0.000    0.750    0.000    0.000 
#    0.000    0.000    0.000    0.000    0.000    0.000 
#
# Total GULP energy -89270.144427 kJ/mol
# GULP energy per Si atom -5579.384027 kJ/mol
# Density = 2.074268 g / cm^3
# Si number density = 20.790002 Si / 1000 Ang^3
#
#
#
# Elastic Constant Matrix: (Units=GPa)
#
#
# Indices 1 2 3 4 5 6 
#
# 1 98.4548 33.9049 10.9461 -11.1541 2.5161 17.1913
# 2 33.9049 107.0545 25.6072 -17.3510 -0.6540 21.6780
# 3 10.9461 25.6072 52.7644 -11.7466 -5.0591 6.7472
# 4 -11.1541 -17.3510 -11.7466 30.9106 6.4523 -0.6720
# 5 2.5161 -0.6540 -5.0591 6.4523 25.1704 4.7560
# 6 17.1913 21.6780 6.7472 -0.6720 4.7560 55.9775
#
#
#
# Elastic Compliance Matrix: (Units=1/GPa)
#
#
# Indices 1 2 3 4 5 6 
#
# 1 0.011931 -0.002751 -0.000342 0.002920 -0.001631 -0.002384
# 2 -0.002751 0.012648 -0.004177 0.004605 -0.000769 -0.003429
# 3 -0.000342 -0.004177 0.022742 0.005452 0.003333 -0.001236
# 4 0.002920 0.004605 0.005452 0.039874 -0.008901 -0.002102
# 5 -0.001631 -0.000769 0.003333 -0.008901 0.043467 -0.003403
# 6 -0.002384 -0.003429 -0.001236 -0.002102 -0.003403 0.020337
#
#
# Mechanical properties :
#
#
# Convention : Reuss Voigt Hill
#
# Bulk Modulus (GPa) = 30.50581 44.35445 37.43013
# Shear Modulus (GPa) = 28.33429 34.93273 31.63351
#
# Velocity S-wave (km/s) = 3.69573 4.10355 3.90497
# Velocity P-wave (km/s) = 5.73728 6.62065 6.19473
#
# Compressibility (1/GPa) = 0.03278064
#
# Stress axis : x y z
#
# Youngs Moduli (GPa) = 83.81523 79.06693 43.97228
#
# Poissons Ratio (x) = 0.21750 0.01502
# Poissons Ratio (y) = 0.23057 0.18369
# Poissons Ratio (z) = 0.02863 0.33029
#
# Static dielectric constant tensor:
#      x y z
#    x 1.817090 0.001110 -0.018370 
#    y 0.001110 1.853840 -0.039640 
#    z -0.018370 -0.039640 1.754440 
# 
# From -- ./inp_files/367072.got.cif
#   From: 2010.05.17/outbox.cif.g08.bks.cpg/sg2_184_cif.got.tgz:367072.got - 2010.06.03 11:33:40.
