data_PCOD9021548
_publ_section_title
;
Structure prediction by ZEFSAII (Michael W. Deem and Ramdas Pophale) SiO2 
 PCOD9021548
Probable space group: P -1
;
_chemical_formula_sum "Si O2"
_cell_formula_units_Z 16
_cell_length_a 10.167299
_cell_length_b 11.317967
_cell_length_c 12.470581
_cell_angle_alpha 146.724462
_cell_angle_beta 125.743208
_cell_angle_gamma 65.496028
_cell_volume 630.255288
_symmetry_space_group_name_H-M "P -1"
_symmetry_group_IT_number 2
_symmetry_cell_setting 'triclinic'
loop_
_space_group_symop_operation_xyz
x,y,z
-x,-y,-z
loop_
_atom_site_type_symbol
_atom_site_label
_atom_site_fract_x
_atom_site_fract_y
_atom_site_fract_z
Si Si1 0.307972 0.640504 0.523093
Si Si2 0.343106 0.647317 0.154061
Si Si3 0.035918 0.945581 0.598812
Si Si4 0.497792 0.936034 0.150367
Si Si5 0.291469 0.352150 0.094634
Si Si6 0.827699 0.105461 0.905281
Si Si7 0.101604 0.364241 0.369115
Si Si8 0.328798 0.212342 0.675769
O O1 0.150052 0.760448 0.517813
O O2 0.321688 0.454588 0.302233
O O3 0.264831 0.518962 0.522458
O O4 0.455533 0.839322 0.721866
O O5 0.270769 0.552895 0.159137
O O6 0.246250 0.814115 0.176863
O O7 0.536050 0.747106 0.322377
O O8 0.329985 0.442711 0.911560
O O9 0.858166 0.864038 0.499485
O O10 0.000000 0.000000 0.500000
O O11 0.136427 0.158966 0.865291
O O12 0.311007 0.888214 0.063468
O O13 0.603498 0.935800 0.311793
O O14 0.561629 0.753570 0.969440
O O15 0.862945 0.860378 0.734242
O O16 0.987063 0.274746 0.145202
O O17 0.000000 0.500000 0.500000
#
# Coordination Sequence:
#
# PCOD9021548 Si02
#       8
#     2   2   2   2   2   2   2   2
#     4  11  24  42  64  93 128 170 214 257 316 377
#     4   9  17  36  63  91 128 164 200 252 310 376
#     4  11  19  37  58  94 133 171 206 253 303 377
#     4   9  20  41  63  94 131 161 208 261 309 377
#     4  10  22  38  63 100 134 168 200 255 322 374
#     4  10  23  44  69  94 122 166 218 258 311 380
#     4  11  27  49  66  88 122 166 218 271 317 368
#     4   9  16  33  58  91 133 169 200 244 305 373
#
# _framework density 25.386537000000001
#
# number of rings (size 3 to 8) (size 9 to 14) (size 15 to 20)
#    0.000    2.000    3.750    1.500    0.000    6.000 
#    2.250    5.000    0.000    0.000    0.000    0.000 
#    0.000    0.000    0.000    0.000    0.000    0.000 
#
# Total GULP energy -89708.678008 kJ/mol
# GULP energy per Si atom -5606.792375 kJ/mol
# Density = 2.532876 g / cm^3
# Si number density = 25.386537 Si / 1000 Ang^3
#
#
#
# Elastic Constant Matrix: (Units=GPa)
#
#
# Indices 1 2 3 4 5 6 
#
# 1 103.7167 22.2729 44.1201 5.6247 6.5051 1.5083
# 2 22.2729 83.4248 34.4048 25.0936 3.7774 -12.4102
# 3 44.1201 34.4048 102.9934 25.9983 4.9643 -2.7265
# 4 5.6247 25.0936 25.9983 34.3027 -4.9722 4.1053
# 5 6.5051 3.7774 4.9643 -4.9722 49.5344 -1.8296
# 6 1.5083 -12.4102 -2.7265 4.1053 -1.8296 30.9590
#
#
#
# Elastic Compliance Matrix: (Units=1/GPa)
#
#
# Indices 1 2 3 4 5 6 
#
# 1 0.012443 -0.002762 -0.005588 0.004479 -0.000518 -0.002830
# 2 -0.002762 0.018876 -0.001306 -0.013766 -0.001984 0.009294
# 3 -0.005588 -0.001306 0.015258 -0.010211 -0.001634 0.002350
# 4 0.004479 -0.013766 -0.010211 0.048605 0.005893 -0.012733
# 5 -0.000518 -0.001984 -0.001634 0.005893 0.021146 -0.000446
# 6 -0.002830 0.009294 0.002350 -0.012733 -0.000446 0.038033
#
#
# Mechanical properties :
#
#
# Convention : Reuss Voigt Hill
#
# Bulk Modulus (GPa) = 36.67787 54.63671 45.65729
# Shear Modulus (GPa) = 27.35816 35.58170 31.46993
#
# Velocity S-wave (km/s) = 3.28634 3.74785 3.52466
# Velocity P-wave (km/s) = 5.37393 6.34801 5.88117
#
# Compressibility (1/GPa) = 0.02726440
#
# Stress axis : x y z
#
# Youngs Moduli (GPa) = 80.36836 52.97753 65.54065
#
# Poissons Ratio (x) = 0.14634 0.36625
# Poissons Ratio (y) = 0.22200 0.08557
# Poissons Ratio (z) = 0.44910 0.06917
#
# Static dielectric constant tensor:
#      x y z
#    x 1.991410 0.016050 -0.022800 
#    y 0.016050 2.017580 -0.024560 
#    z -0.022800 -0.024560 2.022080 
# 
# From -- ./inp_files/519424.got.cif
#   From: 2010.05.17/outbox.cif.g08.bks.cpg/sg2_260_cif.got.tgz:519424.got - 2010.06.03 11:33:40.
