data_PCOD9021025
_publ_section_title
;
Structure prediction by ZEFSAII (Michael W. Deem and Ramdas Pophale) SiO2 
 PCOD9021025
Probable space group: P -1
;
_chemical_formula_sum "Si O2"
_cell_formula_units_Z 16
_cell_length_a 10.006623
_cell_length_b 11.457593
_cell_length_c 14.918455
_cell_angle_alpha 60.530194
_cell_angle_beta 108.914278
_cell_angle_gamma 55.013219
_cell_volume 642.820029
_symmetry_space_group_name_H-M "P -1"
_symmetry_group_IT_number 2
_symmetry_cell_setting 'triclinic'
loop_
_space_group_symop_operation_xyz
x,y,z
-x,-y,-z
loop_
_atom_site_type_symbol
_atom_site_label
_atom_site_fract_x
_atom_site_fract_y
_atom_site_fract_z
Si Si1 0.254324 0.536288 0.436221
Si Si2 0.027555 0.566432 0.123325
Si Si3 0.583450 0.619597 0.262909
Si Si4 0.923813 0.570256 0.296225
Si Si5 0.181387 0.941483 0.651448
Si Si6 0.897937 0.033861 0.715203
Si Si7 0.274537 0.631377 0.117072
Si Si8 0.508155 0.919425 0.744419
O O1 0.389774 0.396474 0.618065
O O2 0.964084 0.687306 0.295928
O O3 0.555731 0.260428 0.543067
O O4 0.160516 0.770318 0.327683
O O5 0.984383 0.524075 0.221501
O O6 0.101281 0.660773 0.122062
O O7 0.300833 0.273579 0.231949
O O8 0.728254 0.805574 0.905302
O O9 0.319129 0.739729 0.129246
O O10 0.622431 0.735750 0.188849
O O11 0.896570 0.274766 0.433411
O O12 0.209903 0.258422 0.527851
O O13 0.385176 0.712961 0.702024
O O14 0.399081 0.866730 0.776959
O O15 0.069277 0.921890 0.702368
O O16 0.103010 0.783890 0.926212
#
# Coordination Sequence:
#
# PCOD9021025 Si02
#       8
#     2   2   2   2   2   2   2   2
#     4  10  23  43  61  86 126 169 214 250 309 369
#     4  10  22  37  64  95 126 161 207 257 310 382
#     4  10  23  41  63  91 127 163 206 262 309 370
#     4  11  22  41  65  88 121 173 207 253 319 368
#     4   9  20  39  65  90 128 161 199 258 321 373
#     4  10  22  39  64  90 121 169 203 265 305 370
#     4  11  22  39  62  99 123 156 208 263 315 366
#     4   9  20  41  60  93 131 159 203 261 312 371
#
# _framework density 24.890325000000001
#
# number of rings (size 3 to 8) (size 9 to 14) (size 15 to 20)
#    0.000    2.000    0.000    2.250    7.000    0.500 
#    6.750    0.625    0.000    0.000    0.000    0.000 
#    0.000    0.000    0.000    0.000    0.000    0.000 
#
# Total GULP energy -89570.464928 kJ/mol
# GULP energy per Si atom -5598.154058 kJ/mol
# Density = 2.483367 g / cm^3
# Si number density = 24.890325 Si / 1000 Ang^3
#
#
#
# Elastic Constant Matrix: (Units=GPa)
#
#
# Indices 1 2 3 4 5 6 
#
# 1 153.0022 30.9720 19.7560 10.1731 30.4246 -8.6833
# 2 30.9720 63.7879 15.2511 1.8409 18.9480 -2.8536
# 3 19.7560 15.2511 60.6625 6.9203 13.0222 2.7473
# 4 10.1731 1.8409 6.9203 31.5706 4.2013 1.8048
# 5 30.4246 18.9480 13.0222 4.2013 40.3406 10.3457
# 6 -8.6833 -2.8536 2.7473 1.8048 10.3457 38.8023
#
#
#
# Elastic Compliance Matrix: (Units=1/GPa)
#
#
# Indices 1 2 3 4 5 6 
#
# 1 0.008557 -0.001951 -0.000972 -0.001842 -0.005932 0.003508
# 2 -0.001951 0.019757 -0.002914 0.000968 -0.007804 0.003259
# 3 -0.000972 -0.002914 0.018654 -0.003111 -0.003417 -0.000697
# 4 -0.001842 0.000968 -0.003111 0.033126 -0.001165 -0.001351
# 5 -0.005932 -0.007804 -0.003417 -0.001165 0.037101 -0.011497
# 6 0.003508 0.003259 -0.000697 -0.001351 -0.011497 0.029974
#
#
# Mechanical properties :
#
#
# Convention : Reuss Voigt Hill
#
# Bulk Modulus (GPa) = 28.33314 45.49007 36.91161
# Shear Modulus (GPa) = 29.30696 36.24095 32.77395
#
# Velocity S-wave (km/s) = 3.43511 3.81993 3.63262
# Velocity P-wave (km/s) = 5.20973 6.14587 5.69706
#
# Compressibility (1/GPa) = 0.03529436
#
# Stress axis : x y z
#
# Youngs Moduli (GPa) = 116.86044 50.61499 53.60822
#
# Poissons Ratio (x) = 0.09873 0.05210
# Poissons Ratio (y) = 0.22794 0.15624
# Poissons Ratio (z) = 0.11357 0.14752
#
# Static dielectric constant tensor:
#      x y z
#    x 1.996810 0.017880 0.056880 
#    y 0.017880 1.978530 -0.037860 
#    z 0.056880 -0.037860 1.970560 
# 
# From -- ./inp_files/417252.got.cif
#   From: 2010.05.17/outbox.cif.g08.bks.cpg/sg2_209_cif.got.tgz:417252.got - 2010.06.03 11:33:40.
