data_PCOD9021877
_publ_section_title
;
Structure prediction by ZEFSAII (Michael W. Deem and Ramdas Pophale) SiO2 
 PCOD9021877
Probable space group: P -1
;
_chemical_formula_sum "Si O2"
_cell_formula_units_Z 16
_cell_length_a 8.794333
_cell_length_b 8.976247
_cell_length_c 12.722912
_cell_angle_alpha 92.813900
_cell_angle_beta 80.624926
_cell_angle_gamma 131.087393
_cell_volume 744.601781
_symmetry_space_group_name_H-M "P -1"
_symmetry_group_IT_number 2
_symmetry_cell_setting 'triclinic'
loop_
_space_group_symop_operation_xyz
x,y,z
-x,-y,-z
loop_
_atom_site_type_symbol
_atom_site_label
_atom_site_fract_x
_atom_site_fract_y
_atom_site_fract_z
Si Si1 0.729204 0.692167 0.450852
Si Si2 0.245233 0.870682 0.074842
Si Si3 0.787174 0.653867 0.199039
Si Si4 0.644983 0.273049 0.108871
Si Si5 0.904065 0.258212 0.242421
Si Si6 0.418129 0.090212 0.577533
Si Si7 0.850916 0.517820 0.578120
Si Si8 0.849533 0.984930 0.093697
O O1 0.500000 0.500000 0.500000
O O2 0.772268 0.656588 0.327163
O O3 0.721977 0.868294 0.458234
O O4 0.858502 0.681030 0.521372
O O5 0.021480 0.759752 0.143394
O O6 0.425291 0.049489 0.134370
O O7 0.271445 0.721999 0.016446
O O8 0.275920 0.988108 0.968128
O O9 0.641550 0.444016 0.147225
O O10 0.738353 0.787879 0.165761
O O11 0.806128 0.315517 0.178161
O O12 0.066724 0.418879 0.311581
O O13 0.715887 0.066520 0.321158
O O14 0.983956 0.174423 0.160236
O O15 0.622546 0.307303 0.596360
O O16 0.500000 0.000000 0.500000
O O17 0.000000 0.500000 0.500000
O O18 0.000000 0.000000 0.000000
#
# Coordination Sequence:
#
# PCOD9021877 Si02
#       8
#     2   2   2   2   2   2   2   2
#     4  10  24  43  63  97 135 167 227 270 316 401
#     4   9  21  42  62  95 129 168 219 264 327 401
#     4  11  20  40  66  92 128 171 214 271 333 376
#     4  10  22  38  66  95 131 166 216 270 324 398
#     4  11  22  42  62  91 129 171 208 268 327 385
#     4  11  23  44  64  90 131 173 218 271 323 382
#     4  11  23  42  65  95 132 172 217 268 326 388
#     4   9  20  41  63  90 126 161 216 268 318 395
#
# _framework density 21.487995000000002
#
# number of rings (size 3 to 8) (size 9 to 14) (size 15 to 20)
#    0.000    1.750    2.500    1.125    1.750    3.000 
#    9.000    6.250    0.000    0.000    0.000    0.000 
#    0.000    0.000    0.000    0.000    0.000    0.000 
#
# Total GULP energy -89212.022476 kJ/mol
# GULP energy per Si atom -5575.751405 kJ/mol
# Density = 2.143909 g / cm^3
# Si number density = 21.487995 Si / 1000 Ang^3
#
#
#
# Elastic Constant Matrix: (Units=GPa)
#
#
# Indices 1 2 3 4 5 6 
#
# 1 68.5579 24.8159 18.3634 17.2388 -2.1682 -3.4558
# 2 24.8159 100.2649 24.5844 23.6702 10.8312 1.0351
# 3 18.3634 24.5844 78.1745 22.6500 0.3958 5.1012
# 4 17.2388 23.6702 22.6500 41.6623 4.4205 -8.3968
# 5 -2.1682 10.8312 0.3958 4.4205 36.4169 0.1335
# 6 -3.4558 1.0351 5.1012 -8.3968 0.1335 36.8806
#
#
#
# Elastic Compliance Matrix: (Units=1/GPa)
#
#
# Indices 1 2 3 4 5 6 
#
# 1 0.017473 -0.003072 -0.001901 -0.004528 0.002521 0.000946
# 2 -0.003072 0.012703 -0.001718 -0.004966 -0.003334 -0.001525
# 3 -0.001901 -0.001718 0.016411 -0.008148 0.001224 -0.004259
# 4 -0.004528 -0.004966 -0.008148 0.035235 -0.003014 0.008875
# 5 0.002521 -0.003334 0.001224 -0.003014 0.028956 -0.000630
# 6 0.000946 -0.001525 -0.004259 0.008875 -0.000630 0.029858
#
#
# Mechanical properties :
#
#
# Convention : Reuss Voigt Hill
#
# Bulk Modulus (GPa) = 30.11522 42.50275 36.30898
# Shear Modulus (GPa) = 30.28682 34.94087 32.61385
#
# Velocity S-wave (km/s) = 3.75837 4.03682 3.90008
# Velocity P-wave (km/s) = 5.73403 6.44598 6.10040
#
# Compressibility (1/GPa) = 0.03320580
#
# Stress axis : x y z
#
# Youngs Moduli (GPa) = 57.23032 78.71928 60.93393
#
# Poissons Ratio (x) = 0.24180 0.11584
# Poissons Ratio (y) = 0.17579 0.10470
# Poissons Ratio (z) = 0.10880 0.13526
#
# Static dielectric constant tensor:
#      x y z
#    x 1.844350 -0.064440 0.041220 
#    y -0.064440 1.858310 0.074970 
#    z 0.041220 0.074970 2.059650 
# 
# From -- ./inp_files/382352.got.cif
#   From: 2010.05.17/outbox.cif.g08.bks.cpg/sg2_192_cif.got.tgz:382352.got - 2010.06.03 11:33:40.
