data_PCOD9021425
_publ_section_title
;
Structure prediction by ZEFSAII (Michael W. Deem and Ramdas Pophale) SiO2 
 PCOD9021425
Probable space group: P -1
;
_chemical_formula_sum "Si O2"
_cell_formula_units_Z 16
_cell_length_a 5.228168
_cell_length_b 20.509961
_cell_length_c 5.438269
_cell_angle_alpha 90.411189
_cell_angle_beta 86.532875
_cell_angle_gamma 91.342076
_cell_volume 581.906266
_symmetry_space_group_name_H-M "P -1"
_symmetry_group_IT_number 2
_symmetry_cell_setting 'triclinic'
loop_
_space_group_symop_operation_xyz
x,y,z
-x,-y,-z
loop_
_atom_site_type_symbol
_atom_site_label
_atom_site_fract_x
_atom_site_fract_y
_atom_site_fract_z
Si Si1 0.581344 0.908352 0.542026
Si Si2 0.750912 0.414640 0.898470
Si Si3 0.759812 0.155255 0.830241
Si Si4 0.932565 0.054897 0.201641
Si Si5 0.158462 0.213338 0.452963
Si Si6 0.111331 0.335930 0.232463
Si Si7 0.508475 0.289480 0.822002
Si Si8 0.671805 0.539271 0.683617
O O1 0.479277 0.887475 0.273734
O O2 0.629641 0.836419 0.663619
O O3 0.843445 0.944341 0.609094
O O4 0.352048 0.948798 0.671465
O O5 0.645621 0.356572 0.726526
O O6 0.850301 0.481792 0.772794
O O7 0.516809 0.436923 0.087557
O O8 0.948665 0.376227 0.050358
O O9 0.685370 0.229616 0.875602
O O10 0.903734 0.121329 0.044086
O O11 0.965499 0.164124 0.600463
O O12 0.000000 0.000000 0.000000
O O13 0.993152 0.267669 0.328331
O O14 0.312373 0.259670 0.635631
O O15 0.190534 0.394407 0.414710
O O16 0.357011 0.308279 0.076422
O O17 0.500000 0.500000 0.500000
#
# Coordination Sequence:
#
# PCOD9021425 Si02
#       8
#     2   2   2   2   2   2   2   2
#     4  11  26  48  74 110 149 189 247 294 358 429
#     4  10  22  38  61  92 124 172 228 286 346 424
#     4  11  26  46  74 104 148 186 240 298 361 428
#     4  12  28  49  77 109 148 197 241 295 360 426
#     4  11  24  42  67 104 136 184 229 297 355 420
#     4  11  23  39  65  94 132 172 230 287 356 421
#     4  10  23  40  65  96 133 178 228 288 359 423
#     4  10  22  40  59  86 129 173 223 285 350 420
#
# _framework density 27.495833999999999
#
# number of rings (size 3 to 8) (size 9 to 14) (size 15 to 20)
#    0.000    1.250    1.250    3.000    7.000    7.500 
#    0.000    0.000    0.000    0.000    0.000    0.000 
#    0.000    0.000    0.000    0.000    0.000    0.000 
#
# Total GULP energy -89537.032522 kJ/mol
# GULP energy per Si atom -5596.064533 kJ/mol
# Density = 2.743325 g / cm^3
# Si number density = 27.495834 Si / 1000 Ang^3
#
#
#
# Elastic Constant Matrix: (Units=GPa)
#
#
# Indices 1 2 3 4 5 6 
#
# 1 130.6066 60.1282 39.8593 8.6265 20.5176 -16.4883
# 2 60.1282 184.6965 46.4818 4.3870 3.9587 -35.6230
# 3 39.8593 46.4818 65.7130 12.9878 28.9246 -10.8154
# 4 8.6265 4.3870 12.9878 66.6214 -1.7583 2.9818
# 5 20.5176 3.9587 28.9246 -1.7583 55.4119 6.9182
# 6 -16.4883 -35.6230 -10.8154 2.9818 6.9182 60.8446
#
#
#
# Elastic Compliance Matrix: (Units=1/GPa)
#
#
# Indices 1 2 3 4 5 6 
#
# 1 0.010212 -0.002173 -0.003488 -0.000602 -0.001966 0.001128
# 2 -0.002173 0.007857 -0.005036 0.000688 0.002545 0.002793
# 3 -0.003488 -0.005036 0.028485 -0.005267 -0.013758 0.002992
# 4 -0.000602 0.000688 -0.005267 0.016252 0.003677 -0.001911
# 5 -0.001966 0.002545 -0.013758 0.003677 0.026475 -0.004679
# 6 0.001128 0.002793 0.002992 -0.001911 -0.004679 0.019534
#
#
# Mechanical properties :
#
#
# Convention : Reuss Voigt Hill
#
# Bulk Modulus (GPa) = 39.74456 74.88385 57.31420
# Shear Modulus (GPa) = 36.07622 52.21202 44.14412
#
# Velocity S-wave (km/s) = 3.62617 4.36237 4.01120
# Velocity P-wave (km/s) = 5.65847 7.25723 6.50714
#
# Compressibility (1/GPa) = 0.02516068
#
# Stress axis : x y z
#
# Youngs Moduli (GPa) = 97.92156 127.27713 35.10631
#
# Poissons Ratio (x) = 0.27655 0.12244
# Poissons Ratio (y) = 0.21277 0.17680
# Poissons Ratio (z) = 0.34152 0.64099
#
# Static dielectric constant tensor:
#      x y z
#    x 2.228240 0.104900 -0.030380 
#    y 0.104900 2.213280 -0.088610 
#    z -0.030380 -0.088610 2.226720 
# 
# From -- ./inp_files/11385.got.cif
#   From: 2010.05.17/outbox.cif.g08.bks.cpg/sg2_6_cif.got.tgz:11385.got - 2010.06.03 11:33:40.
