data_PCOD9021189
_publ_section_title
;
Structure prediction by ZEFSAII (Michael W. Deem and Ramdas Pophale) SiO2 
 PCOD9021189
Probable space group: P -1
;
_chemical_formula_sum "Si O2"
_cell_formula_units_Z 16
_cell_length_a 6.971872
_cell_length_b 15.431986
_cell_length_c 24.923723
_cell_angle_alpha 161.250057
_cell_angle_beta 110.457042
_cell_angle_gamma 70.868404
_cell_volume 807.544572
_symmetry_space_group_name_H-M "P -1"
_symmetry_group_IT_number 2
_symmetry_cell_setting 'triclinic'
loop_
_space_group_symop_operation_xyz
x,y,z
-x,-y,-z
loop_
_atom_site_type_symbol
_atom_site_label
_atom_site_fract_x
_atom_site_fract_y
_atom_site_fract_z
Si Si1 0.678770 0.229756 0.087232
Si Si2 0.857566 0.900888 0.822371
Si Si3 0.211052 0.458087 0.966685
Si Si4 0.687416 0.172675 0.182286
Si Si5 0.565583 0.113516 0.828858
Si Si6 0.290640 0.151954 0.580137
Si Si7 0.860261 0.970746 0.387202
Si Si8 0.384489 0.602757 0.452804
O O1 0.707841 0.207557 0.140694
O O2 0.682371 0.536489 0.249475
O O3 0.846817 0.067912 0.974685
O O4 0.461496 0.079520 0.967298
O O5 0.762503 0.607830 0.654347
O O6 0.082003 0.872802 0.803020
O O7 0.709393 0.061031 0.862155
O O8 0.375851 0.312910 0.935843
O O9 0.177644 0.259203 0.795909
O O10 0.306364 0.736857 0.117731
O O11 0.000000 0.500000 0.000000
O O12 0.568832 0.429646 0.344511
O O13 0.476264 0.829222 0.633536
O O14 0.099554 0.032926 0.457378
O O15 0.500000 0.000000 0.500000
O O16 0.232593 0.118255 0.617144
O O17 0.745755 0.237779 0.511166
#
# Coordination Sequence:
#
# PCOD9021189 Si02
#       8
#     2   2   2   2   2   2   2   2
#     4  10  22  38  57  86 120 152 193 238 288 347
#     4  11  22  38  61  86 118 152 190 244 291 339
#     4  10  23  42  63  84 119 162 193 239 299 348
#     4  10  22  38  60  86 116 157 194 232 292 356
#     4  10  23  40  60  90 117 147 201 246 284 350
#     4  11  23  38  63  90 119 156 195 245 296 346
#     4  10  23  40  59  89 120 153 201 244 289 354
#     4  10  22  40  59  84 119 154 193 241 291 343
#
# _framework density 19.81315
#
# number of rings (size 3 to 8) (size 9 to 14) (size 15 to 20)
#    0.000    1.750    0.000    3.000    0.000   14.500 
#    0.000    0.000    0.000    0.000    0.000    0.000 
#    0.000    0.000    0.000    0.000    0.000    0.000 
#
# Total GULP energy -89434.083841 kJ/mol
# GULP energy per Si atom -5589.630240 kJ/mol
# Density = 1.976805 g / cm^3
# Si number density = 19.813150 Si / 1000 Ang^3
#
#
#
# Elastic Constant Matrix: (Units=GPa)
#
#
# Indices 1 2 3 4 5 6 
#
# 1 118.3922 23.1633 11.7681 13.9859 -10.2896 -14.9397
# 2 23.1633 73.2367 1.2012 12.4749 5.0346 -20.4924
# 3 11.7681 1.2012 60.6163 22.6163 9.1980 2.4462
# 4 13.9859 12.4749 22.6163 26.4681 10.9358 4.8714
# 5 -10.2896 5.0346 9.1980 10.9358 9.5626 1.5854
# 6 -14.9397 -20.4924 2.4462 4.8714 1.5854 21.7305
#
#
#
# Elastic Compliance Matrix: (Units=1/GPa)
#
#
# Indices 1 2 3 4 5 6 
#
# 1 0.023865 0.003110 0.002145 -0.052905 0.078295 0.025247
# 2 0.003110 0.025898 0.007316 -0.031506 0.013430 0.031820
# 3 0.002145 0.007316 0.026440 -0.033050 0.008804 0.012164
# 4 -0.052905 -0.031506 -0.033050 0.233994 -0.260256 -0.095831
# 5 0.078295 0.013430 0.008804 -0.260256 0.455892 0.090584
# 6 0.025247 0.031820 0.012164 -0.095831 0.090584 0.106887
#
#
# Mechanical properties :
#
#
# Convention : Reuss Voigt Hill
#
# Bulk Modulus (GPa) = 9.86721 36.05672 22.96197
# Shear Modulus (GPa) = 5.67141 25.95975 15.81558
#
# Velocity S-wave (km/s) = 1.69371 3.62363 2.82837
# Velocity P-wave (km/s) = 2.96914 5.97876 4.72024
#
# Compressibility (1/GPa) = 0.10134581
#
# Stress axis : x y z
#
# Youngs Moduli (GPa) = 41.90228 38.61358 37.82100
#
# Poissons Ratio (x) = -0.12010 -0.08112
# Poissons Ratio (y) = -0.13033 -0.27670
# Poissons Ratio (z) = -0.08988 -0.28250
#
# Static dielectric constant tensor:
#      x y z
#    x 1.688360 -0.020710 0.009370 
#    y -0.020710 1.693160 -0.016360 
#    z 0.009370 -0.016360 1.676220 
# 
# From -- ./inp_files/66228.got.cif
#   From: 2010.05.17/outbox.cif.g08.bks.cpg/sg2_34_cif.got.tgz:66228.got - 2010.06.03 11:33:40.
