data_PCOD9021243
_publ_section_title
;
Structure prediction by ZEFSAII (Michael W. Deem and Ramdas Pophale) SiO2 
 PCOD9021243
Probable space group: P -1
;
_chemical_formula_sum "Si O2"
_cell_formula_units_Z 14
_cell_length_a 7.930887
_cell_length_b 21.282776
_cell_length_c 9.556083
_cell_angle_alpha 145.547661
_cell_angle_beta 131.736756
_cell_angle_gamma 41.222311
_cell_volume 596.828236
_symmetry_space_group_name_H-M "P -1"
_symmetry_group_IT_number 2
_symmetry_cell_setting 'triclinic'
loop_
_space_group_symop_operation_xyz
x,y,z
-x,-y,-z
loop_
_atom_site_type_symbol
_atom_site_label
_atom_site_fract_x
_atom_site_fract_y
_atom_site_fract_z
Si Si1 0.671461 0.457208 0.873820
Si Si2 0.169924 0.347723 0.643253
Si Si3 0.367797 0.788973 0.574929
Si Si4 0.227798 0.572195 0.647718
Si Si5 0.789597 0.692322 0.844142
Si Si6 0.872740 0.002789 0.783459
Si Si7 0.647050 0.816044 0.283085
O O1 0.724105 0.314235 0.625899
O O2 0.510187 0.533780 0.787748
O O3 0.500000 0.500000 0.000000
O O4 0.866412 0.511171 0.105986
O O5 0.422244 0.268009 0.537846
O O6 0.241637 0.282414 0.711020
O O7 0.916640 0.358340 0.446264
O O8 0.538432 0.791026 0.802530
O O9 0.115412 0.923268 0.668750
O O10 0.227741 0.437520 0.398923
O O11 0.040000 0.656065 0.822776
O O12 0.787923 0.752509 0.100237
O O13 0.714088 0.925328 0.567132
O O14 0.655925 0.130988 0.825799
O O15 0.000000 0.000000 0.000000
#
# Coordination Sequence:
#
# PCOD9021243 Si02
#       7
#     2   2   2   2   2   2   2
#     4   9  18  34  61  92 118 154 194 227 288 371
#     4  10  22  38  58  97 121 148 194 250 292 358
#     4   9  19  39  65  83 119 161 197 234 296 352
#     4   9  19  34  57  90 126 154 184 230 299 356
#     4   9  17  36  60  86 118 158 193 232 287 366
#     4  11  24  44  62  81 115 163 204 251 295 348
#     4  11  25  39  62  89 117 153 208 246 297 341
#
# _framework density 23.457333999999999
#
# number of rings (size 3 to 8) (size 9 to 14) (size 15 to 20)
#    0.000    2.286    1.429    2.571    6.000    2.286 
#    0.000    2.143    0.000    0.000    0.000    0.000 
#    0.000    0.000    0.000    0.000    0.000    0.000 
#
# Total GULP energy -78169.144256 kJ/mol
# GULP energy per Si atom -5583.510304 kJ/mol
# Density = 2.340394 g / cm^3
# Si number density = 23.457334 Si / 1000 Ang^3
#
#
#
# Elastic Constant Matrix: (Units=GPa)
#
#
# Indices 1 2 3 4 5 6 
#
# 1 45.5749 22.4175 27.8698 -15.4968 -19.0583 -4.7509
# 2 22.4175 102.3233 37.2936 -34.6289 -24.3396 -16.7717
# 3 27.8698 37.2936 111.5908 -37.4250 -13.2768 -2.4024
# 4 -15.4968 -34.6289 -37.4250 42.3524 -2.7774 -1.2583
# 5 -19.0583 -24.3396 -13.2768 -2.7774 26.5352 -1.3578
# 6 -4.7509 -16.7717 -2.4024 -1.2583 -1.3578 37.7996
#
#
#
# Elastic Compliance Matrix: (Units=1/GPa)
#
#
# Indices 1 2 3 4 5 6 
#
# 1 0.054425 0.020763 0.002299 0.043772 0.064889 0.019987
# 2 0.020763 0.036171 0.005581 0.046508 0.056908 0.022606
# 3 0.002299 0.005581 0.015453 0.020317 0.016886 0.005030
# 4 0.043772 0.046508 0.020317 0.102975 0.096798 0.034333
# 5 0.064889 0.056908 0.016886 0.096798 0.157289 0.043351
# 6 0.019987 0.022606 0.005030 0.034333 0.043351 0.042017
#
#
# Mechanical properties :
#
#
# Convention : Reuss Voigt Hill
#
# Bulk Modulus (GPa) = 6.12236 48.29453 27.20844
# Shear Modulus (GPa) = 12.33076 32.79798 22.56437
#
# Velocity S-wave (km/s) = 2.29523 3.74330 3.10487
# Velocity P-wave (km/s) = 3.10480 6.27025 4.94752
#
# Compressibility (1/GPa) = 0.16333578
#
# Stress axis : x y z
#
# Youngs Moduli (GPa) = 18.37382 27.64620 64.71217
#
# Poissons Ratio (x) = -0.57402 -0.14877
# Poissons Ratio (y) = -0.38150 -0.36116
# Poissons Ratio (z) = -0.04224 -0.15430
#
# Static dielectric constant tensor:
#      x y z
#    x 1.926280 -0.048940 -0.019130 
#    y -0.048940 1.959690 -0.006250 
#    z -0.019130 -0.006250 1.872500 
# 
# From -- ./inp_files/180809.got.cif
#   From: 2010.05.17/outbox.cif.g08.bks.cpg/sg2_91_cif.got.tgz:180809.got - 2010.06.03 11:33:40.
