data_PCOD9021413
_publ_section_title
;
Structure prediction by ZEFSAII (Michael W. Deem and Ramdas Pophale) SiO2 
 PCOD9021413
Probable space group: P -1
;
_chemical_formula_sum "Si O2"
_cell_formula_units_Z 12
_cell_length_a 11.444825
_cell_length_b 10.171174
_cell_length_c 6.612874
_cell_angle_alpha 109.970366
_cell_angle_beta 137.014153
_cell_angle_gamma 59.885358
_cell_volume 453.586806
_symmetry_space_group_name_H-M "P -1"
_symmetry_group_IT_number 2
_symmetry_cell_setting 'triclinic'
loop_
_space_group_symop_operation_xyz
x,y,z
-x,-y,-z
loop_
_atom_site_type_symbol
_atom_site_label
_atom_site_fract_x
_atom_site_fract_y
_atom_site_fract_z
Si Si1 0.452297 0.919610 0.659894
Si Si2 0.233741 0.810950 0.016726
Si Si3 0.193437 0.116847 0.155685
Si Si4 0.509744 0.692111 0.959432
Si Si5 0.208559 0.542849 0.068433
Si Si6 0.839670 0.560647 0.629320
O O1 0.400166 0.812663 0.376358
O O2 0.632566 0.937586 0.809821
O O3 0.481129 0.842926 0.872714
O O4 0.275644 0.073030 0.464861
O O5 0.150773 0.708760 0.981384
O O6 0.106258 0.992309 0.930254
O O7 0.323619 0.732462 0.878800
O O8 0.132234 0.295279 0.155270
O O9 0.591829 0.559522 0.827668
O O10 0.677369 0.628056 0.299076
O O11 0.217582 0.527361 0.313581
O O12 0.051222 0.476877 0.773676
#
# Coordination Sequence:
#
# PCOD9021413 Si02
#       6
#     2   2   2   2   2   2
#     4   9  19  37  60  94 110 148 199 241 296 331
#     4  10  22  38  61  91 120 141 205 247 289 337
#     4   9  18  42  59  89 111 158 192 241 299 330
#     4  12  20  38  66  87 117 154 197 246 286 349
#     4  11  25  40  57  89 122 162 187 239 294 351
#     4  11  23  42  61  81 125 159 198 228 292 365
#
# _framework density 26.455795999999999
#
# number of rings (size 3 to 8) (size 9 to 14) (size 15 to 20)
#    1.000    0.667    3.333    1.000    0.000    7.333 
#    0.000    0.000    0.000    2.000    0.000    0.000 
#    0.000    0.000    0.000    0.000    0.000    0.000 
#
# Total GULP energy -66912.019997 kJ/mol
# GULP energy per Si atom -5576.001666 kJ/mol
# Density = 2.639558 g / cm^3
# Si number density = 26.455796 Si / 1000 Ang^3
#
#
#
# Elastic Constant Matrix: (Units=GPa)
#
#
# Indices 1 2 3 4 5 6 
#
# 1 121.2074 17.9061 33.4118 7.5649 -16.3782 35.9849
# 2 17.9061 88.2634 18.4602 -15.4518 -18.6156 16.4068
# 3 33.4118 18.4602 93.9740 -20.9390 -32.4969 9.9009
# 4 7.5649 -15.4518 -20.9390 41.8635 8.2716 -14.5504
# 5 -16.3782 -18.6156 -32.4969 8.2716 34.6263 -8.1197
# 6 35.9849 16.4068 9.9009 -14.5504 -8.1197 49.6152
#
#
#
# Elastic Compliance Matrix: (Units=1/GPa)
#
#
# Indices 1 2 3 4 5 6 
#
# 1 0.014061 -0.001180 -0.005612 -0.009866 0.000406 -0.011515
# 2 -0.001180 0.013713 0.000996 0.003922 0.006419 -0.001677
# 3 -0.005612 0.000996 0.019197 0.009883 0.014762 0.005224
# 4 -0.009866 0.003922 0.009883 0.036986 0.001390 0.014961
# 5 0.000406 0.006419 0.014762 0.001390 0.046674 0.002683
# 6 -0.011515 -0.001677 0.005224 0.014961 0.002683 0.032845
#
#
# Mechanical properties :
#
#
# Convention : Reuss Voigt Hill
#
# Bulk Modulus (GPa) = 28.26551 49.22234 38.74392
# Shear Modulus (GPa) = 26.75781 40.79879 33.77830
#
# Velocity S-wave (km/s) = 3.18373 3.93128 3.57709
# Velocity P-wave (km/s) = 4.92159 6.26518 5.63359
#
# Compressibility (1/GPa) = 0.03537881
#
# Stress axis : x y z
#
# Youngs Moduli (GPa) = 71.11920 72.92429 52.09037
#
# Poissons Ratio (x) = 0.08604 0.29234
# Poissons Ratio (y) = 0.08391 -0.05188
# Poissons Ratio (z) = 0.39913 -0.07262
#
# Static dielectric constant tensor:
#      x y z
#    x 2.089490 -0.081610 0.000370 
#    y -0.081610 2.230990 0.032710 
#    z 0.000370 0.032710 2.074340 
# 
# From -- ./inp_files/71541.got.cif
#   From: 2010.05.17/outbox.cif.g08.bks.cpg/sg2_36_cif.got.tgz:71541.got - 2010.06.03 11:33:40.
