data_PCOD9021938
_publ_section_title
;
Structure prediction by ZEFSAII (Michael W. Deem and Ramdas Pophale) SiO2 
 PCOD9021938
Probable space group: P -1
;
_chemical_formula_sum "Si O2"
_cell_formula_units_Z 16
_cell_length_a 12.506930
_cell_length_b 8.304986
_cell_length_c 8.504720
_cell_angle_alpha 74.040953
_cell_angle_beta 96.473174
_cell_angle_gamma 124.000137
_cell_volume 703.198659
_symmetry_space_group_name_H-M "P -1"
_symmetry_group_IT_number 2
_symmetry_cell_setting 'triclinic'
loop_
_space_group_symop_operation_xyz
x,y,z
-x,-y,-z
loop_
_atom_site_type_symbol
_atom_site_label
_atom_site_fract_x
_atom_site_fract_y
_atom_site_fract_z
Si Si1 0.455307 0.813710 0.426839
Si Si2 0.150315 0.798146 0.034750
Si Si3 0.290281 0.245166 0.068731
Si Si4 0.012308 0.233037 0.554343
Si Si5 0.830918 0.327393 0.613516
Si Si6 0.439218 0.594625 0.772578
Si Si7 0.394972 0.902103 0.870868
Si Si8 0.960079 0.847834 0.780947
O O1 0.317515 0.759234 0.356340
O O2 0.436059 0.633953 0.577484
O O3 0.500000 0.000000 0.500000
O O4 0.563251 0.907666 0.285666
O O5 0.104622 0.641318 0.212401
O O6 0.231913 0.015448 0.075712
O O7 0.251599 0.793113 0.941272
O O8 0.040850 0.792726 0.916965
O O9 0.417309 0.337238 0.172024
O O10 0.181174 0.252672 0.141870
O O11 0.337777 0.375438 0.882373
O O12 0.110493 0.470223 0.531592
O O13 0.039039 0.202541 0.388156
O O14 0.869889 0.192850 0.562274
O O15 0.022171 0.088383 0.715482
O O16 0.411530 0.743462 0.822310
O O17 0.500000 0.000000 0.000000
#
# Coordination Sequence:
#
# PCOD9021938 Si02
#       8
#     2   2   2   2   2   2   2   2
#     4  10  22  38  67  95 126 167 209 269 325 378
#     4  12  24  41  68  95 130 174 213 268 325 386
#     4  11  23  43  65  94 137 169 216 267 334 383
#     4  10  26  44  63  95 129 176 218 270 317 387
#     4  11  23  43  67  94 135 164 223 269 320 382
#     4  10  24  41  68  95 127 173 216 270 322 395
#     4  11  21  41  64  96 128 164 217 267 323 381
#     4  11  26  43  68  91 136 176 213 266 330 390
#
# _framework density 22.753173
#
# number of rings (size 3 to 8) (size 9 to 14) (size 15 to 20)
#    0.000    1.250    3.750    1.125    7.000    2.500 
#    0.000    0.625    0.000    0.000    0.000    0.000 
#    0.000    0.000    0.000    0.000    0.000    0.000 
#
# Total GULP energy -89469.633904 kJ/mol
# GULP energy per Si atom -5591.852119 kJ/mol
# Density = 2.270139 g / cm^3
# Si number density = 22.753173 Si / 1000 Ang^3
#
#
#
# Elastic Constant Matrix: (Units=GPa)
#
#
# Indices 1 2 3 4 5 6 
#
# 1 129.6907 -0.1248 42.7066 -5.6290 -7.8142 13.1828
# 2 -0.1248 26.0132 0.0205 -12.0712 1.0094 1.9407
# 3 42.7066 0.0205 131.8281 -17.9927 -3.3512 5.1205
# 4 -5.6290 -12.0712 -17.9927 25.8045 1.1125 0.2151
# 5 -7.8142 1.0094 -3.3512 1.1125 38.9341 -2.3336
# 6 13.1828 1.9407 5.1205 0.2151 -2.3336 14.8976
#
#
#
# Elastic Compliance Matrix: (Units=1/GPa)
#
#
# Indices 1 2 3 4 5 6 
#
# 1 0.009433 0.000831 -0.002657 0.000604 0.001184 -0.007365
# 2 0.000831 0.051881 0.003755 0.027244 -0.002204 -0.009523
# 3 -0.002657 0.003755 0.009578 0.007874 -0.000125 -0.001563
# 4 0.000604 0.027244 0.007874 0.057272 -0.002019 -0.007933
# 5 0.001184 -0.002204 -0.000125 -0.002019 0.026231 0.003420
# 6 -0.007365 -0.009523 -0.001563 -0.007933 0.003420 0.076070
#
#
# Mechanical properties :
#
#
# Convention : Reuss Voigt Hill
#
# Bulk Modulus (GPa) = 13.37804 41.41519 27.39662
# Shear Modulus (GPa) = 19.87877 32.25589 26.06733
#
# Velocity S-wave (km/s) = 2.95900 3.76925 3.38843
# Velocity P-wave (km/s) = 4.19126 6.09790 5.23216
#
# Compressibility (1/GPa) = 0.07474935
#
# Stress axis : x y z
#
# Youngs Moduli (GPa) = 106.01413 19.27483 104.40484
#
# Poissons Ratio (x) = -0.01602 0.27744
# Poissons Ratio (y) = -0.08811 -0.39203
# Poissons Ratio (z) = 0.28171 -0.07238
#
# Static dielectric constant tensor:
#      x y z
#    x 1.806950 -0.026330 -0.005820 
#    y -0.026330 1.867330 -0.031560 
#    z -0.005820 -0.031560 1.882750 
# 
# From -- ./inp_files/242597.got.cif
#   From: 2010.05.17/outbox.cif.g08.bks.cpg/sg2_122_cif.got.tgz:242597.got - 2010.06.03 11:33:40.
