data_PCOD9021444
_publ_section_title
;
Structure prediction by ZEFSAII (Michael W. Deem and Ramdas Pophale) SiO2 
 PCOD9021444
Probable space group: P -1
;
_chemical_formula_sum "Si O2"
_cell_formula_units_Z 16
_cell_length_a 18.915916
_cell_length_b 8.323459
_cell_length_c 11.753493
_cell_angle_alpha 140.672035
_cell_angle_beta 43.435414
_cell_angle_gamma 109.818206
_cell_volume 693.109734
_symmetry_space_group_name_H-M "P -1"
_symmetry_group_IT_number 2
_symmetry_cell_setting 'triclinic'
loop_
_space_group_symop_operation_xyz
x,y,z
-x,-y,-z
loop_
_atom_site_type_symbol
_atom_site_label
_atom_site_fract_x
_atom_site_fract_y
_atom_site_fract_z
Si Si1 0.080916 0.515860 0.100991
Si Si2 0.360048 0.229656 0.326200
Si Si3 0.666711 0.410831 0.651494
Si Si4 0.360140 0.696161 0.751895
Si Si5 0.668541 0.847489 0.274382
Si Si6 0.793631 0.003091 0.495735
Si Si7 0.442254 0.102721 0.794760
Si Si8 0.853182 0.029312 0.684628
O O1 0.094947 0.796183 0.211677
O O2 0.192193 0.335278 0.958807
O O3 0.109065 0.302613 0.845247
O O4 0.946108 0.678752 0.395339
O O5 0.297106 0.418731 0.388216
O O6 0.336684 0.493072 0.583981
O O7 0.303199 0.059401 0.363161
O O8 0.500000 0.000000 0.000000
O O9 0.637913 0.187867 0.495738
O O10 0.748236 0.224118 0.561837
O O11 0.558899 0.679551 0.991299
O O12 0.500000 0.500000 0.500000
O O13 0.354871 0.982824 0.861402
O O14 0.277580 0.824173 0.028707
O O15 0.616575 0.754232 0.179121
O O16 0.581076 0.858113 0.482041
O O17 0.843293 0.089522 0.593775
#
# Coordination Sequence:
#
# PCOD9021444 Si02
#       8
#     2   2   2   2   2   2   2   2
#     4  10  22  40  67  96 132 179 231 274 336 408
#     4  12  26  42  65 102 141 179 223 278 344 410
#     4  11  24  40  65  98 136 178 221 273 339 401
#     4  12  24  42  64  98 140 173 223 287 340 402
#     4  10  22  38  61  95 134 174 225 270 336 407
#     4  11  24  43  70  97 139 178 228 278 340 402
#     4  11  22  38  64  94 136 176 216 276 341 399
#     4  11  22  42  67  98 131 179 229 279 340 401
#
# _framework density 23.084367
#
# number of rings (size 3 to 8) (size 9 to 14) (size 15 to 20)
#    0.000    1.000    2.500    4.500    7.000    1.000 
#    0.000    0.625    0.000   11.250    0.000    0.000 
#    0.000    0.000    0.000    0.000    0.000    0.000 
#
# Total GULP energy -89159.966091 kJ/mol
# GULP energy per Si atom -5572.497881 kJ/mol
# Density = 2.303183 g / cm^3
# Si number density = 23.084367 Si / 1000 Ang^3
#
#
#
# Elastic Constant Matrix: (Units=GPa)
#
#
# Indices 1 2 3 4 5 6 
#
# 1 101.0550 34.0304 44.3860 -2.6731 4.3744 -20.1339
# 2 34.0304 64.8785 26.7613 5.2688 -2.5341 -20.3859
# 3 44.3860 26.7613 179.3809 -0.0802 9.4311 -14.1662
# 4 -2.6731 5.2688 -0.0802 19.4398 2.5970 5.1218
# 5 4.3744 -2.5341 9.4311 2.5970 42.7451 5.8705
# 6 -20.1339 -20.3859 -14.1662 5.1218 5.8705 35.1522
#
#
#
# Elastic Compliance Matrix: (Units=1/GPa)
#
#
# Indices 1 2 3 4 5 6 
#
# 1 0.013527 -0.005311 -0.002159 0.002558 -0.001892 0.003741
# 2 -0.005311 0.023095 -0.001330 -0.010085 0.001299 0.011068
# 3 -0.002159 -0.001330 0.006445 0.000062 -0.001395 0.000813
# 4 0.002558 -0.010085 0.000062 0.058149 -0.002706 -0.012379
# 5 -0.001892 0.001299 -0.001395 -0.002706 0.024774 -0.004636
# 6 0.003741 0.011068 0.000813 -0.012379 -0.004636 0.039915
#
#
# Mechanical properties :
#
#
# Convention : Reuss Voigt Hill
#
# Bulk Modulus (GPa) = 39.26511 61.74109 50.50310
# Shear Modulus (GPa) = 26.04235 35.47653 30.75944
#
# Velocity S-wave (km/s) = 3.36242 3.92448 3.65427
# Velocity P-wave (km/s) = 5.66752 6.88036 6.30318
#
# Compressibility (1/GPa) = 0.02546790
#
# Stress axis : x y z
#
# Youngs Moduli (GPa) = 73.92503 43.29872 155.16001
#
# Poissons Ratio (x) = 0.22996 0.33495
# Poissons Ratio (y) = 0.39261 0.20638
# Poissons Ratio (z) = 0.15959 0.05759
#
# Static dielectric constant tensor:
#      x y z
#    x 1.953240 0.073720 -0.032760 
#    y 0.073720 2.150030 0.010420 
#    z -0.032760 0.010420 1.953080 
# 
# From -- ./inp_files/397249.got.cif
#   From: 2010.05.17/outbox.cif.g08.bks.cpg/sg2_199_cif.got.tgz:397249.got - 2010.06.03 11:33:40.
