data_PCOD9021687
_publ_section_title
;
Structure prediction by ZEFSAII (Michael W. Deem and Ramdas Pophale) SiO2 
 PCOD9021687
Probable space group: P -1
;
_chemical_formula_sum "Si O2"
_cell_formula_units_Z 16
_cell_length_a 15.910825
_cell_length_b 11.522296
_cell_length_c 8.791621
_cell_angle_alpha 32.473975
_cell_angle_beta 125.547471
_cell_angle_gamma 124.442330
_cell_volume 693.619529
_symmetry_space_group_name_H-M "P -1"
_symmetry_group_IT_number 2
_symmetry_cell_setting 'triclinic'
loop_
_space_group_symop_operation_xyz
x,y,z
-x,-y,-z
loop_
_atom_site_type_symbol
_atom_site_label
_atom_site_fract_x
_atom_site_fract_y
_atom_site_fract_z
Si Si1 0.728973 0.879066 0.984828
Si Si2 0.901270 0.776415 0.089625
Si Si3 0.856158 0.900453 0.588797
Si Si4 0.670068 0.628084 0.511057
Si Si5 0.127478 0.694492 0.355147
Si Si6 0.525752 0.232938 0.690828
Si Si7 0.942385 0.303553 0.054492
Si Si8 0.471023 0.229763 0.290736
O O1 0.839971 0.803277 0.150842
O O2 0.682208 0.780286 0.203938
O O3 0.649832 0.801405 0.852226
O O4 0.764287 0.139570 0.725439
O O5 0.868552 0.516614 0.305815
O O6 0.027920 0.800150 0.195883
O O7 0.854078 0.907887 0.760843
O O8 0.770608 0.716992 0.621193
O O9 0.967995 0.830149 0.755782
O O10 0.859457 0.133984 0.252009
O O11 0.636917 0.378700 0.693059
O O12 0.570826 0.654016 0.480661
O O13 0.101269 0.625555 0.228958
O O14 0.512355 0.206273 0.528276
O O15 0.500000 0.000000 0.000000
O O16 0.000000 0.500000 0.000000
O O17 0.500000 0.000000 0.500000
O O18 0.500000 0.500000 0.000000
#
# Coordination Sequence:
#
# PCOD9021687 Si02
#       8
#     2   2   2   2   2   2   2   2
#     4  12  24  43  75  99 139 191 239 299 368 442
#     4  10  24  40  67 101 143 178 238 294 361 428
#     4  10  22  42  61  96 133 176 227 284 345 428
#     4  11  24  43  71 103 137 186 243 296 365 435
#     4  10  23  42  64 102 138 184 236 294 358 436
#     4  11  26  47  72 104 145 184 241 309 370 437
#     4  10  22  38  64  92 134 175 223 280 349 417
#     4  12  28  50  78 112 152 193 248 312 375 443
#
# _framework density 23.067402000000001
#
# number of rings (size 3 to 8) (size 9 to 14) (size 15 to 20)
#    0.000    1.250    2.500    1.875    5.250    6.000 
#    0.000    0.000    0.000    0.000    0.000    0.000 
#    0.000    0.000    0.000    0.000    0.000    0.000 
#
# Total GULP energy -89206.411123 kJ/mol
# GULP energy per Si atom -5575.400695 kJ/mol
# Density = 2.301490 g / cm^3
# Si number density = 23.067402 Si / 1000 Ang^3
#
#
#
# Elastic Constant Matrix: (Units=GPa)
#
#
# Indices 1 2 3 4 5 6 
#
# 1 63.8073 25.0348 9.5118 -9.0851 -10.7523 -3.6562
# 2 25.0348 169.6569 39.5719 -5.0389 -27.1042 20.2082
# 3 9.5118 39.5719 88.8086 -8.3472 -15.5234 6.6357
# 4 -9.0851 -5.0389 -8.3472 32.3887 2.6713 -7.9228
# 5 -10.7523 -27.1042 -15.5234 2.6713 24.1464 -5.9689
# 6 -3.6562 20.2082 6.6357 -7.9228 -5.9689 44.5778
#
#
#
# Elastic Compliance Matrix: (Units=1/GPa)
#
#
# Indices 1 2 3 4 5 6 
#
# 1 0.018585 -0.002112 0.000288 0.005468 0.006545 0.004287
# 2 -0.002112 0.007984 -0.002165 -0.001106 0.006046 -0.002857
# 3 0.000288 -0.002165 0.013508 0.002795 0.006151 0.000315
# 4 0.005468 -0.001106 0.002795 0.034547 0.000846 0.006787
# 5 0.006545 0.006046 0.006151 0.000846 0.056098 0.004542
# 6 0.004287 -0.002857 0.000315 0.006787 0.004542 0.025847
#
#
# Mechanical properties :
#
#
# Convention : Reuss Voigt Hill
#
# Bulk Modulus (GPa) = 31.15313 52.27888 41.71600
# Shear Modulus (GPa) = 28.53079 36.76620 32.64849
#
# Velocity S-wave (km/s) = 3.52070 3.99665 3.76620
# Velocity P-wave (km/s) = 5.48285 6.63403 6.08572
#
# Compressibility (1/GPa) = 0.03209950
#
# Stress axis : x y z
#
# Youngs Moduli (GPa) = 53.80664 125.24512 74.02801
#
# Poissons Ratio (x) = 0.26456 -0.02134
# Poissons Ratio (y) = 0.11366 0.16028
# Poissons Ratio (z) = -0.01551 0.27117
#
# Static dielectric constant tensor:
#      x y z
#    x 1.932920 -0.054000 0.024310 
#    y -0.054000 1.928560 -0.088210 
#    z 0.024310 -0.088210 1.940480 
# 
# From -- ./inp_files/332659.got.cif
#   From: 2010.05.17/outbox.cif.g08.bks.cpg/sg2_167_cif.got.tgz:332659.got - 2010.06.03 11:33:40.
