data_PCOD9021686
_publ_section_title
;
Structure prediction by ZEFSAII (Michael W. Deem and Ramdas Pophale) SiO2 
 PCOD9021686
Probable space group: P -1
;
_chemical_formula_sum "Si O2"
_cell_formula_units_Z 15
_cell_length_a 11.240235
_cell_length_b 5.041905
_cell_length_c 24.058062
_cell_angle_alpha 118.235769
_cell_angle_beta 28.843141
_cell_angle_gamma 114.304268
_cell_volume 579.455897
_symmetry_space_group_name_H-M "P -1"
_symmetry_group_IT_number 2
_symmetry_cell_setting 'triclinic'
loop_
_space_group_symop_operation_xyz
x,y,z
-x,-y,-z
loop_
_atom_site_type_symbol
_atom_site_label
_atom_site_fract_x
_atom_site_fract_y
_atom_site_fract_z
Si Si1 0.265816 0.629655 0.497585
Si Si2 0.500000 0.000000 0.500000
Si Si3 0.893376 0.486394 0.332774
Si Si4 0.892355 0.604670 0.975445
Si Si5 0.185065 0.998404 0.320522
Si Si6 0.420075 0.985487 0.344478
Si Si7 0.597193 0.411463 0.177475
Si Si8 0.983289 0.085626 0.151182
O O1 0.226990 0.724381 0.589679
O O2 0.286967 0.274031 0.455376
O O3 0.043940 0.767100 0.567650
O O4 0.501740 0.839043 0.417208
O O5 0.308356 0.279359 0.583155
O O6 0.989324 0.281849 0.223595
O O7 0.102598 0.684284 0.296710
O O8 0.146580 0.699849 0.911840
O O9 0.855351 0.781168 0.951599
O O10 0.937758 0.256945 0.906329
O O11 0.682207 0.602842 0.108255
O O12 0.275484 0.978053 0.344333
O O13 0.408273 0.156905 0.212994
O O14 0.704023 0.087980 0.241726
O O15 0.455327 0.623650 0.301923
#
# Coordination Sequence:
#
# PCOD9021686 Si02
#       8
#     2   1   2   2   2   2   2   2
#     4  11  24  41  64 100 136 183 222 278 338 420
#     4  10  22  38  64  92 134 174 228 272 336 396
#     4  11  25  41  66  95 143 178 227 279 342 411
#     4  10  24  43  74 104 133 176 237 295 342 402
#     4  11  24  42  63  96 142 179 220 283 344 413
#     4  11  23  40  69  97 136 177 230 280 343 410
#     4  10  23  42  69  98 137 171 229 290 350 398
#     4  11  24  43  73 105 133 179 236 286 344 406
#
# _framework density 25.886353
#
# number of rings (size 3 to 8) (size 9 to 14) (size 15 to 20)
#    0.000    1.333    2.667    1.600    5.600    6.933 
#    0.000    1.333    0.000    0.000    0.000    0.000 
#    0.000    0.000    0.000    0.000    0.000    0.000 
#
# Total GULP energy -83855.556288 kJ/mol
# GULP energy per Si atom -5590.370419 kJ/mol
# Density = 2.582743 g / cm^3
# Si number density = 25.886353 Si / 1000 Ang^3
#
#
#
# Elastic Constant Matrix: (Units=GPa)
#
#
# Indices 1 2 3 4 5 6 
#
# 1 64.9240 32.8252 32.9870 19.3807 4.6526 33.8097
# 2 32.8252 153.3132 55.6129 7.9061 5.2406 26.4096
# 3 32.9870 55.6129 96.5834 29.5574 10.1023 20.8141
# 4 19.3807 7.9061 29.5574 47.8080 2.8074 -3.0562
# 5 4.6526 5.2406 10.1023 2.8074 44.0934 11.5548
# 6 33.8097 26.4096 20.8141 -3.0562 11.5548 53.9986
#
#
#
# Elastic Compliance Matrix: (Units=1/GPa)
#
#
# Indices 1 2 3 4 5 6 
#
# 1 0.030661 -0.002171 -0.001685 -0.012419 0.003142 -0.018861
# 2 -0.002171 0.008792 -0.004860 0.002341 0.000417 -0.001024
# 3 -0.001685 -0.004860 0.017573 -0.009499 -0.001747 -0.003505
# 4 -0.012419 0.002341 -0.009499 0.032368 -0.002150 0.012584
# 5 0.003142 0.000417 -0.001747 -0.002150 0.024641 -0.006892
# 6 -0.018861 -0.001024 -0.003505 0.012584 -0.006892 0.034367
#
#
# Mechanical properties :
#
#
# Convention : Reuss Voigt Hill
#
# Bulk Modulus (GPa) = 25.25752 61.96341 43.61047
# Shear Modulus (GPa) = 27.92786 42.07303 35.00044
#
# Velocity S-wave (km/s) = 3.28817 4.03587 3.68105
# Velocity P-wave (km/s) = 4.91877 6.76065 5.91188
#
# Compressibility (1/GPa) = 0.03959216
#
# Stress axis : x y z
#
# Youngs Moduli (GPa) = 32.61507 113.74155 56.90554
#
# Poissons Ratio (x) = 0.24698 0.09589
# Poissons Ratio (y) = 0.07082 0.27658
# Poissons Ratio (z) = 0.05496 0.55281
#
# Static dielectric constant tensor:
#      x y z
#    x 2.079650 0.024310 0.069080 
#    y 0.024310 2.157380 -0.052800 
#    z 0.069080 -0.052800 2.083620 
# 
# From -- ./inp_files/65533.got.cif
#   From: 2010.05.17/outbox.cif.g08.bks.cpg/sg2_33_cif.got.tgz:65533.got - 2010.06.03 11:33:40.
