data_PCOD9021456
_publ_section_title
;
Structure prediction by ZEFSAII (Michael W. Deem and Ramdas Pophale) SiO2 
 PCOD9021456
Probable space group: P -1
;
_chemical_formula_sum "Si O2"
_cell_formula_units_Z 13
_cell_length_a 9.310948
_cell_length_b 5.070763
_cell_length_c 11.476099
_cell_angle_alpha 105.418878
_cell_angle_beta 111.112920
_cell_angle_gamma 68.693143
_cell_volume 465.192671
_symmetry_space_group_name_H-M "P -1"
_symmetry_group_IT_number 2
_symmetry_cell_setting 'triclinic'
loop_
_space_group_symop_operation_xyz
x,y,z
-x,-y,-z
loop_
_atom_site_type_symbol
_atom_site_label
_atom_site_fract_x
_atom_site_fract_y
_atom_site_fract_z
Si Si1 0.504707 0.340305 0.604780
Si Si2 0.014516 0.811308 0.288528
Si Si3 0.721086 0.727943 0.296705
Si Si4 0.600848 0.811557 0.833163
Si Si5 0.000000 0.500000 0.000000
Si Si6 0.789828 0.795190 0.677617
Si Si7 0.687232 0.508745 0.035252
O O1 0.500000 0.500000 0.500000
O O2 0.328303 0.356475 0.603466
O O3 0.572928 0.517974 0.743098
O O4 0.624079 0.016971 0.607426
O O5 0.978940 0.691772 0.138233
O O6 0.075251 0.082535 0.319621
O O7 0.864467 0.861407 0.337375
O O8 0.154578 0.546408 0.353717
O O9 0.750743 0.477296 0.181561
O O10 0.557769 0.951551 0.226006
O O11 0.756724 0.838236 0.812834
O O12 0.641835 0.799521 0.977976
O O13 0.848809 0.365232 0.987759
O O14 0.500000 0.500000 0.000000
#
# Coordination Sequence:
#
# PCOD9021456 Si02
#       7
#     2   2   2   2   1   2   2
#     4  11  24  46  73  99 132 184 239 290 346 412
#     4  11  24  44  66 102 141 183 226 285 349 417
#     4  10  25  39  68 103 138 178 229 286 341 428
#     4  11  22  44  68 100 138 181 230 285 347 420
#     4  10  22  38  62 104 140 188 228 278 344 422
#     4  11  23  44  70  94 139 180 227 284 347 413
#     4  11  20  39  67 100 142 185 228 281 353 420
#
# _framework density 27.945411
#
# number of rings (size 3 to 8) (size 9 to 14) (size 15 to 20)
#    0.000    1.231    4.615    0.462    4.308    3.077 
#    0.000    1.538    0.000    0.000    0.000    0.000 
#    0.000    0.000    0.000    0.000    0.000    0.000 
#
# Total GULP energy -72367.495743 kJ/mol
# GULP energy per Si atom -5566.730442 kJ/mol
# Density = 2.788181 g / cm^3
# Si number density = 27.945411 Si / 1000 Ang^3
#
#
#
# Elastic Constant Matrix: (Units=GPa)
#
#
# Indices 1 2 3 4 5 6 
#
# 1 243.2304 21.7685 32.4026 -17.9457 -47.0385 19.1497
# 2 21.7685 84.1071 15.9065 -17.3250 -9.4177 -5.8530
# 3 32.4026 15.9065 101.9493 -16.0358 -35.6699 1.9709
# 4 -17.9457 -17.3250 -16.0358 40.3827 13.4814 2.0020
# 5 -47.0385 -9.4177 -35.6699 13.4814 56.8729 -12.2985
# 6 19.1497 -5.8530 1.9709 2.0020 -12.2985 45.6027
#
#
#
# Elastic Compliance Matrix: (Units=1/GPa)
#
#
# Indices 1 2 3 4 5 6 
#
# 1 0.005034 -0.000830 -0.000103 0.000734 0.003506 -0.001303
# 2 -0.000830 0.013453 -0.001059 0.004835 0.000152 0.001950
# 3 -0.000103 -0.001059 0.012992 0.002023 0.007696 0.001333
# 4 0.000734 0.004835 0.002023 0.029717 -0.004886 -0.002397
# 5 0.003506 0.000152 0.007696 -0.004886 0.027773 0.005919
# 6 -0.001303 0.001950 0.001333 -0.002397 0.005919 0.024370
#
#
# Mechanical properties :
#
#
# Convention : Reuss Voigt Hill
#
# Bulk Modulus (GPa) = 36.37098 63.27133 49.82116
# Shear Modulus (GPa) = 39.52901 52.51895 46.02398
#
# Velocity S-wave (km/s) = 3.76507 4.33984 4.06263
# Velocity P-wave (km/s) = 5.65193 6.91393 6.31454
#
# Compressibility (1/GPa) = 0.02749445
#
# Stress axis : x y z
#
# Youngs Moduli (GPa) = 198.64596 74.33038 76.96983
#
# Poissons Ratio (x) = 0.06172 0.00795
# Poissons Ratio (y) = 0.16494 0.08152
# Poissons Ratio (z) = 0.02051 0.07872
#
# Static dielectric constant tensor:
#      x y z
#    x 2.299310 -0.039960 0.107150 
#    y -0.039960 2.248310 0.035010 
#    z 0.107150 0.035010 2.248590 
# 
# From -- ./inp_files/29122.got.cif
#   From: 2010.05.17/outbox.cif.g08.bks.cpg/sg2_15_cif.got.tgz:29122.got - 2010.06.03 11:33:40.
