data_PCOD9021851
_publ_section_title
;
Structure prediction by ZEFSAII (Michael W. Deem and Ramdas Pophale) SiO2 
 PCOD9021851
Probable space group: P -1
;
_chemical_formula_sum "Si O2"
_cell_formula_units_Z 14
_cell_length_a 5.955891
_cell_length_b 11.901973
_cell_length_c 14.554653
_cell_angle_alpha 50.846198
_cell_angle_beta 59.742056
_cell_angle_gamma 47.639851
_cell_volume 585.616481
_symmetry_space_group_name_H-M "P -1"
_symmetry_group_IT_number 2
_symmetry_cell_setting 'triclinic'
loop_
_space_group_symop_operation_xyz
x,y,z
-x,-y,-z
loop_
_atom_site_type_symbol
_atom_site_label
_atom_site_fract_x
_atom_site_fract_y
_atom_site_fract_z
Si Si1 0.323123 0.845075 0.797442
Si Si2 0.360172 0.018975 0.884795
Si Si3 0.975193 0.633480 0.508246
Si Si4 0.233021 0.844387 0.331545
Si Si5 0.298761 0.811008 0.543909
Si Si6 0.074218 0.262024 0.972648
Si Si7 0.022738 0.595472 0.729121
O O1 0.669452 0.742202 0.745422
O O2 0.298152 0.961771 0.829891
O O3 0.086493 0.971936 0.703803
O O4 0.200790 0.723116 0.917201
O O5 0.086163 0.147965 0.941534
O O6 0.527425 0.123634 0.782018
O O7 0.610565 0.852995 0.975915
O O8 0.150361 0.711833 0.381170
O O9 0.619571 0.782715 0.523477
O O10 0.084670 0.558815 0.626281
O O11 0.000000 0.500000 0.500000
O O12 0.351227 0.773083 0.444376
O O13 0.222021 0.678134 0.673514
O O14 0.000000 0.000000 0.500000
O O15 0.061492 0.431882 0.857272
#
# Coordination Sequence:
#
# PCOD9021851 Si02
#       7
#     2   2   2   2   2   2   2
#     4  11  22  42  66  95 126 176 211 268 319 386
#     4  10  22  41  67  91 129 172 215 263 324 381
#     4  11  26  41  64  99 130 171 213 270 329 379
#     4  10  22  38  66  90 127 164 219 254 318 389
#     4  11  23  42  65  94 131 172 214 260 328 387
#     4  10  24  41  62  96 130 167 220 265 314 388
#     4  11  25  40  66  96 134 164 220 268 318 383
#
# _framework density 23.906431000000001
#
# number of rings (size 3 to 8) (size 9 to 14) (size 15 to 20)
#    0.000    1.429    0.000    4.286    6.000    6.286 
#    0.000    0.000    0.000    0.000    0.000    0.000 
#    0.000    0.000    0.000    0.000    0.000    0.000 
#
# Total GULP energy -78253.135126 kJ/mol
# GULP energy per Si atom -5589.509652 kJ/mol
# Density = 2.385202 g / cm^3
# Si number density = 23.906431 Si / 1000 Ang^3
#
#
#
# Elastic Constant Matrix: (Units=GPa)
#
#
# Indices 1 2 3 4 5 6 
#
# 1 58.2355 11.1352 41.4439 -12.4672 -10.3354 -1.4563
# 2 11.1352 52.9018 21.9255 -0.6527 -10.3910 -0.9965
# 3 41.4439 21.9255 149.8803 -24.2816 -25.2521 6.2667
# 4 -12.4672 -0.6527 -24.2816 35.7343 0.7077 -6.9202
# 5 -10.3354 -10.3910 -25.2521 0.7077 40.1215 1.8464
# 6 -1.4563 -0.9965 6.2667 -6.9202 1.8464 33.0659
#
#
#
# Elastic Compliance Matrix: (Units=1/GPa)
#
#
# Indices 1 2 3 4 5 6 
#
# 1 0.022566 -0.002227 -0.004892 0.005011 0.001940 0.002794
# 2 -0.002227 0.020945 -0.002178 -0.001874 0.003497 0.000358
# 3 -0.004892 -0.002178 0.009889 0.004608 0.004384 -0.001436
# 4 0.005011 -0.001874 0.004608 0.033983 0.002819 0.006246
# 5 0.001940 0.003497 0.004384 0.002819 0.029117 -0.001676
# 6 0.002794 0.000358 -0.001436 0.006246 -0.001676 0.032049
#
#
# Mechanical properties :
#
#
# Convention : Reuss Voigt Hill
#
# Bulk Modulus (GPa) = 28.73061 45.55851 37.14456
# Shear Modulus (GPa) = 27.97310 34.21852 31.09581
#
# Velocity S-wave (km/s) = 3.42439 3.78743 3.61048
# Velocity P-wave (km/s) = 5.26112 6.18260 5.74038
#
# Compressibility (1/GPa) = 0.03480608
#
# Stress axis : x y z
#
# Youngs Moduli (GPa) = 44.31458 47.74490 101.12738
#
# Poissons Ratio (x) = 0.10631 0.49474
# Poissons Ratio (y) = 0.09867 0.22022
# Poissons Ratio (z) = 0.21680 0.10397
#
# Static dielectric constant tensor:
#      x y z
#    x 1.955400 0.006980 -0.004690 
#    y 0.006980 1.983580 0.039540 
#    z -0.004690 0.039540 1.881400 
# 
# From -- ./inp_files/27176.got.cif
#   From: 2010.05.17/outbox.cif.g08.bks.cpg/sg2_14_cif.got.tgz:27176.got - 2010.06.03 11:33:40.
