data_PCOD9021119
_publ_section_title
;
Structure prediction by ZEFSAII (Michael W. Deem and Ramdas Pophale) SiO2 
 PCOD9021119
Probable space group: P -1
;
_chemical_formula_sum "Si O2"
_cell_formula_units_Z 13
_cell_length_a 5.354809
_cell_length_b 9.389834
_cell_length_c 14.208014
_cell_angle_alpha 100.492551
_cell_angle_beta 52.522470
_cell_angle_gamma 108.013477
_cell_volume 539.127809
_symmetry_space_group_name_H-M "P -1"
_symmetry_group_IT_number 2
_symmetry_cell_setting 'triclinic'
loop_
_space_group_symop_operation_xyz
x,y,z
-x,-y,-z
loop_
_atom_site_type_symbol
_atom_site_label
_atom_site_fract_x
_atom_site_fract_y
_atom_site_fract_z
Si Si1 0.292836 0.556077 0.636080
Si Si2 0.318996 0.944994 0.437629
Si Si3 0.951121 0.651993 0.571530
Si Si4 0.971878 0.322642 0.828285
Si Si5 0.237473 0.242766 0.013035
Si Si6 0.000000 0.500000 0.000000
Si Si7 0.126176 0.037393 0.827659
O O1 0.500000 0.500000 0.500000
O O2 0.576933 0.651837 0.648416
O O3 0.082318 0.656140 0.647712
O O4 0.069621 0.410162 0.720399
O O5 0.559404 0.982060 0.300125
O O6 0.182882 0.770390 0.465846
O O7 0.500000 0.000000 0.500000
O O8 0.000000 0.000000 0.500000
O O9 0.000000 0.500000 0.500000
O O10 0.984073 0.150742 0.808312
O O11 0.618109 0.327223 0.952792
O O12 0.197327 0.422663 0.868066
O O13 0.035578 0.364362 0.052633
O O14 0.220130 0.134467 0.913087
O O15 0.107577 0.122580 0.110901
#
# Coordination Sequence:
#
# PCOD9021119 Si02
#       7
#     2   2   2   2   2   1   2
#     4  10  22  37  68 104 133 180 231 289 346 417
#     4  12  28  48  71 108 150 195 238 305 369 432
#     4  10  22  42  67  99 136 183 239 282 354 422
#     4  11  23  42  73  98 142 182 240 296 360 428
#     4  10  23  44  73 100 137 186 236 300 356 431
#     4  10  24  42  62 106 136 172 236 290 364 410
#     4  10  24  45  70 101 136 189 247 283 363 438
#
# _framework density 24.113019999999999
#
# number of rings (size 3 to 8) (size 9 to 14) (size 15 to 20)
#    0.000    1.538    0.000    3.692   10.769    2.462 
#    2.769    0.000    0.000    0.000    0.000    0.000 
#    0.000    0.000    0.000    0.000    0.000    0.000 
#
# Total GULP energy -72420.202003 kJ/mol
# GULP energy per Si atom -5570.784769 kJ/mol
# Density = 2.405814 g / cm^3
# Si number density = 24.113020 Si / 1000 Ang^3
#
#
#
# Elastic Constant Matrix: (Units=GPa)
#
#
# Indices 1 2 3 4 5 6 
#
# 1 102.4942 -11.4465 25.4246 -4.6174 -10.5282 -14.5055
# 2 -11.4465 97.9539 67.6591 -17.9519 -4.7008 -12.0441
# 3 25.4246 67.6591 140.1020 -39.4788 -9.0073 -15.4956
# 4 -4.6174 -17.9519 -39.4788 51.2514 -3.2907 2.0225
# 5 -10.5282 -4.7008 -9.0073 -3.2907 25.4251 -2.7959
# 6 -14.5055 -12.0441 -15.4956 2.0225 -2.7959 27.5962
#
#
#
# Elastic Compliance Matrix: (Units=1/GPa)
#
#
# Indices 1 2 3 4 5 6 
#
# 1 0.012943 0.005267 -0.003562 0.000347 0.005961 0.007681
# 2 0.005267 0.017664 -0.008646 -0.000038 0.003032 0.005933
# 3 -0.003562 -0.008646 0.014737 0.008131 0.003462 0.002384
# 4 0.000347 -0.000038 0.008131 0.026090 0.006779 0.003506
# 5 0.005961 0.003032 0.003462 0.006779 0.045621 0.010526
# 6 0.007681 0.005933 0.002384 0.003506 0.010526 0.045012
#
#
# Mechanical properties :
#
#
# Convention : Reuss Voigt Hill
#
# Bulk Modulus (GPa) = 31.78379 55.98049 43.88214
# Shear Modulus (GPa) = 26.81880 38.11539 32.46709
#
# Velocity S-wave (km/s) = 3.33860 3.98011 3.67339
# Velocity P-wave (km/s) = 5.29825 6.66243 6.01911
#
# Compressibility (1/GPa) = 0.03146258
#
# Stress axis : x y z
#
# Youngs Moduli (GPa) = 77.25967 56.61109 67.85798
#
# Poissons Ratio (x) = -0.29816 0.24170
# Poissons Ratio (y) = -0.40691 0.58669
# Poissons Ratio (z) = 0.27519 0.48945
#
# Static dielectric constant tensor:
#      x y z
#    x 1.900940 0.128920 0.510680 
#    y 0.128920 1.979510 0.162980 
#    z 0.510680 0.162980 1.744350 
# 
# From -- ./inp_files/35880.got.cif
#   From: 2010.05.17/outbox.cif.g08.bks.cpg/sg2_18_cif.got.tgz:35880.got - 2010.06.03 11:33:40.
