data_PCOD9021829
_publ_section_title
;
Structure prediction by ZEFSAII (Michael W. Deem and Ramdas Pophale) SiO2 
 PCOD9021829
Probable space group: P -1
;
_chemical_formula_sum "Si O2"
_cell_formula_units_Z 16
_cell_length_a 13.133363
_cell_length_b 8.938421
_cell_length_c 12.238472
_cell_angle_alpha 75.636328
_cell_angle_beta 32.181247
_cell_angle_gamma 58.674481
_cell_volume 592.615243
_symmetry_space_group_name_H-M "P -1"
_symmetry_group_IT_number 2
_symmetry_cell_setting 'triclinic'
loop_
_space_group_symop_operation_xyz
x,y,z
-x,-y,-z
loop_
_atom_site_type_symbol
_atom_site_label
_atom_site_fract_x
_atom_site_fract_y
_atom_site_fract_z
Si Si1 0.445096 0.082547 0.172803
Si Si2 0.049994 0.653249 0.460674
Si Si3 0.174936 0.622205 0.581728
Si Si4 0.882167 0.061268 0.716470
Si Si5 0.848273 0.346635 0.169230
Si Si6 0.706972 0.079210 0.331349
Si Si7 0.258617 0.248467 0.554105
Si Si8 0.672325 0.722021 0.165255
O O1 0.217966 0.173431 0.284361
O O2 0.329534 0.184417 0.376210
O O3 0.579905 0.857111 0.118496
O O4 0.614452 0.135071 0.967417
O O5 0.000000 0.500000 0.500000
O O6 0.239081 0.589973 0.399356
O O7 0.102597 0.762041 0.304134
O O8 0.300111 0.558699 0.598036
O O9 0.094336 0.479321 0.677908
O O10 0.033499 0.854165 0.678417
O O11 0.000000 0.000000 0.500000
O O12 0.852234 0.165168 0.173597
O O13 0.744005 0.508859 0.142206
O O14 0.106517 0.288528 0.982787
O O15 0.516766 0.156032 0.392514
O O16 0.542612 0.166651 0.573155
O O17 0.839730 0.853662 0.275559
#
# Coordination Sequence:
#
# PCOD9021829 Si02
#       8
#     2   2   2   2   2   2   2   2
#     4  11  23  44  71  97 139 180 225 279 347 403
#     4  11  25  46  70  98 135 180 222 290 351 397
#     4  11  22  42  67 101 134 171 233 284 329 409
#     4  10  25  45  69  98 131 176 235 283 332 408
#     4  11  22  40  68 100 141 178 226 283 339 399
#     4  10  22  41  66  94 141 189 217 275 347 403
#     4  10  22  40  67 102 138 179 232 276 339 419
#     4  10  22  38  66 101 134 174 228 280 325 413
#
# _framework density 26.998968000000001
#
# number of rings (size 3 to 8) (size 9 to 14) (size 15 to 20)
#    0.000    1.500    3.750    0.375    3.500    2.500 
#    0.000    9.375    0.000    0.000    0.000    0.000 
#    0.000    0.000    0.000    0.000    0.000    0.000 
#
# Total GULP energy -89249.178357 kJ/mol
# GULP energy per Si atom -5578.073647 kJ/mol
# Density = 2.693752 g / cm^3
# Si number density = 26.998968 Si / 1000 Ang^3
#
#
#
# Elastic Constant Matrix: (Units=GPa)
#
#
# Indices 1 2 3 4 5 6 
#
# 1 95.6551 35.9773 30.7113 -11.5855 16.1216 1.3880
# 2 35.9773 253.2051 50.9996 -37.4093 -2.5016 8.9642
# 3 30.7113 50.9996 120.0906 -40.7288 -6.1472 7.7396
# 4 -11.5855 -37.4093 -40.7288 50.9444 5.1825 -5.8411
# 5 16.1216 -2.5016 -6.1472 5.1825 31.3905 -6.0056
# 6 1.3880 8.9642 7.7396 -5.8411 -6.0056 51.4561
#
#
#
# Elastic Compliance Matrix: (Units=1/GPa)
#
#
# Indices 1 2 3 4 5 6 
#
# 1 0.013269 -0.001269 -0.003103 0.000325 -0.007679 -0.000529
# 2 -0.001269 0.004663 -0.000791 0.002423 0.000404 -0.000337
# 3 -0.003103 -0.000791 0.012448 0.008363 0.002509 -0.000409
# 4 0.000325 0.002423 0.008363 0.028596 -0.002822 0.001228
# 5 -0.007679 0.000404 0.002509 -0.002822 0.037520 0.003818
# 6 -0.000529 -0.000337 -0.000409 0.001228 0.003818 0.020153
#
#
# Mechanical properties :
#
#
# Convention : Reuss Voigt Hill
#
# Bulk Modulus (GPa) = 49.87029 78.25859 64.06444
# Shear Modulus (GPa) = 37.40791 50.17569 43.79180
#
# Velocity S-wave (km/s) = 3.72631 4.31563 4.03175
# Velocity P-wave (km/s) = 6.08483 7.34041 6.74191
#
# Compressibility (1/GPa) = 0.02005202
#
# Stress axis : x y z
#
# Youngs Moduli (GPa) = 75.36293 214.45154 80.33622
#
# Poissons Ratio (x) = 0.27224 0.24928
# Poissons Ratio (y) = 0.09567 0.06359
# Poissons Ratio (z) = 0.23385 0.16974
#
# Static dielectric constant tensor:
#      x y z
#    x 2.186620 0.034810 0.002070 
#    y 0.034810 2.220470 0.064630 
#    z 0.002070 0.064630 2.140370 
# 
# From -- ./inp_files/529507.got.cif
#   From: 2010.05.17/outbox.cif.g08.bks.cpg/sg2_265_cif.got.tgz:529507.got - 2010.06.03 11:33:40.
