data_PCOD9021306
_publ_section_title
;
Structure prediction by ZEFSAII (Michael W. Deem and Ramdas Pophale) SiO2 
 PCOD9021306
Probable space group: P -1
;
_chemical_formula_sum "Si O2"
_cell_formula_units_Z 16
_cell_length_a 8.074300
_cell_length_b 10.125371
_cell_length_c 16.827548
_cell_angle_alpha 86.245403
_cell_angle_beta 109.542589
_cell_angle_gamma 43.459150
_cell_volume 784.458530
_symmetry_space_group_name_H-M "P -1"
_symmetry_group_IT_number 2
_symmetry_cell_setting 'triclinic'
loop_
_space_group_symop_operation_xyz
x,y,z
-x,-y,-z
loop_
_atom_site_type_symbol
_atom_site_label
_atom_site_fract_x
_atom_site_fract_y
_atom_site_fract_z
Si Si1 0.790666 0.971774 0.502032
Si Si2 0.675975 0.736809 0.462109
Si Si3 0.811736 0.105242 0.337729
Si Si4 0.268334 0.896892 0.096788
Si Si5 0.325345 0.393967 0.140288
Si Si6 0.166899 0.973001 0.254442
Si Si7 0.305571 0.167131 0.033229
Si Si8 0.379041 0.535751 0.891963
O O1 0.713857 0.867384 0.481445
O O2 0.065308 0.829467 0.610438
O O3 0.512781 0.204476 0.494224
O O4 0.870334 0.978435 0.427664
O O5 0.000000 0.500000 0.500000
O O6 0.458609 0.842905 0.349729
O O7 0.478349 0.283458 0.253659
O O8 0.992420 0.985219 0.289048
O O9 0.545327 0.659136 0.111270
O O10 0.237653 0.870865 0.184056
O O11 0.260399 0.060728 0.082060
O O12 0.000000 0.000000 0.000000
O O13 0.423654 0.216923 0.103699
O O14 0.439926 0.469763 0.131672
O O15 0.984938 0.605284 0.064286
O O16 0.948945 0.224515 0.187669
O O17 0.500000 0.000000 0.000000
O O18 0.500000 0.500000 0.000000
#
# Coordination Sequence:
#
# PCOD9021306 Si02
#       8
#     2   2   2   2   2   2   2   2
#     4   9  20  43  66  91 123 157 208 258 321 369
#     4  10  22  42  65  95 130 159 201 265 316 381
#     4   9  20  41  68  87 117 168 206 260 308 374
#     4  12  23  39  62  93 127 167 220 255 313 375
#     4  10  22  38  60  87 124 161 209 255 314 358
#     4  10  23  39  64  95 125 167 214 258 316 376
#     4  11  24  40  56  88 129 169 206 260 306 371
#     4  11  20  39  65  88 124 173 210 261 305 370
#
# _framework density 20.396234
#
# number of rings (size 3 to 8) (size 9 to 14) (size 15 to 20)
#    0.000    1.750    2.500    0.750    3.500    5.000 
#    2.250    8.125    0.000    0.000    0.000    0.000 
#    0.000    0.000    0.000    0.000    0.000    0.000 
#
# Total GULP energy -89098.398802 kJ/mol
# GULP energy per Si atom -5568.649925 kJ/mol
# Density = 2.034981 g / cm^3
# Si number density = 20.396234 Si / 1000 Ang^3
#
#
#
# Elastic Constant Matrix: (Units=GPa)
#
#
# Indices 1 2 3 4 5 6 
#
# 1 59.7436 17.1031 34.1984 10.6558 6.0665 -2.4376
# 2 17.1031 117.2711 54.3849 -0.2777 2.9363 -12.8911
# 3 34.1984 54.3849 147.5902 7.5770 15.7451 -14.0156
# 4 10.6558 -0.2777 7.5770 31.9232 -13.3603 2.8813
# 5 6.0665 2.9363 15.7451 -13.3603 36.3073 2.9113
# 6 -2.4376 -12.8911 -14.0156 2.8813 2.9113 24.9153
#
#
#
# Elastic Compliance Matrix: (Units=1/GPa)
#
#
# Indices 1 2 3 4 5 6 
#
# 1 0.021109 -0.001312 -0.003303 -0.008565 -0.005231 0.001130
# 2 -0.001312 0.010677 -0.003556 0.001621 0.001249 0.003062
# 3 -0.003303 -0.003556 0.010061 -0.003970 -0.005352 0.004581
# 4 -0.008565 0.001621 -0.003970 0.044456 0.020160 -0.009729
# 5 -0.005231 0.001249 -0.005352 0.020160 0.038837 -0.009746
# 6 0.001130 0.003062 0.004581 -0.009729 -0.009746 0.046672
#
#
# Mechanical properties :
#
#
# Convention : Reuss Voigt Hill
#
# Bulk Modulus (GPa) = 39.20702 59.55308 49.38005
# Shear Modulus (GPa) = 25.42532 33.22372 29.32452
#
# Velocity S-wave (km/s) = 3.53451 4.04036 3.79587
# Velocity P-wave (km/s) = 5.99345 7.14335 6.59352
#
# Compressibility (1/GPa) = 0.02550564
#
# Stress axis : x y z
#
# Youngs Moduli (GPa) = 47.37252 93.66064 99.39536
#
# Poissons Ratio (x) = 0.12289 0.32827
# Poissons Ratio (y) = 0.06216 0.35344
# Poissons Ratio (z) = 0.15646 0.33305
#
# Static dielectric constant tensor:
#      x y z
#    x 2.079780 -0.145110 0.074510 
#    y -0.145110 1.835600 -0.049070 
#    z 0.074510 -0.049070 1.791980 
# 
# From -- ./inp_files/500414.got.cif
#   From: 2010.05.17/outbox.cif.g08.bks.cpg/sg2_251_cif.got.tgz:500414.got - 2010.06.03 11:33:40.
