data_PCOD9021099
_publ_section_title
;
Structure prediction by ZEFSAII (Michael W. Deem and Ramdas Pophale) SiO2 
 PCOD9021099
Probable space group: P -1
;
_chemical_formula_sum "Si O2"
_cell_formula_units_Z 14
_cell_length_a 11.468711
_cell_length_b 11.498050
_cell_length_c 14.660648
_cell_angle_alpha 55.511583
_cell_angle_beta 123.882566
_cell_angle_gamma 155.683242
_cell_volume 651.243116
_symmetry_space_group_name_H-M "P -1"
_symmetry_group_IT_number 2
_symmetry_cell_setting 'triclinic'
loop_
_space_group_symop_operation_xyz
x,y,z
-x,-y,-z
loop_
_atom_site_type_symbol
_atom_site_label
_atom_site_fract_x
_atom_site_fract_y
_atom_site_fract_z
Si Si1 0.199632 0.801176 0.484819
Si Si2 0.659135 0.042269 0.313814
Si Si3 0.960064 0.385067 0.796562
Si Si4 0.941859 0.866939 0.280963
Si Si5 0.611447 0.591311 0.871591
Si Si6 0.726611 0.783117 0.415787
Si Si7 0.541280 0.768650 0.900793
O O1 0.201201 0.833532 0.579488
O O2 0.000000 0.500000 0.500000
O O3 0.114071 0.871427 0.366118
O O4 0.500000 0.000000 0.500000
O O5 0.868565 0.326995 0.218141
O O6 0.327844 0.800043 0.291531
O O7 0.653484 0.883931 0.337659
O O8 0.263209 0.583398 0.805320
O O9 0.784436 0.095313 0.887069
O O10 0.698111 0.644188 0.198342
O O11 0.785314 0.768838 0.349666
O O12 0.158360 0.179577 0.207590
O O13 0.678644 0.764723 0.902510
O O14 0.590825 0.419977 0.983722
O O15 0.500000 0.500000 0.500000
O O16 0.000000 0.000000 0.500000
#
# Coordination Sequence:
#
# PCOD9021099 Si02
#       7
#     2   2   2   2   2   2   2
#     4  12  27  38  60  97 138 167 203 262 324 391
#     4  11  24  42  63  93 126 179 215 257 313 394
#     4  10  22  37  67  91 122 165 215 256 320 380
#     4  12  26  42  66  97 130 176 212 273 312 378
#     4  11  24  40  66  97 129 169 218 262 333 375
#     4  12  25  46  67  88 131 178 229 259 306 370
#     4  10  22  42  65  95 133 168 207 271 324 406
#
# _framework density 21.497347000000001
#
# number of rings (size 3 to 8) (size 9 to 14) (size 15 to 20)
#    0.000    0.857    1.429    5.143   14.000    2.286 
#    0.000    0.000    0.000   17.143    0.000    0.000 
#    0.000    0.000    0.000    0.000    0.000    0.000 
#
# Total GULP energy -77988.845665 kJ/mol
# GULP energy per Si atom -5570.631833 kJ/mol
# Density = 2.144842 g / cm^3
# Si number density = 21.497347 Si / 1000 Ang^3
#
#
#
# Elastic Constant Matrix: (Units=GPa)
#
#
# Indices 1 2 3 4 5 6 
#
# 1 52.9681 24.5946 -0.0632 1.6757 15.6166 -9.0680
# 2 24.5946 176.0710 13.2892 -18.4239 14.0913 9.4670
# 3 -0.0632 13.2892 -0.6875 6.9709 12.5831 -2.6207
# 4 1.6757 -18.4239 6.9709 38.4404 -4.6904 8.5187
# 5 15.6166 14.0913 12.5831 -4.6904 17.1684 -8.3737
# 6 -9.0680 9.4670 -2.6207 8.5187 -8.3737 32.4670
#
#
#
# Elastic Compliance Matrix: (Units=1/GPa)
#
#
# Indices 1 2 3 4 5 6 
#
# 1 0.019992 -0.001337 -0.020709 0.001401 0.000448 0.004050
# 2 -0.001337 0.006823 0.004417 0.002507 -0.009421 -0.005094
# 3 -0.020709 0.004417 -0.054461 0.020527 0.060073 -0.001360
# 4 0.001401 0.002507 0.020527 0.023440 -0.016392 -0.009061
# 5 0.000448 -0.009421 0.060073 -0.016392 0.026228 0.018787
# 6 0.004050 -0.005094 -0.001360 -0.009061 0.018787 0.040530
#
#
# Mechanical properties :
#
#
# Convention : Reuss Voigt Hill
#
# Bulk Modulus (GPa) = -15.89707 33.77698 8.93995
# Shear Modulus (GPa) = 65.06883 30.31724 47.69303
#
# Velocity S-wave (km/s) = 5.50763 3.75944 4.71526
# Velocity P-wave (km/s) = 5.74756 5.88139 5.81486
#
# Compressibility (1/GPa) = -0.06290468
#
# Stress axis : x y z
#
# Youngs Moduli (GPa) = 50.01975 146.56162 -18.36165
#
# Poissons Ratio (x) = 0.19590 -0.38026
# Poissons Ratio (y) = 0.06686 0.08110
# Poissons Ratio (z) = 1.03588 -0.64732
#
# Static dielectric constant tensor:
#      x y z
#    x 1.714110 0.028610 -0.012370 
#    y 0.028610 1.739620 -0.037810 
#    z -0.012370 -0.037810 2.030800 
# 
# From -- ./inp_files/433866.got.cif
#   From: 2010.05.17/outbox.cif.g08.bks.cpg/sg2_217_cif.got.tgz:433866.got - 2010.06.03 11:33:40.
