data_PCOD9021667
_publ_section_title
;
Structure prediction by ZEFSAII (Michael W. Deem and Ramdas Pophale) SiO2 
 PCOD9021667
Probable space group: P -1
;
_chemical_formula_sum "Si O2"
_cell_formula_units_Z 14
_cell_length_a 21.594591
_cell_length_b 9.387444
_cell_length_c 18.986522
_cell_angle_alpha 130.164602
_cell_angle_beta 19.667555
_cell_angle_gamma 141.049796
_cell_volume 741.726297
_symmetry_space_group_name_H-M "P -1"
_symmetry_group_IT_number 2
_symmetry_cell_setting 'triclinic'
loop_
_space_group_symop_operation_xyz
x,y,z
-x,-y,-z
loop_
_atom_site_type_symbol
_atom_site_label
_atom_site_fract_x
_atom_site_fract_y
_atom_site_fract_z
Si Si1 0.456108 0.282481 0.776654
Si Si2 0.790660 0.251692 0.104389
Si Si3 0.104304 0.547308 0.551975
Si Si4 0.919398 0.053131 0.533313
Si Si5 0.598729 0.891669 0.624481
Si Si6 0.604685 0.362781 0.093085
Si Si7 0.944734 0.020560 0.785165
O O1 0.731715 0.432272 0.554644
O O2 0.423468 0.431492 0.806844
O O3 0.298678 0.231287 0.999092
O O4 0.333642 0.001556 0.798761
O O5 0.907031 0.213778 0.902021
O O6 0.574843 0.233391 0.297671
O O7 0.000000 0.500000 0.000000
O O8 0.025207 0.331853 0.515053
O O9 0.862011 0.478048 0.821313
O O10 0.274295 0.819809 0.422130
O O11 0.017144 0.016117 0.346905
O O12 0.000000 0.000000 0.500000
O O13 0.624885 0.856420 0.778723
O O14 0.438495 0.755741 0.822454
O O15 0.821361 0.895291 0.394236
#
# Coordination Sequence:
#
# PCOD9021667 Si02
#       7
#     2   2   2   2   2   2   2
#     4   9  20  39  60  85 120 157 194 254 300 341
#     4   9  20  40  65  89 114 156 201 245 310 361
#     4  11  21  39  57  85 124 161 203 234 290 356
#     4  11  23  36  59  89 122 169 196 240 294 346
#     4  10  22  38  64  90 116 163 193 251 301 344
#     4  11  22  39  58  89 126 155 205 243 289 352
#     4   9  21  39  57  88 124 149 202 246 291 351
#
# _framework density 18.874886
#
# number of rings (size 3 to 8) (size 9 to 14) (size 15 to 20)
#    0.857    1.143    2.857    0.429    2.000    3.429 
#    2.571    0.714    0.000   10.286    0.000    0.000 
#    0.000    0.000    0.000    0.000    0.000    0.000 
#
# Total GULP energy -78021.912514 kJ/mol
# GULP energy per Si atom -5572.993751 kJ/mol
# Density = 1.883193 g / cm^3
# Si number density = 18.874886 Si / 1000 Ang^3
#
#
#
# Elastic Constant Matrix: (Units=GPa)
#
#
# Indices 1 2 3 4 5 6 
#
# 1 58.3210 28.2725 31.9709 -13.1551 -8.1069 -21.5180
# 2 28.2725 71.1616 27.6025 -25.2896 -6.7425 -5.0186
# 3 31.9709 27.6025 77.0559 -5.5655 -18.7121 -3.5893
# 4 -13.1551 -25.2896 -5.5655 29.9698 2.2521 -5.2942
# 5 -8.1069 -6.7425 -18.7121 2.2521 25.6695 -6.2948
# 6 -21.5180 -5.0186 -3.5893 -5.2942 -6.2948 21.7997
#
#
#
# Elastic Compliance Matrix: (Units=1/GPa)
#
#
# Indices 1 2 3 4 5 6 
#
# 1 0.069562 0.002205 -0.015795 0.042359 0.028159 0.084988
# 2 0.002205 0.025390 -0.006794 0.023259 0.003714 0.013624
# 3 -0.015795 -0.006794 0.022121 -0.011608 0.006851 -0.014354
# 4 0.042359 0.023259 -0.011608 0.080357 0.021371 0.070941
# 5 0.028159 0.003714 0.006851 0.021371 0.065132 0.053776
# 6 0.084988 0.013624 -0.014354 0.070941 0.053776 0.163292
#
#
# Mechanical properties :
#
#
# Convention : Reuss Voigt Hill
#
# Bulk Modulus (GPa) = 13.10509 42.47002 27.78755
# Shear Modulus (GPa) = 10.16139 23.40063 16.78101
#
# Velocity S-wave (km/s) = 2.32277 3.52487 2.98495
# Velocity P-wave (km/s) = 3.76190 6.25427 5.16080
#
# Compressibility (1/GPa) = 0.07630626
#
# Stress axis : x y z
#
# Youngs Moduli (GPa) = 14.37560 39.38516 45.20500
#
# Poissons Ratio (x) = -0.08685 0.71402
# Poissons Ratio (y) = -0.03170 0.30711
# Poissons Ratio (z) = 0.22707 0.26757
#
# Static dielectric constant tensor:
#      x y z
#    x 1.640660 -0.037380 -0.004700 
#    y -0.037380 1.668830 0.002350 
#    z -0.004700 0.002350 1.663730 
# 
# From -- ./inp_files/601177.got.cif
#   From: 2010.05.17/outbox.cif.g08.bks.cpg/sg2_301_cif.got.tgz:601177.got - 2010.06.03 11:33:40.
