data_PCOD9021853
_publ_section_title
;
Structure prediction by ZEFSAII (Michael W. Deem and Ramdas Pophale) SiO2 
 PCOD9021853
Probable space group: P -1
;
_chemical_formula_sum "Si O2"
_cell_formula_units_Z 16
_cell_length_a 15.728846
_cell_length_b 19.170510
_cell_length_c 25.076310
_cell_angle_alpha 162.498472
_cell_angle_beta 158.684235
_cell_angle_gamma 30.446567
_cell_volume 802.183060
_symmetry_space_group_name_H-M "P -1"
_symmetry_group_IT_number 2
_symmetry_cell_setting 'triclinic'
loop_
_space_group_symop_operation_xyz
x,y,z
-x,-y,-z
loop_
_atom_site_type_symbol
_atom_site_label
_atom_site_fract_x
_atom_site_fract_y
_atom_site_fract_z
Si Si1 0.114833 0.032669 0.433451
Si Si2 0.183742 0.170357 0.691852
Si Si3 0.983531 0.628681 0.877034
Si Si4 0.229211 0.178001 0.005012
Si Si5 0.117230 0.641538 0.592048
Si Si6 0.546136 0.971736 0.568623
Si Si7 0.212060 0.593111 0.501818
Si Si8 0.611687 0.454775 0.219833
O O1 0.186023 0.027859 0.533559
O O2 0.984052 0.251511 0.511176
O O3 0.352081 0.058394 0.554653
O O4 0.914731 0.819205 0.132609
O O5 0.101032 0.409351 0.800727
O O6 0.427383 0.271187 0.941162
O O7 0.000000 0.000000 0.500000
O O8 0.856157 0.675383 0.890945
O O9 0.805715 0.566426 0.677431
O O10 0.188936 0.858179 0.145488
O O11 0.515259 0.253307 0.221432
O O12 0.149005 0.907296 0.782162
O O13 0.146533 0.483825 0.442522
O O14 0.315739 0.653460 0.762131
O O15 0.857173 0.549406 0.399018
O O16 0.524023 0.690419 0.357308
O O17 0.500000 0.000000 0.500000
#
# Coordination Sequence:
#
# PCOD9021853 Si02
#       8
#     2   2   2   2   2   2   2   2
#     4  10  22  38  66  92 117 166 205 256 305 364
#     4  11  26  41  61  93 129 160 206 256 312 364
#     4  11  23  40  67  93 121 162 209 257 307 357
#     4  11  20  42  65  89 125 161 212 250 304 369
#     4  10  22  40  62  89 121 169 206 244 313 368
#     4  12  20  42  66  94 123 157 213 257 304 369
#     4  10  23  37  64  91 124 160 208 257 298 369
#     4  11  23  41  63  88 127 166 198 256 310 365
#
# _framework density 19.945571999999999
#
# number of rings (size 3 to 8) (size 9 to 14) (size 15 to 20)
#    0.000    1.250    3.750    2.625    7.000    1.000 
#    2.250    1.875    0.000    0.000    0.000    0.000 
#    0.000    0.000    0.000    0.000    0.000    0.000 
#
# Total GULP energy -89234.718859 kJ/mol
# GULP energy per Si atom -5577.169929 kJ/mol
# Density = 1.990018 g / cm^3
# Si number density = 19.945572 Si / 1000 Ang^3
#
#
#
# Elastic Constant Matrix: (Units=GPa)
#
#
# Indices 1 2 3 4 5 6 
#
# 1 143.3415 22.7500 50.3314 -25.1613 -29.6675 -11.0231
# 2 22.7500 4.1365 18.4522 -34.0430 -18.4952 -13.2721
# 3 50.3314 18.4522 105.8341 -26.7471 -23.7304 6.7812
# 4 -25.1613 -34.0430 -26.7471 16.3092 -0.2435 -12.0075
# 5 -29.6675 -18.4952 -23.7304 -0.2435 35.2431 -10.9726
# 6 -11.0231 -13.2721 6.7812 -12.0075 -10.9726 23.2353
#
#
#
# Elastic Compliance Matrix: (Units=1/GPa)
#
#
# Indices 1 2 3 4 5 6 
#
# 1 0.010429 -0.006774 -0.002926 0.000386 0.004596 0.004302
# 2 -0.006774 0.004066 -0.004905 -0.022729 -0.012330 -0.017028
# 3 -0.002926 -0.004905 0.013909 0.004985 0.003044 -0.004236
# 4 0.000386 -0.022729 0.004985 0.012326 -0.012446 -0.013762
# 5 0.004596 -0.012330 0.003044 -0.012446 0.028070 0.001073
# 6 0.004302 -0.017028 -0.004236 -0.013762 0.001073 0.029983
#
#
# Mechanical properties :
#
#
# Convention : Reuss Voigt Hill
#
# Bulk Modulus (GPa) = -1239.86342 48.48659 -595.68842
# Shear Modulus (GPa) = 39.14663 25.74273 32.44468
#
# Velocity S-wave (km/s) = 4.43501 3.59646 4.03756
# Velocity P-wave (km/s) = 24.42841 6.45044 16.66042
#
# Compressibility (1/GPa) = -0.00080654
#
# Stress axis : x y z
#
# Youngs Moduli (GPa) = 95.88942 245.93335 71.89386
#
# Poissons Ratio (x) = 1.66598 0.21037
# Poissons Ratio (y) = 0.64956 0.35265
# Poissons Ratio (z) = 0.28058 1.20635
#
# Static dielectric constant tensor:
#      x y z
#    x 1.747110 -0.032150 -0.060510 
#    y -0.032150 1.759320 0.028110 
#    z -0.060510 0.028110 1.750700 
# 
# From -- ./inp_files/259632.got.cif
#   From: 2010.05.17/outbox.cif.g08.bks.cpg/sg2_130_cif.got.tgz:259632.got - 2010.06.03 11:33:40.
