data_PCOD9021402
_publ_section_title
;
Structure prediction by ZEFSAII (Michael W. Deem and Ramdas Pophale) SiO2 
 PCOD9021402
Probable space group: P -1
;
_chemical_formula_sum "Si O2"
_cell_formula_units_Z 15
_cell_length_a 8.255111
_cell_length_b 25.245037
_cell_length_c 21.504897
_cell_angle_alpha 164.714741
_cell_angle_beta 30.794617
_cell_angle_gamma 140.391878
_cell_volume 545.744595
_symmetry_space_group_name_H-M "P -1"
_symmetry_group_IT_number 2
_symmetry_cell_setting 'triclinic'
loop_
_space_group_symop_operation_xyz
x,y,z
-x,-y,-z
loop_
_atom_site_type_symbol
_atom_site_label
_atom_site_fract_x
_atom_site_fract_y
_atom_site_fract_z
Si Si1 0.521477 0.853456 0.938849
Si Si2 0.574391 0.615183 0.776746
Si Si3 0.000000 0.000000 0.500000
Si Si4 0.001580 0.303552 0.736576
Si Si5 0.957864 0.515388 0.729693
Si Si6 0.655841 0.913935 0.193893
Si Si7 0.224753 0.830628 0.658673
Si Si8 0.106305 0.359938 0.638407
O O1 0.430652 0.746408 0.908178
O O2 0.664584 0.667589 0.626783
O O3 0.885097 0.870688 0.855698
O O4 0.261799 0.094456 0.272770
O O5 0.413598 0.440601 0.642903
O O6 0.000000 0.500000 0.500000
O O7 0.480330 0.781069 0.056021
O O8 0.106269 0.856702 0.369705
O O9 0.279491 0.112249 0.555061
O O10 0.424140 0.167316 0.429244
O O11 0.861923 0.382805 0.803772
O O12 0.000000 0.500000 0.000000
O O13 0.706124 0.410106 0.665447
O O14 0.938829 0.501725 0.793379
O O15 0.867472 0.749523 0.991736
O O16 0.876424 0.992247 0.164132
#
# Coordination Sequence:
#
# PCOD9021402 Si02
#       8
#     2   2   1   2   2   2   2   2
#     4  10  22  38  61  89 127 164 204 245 302 365
#     4  12  22  37  62  93 124 164 210 254 297 361
#     4  10  22  38  68  86 112 152 206 260 300 352
#     4  11  22  41  65  88 118 157 207 261 304 360
#     4  10  23  40  59  90 130 166 198 249 307 373
#     4  11  21  41  62  92 122 160 207 259 307 355
#     4   9  21  39  62  85 122 161 202 257 303 356
#     4  12  25  39  62  93 126 165 204 248 311 371
#
# _framework density 27.485385000000001
#
# number of rings (size 3 to 8) (size 9 to 14) (size 15 to 20)
#    0.800    0.533    1.333    6.000    0.000    3.200 
#    0.000    2.667    0.000    5.600    0.000    0.000 
#    0.000    0.000    0.000    0.000    0.000    0.000 
#
# Total GULP energy -83730.429247 kJ/mol
# GULP energy per Si atom -5582.028616 kJ/mol
# Density = 2.742283 g / cm^3
# Si number density = 27.485385 Si / 1000 Ang^3
#
#
#
# Elastic Constant Matrix: (Units=GPa)
#
#
# Indices 1 2 3 4 5 6 
#
# 1 51.6927 34.5886 14.2586 -0.5329 -8.1278 -20.4458
# 2 34.5886 236.4131 48.7705 27.4032 -10.8116 -44.2151
# 3 14.2586 48.7705 76.8492 12.9991 -10.1304 -11.6798
# 4 -0.5329 27.4032 12.9991 52.6892 -9.2078 -12.2611
# 5 -8.1278 -10.8116 -10.1304 -9.2078 26.8432 6.2700
# 6 -20.4458 -44.2151 -11.6798 -12.2611 6.2700 69.3138
#
#
#
# Elastic Compliance Matrix: (Units=1/GPa)
#
#
# Indices 1 2 3 4 5 6 
#
# 1 0.024731 -0.002339 -0.002204 0.004358 0.005885 0.005670
# 2 -0.002339 0.005726 -0.002608 -0.001939 -0.000573 0.002232
# 3 -0.002204 -0.002608 0.015848 -0.002015 0.003649 -0.000330
# 4 0.004358 -0.001939 -0.002015 0.022422 0.006754 0.003065
# 5 0.005885 -0.000573 0.003649 0.006754 0.042657 -0.000679
# 6 0.005670 0.002232 -0.000330 0.003065 -0.000679 0.018071
#
#
# Mechanical properties :
#
#
# Convention : Reuss Voigt Hill
#
# Bulk Modulus (GPa) = 31.24695 62.24339 46.74517
# Shear Modulus (GPa) = 32.37788 47.59174 39.98481
#
# Velocity S-wave (km/s) = 3.43593 4.16568 3.81828
# Velocity P-wave (km/s) = 5.20904 6.76996 6.04013
#
# Compressibility (1/GPa) = 0.03200312
#
# Stress axis : x y z
#
# Youngs Moduli (GPa) = 40.43491 174.63565 63.09803
#
# Poissons Ratio (x) = 0.40853 0.13905
# Poissons Ratio (y) = 0.09459 0.16458
# Poissons Ratio (z) = 0.08911 0.45549
#
# Static dielectric constant tensor:
#      x y z
#    x 2.186380 -0.082990 0.136640 
#    y -0.082990 1.911350 0.180520 
#    z 0.136640 0.180520 1.729070 
# 
# From -- ./inp_files/562699.got.cif
#   From: 2010.05.17/outbox.cif.g08.bks.cpg/sg2_282_cif.got.tgz:562699.got - 2010.06.03 11:33:40.
