data_PCOD9021351
_publ_section_title
;
Structure prediction by ZEFSAII (Michael W. Deem and Ramdas Pophale) SiO2 
 PCOD9021351
Probable space group: P -1
;
_chemical_formula_sum "Si O2"
_cell_formula_units_Z 14
_cell_length_a 13.989188
_cell_length_b 9.044009
_cell_length_c 5.827762
_cell_angle_alpha 91.454506
_cell_angle_beta 105.841396
_cell_angle_gamma 65.674152
_cell_volume 643.145722
_symmetry_space_group_name_H-M "P -1"
_symmetry_group_IT_number 2
_symmetry_cell_setting 'triclinic'
loop_
_space_group_symop_operation_xyz
x,y,z
-x,-y,-z
loop_
_atom_site_type_symbol
_atom_site_label
_atom_site_fract_x
_atom_site_fract_y
_atom_site_fract_z
Si Si1 0.615704 0.604750 0.137002
Si Si2 0.190282 0.333830 0.640770
Si Si3 0.728436 0.005191 0.139713
Si Si4 0.451414 0.893695 0.324184
Si Si5 0.575680 0.327893 0.314710
Si Si6 0.022519 0.061848 0.770601
Si Si7 0.962600 0.427402 0.759378
O O1 0.735556 0.594625 0.173512
O O2 0.543787 0.782515 0.202449
O O3 0.615572 0.470837 0.315635
O O4 0.546918 0.596855 0.870384
O O5 0.071301 0.377265 0.670574
O O6 0.153621 0.431970 0.385943
O O7 0.252373 0.139308 0.673082
O O8 0.657273 0.181633 0.203534
O O9 0.848054 0.984145 0.147000
O O10 0.657537 0.991828 0.878926
O O11 0.426085 0.764150 0.456321
O O12 0.500000 0.000000 0.500000
O O13 0.953859 0.256642 0.754194
O O14 0.000000 0.000000 0.500000
O O15 0.000000 0.000000 0.000000
O O16 0.000000 0.500000 0.000000
#
# Coordination Sequence:
#
# PCOD9021351 Si02
#       7
#     2   2   2   2   2   2   2
#     4  10  22  38  60  94 120 174 204 279 329 412
#     4  10  22  41  63  91 133 167 230 271 350 396
#     4  10  24  41  66  93 128 178 217 284 336 416
#     4  11  22  38  63  95 128 172 220 274 342 411
#     4  10  22  39  62  89 135 157 223 264 340 401
#     4  11  28  46  73 105 142 184 237 289 358 418
#     4  10  25  43  68  98 132 179 229 292 340 423
#
# _framework density 21.768006
#
# number of rings (size 3 to 8) (size 9 to 14) (size 15 to 20)
#    0.000    1.714    0.000    2.143   10.000    6.857 
#    0.000    0.000    0.000    0.000    0.000    0.000 
#    0.000    0.000    0.000    0.000    0.000    0.000 
#
# Total GULP energy -78063.715584 kJ/mol
# GULP energy per Si atom -5575.979685 kJ/mol
# Density = 2.171846 g / cm^3
# Si number density = 21.768006 Si / 1000 Ang^3
#
#
#
# Elastic Constant Matrix: (Units=GPa)
#
#
# Indices 1 2 3 4 5 6 
#
# 1 70.5756 22.1767 24.2310 -22.1478 13.1529 16.4662
# 2 22.1767 124.3963 58.3564 -11.6712 12.9989 13.9075
# 3 24.2310 58.3564 105.9958 -17.7341 14.7022 1.5821
# 4 -22.1478 -11.6712 -17.7341 36.4232 -4.2051 -0.6217
# 5 13.1529 12.9989 14.7022 -4.2051 31.4544 -1.6524
# 6 16.4662 13.9075 1.5821 -0.6217 -1.6524 22.6134
#
#
#
# Elastic Compliance Matrix: (Units=1/GPa)
#
#
# Indices 1 2 3 4 5 6 
#
# 1 0.024784 0.001016 -0.002575 0.012799 -0.008856 -0.018787
# 2 0.001016 0.012022 -0.006179 0.001006 -0.002784 -0.007877
# 3 -0.002575 -0.006179 0.014214 0.003183 -0.002347 0.004597
# 4 0.012799 0.001006 0.003183 0.036621 -0.002851 -0.009363
# 5 -0.008856 -0.002784 -0.002347 -0.002851 0.037940 0.011019
# 6 -0.018787 -0.007877 0.004597 -0.009363 0.011019 0.062972
#
#
# Mechanical properties :
#
#
# Convention : Reuss Voigt Hill
#
# Bulk Modulus (GPa) = 28.13331 56.72178 42.42754
# Shear Modulus (GPa) = 23.16110 31.17845 27.16978
#
# Velocity S-wave (km/s) = 3.26544 3.78869 3.53675
# Velocity P-wave (km/s) = 5.21245 6.72702 6.01758
#
# Compressibility (1/GPa) = 0.03554505
#
# Stress axis : x y z
#
# Youngs Moduli (GPa) = 40.34809 83.17751 70.35143
#
# Poissons Ratio (x) = -0.08453 0.18116
# Poissons Ratio (y) = -0.04100 0.43472
# Poissons Ratio (z) = 0.10390 0.51398
#
# Static dielectric constant tensor:
#      x y z
#    x 1.820780 0.048760 -0.063940 
#    y 0.048760 1.805400 -0.047790 
#    z -0.063940 -0.047790 1.861570 
# 
# From -- ./inp_files/27734.got.cif
#   From: 2010.05.17/outbox.cif.g08.bks.cpg/sg2_14_cif.got.tgz:27734.got - 2010.06.03 11:33:40.
