data_PCOD9021854
_publ_section_title
;
Structure prediction by ZEFSAII (Michael W. Deem and Ramdas Pophale) SiO2 
 PCOD9021854
Probable space group: P -1
;
_chemical_formula_sum "Si O2"
_cell_formula_units_Z 12
_cell_length_a 22.944067
_cell_length_b 14.014970
_cell_length_c 11.913155
_cell_angle_alpha 148.905237
_cell_angle_beta 29.937498
_cell_angle_gamma 162.750729
_cell_volume 556.120969
_symmetry_space_group_name_H-M "P -1"
_symmetry_group_IT_number 2
_symmetry_cell_setting 'triclinic'
loop_
_space_group_symop_operation_xyz
x,y,z
-x,-y,-z
loop_
_atom_site_type_symbol
_atom_site_label
_atom_site_fract_x
_atom_site_fract_y
_atom_site_fract_z
Si Si1 0.357746 0.242886 0.620155
Si Si2 0.207670 0.099810 0.979595
Si Si3 0.727451 0.963346 0.680345
Si Si4 0.796258 0.673672 0.348432
Si Si5 0.194468 0.667533 0.904531
Si Si6 0.468579 0.165071 0.762877
O O1 0.258048 0.130512 0.795421
O O2 0.482884 0.593796 0.730740
O O3 0.217511 0.005077 0.508793
O O4 0.549517 0.347253 0.406476
O O5 0.302568 0.056650 0.852686
O O6 0.334190 0.444625 0.160257
O O7 0.967592 0.824843 0.128177
O O8 0.829937 0.938422 0.562896
O O9 0.789040 0.240363 0.902734
O O10 0.816114 0.567251 0.315309
O O11 0.383348 0.013338 0.876035
O O12 0.000000 0.500000 0.000000
O O13 0.500000 0.000000 0.500000
#
# Coordination Sequence:
#
# PCOD9021854 Si02
#       6
#     2   2   2   2   2   2
#     4   9  20  45  62  88 127 163 205 254 308 362
#     4  11  22  41  62  92 125 162 207 254 305 367
#     4   9  22  43  61  90 125 165 203 255 309 364
#     4  10  22  38  66  92 119 165 203 250 313 358
#     4  12  23  40  63  92 125 160 209 251 307 374
#     4  11  24  38  59  92 130 162 203 255 307 363
#
# _framework density 21.578040000000001
#
# number of rings (size 3 to 8) (size 9 to 14) (size 15 to 20)
#    1.000    0.667    3.333    1.000    2.333    2.000 
#    0.000    0.833    0.000    0.000    0.000    1.167 
#    0.000    0.000    0.000    0.000    0.000    0.000 
#
# Total GULP energy -66817.882538 kJ/mol
# GULP energy per Si atom -5568.156878 kJ/mol
# Density = 2.152893 g / cm^3
# Si number density = 21.578040 Si / 1000 Ang^3
#
#
#
# Elastic Constant Matrix: (Units=GPa)
#
#
# Indices 1 2 3 4 5 6 
#
# 1 60.1426 11.4507 24.8095 12.9334 -2.1634 -13.1113
# 2 11.4507 53.0175 38.2722 -3.0339 -1.6866 -12.5835
# 3 24.8095 38.2722 94.7787 14.8349 1.2798 -6.1063
# 4 12.9334 -3.0339 14.8349 14.9785 1.6822 6.5968
# 5 -2.1634 -1.6866 1.2798 1.6822 46.2303 0.8122
# 6 -13.1113 -12.5835 -6.1063 6.5968 0.8122 28.4077
#
#
#
# Elastic Compliance Matrix: (Units=1/GPa)
#
#
# Indices 1 2 3 4 5 6 
#
# 1 0.029331 -0.004273 0.001013 -0.036351 0.002156 0.020242
# 2 -0.004273 0.033793 -0.016186 0.024866 0.000511 0.003729
# 3 0.001013 -0.016186 0.021337 -0.027103 -0.000221 0.004184
# 4 -0.036351 0.024866 -0.027103 0.151053 -0.004723 -0.046531
# 5 0.002156 0.000511 -0.000221 -0.004723 0.021899 0.001644
# 6 0.020242 0.003729 0.004184 -0.046531 0.001644 0.057854
#
#
# Mechanical properties :
#
#
# Convention : Reuss Voigt Hill
#
# Bulk Modulus (GPa) = 21.94560 39.66707 30.80633
# Shear Modulus (GPa) = 13.53733 26.81707 20.17720
#
# Velocity S-wave (km/s) = 2.50745 3.52915 3.06123
# Velocity P-wave (km/s) = 4.30993 5.91858 5.17711
#
# Compressibility (1/GPa) = 0.04556723
#
# Stress axis : x y z
#
# Youngs Moduli (GPa) = 34.09408 29.59173 46.86797
#
# Poissons Ratio (x) = 0.12645 -0.04746
# Poissons Ratio (y) = 0.14569 0.75861
# Poissons Ratio (z) = -0.03453 0.47897
#
# Static dielectric constant tensor:
#      x y z
#    x 1.860270 -0.037170 0.060830 
#    y -0.037170 1.806890 -0.071210 
#    z 0.060830 -0.071210 1.847490 
# 
# From -- ./inp_files/140397.got.cif
#   From: 2010.05.17/outbox.cif.g08.bks.cpg/sg2_71_cif.got.tgz:140397.got - 2010.06.03 11:33:40.
