data_PCOD9021273
_publ_section_title
;
Structure prediction by ZEFSAII (Michael W. Deem and Ramdas Pophale) SiO2 
 PCOD9021273
Probable space group: P -1
;
_chemical_formula_sum "Si O2"
_cell_formula_units_Z 16
_cell_length_a 14.089706
_cell_length_b 13.794194
_cell_length_c 10.968451
_cell_angle_alpha 135.846867
_cell_angle_beta 148.313765
_cell_angle_gamma 45.989991
_cell_volume 759.037911
_symmetry_space_group_name_H-M "P -1"
_symmetry_group_IT_number 2
_symmetry_cell_setting 'triclinic'
loop_
_space_group_symop_operation_xyz
x,y,z
-x,-y,-z
loop_
_atom_site_type_symbol
_atom_site_label
_atom_site_fract_x
_atom_site_fract_y
_atom_site_fract_z
Si Si1 0.414730 0.194231 0.875134
Si Si2 0.579395 0.940530 0.665138
Si Si3 0.612637 0.402828 0.141873
Si Si4 0.376397 0.394112 0.225309
Si Si5 0.048953 0.329065 0.491382
Si Si6 0.035582 0.132213 0.080693
Si Si7 0.681939 0.639471 0.595935
Si Si8 0.099961 0.589477 0.911614
O O1 0.190647 0.234814 0.658209
O O2 0.488501 0.034748 0.764756
O O3 0.506437 0.282036 0.954308
O O4 0.463250 0.255556 0.112774
O O5 0.799826 0.931904 0.889887
O O6 0.564324 0.779546 0.527432
O O7 0.500000 0.000000 0.500000
O O8 0.608909 0.504249 0.347241
O O9 0.830632 0.344004 0.293173
O O10 0.500000 0.500000 0.000000
O O11 0.500000 0.500000 0.500000
O O12 0.308826 0.344341 0.234772
O O13 0.226871 0.497490 0.069095
O O14 0.103409 0.238467 0.346573
O O15 0.105271 0.481960 0.705455
O O16 0.872555 0.252448 0.947549
O O17 0.000000 0.000000 0.000000
O O18 0.890585 0.614922 0.753018
#
# Coordination Sequence:
#
# PCOD9021273 Si02
#       8
#     2   2   2   2   2   2   2   2
#     4  11  23  41  62  91 129 166 211 262 311 378
#     4  11  22  40  62  90 130 163 202 257 323 378
#     4  11  23  36  64  95 124 161 212 268 315 366
#     4  11  22  40  64  91 119 162 221 264 304 370
#     4  10  22  38  59  92 127 166 209 253 320 372
#     4  11  22  37  62  93 130 164 202 255 321 383
#     4  10  22  41  63  90 123 167 208 260 316 373
#     4   9  22  38  64  88 122 164 211 262 310 369
#
# _framework density 21.079314
#
# number of rings (size 3 to 8) (size 9 to 14) (size 15 to 20)
#    0.000    1.500    2.500    2.250    7.000    1.500 
#    0.000    0.000    0.000    1.500    0.000    0.000 
#    0.000    0.000    0.000    0.000    0.000    0.000 
#
# Total GULP energy -89250.572216 kJ/mol
# GULP energy per Si atom -5578.160763 kJ/mol
# Density = 2.103134 g / cm^3
# Si number density = 21.079314 Si / 1000 Ang^3
#
#
#
# Elastic Constant Matrix: (Units=GPa)
#
#
# Indices 1 2 3 4 5 6 
#
# 1 85.0556 25.4099 21.1817 -3.2702 -15.7642 -11.5526
# 2 25.4099 111.5016 25.5744 2.7257 -5.3481 -12.4838
# 3 21.1817 25.5744 69.3893 -9.9575 -12.1097 -12.6332
# 4 -3.2702 2.7257 -9.9575 25.5347 -2.4552 -4.9688
# 5 -15.7642 -5.3481 -12.1097 -2.4552 44.1099 2.7088
# 6 -11.5526 -12.4838 -12.6332 -4.9688 2.7088 42.4452
#
#
#
# Elastic Compliance Matrix: (Units=1/GPa)
#
#
# Indices 1 2 3 4 5 6 
#
# 1 0.014155 -0.002346 -0.001935 0.002215 0.004208 0.002578
# 2 -0.002346 0.010446 -0.003422 -0.002595 -0.000727 0.001158
# 3 -0.001935 -0.003422 0.019220 0.008998 0.004366 0.004962
# 4 0.002215 -0.002595 0.008998 0.045169 0.005002 0.007486
# 5 0.004208 -0.000727 0.004366 0.005002 0.025490 0.001190
# 6 0.002578 0.001158 0.004962 0.007486 0.001190 0.026879
#
#
# Mechanical properties :
#
#
# Convention : Reuss Voigt Hill
#
# Bulk Modulus (GPa) = 35.19239 45.58650 40.38945
# Shear Modulus (GPa) = 30.07737 35.33665 32.70701
#
# Velocity S-wave (km/s) = 3.78149 4.09879 3.94333
# Velocity P-wave (km/s) = 5.98311 6.63876 6.31945
#
# Compressibility (1/GPa) = 0.02841523
#
# Stress axis : x y z
#
# Youngs Moduli (GPa) = 70.64745 95.72837 52.02891
#
# Poissons Ratio (x) = 0.22454 0.10067
# Poissons Ratio (y) = 0.16571 0.17807
# Poissons Ratio (z) = 0.13669 0.32762
#
# Static dielectric constant tensor:
#      x y z
#    x 1.802840 0.013370 -0.019970 
#    y 0.013370 1.834950 -0.032070 
#    z -0.019970 -0.032070 1.802300 
# 
# From -- ./inp_files/336635.got.cif
#   From: 2010.05.17/outbox.cif.g08.bks.cpg/sg2_169_cif.got.tgz:336635.got - 2010.06.03 11:33:40.
