data_PCOD9021226
_publ_section_title
;
Structure prediction by ZEFSAII (Michael W. Deem and Ramdas Pophale) SiO2 
 PCOD9021226
Probable space group: P -1
;
_chemical_formula_sum "Si O2"
_cell_formula_units_Z 14
_cell_length_a 9.004110
_cell_length_b 14.492971
_cell_length_c 14.513606
_cell_angle_alpha 30.499473
_cell_angle_beta 53.356703
_cell_angle_gamma 75.472417
_cell_volume 588.202354
_symmetry_space_group_name_H-M "P -1"
_symmetry_group_IT_number 2
_symmetry_cell_setting 'triclinic'
loop_
_space_group_symop_operation_xyz
x,y,z
-x,-y,-z
loop_
_atom_site_type_symbol
_atom_site_label
_atom_site_fract_x
_atom_site_fract_y
_atom_site_fract_z
Si Si1 0.339676 0.562385 0.257053
Si Si2 0.817209 0.464043 0.971668
Si Si3 0.721587 0.788226 0.758069
Si Si4 0.044583 0.510915 0.665102
Si Si5 0.274592 0.310056 0.679880
Si Si6 0.346915 0.858673 0.528890
Si Si7 0.435207 0.030211 0.846108
O O1 0.334696 0.405240 0.471121
O O2 0.097901 0.443512 0.388996
O O3 0.559358 0.666336 0.015209
O O4 0.374207 0.782360 0.104032
O O5 0.730320 0.609310 0.851378
O O6 0.888085 0.395041 0.915775
O O7 0.076443 0.659066 0.758937
O O8 0.640126 0.266689 0.282520
O O9 0.636238 0.923131 0.630447
O O10 0.000000 0.000000 0.500000
O O11 0.075405 0.330391 0.766645
O O12 0.307883 0.756745 0.384147
O O13 0.500000 0.500000 0.500000
O O14 0.250403 0.076968 0.897315
O O15 0.516114 0.938051 0.309563
#
# Coordination Sequence:
#
# PCOD9021226 Si02
#       7
#     2   2   2   2   2   2   2
#     4  11  22  40  62  85 119 154 190 247 295 334
#     4   9  16  31  51  76 114 146 176 234 283 321
#     4   9  18  32  55  83 109 148 191 225 283 349
#     4  10  22  38  58  89 120 151 198 240 284 350
#     4  10  22  40  62  87 114 154 202 237 286 354
#     4   8  15  30  54  78 105 145 188 226 275 339
#     4   9  20  40  61  84 115 154 197 238 289 345
#
# _framework density 23.801331000000001
#
# number of rings (size 3 to 8) (size 9 to 14) (size 15 to 20)
#    0.000    2.571    0.000    2.143    0.000    6.857 
#    0.000    8.571    0.000    0.000    0.000    0.000 
#    0.000    0.000    0.000    0.000    0.000    0.000 
#
# Total GULP energy -78265.478455 kJ/mol
# GULP energy per Si atom -5590.391318 kJ/mol
# Density = 2.374716 g / cm^3
# Si number density = 23.801331 Si / 1000 Ang^3
#
#
#
# Elastic Constant Matrix: (Units=GPa)
#
#
# Indices 1 2 3 4 5 6 
#
# 1 103.0048 9.9442 24.7666 4.5760 -11.3401 9.0591
# 2 9.9442 104.9626 11.4627 -1.8649 -0.0890 -13.5725
# 3 24.7666 11.4627 58.7602 4.7013 -7.2166 -0.0546
# 4 4.5760 -1.8649 4.7013 35.9025 -6.6549 2.0869
# 5 -11.3401 -0.0890 -7.2166 -6.6549 23.6194 -4.6811
# 6 9.0591 -13.5725 -0.0546 2.0869 -4.6811 37.8350
#
#
#
# Elastic Compliance Matrix: (Units=1/GPa)
#
#
# Indices 1 2 3 4 5 6 
#
# 1 0.011446 -0.000968 -0.004179 -0.000131 0.003656 -0.002634
# 2 -0.000968 0.010315 -0.001650 0.000654 0.000027 0.003897
# 3 -0.004179 -0.001650 0.019685 -0.001488 0.003778 0.000987
# 4 -0.000131 0.000654 -0.001488 0.029556 0.007731 -0.000410
# 5 0.003656 0.000027 0.003778 0.007731 0.048357 0.004696
# 6 -0.002634 0.003897 0.000987 -0.000410 0.004696 0.029064
#
#
# Mechanical properties :
#
#
# Convention : Reuss Voigt Hill
#
# Bulk Modulus (GPa) = 35.90133 39.89718 37.89925
# Shear Modulus (GPa) = 29.18849 34.17497 31.68173
#
# Velocity S-wave (km/s) = 3.50571 3.79336 3.65237
# Velocity P-wave (km/s) = 5.61277 5.99876 5.80897
#
# Compressibility (1/GPa) = 0.02785412
#
# Stress axis : x y z
#
# Youngs Moduli (GPa) = 87.36298 96.95022 50.79928
#
# Poissons Ratio (x) = 0.09385 0.21227
# Poissons Ratio (y) = 0.08457 0.08379
# Poissons Ratio (z) = 0.36506 0.15992
#
# Static dielectric constant tensor:
#      x y z
#    x 1.891630 0.012860 -0.068270 
#    y 0.012860 1.889610 -0.037930 
#    z -0.068270 -0.037930 1.914700 
# 
# From -- ./inp_files/197324.got.cif
#   From: 2010.05.17/outbox.cif.g08.bks.cpg/sg2_99_cif.got.tgz:197324.got - 2010.06.03 11:33:40.
