data_PCOD9021121
_publ_section_title
;
Structure prediction by ZEFSAII (Michael W. Deem and Ramdas Pophale) SiO2 
 PCOD9021121
Probable space group: P -1
;
_chemical_formula_sum "Si O2"
_cell_formula_units_Z 12
_cell_length_a 12.029660
_cell_length_b 5.420346
_cell_length_c 9.716008
_cell_angle_alpha 108.825247
_cell_angle_beta 95.467381
_cell_angle_gamma 117.242409
_cell_volume 510.419522
_symmetry_space_group_name_H-M "P -1"
_symmetry_group_IT_number 2
_symmetry_cell_setting 'triclinic'
loop_
_space_group_symop_operation_xyz
x,y,z
-x,-y,-z
loop_
_atom_site_type_symbol
_atom_site_label
_atom_site_fract_x
_atom_site_fract_y
_atom_site_fract_z
Si Si1 0.262547 0.628555 0.782924
Si Si2 0.286296 0.698060 0.103566
Si Si3 0.299669 0.193512 0.497454
Si Si4 0.701649 0.727865 0.799143
Si Si5 0.538304 0.828437 0.260645
Si Si6 0.014335 0.711109 0.410913
O O1 0.285940 0.417429 0.642772
O O2 0.107780 0.496785 0.738620
O O3 0.345478 0.970777 0.794484
O O4 0.305151 0.608564 0.937610
O O5 0.220152 0.412470 0.145911
O O6 0.428150 0.913898 0.232198
O O7 0.229930 0.914181 0.112729
O O8 0.328109 0.342886 0.377994
O O9 0.398250 0.119068 0.572550
O O10 0.162430 0.876715 0.407727
O O11 0.561334 0.537862 0.827195
O O12 0.000000 0.500000 0.500000
O O13 0.000000 0.000000 0.500000
#
# Coordination Sequence:
#
# PCOD9021121 Si02
#       6
#     2   2   2   2   2   2
#     4  11  23  40  65  91 121 162 207 252 297 359
#     4  10  25  40  60  93 128 159 197 247 313 362
#     4  11  23  40  65  91 121 162 207 252 297 359
#     4  10  25  40  60  93 128 159 197 247 313 362
#     4  10  22  37  68  85 134 146 218 232 322 344
#     4  10  22  40  60  92 118 156 205 255 294 346
#
# _framework density 23.510071
#
# number of rings (size 3 to 8) (size 9 to 14) (size 15 to 20)
#    1.000    0.667    1.667    2.000    4.667    2.667 
#    0.000    1.667    0.000    0.000    0.000    0.000 
#    0.000    0.000    0.000    0.000    0.000    0.000 
#
# Total GULP energy -66895.240775 kJ/mol
# GULP energy per Si atom -5574.603398 kJ/mol
# Density = 2.345656 g / cm^3
# Si number density = 23.510071 Si / 1000 Ang^3
#
#
#
# Elastic Constant Matrix: (Units=GPa)
#
#
# Indices 1 2 3 4 5 6 
#
# 1 33.9674 36.6299 19.2558 -0.3422 11.9693 -1.6916
# 2 36.6299 152.4543 51.3889 -31.5049 11.2386 -19.2225
# 3 19.2558 51.3889 146.2784 -29.7640 -0.7680 -15.0674
# 4 -0.3422 -31.5049 -29.7640 35.3245 -8.7392 3.8457
# 5 11.9693 11.2386 -0.7680 -8.7392 20.5555 5.0957
# 6 -1.6916 -19.2225 -15.0674 3.8457 5.0957 39.1861
#
#
#
# Elastic Compliance Matrix: (Units=1/GPa)
#
#
# Indices 1 2 3 4 5 6 
#
# 1 0.069836 -0.016981 -0.010567 -0.034927 -0.046653 0.000116
# 2 -0.016981 0.013084 0.000849 0.013725 0.007693 0.003665
# 3 -0.010567 0.000849 0.010600 0.012124 0.010885 0.001431
# 4 -0.034927 0.013725 0.012124 0.060241 0.039176 -0.001120
# 5 -0.046653 0.007693 0.010885 0.039176 0.091087 -0.009744
# 6 0.000116 0.003665 0.001431 -0.001120 -0.009744 0.029249
#
#
# Mechanical properties :
#
#
# Convention : Reuss Voigt Hill
#
# Bulk Modulus (GPa) = 24.92366 60.80545 42.86455
# Shear Modulus (GPa) = 14.66831 34.04157 24.35494
#
# Velocity S-wave (km/s) = 2.50054 3.80933 3.22209
# Velocity P-wave (km/s) = 4.35445 6.72813 5.66696
#
# Compressibility (1/GPa) = 0.04012253
#
# Stress axis : x y z
#
# Youngs Moduli (GPa) = 14.31921 76.42694 94.33569
#
# Poissons Ratio (x) = 1.29783 0.99686
# Poissons Ratio (y) = 0.24316 -0.08012
# Poissons Ratio (z) = 0.15131 -0.06491
#
# Static dielectric constant tensor:
#      x y z
#    x 1.942680 -0.039050 -0.015830 
#    y -0.039050 1.912800 -0.008000 
#    z -0.015830 -0.008000 1.871720 
# 
# From -- ./inp_files/287267.got.cif
#   From: 2010.05.17/outbox.cif.g08.bks.cpg/sg2_144_cif.got.tgz:287267.got - 2010.06.03 11:33:40.
