data_PCOD9021335
_publ_section_title
;
Structure prediction by ZEFSAII (Michael W. Deem and Ramdas Pophale) SiO2 
 PCOD9021335
Probable space group: P -1
;
_chemical_formula_sum "Si O2"
_cell_formula_units_Z 16
_cell_length_a 9.254217
_cell_length_b 8.956059
_cell_length_c 20.019139
_cell_angle_alpha 80.733668
_cell_angle_beta 142.197699
_cell_angle_gamma 119.430869
_cell_volume 801.508615
_symmetry_space_group_name_H-M "P -1"
_symmetry_group_IT_number 2
_symmetry_cell_setting 'triclinic'
loop_
_space_group_symop_operation_xyz
x,y,z
-x,-y,-z
loop_
_atom_site_type_symbol
_atom_site_label
_atom_site_fract_x
_atom_site_fract_y
_atom_site_fract_z
Si Si1 0.062015 0.368311 0.259891
Si Si2 0.580404 0.942714 0.102086
Si Si3 0.415053 0.194983 0.197814
Si Si4 0.829983 0.576825 0.092188
Si Si5 0.894011 0.198411 0.954178
Si Si6 0.970102 0.450756 0.643212
Si Si7 0.497425 0.287113 0.375395
Si Si8 0.039877 0.858980 0.263018
O O1 0.313487 0.370542 0.313713
O O2 0.904126 0.435439 0.152366
O O3 0.180468 0.505237 0.357419
O O4 0.818045 0.149459 0.206747
O O5 0.309484 0.808263 0.062457
O O6 0.751231 0.853544 0.157297
O O7 0.500000 0.000000 0.000000
O O8 0.691101 0.366571 0.245691
O O9 0.502547 0.246763 0.302825
O O10 0.323267 0.994210 0.153887
O O11 0.127184 0.184109 0.079246
O O12 0.919069 0.634603 0.043605
O O13 0.036656 0.767815 0.198398
O O14 0.500000 0.500000 0.000000
O O15 0.806942 0.415726 0.516737
O O16 0.962712 0.272498 0.673362
O O17 0.310068 0.077704 0.354640
#
# Coordination Sequence:
#
# PCOD9021335 Si02
#       8
#     2   2   2   2   2   2   2   2
#     4  10  22  38  60  91 120 157 211 243 309 364
#     4  11  22  38  62  92 128 162 197 252 309 376
#     4  11  23  37  60  92 116 161 204 245 312 371
#     4  11  22  38  62  92 128 162 197 252 309 376
#     4  11  22  39  62  88 129 158 195 255 320 367
#     4  11  22  41  62  86 121 161 208 256 296 358
#     4  11  22  41  62  86 121 161 208 256 296 358
#     4  10  22  38  60  91 120 157 211 243 309 364
#
# _framework density 19.962356
#
# number of rings (size 3 to 8) (size 9 to 14) (size 15 to 20)
#    0.000    1.250    2.500    4.875    3.500    1.000 
#    0.000    3.750    0.000    1.500    0.000    0.000 
#    0.000    0.000    0.000    0.000    0.000    0.000 
#
# Total GULP energy -89346.776474 kJ/mol
# GULP energy per Si atom -5584.173530 kJ/mol
# Density = 1.991692 g / cm^3
# Si number density = 19.962356 Si / 1000 Ang^3
#
#
#
# Elastic Constant Matrix: (Units=GPa)
#
#
# Indices 1 2 3 4 5 6 
#
# 1 80.4090 35.0120 17.1222 -9.4354 -2.4485 2.3189
# 2 35.0120 91.5225 10.0040 -7.0595 4.3030 -11.4892
# 3 17.1222 10.0040 71.1236 -5.1799 -10.3207 -7.8447
# 4 -9.4354 -7.0595 -5.1799 28.5122 2.8392 -1.7205
# 5 -2.4485 4.3030 -10.3207 2.8392 33.0244 0.4508
# 6 2.3189 -11.4892 -7.8447 -1.7205 0.4508 36.1418
#
#
#
# Elastic Compliance Matrix: (Units=1/GPa)
#
#
# Indices 1 2 3 4 5 6 
#
# 1 0.016242 -0.006125 -0.003100 0.003000 0.000824 -0.003530
# 2 -0.006125 0.014196 -0.000204 0.002012 -0.002609 0.004990
# 3 -0.003100 -0.000204 0.016021 0.001594 0.004617 0.003630
# 4 0.003000 0.002012 0.001594 0.037287 -0.002783 0.002603
# 5 0.000824 -0.002609 0.004617 -0.002783 0.032369 -0.000416
# 6 -0.003530 0.004990 0.003630 0.002603 -0.000416 0.030398
#
#
# Mechanical properties :
#
#
# Convention : Reuss Voigt Hill
#
# Bulk Modulus (GPa) = 36.22920 40.81461 38.52190
# Shear Modulus (GPa) = 28.64123 31.59681 30.11902
#
# Velocity S-wave (km/s) = 3.79193 3.98278 3.88853
# Velocity P-wave (km/s) = 6.11227 6.45293 6.28491
#
# Compressibility (1/GPa) = 0.02760205
#
# Stress axis : x y z
#
# Youngs Moduli (GPa) = 61.56702 70.44270 62.41660
#
# Poissons Ratio (x) = 0.43147 0.19349
# Poissons Ratio (y) = 0.37710 0.01272
# Poissons Ratio (z) = 0.19085 0.01436
#
# Static dielectric constant tensor:
#      x y z
#    x 1.720140 0.011530 -0.024480 
#    y 0.011530 1.710210 0.028990 
#    z -0.024480 0.028990 1.709730 
# 
# From -- ./inp_files/178095.got.cif
#   From: 2010.05.17/outbox.cif.g08.bks.cpg/sg2_90_cif.got.tgz:178095.got - 2010.06.03 11:33:40.
