data_PCOD9021956
_publ_section_title
;
Structure prediction by ZEFSAII (Michael W. Deem and Ramdas Pophale) SiO2 
 PCOD9021956
Probable space group: P -1
;
_chemical_formula_sum "Si O2"
_cell_formula_units_Z 13
_cell_length_a 15.602957
_cell_length_b 10.179405
_cell_length_c 8.533619
_cell_angle_alpha 123.156505
_cell_angle_beta 61.204092
_cell_angle_gamma 153.682966
_cell_volume 502.922025
_symmetry_space_group_name_H-M "P -1"
_symmetry_group_IT_number 2
_symmetry_cell_setting 'triclinic'
loop_
_space_group_symop_operation_xyz
x,y,z
-x,-y,-z
loop_
_atom_site_type_symbol
_atom_site_label
_atom_site_fract_x
_atom_site_fract_y
_atom_site_fract_z
Si Si1 0.400814 0.736916 0.802153
Si Si2 0.653682 0.609703 0.143374
Si Si3 0.000000 0.000000 0.500000
Si Si4 0.244746 0.760538 0.366214
Si Si5 0.304843 0.335752 0.198408
Si Si6 0.025273 0.369162 0.981049
Si Si7 0.039536 0.808362 0.573773
O O1 0.419575 0.601330 0.789966
O O2 0.172219 0.457077 0.811108
O O3 0.527497 0.922501 0.657388
O O4 0.500000 0.000000 0.000000
O O5 0.508345 0.554484 0.223926
O O6 0.873658 0.956035 0.217390
O O7 0.655410 0.532808 0.920665
O O8 0.170540 0.247159 0.374847
O O9 0.906273 0.031968 0.530417
O O10 0.170170 0.833567 0.493237
O O11 0.169385 0.551822 0.438689
O O12 0.132388 0.544354 0.166612
O O13 0.174886 0.998538 0.060250
O O14 0.000000 0.500000 0.000000
#
# Coordination Sequence:
#
# PCOD9021956 Si02
#       7
#     2   2   1   2   2   2   2
#     4  10  22  38  67  99 131 180 221 281 340 416
#     4  11  24  45  72  98 138 184 233 279 349 417
#     4  12  26  40  68 102 140 176 232 290 340 410
#     4  10  23  44  68 102 136 184 227 285 352 415
#     4  11  25  42  67 104 135 181 232 286 337 418
#     4  11  21  40  68  99 137 175 226 286 342 412
#     4  11  24  45  71 100 141 183 230 288 349 410
#
# _framework density 25.848935999999998
#
# number of rings (size 3 to 8) (size 9 to 14) (size 15 to 20)
#    0.000    1.231    1.538    4.615    4.308    4.923 
#    0.000    0.000    0.000    7.385    0.000    0.000 
#    0.000    0.000    0.000    0.000    0.000    0.000 
#
# Total GULP energy -72595.141606 kJ/mol
# GULP energy per Si atom -5584.241662 kJ/mol
# Density = 2.579010 g / cm^3
# Si number density = 25.848936 Si / 1000 Ang^3
#
#
#
# Elastic Constant Matrix: (Units=GPa)
#
#
# Indices 1 2 3 4 5 6 
#
# 1 83.3490 32.4133 -0.5135 -5.8945 17.8544 -17.7555
# 2 32.4133 134.0693 9.0310 -20.3197 17.1836 -2.6008
# 3 -0.5135 9.0310 55.5388 -14.0164 2.1003 9.0859
# 4 -5.8945 -20.3197 -14.0164 44.8011 11.3896 -2.2879
# 5 17.8544 17.1836 2.1003 11.3896 36.5457 -7.8899
# 6 -17.7555 -2.6008 9.0859 -2.2879 -7.8899 53.4742
#
#
#
# Elastic Compliance Matrix: (Units=1/GPa)
#
#
# Indices 1 2 3 4 5 6 
#
# 1 0.015414 -0.002401 0.000905 0.003092 -0.006551 0.004013
# 2 -0.002401 0.009470 0.000106 0.005268 -0.005118 -0.000885
# 3 0.000905 0.000106 0.020712 0.007698 -0.004859 -0.003601
# 4 0.003092 0.005268 0.007698 0.031121 -0.014302 -0.000804
# 5 -0.006551 -0.005118 -0.004859 -0.014302 0.038454 0.003463
# 6 0.004013 -0.000885 -0.003601 -0.000804 0.003463 0.021079
#
#
# Mechanical properties :
#
#
# Convention : Reuss Voigt Hill
#
# Bulk Modulus (GPa) = 23.35707 39.42429 31.39068
# Shear Modulus (GPa) = 32.61519 42.43262 37.52391
#
# Velocity S-wave (km/s) = 3.55598 4.05601 3.81420
# Velocity P-wave (km/s) = 5.09074 6.10081 5.61852
#
# Compressibility (1/GPa) = 0.04281360
#
# Stress axis : x y z
#
# Youngs Moduli (GPa) = 64.87592 105.60162 48.28044
#
# Poissons Ratio (x) = 0.25359 -0.04367
# Poissons Ratio (y) = 0.15579 -0.00511
# Poissons Ratio (z) = -0.05868 -0.01117
#
# Static dielectric constant tensor:
#      x y z
#    x 2.041850 0.019880 -0.013740 
#    y 0.019880 1.928380 -0.004100 
#    z -0.013740 -0.004100 2.110370 
# 
# From -- ./inp_files/157567.got.cif
#   From: 2010.05.17/outbox.cif.g08.bks.cpg/sg2_79_cif.got.tgz:157567.got - 2010.06.03 11:33:40.
