data_PCOD9021165
_publ_section_title
;
Structure prediction by ZEFSAII (Michael W. Deem and Ramdas Pophale) SiO2 
 PCOD9021165
Probable space group: P -1
;
_chemical_formula_sum "Si O2"
_cell_formula_units_Z 14
_cell_length_a 9.040739
_cell_length_b 10.264833
_cell_length_c 24.121036
_cell_angle_alpha 35.380241
_cell_angle_beta 40.418184
_cell_angle_gamma 29.602261
_cell_volume 629.383404
_symmetry_space_group_name_H-M "P -1"
_symmetry_group_IT_number 2
_symmetry_cell_setting 'triclinic'
loop_
_space_group_symop_operation_xyz
x,y,z
-x,-y,-z
loop_
_atom_site_type_symbol
_atom_site_label
_atom_site_fract_x
_atom_site_fract_y
_atom_site_fract_z
Si Si1 0.620946 0.663435 0.444928
Si Si2 0.225476 0.148897 0.570484
Si Si3 0.824806 0.085144 0.653955
Si Si4 0.953298 0.736683 0.637303
Si Si5 0.289778 0.526524 0.141198
Si Si6 0.417009 0.970845 0.861065
Si Si7 0.361463 0.255114 0.998259
O O1 0.695877 0.844721 0.391843
O O2 0.700766 0.392503 0.552740
O O3 0.801252 0.513062 0.389076
O O4 0.268680 0.933901 0.441156
O O5 0.000000 0.500000 0.500000
O O6 0.054961 0.027251 0.654146
O O7 0.500000 0.000000 0.500000
O O8 0.026872 0.807770 0.649848
O O9 0.558956 0.101089 0.746737
O O10 0.758377 0.646971 0.742300
O O11 0.467377 0.310648 0.112411
O O12 0.467527 0.612702 0.091403
O O13 0.948595 0.799570 0.120446
O O14 0.554233 0.881767 0.915210
O O15 0.000000 0.500000 0.000000
O O16 0.500000 0.000000 0.000000
#
# Coordination Sequence:
#
# PCOD9021165 Si02
#       7
#     2   2   2   2   2   2   2
#     4  11  22  39  60  91 130 172 215 269 317 365
#     4  10  22  38  55  80 119 168 212 260 317 372
#     4  10  23  40  63  92 129 172 225 263 315 392
#     4  11  23  38  63  94 126 170 217 269 315 366
#     4  11  24  45  68  98 136 174 218 264 331 404
#     4  11  24  44  70  97 131 179 217 267 331 399
#     4  12  26  46  73 104 131 165 215 278 337 394
#
# _framework density 22.243994000000001
#
# number of rings (size 3 to 8) (size 9 to 14) (size 15 to 20)
#    0.000    1.143    0.000    6.857    0.000   11.429 
#    0.000    0.000    0.000    0.000    0.000    0.000 
#    0.000    0.000    0.000    0.000    0.000    0.000 
#
# Total GULP energy -78150.668720 kJ/mol
# GULP energy per Si atom -5582.190623 kJ/mol
# Density = 2.219337 g / cm^3
# Si number density = 22.243994 Si / 1000 Ang^3
#
#
#
# Elastic Constant Matrix: (Units=GPa)
#
#
# Indices 1 2 3 4 5 6 
#
# 1 212.4056 93.5323 49.7218 -5.2022 -29.9622 28.7626
# 2 93.5323 197.9193 31.9198 4.8365 -7.7394 3.1118
# 3 49.7218 31.9198 111.3807 -9.8849 -12.8961 13.4748
# 4 -5.2022 4.8365 -9.8849 11.8796 5.2218 -4.5701
# 5 -29.9622 -7.7394 -12.8961 5.2218 42.9601 -10.5739
# 6 28.7626 3.1118 13.4748 -4.5701 -10.5739 44.8377
#
#
#
# Elastic Compliance Matrix: (Units=1/GPa)
#
#
# Indices 1 2 3 4 5 6 
#
# 1 0.007319 -0.003036 -0.001595 0.000462 0.003236 -0.003194
# 2 -0.003036 0.006747 -0.001169 -0.004376 -0.000404 0.001289
# 3 -0.001595 -0.001169 0.010973 0.008145 0.000685 -0.001202
# 4 0.000462 -0.004376 0.008145 0.098901 -0.008665 0.005596
# 5 0.003236 -0.000404 0.000685 -0.008665 0.027547 0.003359
# 6 -0.003194 0.001289 -0.001202 0.005596 0.003359 0.025986
#
#
# Mechanical properties :
#
#
# Convention : Reuss Voigt Hill
#
# Bulk Modulus (GPa) = 74.41617 96.89484 85.65550
# Shear Modulus (GPa) = 25.83287 43.03758 34.43522
#
# Velocity S-wave (km/s) = 3.41154 4.40340 3.93882
# Velocity P-wave (km/s) = 7.00323 8.33714 7.69913
#
# Compressibility (1/GPa) = 0.01343794
#
# Stress axis : x y z
#
# Youngs Moduli (GPa) = 136.63900 148.22029 91.13429
#
# Poissons Ratio (x) = 0.44998 0.14535
# Poissons Ratio (y) = 0.41482 0.10656
# Poissons Ratio (z) = 0.21792 0.17331
#
# Static dielectric constant tensor:
#      x y z
#    x 1.908040 -0.025960 -0.009490 
#    y -0.025960 1.813070 -0.012830 
#    z -0.009490 -0.012830 1.864460 
# 
# From -- ./inp_files/606322.got.cif
#   From: 2010.05.17/outbox.cif.g08.bks.cpg/sg2_304_cif.got.tgz:606322.got - 2010.06.03 11:33:40.
