data_PCOD9021660
_publ_section_title
;
Structure prediction by ZEFSAII (Michael W. Deem and Ramdas Pophale) SiO2 
 PCOD9021660
Probable space group: P -1
;
_chemical_formula_sum "Si O2"
_cell_formula_units_Z 16
_cell_length_a 9.054940
_cell_length_b 9.131002
_cell_length_c 14.274144
_cell_angle_alpha 137.531374
_cell_angle_beta 76.131340
_cell_angle_gamma 80.310934
_cell_volume 657.721108
_symmetry_space_group_name_H-M "P -1"
_symmetry_group_IT_number 2
_symmetry_cell_setting 'triclinic'
loop_
_space_group_symop_operation_xyz
x,y,z
-x,-y,-z
loop_
_atom_site_type_symbol
_atom_site_label
_atom_site_fract_x
_atom_site_fract_y
_atom_site_fract_z
Si Si1 0.410272 0.336836 0.920776
Si Si2 0.175754 0.403872 0.824335
Si Si3 0.296482 0.849999 0.620973
Si Si4 0.429578 0.922037 0.827006
Si Si5 0.429435 0.511578 0.724888
Si Si6 0.938024 0.377259 0.720213
Si Si7 0.841048 0.499835 0.579382
Si Si8 0.718837 0.128804 0.646342
O O1 0.236439 0.475057 0.945340
O O2 0.574936 0.115108 0.727281
O O3 0.394908 0.203407 0.952993
O O4 0.500000 0.500000 0.000000
O O5 0.277081 0.468914 0.762396
O O6 0.983461 0.517275 0.859707
O O7 0.242616 0.110052 0.698210
O O8 0.317045 0.902080 0.749538
O O9 0.490981 0.623202 0.449878
O O10 0.165160 0.750025 0.568161
O O11 0.384498 0.800052 0.863777
O O12 0.643567 0.734036 0.695256
O O13 0.594082 0.333316 0.683808
O O14 0.859561 0.507814 0.693244
O O15 0.833386 0.250543 0.721144
O O16 0.132426 0.141069 0.544560
O O17 0.000000 0.500000 0.500000
#
# Coordination Sequence:
#
# PCOD9021660 Si02
#       8
#     2   2   2   2   2   2   2   2
#     4  10  23  42  60  77 103 149 202 235 267 318
#     4  10  21  31  58  82 106 148 188 225 272 327
#     4  10  18  32  47  76 118 146 182 213 271 338
#     4  10  21  34  52  78 111 145 184 230 272 324
#     4  10  17  31  49  81 112 144 176 226 274 321
#     4  11  19  32  55  88 119 142 175 216 288 349
#     4  11  21  30  49  86 125 152 165 216 286 342
#     4  10  19  34  56  81 117 146 178 223 271 334
#
# _framework density 24.326419000000001
#
# number of rings (size 3 to 8) (size 9 to 14) (size 15 to 20)
#    0.000    1.750    3.750    3.375    7.000    0.000 
#    0.000    3.125    0.000    0.750    0.000    0.000 
#    0.000    0.000    0.000    0.000    0.000    0.000 
#
# Total GULP energy -89296.975092 kJ/mol
# GULP energy per Si atom -5581.060943 kJ/mol
# Density = 2.427105 g / cm^3
# Si number density = 24.326419 Si / 1000 Ang^3
#
#
#
# Elastic Constant Matrix: (Units=GPa)
#
#
# Indices 1 2 3 4 5 6 
#
# 1 164.0354 55.3485 31.8771 -10.2367 16.5081 12.1141
# 2 55.3485 151.1234 18.7781 12.7210 9.0395 14.6729
# 3 31.8771 18.7781 41.1500 1.0079 8.5364 1.5256
# 4 -10.2367 12.7210 1.0079 33.6282 8.0268 2.5816
# 5 16.5081 9.0395 8.5364 8.0268 42.6826 -9.4681
# 6 12.1141 14.6729 1.5256 2.5816 -9.4681 52.8935
#
#
#
# Elastic Compliance Matrix: (Units=1/GPa)
#
#
# Indices 1 2 3 4 5 6 
#
# 1 0.008673 -0.002583 -0.004936 0.004657 -0.003120 -0.001913
# 2 -0.002583 0.008220 -0.001595 -0.003723 -0.000049 -0.001470
# 3 -0.004936 -0.001595 0.029588 -0.000973 -0.003455 0.000148
# 4 0.004657 -0.003723 -0.000973 0.034755 -0.008051 -0.003143
# 5 -0.003120 -0.000049 -0.003455 -0.008051 0.028243 0.006276
# 6 -0.001913 -0.001470 0.000148 -0.003143 0.006276 0.021024
#
#
# Mechanical properties :
#
#
# Convention : Reuss Voigt Hill
#
# Bulk Modulus (GPa) = 35.39256 63.14626 49.26941
# Shear Modulus (GPa) = 31.61604 42.52787 37.07196
#
# Velocity S-wave (km/s) = 3.60899 4.18570 3.90800
# Velocity P-wave (km/s) = 5.65217 7.02669 6.37658
#
# Compressibility (1/GPa) = 0.02825453
#
# Stress axis : x y z
#
# Youngs Moduli (GPa) = 115.30345 121.65148 33.79805
#
# Poissons Ratio (x) = 0.31418 0.16682
# Poissons Ratio (y) = 0.29779 0.05390
# Poissons Ratio (z) = 0.56910 0.19399
#
# Static dielectric constant tensor:
#      x y z
#    x 1.941280 -0.007760 0.020810 
#    y -0.007760 1.976180 -0.041530 
#    z 0.020810 -0.041530 2.109710 
# 
# From -- ./inp_files/268604.got.cif
#   From: 2010.05.17/outbox.cif.g08.bks.cpg/sg2_135_cif.got.tgz:268604.got - 2010.06.03 11:33:40.
