data_PCOD9021200
_publ_section_title
;
Structure prediction by ZEFSAII (Michael W. Deem and Ramdas Pophale) SiO2 
 PCOD9021200
Probable space group: P -1
;
_chemical_formula_sum "Si O2"
_cell_formula_units_Z 16
_cell_length_a 7.633239
_cell_length_b 15.653038
_cell_length_c 11.307102
_cell_angle_alpha 152.815621
_cell_angle_beta 82.556678
_cell_angle_gamma 91.141873
_cell_volume 598.317221
_symmetry_space_group_name_H-M "P -1"
_symmetry_group_IT_number 2
_symmetry_cell_setting 'triclinic'
loop_
_space_group_symop_operation_xyz
x,y,z
-x,-y,-z
loop_
_atom_site_type_symbol
_atom_site_label
_atom_site_fract_x
_atom_site_fract_y
_atom_site_fract_z
Si Si1 0.309625 0.279927 0.560500
Si Si2 0.121118 0.638540 0.876849
Si Si3 0.624021 0.135929 0.751053
Si Si4 0.215459 0.758160 0.783554
Si Si5 0.462498 0.132322 0.999143
Si Si6 0.201215 0.296781 0.832564
Si Si7 0.664618 0.312840 0.716587
Si Si8 0.861909 0.057990 0.207548
O O1 0.396427 0.071345 0.248565
O O2 0.154589 0.290860 0.688369
O O3 0.483566 0.317739 0.663654
O O4 0.237876 0.439509 0.668602
O O5 0.218294 0.812419 0.116475
O O6 0.127500 0.630882 0.724929
O O7 0.942755 0.685341 0.028927
O O8 0.630003 0.268410 0.800901
O O9 0.463723 0.177845 0.914023
O O10 0.668301 0.915055 0.433633
O O11 0.425544 0.738822 0.777917
O O12 0.197358 0.753539 0.638323
O O13 0.070779 0.961613 0.062207
O O14 0.268072 0.089923 0.995455
O O15 0.270136 0.493533 0.074274
O O16 0.807878 0.131637 0.433192
#
# Coordination Sequence:
#
# PCOD9021200 Si02
#       8
#     2   2   2   2   2   2   2   2
#     4  10  22  38  57  92 128 164 199 250 317 371
#     4  11  22  39  59  91 125 163 208 257 306 369
#     4  10  22  38  63  92 127 160 207 251 306 379
#     4  10  22  42  66  90 123 159 218 264 300 369
#     4   9  21  40  66  91 124 165 205 257 316 367
#     4  11  22  36  61  88 126 166 198 248 314 368
#     4  11  23  40  60  91 130 162 204 256 305 375
#     4  10  22  41  67  91 120 167 212 257 312 364
#
# _framework density 26.741665999999999
#
# number of rings (size 3 to 8) (size 9 to 14) (size 15 to 20)
#    0.000    1.750    1.250    2.250    1.750    6.500 
#    6.750    3.125    2.750    0.000    0.000    0.000 
#    0.000    0.000    0.000    0.000    0.000    0.000 
#
# Total GULP energy -89416.560165 kJ/mol
# GULP energy per Si atom -5588.535010 kJ/mol
# Density = 2.668080 g / cm^3
# Si number density = 26.741666 Si / 1000 Ang^3
#
#
#
# Elastic Constant Matrix: (Units=GPa)
#
#
# Indices 1 2 3 4 5 6 
#
# 1 115.0686 31.4075 11.7556 0.1168 1.5874 18.7543
# 2 31.4075 184.5767 -2.0374 20.7262 -3.3392 13.5214
# 3 11.7556 -2.0374 51.4337 15.2379 0.8949 2.7919
# 4 0.1168 20.7262 15.2379 32.7882 9.3631 -2.4435
# 5 1.5874 -3.3392 0.8949 9.3631 25.4905 1.1418
# 6 18.7543 13.5214 2.7919 -2.4435 1.1418 48.5452
#
#
#
# Elastic Compliance Matrix: (Units=1/GPa)
#
#
# Indices 1 2 3 4 5 6 
#
# 1 0.010012 -0.001859 -0.002993 0.002777 -0.001648 -0.003000
# 2 -0.001859 0.006685 0.002664 -0.006550 0.003380 -0.001706
# 3 -0.002993 0.002664 0.024605 -0.014721 0.005162 -0.001863
# 4 0.002777 -0.006550 -0.014721 0.046922 -0.017946 0.004382
# 5 -0.001648 0.003380 0.005162 -0.017946 0.046302 -0.002594
# 6 -0.003000 -0.001706 -0.001863 0.004382 -0.002594 0.022622
#
#
# Mechanical properties :
#
#
# Convention : Reuss Voigt Hill
#
# Bulk Modulus (GPa) = 27.08131 48.14782 37.61457
# Shear Modulus (GPa) = 28.76316 42.02834 35.39575
#
# Velocity S-wave (km/s) = 3.28318 3.96870 3.64210
# Velocity P-wave (km/s) = 4.95191 6.24857 5.63764
#
# Compressibility (1/GPa) = 0.03692583
#
# Stress axis : x y z
#
# Youngs Moduli (GPa) = 99.87618 149.58677 40.64246
#
# Poissons Ratio (x) = 0.27804 0.12166
# Poissons Ratio (y) = 0.18564 -0.10827
# Poissons Ratio (z) = 0.29897 -0.39848
#
# Static dielectric constant tensor:
#      x y z
#    x 2.155050 -0.005250 0.005760 
#    y -0.005250 2.181420 -0.065530 
#    z 0.005760 -0.065530 2.118250 
# 
# From -- ./inp_files/399989.got.cif
#   From: 2010.05.17/outbox.cif.g08.bks.cpg/sg2_200_cif.got.tgz:399989.got - 2010.06.03 11:33:40.
