data_PCOD9021800
_publ_section_title
;
Structure prediction by ZEFSAII (Michael W. Deem and Ramdas Pophale) SiO2 
 PCOD9021800
Probable space group: P -1
;
_chemical_formula_sum "Si O2"
_cell_formula_units_Z 14
_cell_length_a 5.287751
_cell_length_b 7.943601
_cell_length_c 17.791581
_cell_angle_alpha 47.555236
_cell_angle_beta 86.614154
_cell_angle_gamma 92.921066
_cell_volume 546.301577
_symmetry_space_group_name_H-M "P -1"
_symmetry_group_IT_number 2
_symmetry_cell_setting 'triclinic'
loop_
_space_group_symop_operation_xyz
x,y,z
-x,-y,-z
loop_
_atom_site_type_symbol
_atom_site_label
_atom_site_fract_x
_atom_site_fract_y
_atom_site_fract_z
Si Si1 0.565617 0.589308 0.592137
Si Si2 0.557599 0.230017 0.207546
Si Si3 0.189086 0.478936 0.240623
Si Si4 0.936436 0.679740 0.063651
Si Si5 0.142396 0.976301 0.615282
Si Si6 0.774696 0.294194 0.557747
Si Si7 0.522306 0.242336 0.045603
O O1 0.613312 0.494852 0.701884
O O2 0.763510 0.823368 0.505015
O O3 0.590095 0.379253 0.597967
O O4 0.321183 0.687823 0.531427
O O5 0.355841 0.388991 0.196703
O O6 0.820136 0.408820 0.137815
O O7 0.482683 0.111616 0.165123
O O8 0.624805 0.057711 0.323320
O O9 0.039653 0.678661 0.148190
O O10 0.971301 0.276828 0.330206
O O11 0.699166 0.803433 0.999638
O O12 0.191439 0.761394 0.987799
O O13 0.912048 0.070688 0.635829
O O14 0.000000 0.500000 0.500000
O O15 0.500000 0.500000 0.000000
#
# Coordination Sequence:
#
# PCOD9021800 Si02
#       7
#     2   2   2   2   2   2   2
#     4  10  21  38  55  77 110 150 189 234 275 337
#     4  10  20  29  50  79 116 146 183 224 287 330
#     4  11  21  32  53  87 118 145 181 235 289 333
#     4  10  19  32  50  77 116 152 185 222 282 337
#     4  10  21  34  52  82 114 146 188 231 280 339
#     4   9  20  39  57  70 102 151 199 228 276 331
#     4  10  17  31  50  72 116 152 184 225 274 339
#
# _framework density 25.626871999999999
#
# number of rings (size 3 to 8) (size 9 to 14) (size 15 to 20)
#    0.000    2.000    2.857    3.000    2.000    6.857 
#    0.000    0.000    0.000    0.000    0.000    2.000 
#    0.000    5.857    0.000    0.143    0.000    0.000 
#
# Total GULP energy -78059.965316 kJ/mol
# GULP energy per Si atom -5575.711808 kJ/mol
# Density = 2.556854 g / cm^3
# Si number density = 25.626872 Si / 1000 Ang^3
#
#
#
# Elastic Constant Matrix: (Units=GPa)
#
#
# Indices 1 2 3 4 5 6 
#
# 1 146.5353 11.8399 32.9776 19.2521 15.9916 16.3396
# 2 11.8399 46.4872 26.8126 3.5279 -5.1687 11.9095
# 3 32.9776 26.8126 110.6876 40.3444 21.7287 21.0730
# 4 19.2521 3.5279 40.3444 34.6448 12.0367 7.4086
# 5 15.9916 -5.1687 21.7287 12.0367 44.1180 12.1163
# 6 16.3396 11.9095 21.0730 7.4086 12.1163 27.3635
#
#
#
# Elastic Compliance Matrix: (Units=1/GPa)
#
#
# Indices 1 2 3 4 5 6 
#
# 1 0.007786 -0.001108 -0.000225 -0.002933 -0.001323 -0.002614
# 2 -0.001108 0.030945 -0.009733 0.007884 0.009921 -0.011838
# 3 -0.000225 -0.009733 0.020515 -0.020364 -0.004534 -0.003908
# 4 -0.002933 0.007884 -0.020364 0.054305 -0.002968 0.000614
# 5 -0.001323 0.009921 -0.004534 -0.002968 0.030898 -0.012914
# 6 -0.002614 -0.011838 -0.003908 0.000614 -0.012914 0.051819
#
#
# Mechanical properties :
#
#
# Convention : Reuss Voigt Hill
#
# Bulk Modulus (GPa) = 26.94397 49.66337 38.30367
# Shear Modulus (GPa) = 21.66637 36.69727 29.18182
#
# Velocity S-wave (km/s) = 2.91083 3.78826 3.37815
# Velocity P-wave (km/s) = 4.67268 6.20935 5.49500
#
# Compressibility (1/GPa) = 0.03711406
#
# Stress axis : x y z
#
# Youngs Moduli (GPa) = 128.44182 32.31538 48.74369
#
# Poissons Ratio (x) = 0.03582 0.01095
# Poissons Ratio (y) = 0.14236 0.47443
# Poissons Ratio (z) = 0.02884 0.31453
#
# Static dielectric constant tensor:
#      x y z
#    x 2.088920 0.006210 0.014800 
#    y 0.006210 2.065220 0.007850 
#    z 0.014800 0.007850 2.162910 
# 
# From -- ./inp_files/547769.got.cif
#   From: 2010.05.17/outbox.cif.g08.bks.cpg/sg2_274_cif.got.tgz:547769.got - 2010.06.03 11:33:40.
