data_PCOD9021066
_publ_section_title
;
Structure prediction by ZEFSAII (Michael W. Deem and Ramdas Pophale) SiO2 
 PCOD9021066
Probable space group: P -1
;
_chemical_formula_sum "Si O2"
_cell_formula_units_Z 15
_cell_length_a 11.434228
_cell_length_b 13.774745
_cell_length_c 11.483934
_cell_angle_alpha 38.394523
_cell_angle_beta 107.457230
_cell_angle_gamma 136.137186
_cell_volume 613.214466
_symmetry_space_group_name_H-M "P -1"
_symmetry_group_IT_number 2
_symmetry_cell_setting 'triclinic'
loop_
_space_group_symop_operation_xyz
x,y,z
-x,-y,-z
loop_
_atom_site_type_symbol
_atom_site_label
_atom_site_fract_x
_atom_site_fract_y
_atom_site_fract_z
Si Si1 0.000000 0.000000 0.000000
Si Si2 0.356822 0.655168 0.227920
Si Si3 0.363469 0.257618 0.922359
Si Si4 0.509728 0.280409 0.552572
Si Si5 0.889121 0.931869 0.283437
Si Si6 0.449797 0.114335 0.433041
Si Si7 0.725015 0.605477 0.880918
Si Si8 0.964044 0.599104 0.802946
O O1 0.956931 0.056621 0.058101
O O2 0.883434 0.017238 0.865167
O O3 0.553202 0.803718 0.065478
O O4 0.422656 0.756091 0.284745
O O5 0.197431 0.602731 0.161918
O O6 0.242719 0.366023 0.475627
O O7 0.329948 0.396925 0.717292
O O8 0.542193 0.487211 0.855050
O O9 0.502244 0.183509 0.520122
O O10 0.280872 0.119783 0.666106
O O11 0.086397 0.112957 0.259403
O O12 0.591821 0.380273 0.152008
O O13 0.500000 0.000000 0.500000
O O14 0.198977 0.886482 0.558706
O O15 0.847741 0.613563 0.826199
O O16 0.000000 0.500000 0.000000
#
# Coordination Sequence:
#
# PCOD9021066 Si02
#       8
#     1   2   2   2   2   2   2   2
#     4  12  20  34  58  96 148 170 198 268 322 418
#     4  10  22  42  67  97 135 175 216 268 346 408
#     4  10  22  37  65  99 141 168 216 263 342 407
#     4  11  21  43  65  96 137 178 213 276 342 401
#     4  11  22  38  64 103 141 172 207 270 348 403
#     4  12  26  44  70  93 128 180 236 279 319 386
#     4  11  25  41  67 102 134 176 225 271 331 405
#     4  11  24  47  70  90 131 181 229 282 324 383
#
# _framework density 24.461262999999999
#
# number of rings (size 3 to 8) (size 9 to 14) (size 15 to 20)
#    0.000    1.067    5.333    1.600    3.733    2.667 
#    0.000    1.333    2.933    0.000    0.000    0.000 
#    0.000    0.000    0.000    0.000    0.000    0.000 
#
# Total GULP energy -83707.574980 kJ/mol
# GULP energy per Si atom -5580.504999 kJ/mol
# Density = 2.440559 g / cm^3
# Si number density = 24.461263 Si / 1000 Ang^3
#
#
#
# Elastic Constant Matrix: (Units=GPa)
#
#
# Indices 1 2 3 4 5 6 
#
# 1 112.0058 59.6147 32.6291 11.0161 -29.0544 0.5710
# 2 59.6147 198.9861 15.1992 26.1361 -4.3122 5.4357
# 3 32.6291 15.1992 46.9705 7.3385 -23.5394 -4.4157
# 4 11.0161 26.1361 7.3385 36.7950 0.9243 -7.9494
# 5 -29.0544 -4.3122 -23.5394 0.9243 36.2841 4.2731
# 6 0.5710 5.4357 -4.4157 -7.9494 4.2731 46.6043
#
#
#
# Elastic Compliance Matrix: (Units=1/GPa)
#
#
# Indices 1 2 3 4 5 6 
#
# 1 0.014495 -0.003602 -0.004622 -0.001326 0.008354 -0.001188
# 2 -0.003602 0.006604 -0.000129 -0.003799 -0.001944 -0.001208
# 3 -0.004622 -0.000129 0.035109 -0.005869 0.019135 0.000643
# 4 -0.001326 -0.003799 -0.005869 0.032946 -0.006885 0.006154
# 5 0.008354 -0.001944 0.019135 -0.006885 0.047026 -0.003549
# 6 -0.001188 -0.001208 0.000643 0.006154 -0.003549 0.023049
#
#
# Mechanical properties :
#
#
# Convention : Reuss Voigt Hill
#
# Bulk Modulus (GPa) = 25.31452 63.64982 44.48217
# Shear Modulus (GPa) = 26.44066 40.63798 33.53932
#
# Velocity S-wave (km/s) = 3.29130 4.08035 3.70688
# Velocity P-wave (km/s) = 4.98145 6.94811 6.04529
#
# Compressibility (1/GPa) = 0.03950303
#
# Stress axis : x y z
#
# Youngs Moduli (GPa) = 68.98860 151.41512 28.48270
#
# Poissons Ratio (x) = 0.54540 0.13163
# Poissons Ratio (y) = 0.24850 0.00368
# Poissons Ratio (z) = 0.31883 0.01957
#
# Static dielectric constant tensor:
#      x y z
#    x 1.805820 -0.144300 0.264360 
#    y -0.144300 1.868400 0.299250 
#    z 0.264360 0.299250 1.560090 
# 
# From -- ./inp_files/258748.got.cif
#   From: 2010.05.17/outbox.cif.g08.bks.cpg/sg2_130_cif.got.tgz:258748.got - 2010.06.03 11:33:40.
