data_PCOD9021163
_publ_section_title
;
Structure prediction by ZEFSAII (Michael W. Deem and Ramdas Pophale) SiO2 
 PCOD9021163
Probable space group: P -1
;
_chemical_formula_sum "Si O2"
_cell_formula_units_Z 15
_cell_length_a 4.608259
_cell_length_b 22.265363
_cell_length_c 23.966773
_cell_angle_alpha 12.119815
_cell_angle_beta 74.811599
_cell_angle_gamma 73.522472
_cell_volume 493.664449
_symmetry_space_group_name_H-M "P -1"
_symmetry_group_IT_number 2
_symmetry_cell_setting 'triclinic'
loop_
_space_group_symop_operation_xyz
x,y,z
-x,-y,-z
loop_
_atom_site_type_symbol
_atom_site_label
_atom_site_fract_x
_atom_site_fract_y
_atom_site_fract_z
Si Si1 0.828534 0.536667 0.608960
Si Si2 0.480381 0.807882 0.469841
Si Si3 0.883914 0.734500 0.010453
Si Si4 0.818414 0.726210 0.261171
Si Si5 0.842941 0.926025 0.657399
Si Si6 0.214074 0.461401 0.144058
Si Si7 0.500000 0.500000 0.000000
Si Si8 0.463486 0.990165 0.130708
O O1 0.799456 0.690951 0.530622
O O2 0.146150 0.425320 0.663658
O O3 0.644175 0.762229 0.371015
O O4 0.648578 0.261964 0.871107
O O5 0.300553 0.534808 0.730147
O O6 0.446435 0.956193 0.396294
O O7 0.303740 0.040430 0.226191
O O8 0.178927 0.615661 0.066694
O O9 0.853608 0.891672 0.929840
O O10 0.000000 0.500000 0.500000
O O11 0.500463 0.839334 0.204944
O O12 0.000000 0.000000 0.000000
O O13 0.704673 0.765048 0.760903
O O14 0.027417 0.195377 0.397675
O O15 0.087955 0.694256 0.889456
O O16 0.543724 0.397055 0.158964
#
# Coordination Sequence:
#
# PCOD9021163 Si02
#       8
#     2   2   2   2   2   2   1   2
#     4   8  12  18  30  48  73 107 142 179 224 268
#     4   8  14  26  42  59  84 118 152 189 234 280
#     4   8  14  26  42  59  84 118 152 189 234 280
#     4   8  12  16  24  44  72 101 138 179 218 264
#     4  10  22  38  55  78 105 133 169 209 250 302
#     4  10  22  38  55  78 105 133 169 209 250 302
#     4  12  24  38  60  80 104 136 168 206 260 304
#     4   8  12  18  30  48  73 107 142 179 224 268
#
# _framework density 30.385010000000001
#
# number of rings (size 3 to 8) (size 9 to 14) (size 15 to 20)
#    0.000    3.200    0.000    0.800    0.000    2.133 
#    0.000    0.000    0.000    0.000    0.000    0.000 
#    0.000    1.067    0.000    0.267    0.000  340.267 
#
# Total GULP energy -83957.047344 kJ/mol
# GULP energy per Si atom -5597.136490 kJ/mol
# Density = 3.031585 g / cm^3
# Si number density = 30.385010 Si / 1000 Ang^3
#
#
#
# Elastic Constant Matrix: (Units=GPa)
#
#
# Indices 1 2 3 4 5 6 
#
# 1 117.1393 19.2286 68.1640 4.9043 -5.9467 14.4773
# 2 19.2286 266.6955 50.7921 -26.2634 -24.8099 -11.4984
# 3 68.1640 50.7921 215.8700 21.1927 10.3633 -3.5538
# 4 4.9043 -26.2634 21.1927 66.3205 -6.0726 -9.7557
# 5 -5.9467 -24.8099 10.3633 -6.0726 45.5473 3.7638
# 6 14.4773 -11.4984 -3.5538 -9.7557 3.7638 24.1199
#
#
#
# Elastic Compliance Matrix: (Units=1/GPa)
#
#
# Indices 1 2 3 4 5 6 
#
# 1 0.012177 -0.000299 -0.003986 -0.000771 0.002959 -0.008812
# 2 -0.000299 0.004759 -0.001424 0.003083 0.003039 0.003011
# 3 -0.003986 -0.001424 0.006655 -0.002367 -0.003312 0.002253
# 4 -0.000771 0.003083 -0.002367 0.018728 0.003908 0.008548
# 5 0.002959 0.003039 -0.003312 0.003908 0.025538 -0.003220
# 6 -0.008812 0.003011 0.002253 0.008548 -0.003220 0.052476
#
#
# Mechanical properties :
#
#
# Convention : Reuss Voigt Hill
#
# Bulk Modulus (GPa) = 82.16117 97.34158 89.75137
# Shear Modulus (GPa) = 36.81651 57.96553 47.39102
#
# Velocity S-wave (km/s) = 3.48468 4.37246 3.95357
# Velocity P-wave (km/s) = 6.57947 7.58926 7.10233
#
# Compressibility (1/GPa) = 0.01217120
#
# Stress axis : x y z
#
# Youngs Moduli (GPa) = 82.12069 210.14940 150.26933
#
# Poissons Ratio (x) = 0.06291 0.59900
# Poissons Ratio (y) = 0.02458 0.21400
# Poissons Ratio (z) = 0.32735 0.29927
#
# Static dielectric constant tensor:
#      x y z
#    x 1.743240 0.414010 -0.090920 
#    y 0.414010 1.858130 0.281100 
#    z -0.090920 0.281100 2.251400 
# 
# From -- ./inp_files/9973.got.cif
#   From: 2010.05.17/outbox.cif.g08.bks.cpg/sg2_5_cif.got.tgz:9973.got - 2010.06.03 11:33:40.
