data_PCOD9021876
_publ_section_title
;
Structure prediction by ZEFSAII (Michael W. Deem and Ramdas Pophale) SiO2 
 PCOD9021876
Probable space group: P -1
;
_chemical_formula_sum "Si O2"
_cell_formula_units_Z 16
_cell_length_a 7.714653
_cell_length_b 11.486273
_cell_length_c 10.616390
_cell_angle_alpha 107.541485
_cell_angle_beta 66.138374
_cell_angle_gamma 73.479592
_cell_volume 725.850047
_symmetry_space_group_name_H-M "P -1"
_symmetry_group_IT_number 2
_symmetry_cell_setting 'triclinic'
loop_
_space_group_symop_operation_xyz
x,y,z
-x,-y,-z
loop_
_atom_site_type_symbol
_atom_site_label
_atom_site_fract_x
_atom_site_fract_y
_atom_site_fract_z
Si Si1 0.525056 0.234153 0.857488
Si Si2 0.697663 0.473274 0.052614
Si Si3 0.907359 0.577578 0.248505
Si Si4 0.140578 0.796809 0.958396
Si Si5 0.489730 0.149184 0.555008
Si Si6 0.119598 0.294938 0.182289
Si Si7 0.357586 0.038205 0.180327
Si Si8 0.276398 0.953294 0.773971
O O1 0.503870 0.387364 0.893289
O O2 0.516968 0.190120 0.701211
O O3 0.698886 0.087745 0.819827
O O4 0.315371 0.266466 0.016869
O O5 0.791108 0.525926 0.160634
O O6 0.688790 0.337742 0.062747
O O7 0.891879 0.421229 0.879433
O O8 0.735473 0.729284 0.386941
O O9 0.998768 0.459225 0.288996
O O10 0.237309 0.881509 0.884094
O O11 0.035249 0.746512 0.864035
O O12 0.933334 0.900721 0.132590
O O13 0.669719 0.135411 0.397215
O O14 0.500000 0.000000 0.500000
O O15 0.188353 0.194906 0.249949
O O16 0.515587 0.032322 0.242547
O O17 0.500000 0.000000 0.000000
#
# Coordination Sequence:
#
# PCOD9021876 Si02
#       8
#     2   2   2   2   2   2   2   2
#     4   9  16  28  50  75  91 122 166 200 227 269
#     4   8  14  27  47  69  94 120 160 201 225 269
#     4   8  15  25  47  72  92 125 162 195 230 269
#     4  10  18  32  47  74  98 120 157 200 246 274
#     4  11  17  28  46  73 104 119 154 203 244 272
#     4   9  16  32  53  72  93 127 165 195 225 278
#     4  10  17  31  50  74  92 123 166 196 229 277
#     4  11  21  29  47  78  97 124 152 200 248 283
#
# _framework density 22.043119000000001
#
# number of rings (size 3 to 8) (size 9 to 14) (size 15 to 20)
#    0.000    2.500    3.750    3.000    0.000    0.000 
#    0.000    6.250    0.000    7.500    0.000    0.000 
#    0.000    0.000    0.000    0.000    0.000    0.000 
#
# Total GULP energy -89133.108414 kJ/mol
# GULP energy per Si atom -5570.819276 kJ/mol
# Density = 2.199295 g / cm^3
# Si number density = 22.043119 Si / 1000 Ang^3
#
#
#
# Elastic Constant Matrix: (Units=GPa)
#
#
# Indices 1 2 3 4 5 6 
#
# 1 48.3511 21.4477 4.7381 0.7883 1.5668 -11.9190
# 2 21.4477 198.6164 56.4633 38.3715 -0.4256 -24.3480
# 3 4.7381 56.4633 85.4652 23.6718 2.8830 -10.2705
# 4 0.7883 38.3715 23.6718 34.4556 -3.3025 5.3838
# 5 1.5668 -0.4256 2.8830 -3.3025 10.3138 0.4743
# 6 -11.9190 -24.3480 -10.2705 5.3838 0.4743 28.3748
#
#
#
# Elastic Compliance Matrix: (Units=1/GPa)
#
#
# Indices 1 2 3 4 5 6 
#
# 1 0.023780 -0.001418 0.001543 -0.002057 -0.005212 0.009808
# 2 -0.001418 0.008559 -0.001853 -0.009698 -0.002385 0.007958
# 3 0.001543 -0.001853 0.017442 -0.012079 -0.009414 0.007821
# 4 -0.002057 -0.009698 -0.012079 0.054026 0.021700 -0.024171
# 5 -0.005212 -0.002385 -0.009414 0.021700 0.107854 -0.013563
# 6 0.009808 0.007958 0.007821 -0.024171 -0.013563 0.053835
#
#
# Mechanical properties :
#
#
# Convention : Reuss Voigt Hill
#
# Bulk Modulus (GPa) = 21.58676 55.30343 38.44509
# Shear Modulus (GPa) = 17.58125 31.28106 24.43116
#
# Velocity S-wave (km/s) = 2.82722 3.77116 3.33278
# Velocity P-wave (km/s) = 4.52457 6.64119 5.68231
#
# Compressibility (1/GPa) = 0.04632470
#
# Stress axis : x y z
#
# Youngs Moduli (GPa) = 42.05205 116.84010 57.33159
#
# Poissons Ratio (x) = 0.16566 -0.08844
# Poissons Ratio (y) = 0.05962 0.10623
# Poissons Ratio (z) = -0.06487 0.21650
#
# Static dielectric constant tensor:
#      x y z
#    x 1.897180 -0.021390 0.030460 
#    y -0.021390 1.920470 0.018040 
#    z 0.030460 0.018040 1.805870 
# 
# From -- ./inp_files/390637.got.cif
#   From: 2010.05.17/outbox.cif.g08.bks.cpg/sg2_196_cif.got.tgz:390637.got - 2010.06.03 11:33:40.
