data_PCOD9021903
_publ_section_title
;
Structure prediction by ZEFSAII (Michael W. Deem and Ramdas Pophale) SiO2 
 PCOD9021903
Probable space group: P -1
;
_chemical_formula_sum "Si O2"
_cell_formula_units_Z 14
_cell_length_a 8.817711
_cell_length_b 8.197380
_cell_length_c 16.509843
_cell_angle_alpha 78.264970
_cell_angle_beta 141.347403
_cell_angle_gamma 81.043583
_cell_volume 625.877916
_symmetry_space_group_name_H-M "P -1"
_symmetry_group_IT_number 2
_symmetry_cell_setting 'triclinic'
loop_
_space_group_symop_operation_xyz
x,y,z
-x,-y,-z
loop_
_atom_site_type_symbol
_atom_site_label
_atom_site_fract_x
_atom_site_fract_y
_atom_site_fract_z
Si Si1 0.499434 0.157218 0.424210
Si Si2 0.881735 0.448519 0.674873
Si Si3 0.896062 0.044203 0.359271
Si Si4 0.574081 0.356897 0.669941
Si Si5 0.382976 0.511198 0.860804
Si Si6 0.161551 0.616110 0.070294
Si Si7 0.397700 0.026875 0.219842
O O1 0.296832 0.491750 0.488085
O O2 0.414879 0.125351 0.301893
O O3 0.825990 0.101060 0.560613
O O4 0.500000 0.000000 0.500000
O O5 0.627026 0.457073 0.758412
O O6 0.717463 0.639435 0.645145
O O7 0.186918 0.417055 0.789391
O O8 0.794158 0.264724 0.267517
O O9 0.626905 0.017219 0.253031
O O10 0.000000 0.000000 0.500000
O O11 0.833644 0.297158 0.721418
O O12 0.652262 0.401472 0.926608
O O13 0.551319 0.180016 0.712793
O O14 0.500000 0.500000 0.000000
O O15 0.000000 0.500000 0.000000
O O16 0.912412 0.834919 0.959161
#
# Coordination Sequence:
#
# PCOD9021903 Si02
#       7
#     2   2   2   2   2   2   2
#     4  11  19  39  70  96 128 177 224 267 331 396
#     4  11  24  44  66 100 140 175 220 277 330 396
#     4  10  22  38  67 100 129 171 229 275 318 397
#     4  11  25  45  66  95 140 177 220 278 335 396
#     4  12  24  42  69 105 133 172 229 279 328 401
#     4  12  25  44  71  94 130 181 225 272 342 400
#     4  11  22  43  64  99 134 172 222 273 329 396
#
# _framework density 22.368580000000001
#
# number of rings (size 3 to 8) (size 9 to 14) (size 15 to 20)
#    0.000    0.857    4.286    3.857    2.000    0.571 
#    5.143    0.714    0.000    0.000    0.000    0.000 
#    0.000    0.000    0.000    0.000    0.000    0.000 
#
# Total GULP energy -78302.720569 kJ/mol
# GULP energy per Si atom -5593.051469 kJ/mol
# Density = 2.231767 g / cm^3
# Si number density = 22.368580 Si / 1000 Ang^3
#
#
#
# Elastic Constant Matrix: (Units=GPa)
#
#
# Indices 1 2 3 4 5 6 
#
# 1 150.6873 13.4036 33.9293 23.2872 21.9408 32.4109
# 2 13.4036 60.3311 2.4595 15.0302 3.0900 13.4411
# 3 33.9293 2.4595 71.8728 27.1956 -8.2222 8.7353
# 4 23.2872 15.0302 27.1956 46.6000 1.3487 -1.6489
# 5 21.9408 3.0900 -8.2222 1.3487 49.6444 7.6922
# 6 32.4109 13.4411 8.7353 -1.6489 7.6922 38.8023
#
#
#
# Elastic Compliance Matrix: (Units=1/GPa)
#
#
# Indices 1 2 3 4 5 6 
#
# 1 0.009874 0.000629 -0.002846 -0.003627 -0.003652 -0.007255
# 2 0.000629 0.020638 0.003787 -0.009523 0.000730 -0.009077
# 3 -0.002846 0.003787 0.021162 -0.012503 0.005697 -0.005359
# 4 -0.003627 -0.009523 -0.012503 0.034106 -0.002520 0.011092
# 5 -0.003652 0.000730 0.005697 -0.002520 0.023219 -0.003195
# 6 -0.007255 -0.009077 -0.005359 0.011092 -0.003195 0.037287
#
#
# Mechanical properties :
#
#
# Convention : Reuss Voigt Hill
#
# Bulk Modulus (GPa) = 18.24370 42.49735 30.37052
# Shear Modulus (GPa) = 30.97565 42.54925 36.76245
#
# Velocity S-wave (km/s) = 3.72531 4.36614 4.05839
# Velocity P-wave (km/s) = 5.16503 6.66765 5.96385
#
# Compressibility (1/GPa) = 0.05481346
#
# Stress axis : x y z
#
# Youngs Moduli (GPa) = 101.27751 48.45352 47.25517
#
# Poissons Ratio (x) = -0.03049 0.13450
# Poissons Ratio (y) = -0.06374 -0.17894
# Poissons Ratio (z) = 0.28827 -0.18348
#
# Static dielectric constant tensor:
#      x y z
#    x 1.804560 0.012040 0.027660 
#    y 0.012040 1.914230 0.036000 
#    z 0.027660 0.036000 1.823610 
# 
# From -- ./inp_files/557050.got.cif
#   From: 2010.05.17/outbox.cif.g08.bks.cpg/sg2_279_cif.got.tgz:557050.got - 2010.06.03 11:33:40.
