data_PCOD9021923
_publ_section_title
;
Structure prediction by ZEFSAII (Michael W. Deem and Ramdas Pophale) SiO2 
 PCOD9021923
Probable space group: P -1
;
_chemical_formula_sum "Si O2"
_cell_formula_units_Z 14
_cell_length_a 17.940505
_cell_length_b 7.106433
_cell_length_c 8.133640
_cell_angle_alpha 107.275258
_cell_angle_beta 65.542686
_cell_angle_gamma 146.865247
_cell_volume 513.380173
_symmetry_space_group_name_H-M "P -1"
_symmetry_group_IT_number 2
_symmetry_cell_setting 'triclinic'
loop_
_space_group_symop_operation_xyz
x,y,z
-x,-y,-z
loop_
_atom_site_type_symbol
_atom_site_label
_atom_site_fract_x
_atom_site_fract_y
_atom_site_fract_z
Si Si1 0.582238 0.845202 0.336903
Si Si2 0.088801 0.710712 0.140639
Si Si3 0.439261 0.808758 0.728454
Si Si4 0.310339 0.634813 0.127564
Si Si5 0.653476 0.842551 0.818339
Si Si6 0.977254 0.825141 0.816590
Si Si7 0.177485 0.875667 0.600036
O O1 0.478178 0.702665 0.547407
O O2 0.493698 0.555298 0.203353
O O3 0.630293 0.152132 0.302420
O O4 0.714379 0.981697 0.320489
O O5 0.116219 0.540317 0.124639
O O6 0.968398 0.539240 0.337727
O O7 0.251408 0.099052 0.122952
O O8 0.000000 0.500000 0.000000
O O9 0.593946 0.196548 0.753664
O O10 0.344377 0.580601 0.916671
O O11 0.137859 0.295783 0.226939
O O12 0.372540 0.974862 0.098766
O O13 0.750411 0.024222 0.611096
O O14 0.120985 0.990723 0.680359
O O15 0.000000 0.000000 0.000000
#
# Coordination Sequence:
#
# PCOD9021923 Si02
#       7
#     2   2   2   2   2   2   2
#     4  11  24  40  65  93 129 164 213 255 312 368
#     4   9  22  40  63  91 122 164 205 257 308 370
#     4  10  24  41  60  92 129 167 202 266 310 366
#     4  10  22  40  64  89 128 165 212 254 316 370
#     4  11  22  40  63  96 119 169 211 252 311 374
#     4   9  22  37  64  91 121 162 206 256 308 369
#     4  10  22  38  67  90 127 164 206 254 311 376
#
# _framework density 27.270240000000001
#
# number of rings (size 3 to 8) (size 9 to 14) (size 15 to 20)
#    0.857    1.143    1.429    0.857    6.000    2.857 
#    0.000    0.000    0.000    3.429    0.000    0.000 
#    0.000    0.000    0.000    0.000    0.000    0.000 
#
# Total GULP energy -78135.694207 kJ/mol
# GULP energy per Si atom -5581.121015 kJ/mol
# Density = 2.720817 g / cm^3
# Si number density = 27.270240 Si / 1000 Ang^3
#
#
#
# Elastic Constant Matrix: (Units=GPa)
#
#
# Indices 1 2 3 4 5 6 
#
# 1 128.1923 32.8838 24.7352 -2.0977 6.4467 44.9943
# 2 32.8838 74.8424 11.7092 2.8300 4.4584 30.9554
# 3 24.7352 11.7092 97.2628 0.7030 -11.6367 9.0396
# 4 -2.0977 2.8300 0.7030 43.8038 7.7302 5.2675
# 5 6.4467 4.4584 -11.6367 7.7302 43.4329 3.7338
# 6 44.9943 30.9554 9.0396 5.2675 3.7338 48.2193
#
#
#
# Elastic Compliance Matrix: (Units=1/GPa)
#
#
# Indices 1 2 3 4 5 6 
#
# 1 0.012311 -0.000556 -0.002299 0.002291 -0.001865 -0.010806
# 2 -0.000556 0.018412 -0.001203 0.000348 -0.001244 -0.011017
# 3 -0.002299 -0.001203 0.011396 -0.000929 0.003632 0.000601
# 4 0.002291 0.000348 -0.000929 0.024275 -0.004559 -0.004486
# 5 -0.001865 -0.001244 0.003632 -0.004559 0.025178 0.000407
# 6 -0.010806 -0.011017 0.000601 -0.004486 0.000407 0.038240
#
#
# Mechanical properties :
#
#
# Convention : Reuss Voigt Hill
#
# Bulk Modulus (GPa) = 29.40874 48.77264 39.09069
# Shear Modulus (GPa) = 33.49815 42.48915 37.99365
#
# Velocity S-wave (km/s) = 3.50862 3.95153 3.73665
# Velocity P-wave (km/s) = 5.21742 6.22441 5.74303
#
# Compressibility (1/GPa) = 0.03400350
#
# Stress axis : x y z
#
# Youngs Moduli (GPa) = 81.22860 54.31378 87.74791
#
# Poissons Ratio (x) = 0.03018 0.20177
# Poissons Ratio (y) = 0.04513 0.10553
# Poissons Ratio (z) = 0.18678 0.06532
#
# Static dielectric constant tensor:
#      x y z
#    x 2.287720 0.175590 0.052030 
#    y 0.175590 2.305400 -0.040570 
#    z 0.052030 -0.040570 2.056020 
# 
# From -- ./inp_files/343755.got.cif
#   From: 2010.05.17/outbox.cif.g08.bks.cpg/sg2_172_cif.got.tgz:343755.got - 2010.06.03 11:33:40.
