data_PCOD9021765
_publ_section_title
;
Structure prediction by ZEFSAII (Michael W. Deem and Ramdas Pophale) SiO2 
 PCOD9021765
Probable space group: P -1
;
_chemical_formula_sum "Si O2"
_cell_formula_units_Z 16
_cell_length_a 9.900617
_cell_length_b 5.605339
_cell_length_c 18.501121
_cell_angle_alpha 97.899756
_cell_angle_beta 145.282149
_cell_angle_gamma 82.611060
_cell_volume 578.995469
_symmetry_space_group_name_H-M "P -1"
_symmetry_group_IT_number 2
_symmetry_cell_setting 'triclinic'
loop_
_space_group_symop_operation_xyz
x,y,z
-x,-y,-z
loop_
_atom_site_type_symbol
_atom_site_label
_atom_site_fract_x
_atom_site_fract_y
_atom_site_fract_z
Si Si1 0.742847 0.290498 0.047869
Si Si2 0.818387 0.666566 0.368656
Si Si3 0.293978 0.062053 0.818436
Si Si4 0.591873 0.627577 0.863752
Si Si5 0.314317 0.519733 0.512878
Si Si6 0.065072 0.643568 0.263029
Si Si7 0.450417 0.048309 0.633744
Si Si8 0.050143 0.839054 0.108999
O O1 0.860798 0.447335 0.167152
O O2 0.493997 0.189373 0.958672
O O3 0.676441 0.437719 0.953083
O O4 0.917302 0.075533 0.091046
O O5 0.760157 0.787677 0.271297
O O6 0.594983 0.489979 0.277727
O O7 0.780003 0.881723 0.417599
O O8 0.073567 0.541241 0.458620
O O9 0.044183 0.094620 0.750457
O O10 0.421934 0.822017 0.836888
O O11 0.851055 0.735165 0.962805
O O12 0.430490 0.254704 0.570469
O O13 0.243569 0.551340 0.398845
O O14 0.450214 0.769103 0.599196
O O15 0.097329 0.663267 0.191761
O O16 0.681975 0.091462 0.787536
#
# Coordination Sequence:
#
# PCOD9021765 Si02
#       8
#     2   2   2   2   2   2   2   2
#     4   9  19  37  59  96 132 172 213 268 331 400
#     4  10  23  43  72  96 131 166 224 282 336 383
#     4   9  19  36  63 101 128 166 212 277 337 395
#     4   9  20  39  68 100 131 165 216 275 340 401
#     4  11  28  45  71  98 128 178 233 275 326 380
#     4  10  22  38  65  92 133 172 219 274 327 393
#     4  12  28  47  68  96 135 183 223 277 319 397
#     4  10  24  41  65  96 138 173 219 262 340 402
#
# _framework density 27.634067000000002
#
# number of rings (size 3 to 8) (size 9 to 14) (size 15 to 20)
#    0.000    2.000    0.000    1.125   10.500    9.000 
#    0.000    5.625    0.000    0.000    0.000    0.000 
#    0.000    0.000    0.000    0.000    0.000    0.000 
#
# Total GULP energy -89401.735445 kJ/mol
# GULP energy per Si atom -5587.608465 kJ/mol
# Density = 2.757117 g / cm^3
# Si number density = 27.634067 Si / 1000 Ang^3
#
#
#
# Elastic Constant Matrix: (Units=GPa)
#
#
# Indices 1 2 3 4 5 6 
#
# 1 30.2287 5.4479 28.5233 -13.1630 -4.3231 5.4607
# 2 5.4479 117.2051 56.1655 -15.6189 4.0609 6.6154
# 3 28.5233 56.1655 148.0092 -15.5360 11.6372 17.8854
# 4 -13.1630 -15.6189 -15.5360 41.2381 -10.0271 0.5448
# 5 -4.3231 4.0609 11.6372 -10.0271 33.0362 -5.4873
# 6 5.4607 6.6154 17.8854 0.5448 -5.4873 30.6644
#
#
#
# Elastic Compliance Matrix: (Units=1/GPa)
#
#
# Indices 1 2 3 4 5 6 
#
# 1 0.053413 0.004927 -0.011273 0.018511 0.015722 -0.001515
# 2 0.004927 0.011173 -0.004886 0.004537 0.002354 -0.000097
# 3 -0.011273 -0.004886 0.011610 -0.002606 -0.006559 -0.004837
# 4 0.018511 0.004537 -0.002606 0.034056 0.012946 -0.001044
# 5 0.015722 0.002354 -0.006559 0.012946 0.039499 0.007356
# 6 -0.001515 -0.000097 -0.004837 -0.001044 0.007356 0.037058
#
#
# Mechanical properties :
#
#
# Convention : Reuss Voigt Hill
#
# Bulk Modulus (GPa) = 18.61127 52.85738 35.73433
# Shear Modulus (GPa) = 22.00849 34.67484 28.34166
#
# Velocity S-wave (km/s) = 2.82516 3.54614 3.20598
# Velocity P-wave (km/s) = 4.17032 5.99466 5.16370
#
# Compressibility (1/GPa) = 0.05373087
#
# Stress axis : x y z
#
# Youngs Moduli (GPa) = 18.72205 89.49950 86.13472
#
# Poissons Ratio (x) = -0.44096 0.97100
# Poissons Ratio (y) = -0.09224 0.42090
# Poissons Ratio (z) = 0.21105 0.43734
#
# Static dielectric constant tensor:
#      x y z
#    x 2.217090 0.074980 0.064110 
#    y 0.074980 2.209800 0.054810 
#    z 0.064110 0.054810 2.139300 
# 
# From -- ./inp_files/70391.got.cif
#   From: 2010.05.17/outbox.cif.g08.bks.cpg/sg2_36_cif.got.tgz:70391.got - 2010.06.03 11:33:40.
