data_PCOD9021067
_publ_section_title
;
Structure prediction by ZEFSAII (Michael W. Deem and Ramdas Pophale) SiO2 
 PCOD9021067
Probable space group: P -1
;
_chemical_formula_sum "Si O2"
_cell_formula_units_Z 16
_cell_length_a 11.277926
_cell_length_b 19.011586
_cell_length_c 7.155055
_cell_angle_alpha 97.449680
_cell_angle_beta 72.893428
_cell_angle_gamma 36.153670
_cell_volume 656.493108
_symmetry_space_group_name_H-M "P -1"
_symmetry_group_IT_number 2
_symmetry_cell_setting 'triclinic'
loop_
_space_group_symop_operation_xyz
x,y,z
-x,-y,-z
loop_
_atom_site_type_symbol
_atom_site_label
_atom_site_fract_x
_atom_site_fract_y
_atom_site_fract_z
Si Si1 0.548786 0.945189 0.661241
Si Si2 0.583019 0.835142 0.077470
Si Si3 0.999064 0.623103 0.479545
Si Si4 0.117512 0.089355 0.126632
Si Si5 0.578559 0.383131 0.009555
Si Si6 0.247698 0.340642 0.716568
Si Si7 0.783173 0.368245 0.219763
Si Si8 0.448196 0.671956 0.388467
O O1 0.485736 0.046716 0.845462
O O2 0.500000 0.000000 0.500000
O O3 0.855181 0.763072 0.491038
O O4 0.350297 0.980912 0.821025
O O5 0.633122 0.780338 0.241730
O O6 0.300650 0.954976 0.150650
O O7 0.846898 0.689381 0.770889
O O8 0.891623 0.614683 0.394007
O O9 0.323599 0.474811 0.267996
O O10 0.005849 0.229053 0.219254
O O11 0.818571 0.206423 0.318298
O O12 0.804246 0.298099 0.021633
O O13 0.500000 0.500000 0.000000
O O14 0.643164 0.300094 0.773648
O O15 0.462375 0.294850 0.591826
O O16 0.000000 0.500000 0.000000
O O17 0.500000 0.500000 0.500000
O O18 0.718541 0.481121 0.219035
#
# Coordination Sequence:
#
# PCOD9021067 Si02
#       8
#     2   2   2   2   2   2   2   2
#     4  11  24  41  75 101 138 180 229 303 355 405
#     4  11  27  44  72 104 139 186 236 288 352 419
#     4  11  24  47  70 106 140 182 237 290 355 410
#     4  10  23  43  67 101 135 176 232 293 350 400
#     4  10  22  37  66 101 134 178 229 288 352 401
#     4  12  26  48  71 102 146 193 235 277 346 435
#     4   9  21  37  66 100 134 171 230 291 350 390
#     4  10  23  43  67 100 142 186 229 287 346 417
#
# _framework density 24.371926999999999
#
# number of rings (size 3 to 8) (size 9 to 14) (size 15 to 20)
#    0.000    1.500    2.500    1.500   15.750    2.000 
#    4.500    2.500    0.000    0.000    0.000    0.000 
#    0.000    0.000    0.000    0.000    0.000    0.000 
#
# Total GULP energy -89113.077944 kJ/mol
# GULP energy per Si atom -5569.567371 kJ/mol
# Density = 2.431646 g / cm^3
# Si number density = 24.371927 Si / 1000 Ang^3
#
#
#
# Elastic Constant Matrix: (Units=GPa)
#
#
# Indices 1 2 3 4 5 6 
#
# 1 133.1148 13.5985 22.0450 -15.0526 -1.6034 -7.0179
# 2 13.5985 80.4505 -0.6458 1.2287 -7.7070 -14.7118
# 3 22.0450 -0.6458 68.9201 -5.3407 -10.6544 -6.2271
# 4 -15.0526 1.2287 -5.3407 30.9615 -7.7057 2.8849
# 5 -1.6034 -7.7070 -10.6544 -7.7057 43.6598 -3.8015
# 6 -7.0179 -14.7118 -6.2271 2.8849 -3.8015 28.8060
#
#
#
# Elastic Compliance Matrix: (Units=1/GPa)
#
#
# Indices 1 2 3 4 5 6 
#
# 1 0.008504 -0.001406 -0.002365 0.003786 0.000198 0.000490
# 2 -0.001406 0.014489 0.001783 -0.000826 0.003491 0.007986
# 3 -0.002365 0.001783 0.016663 0.002522 0.005119 0.004359
# 4 0.003786 -0.000826 0.002522 0.036482 0.006899 -0.001698
# 5 0.000198 0.003491 0.005119 0.006899 0.026495 0.005743
# 6 0.000490 0.007986 0.004359 -0.001698 0.005743 0.040783
#
#
# Mechanical properties :
#
#
# Convention : Reuss Voigt Hill
#
# Bulk Modulus (GPa) = 28.02680 39.16453 33.59566
# Shear Modulus (GPa) = 31.39003 37.18465 34.28734
#
# Velocity S-wave (km/s) = 3.59271 3.91028 3.75485
# Velocity P-wave (km/s) = 5.36047 6.04082 5.71078
#
# Compressibility (1/GPa) = 0.03568014
#
# Stress axis : x y z
#
# Youngs Moduli (GPa) = 117.59339 69.01610 60.01195
#
# Poissons Ratio (x) = 0.09702 0.14193
# Poissons Ratio (y) = 0.16531 -0.10698
# Poissons Ratio (z) = 0.27812 -0.12303
#
# Static dielectric constant tensor:
#      x y z
#    x 2.892980 0.115420 -0.134940 
#    y 0.115420 2.185180 -0.049300 
#    z -0.134940 -0.049300 2.028720 
# 
# From -- ./inp_files/282007.got.cif
#   From: 2010.05.17/outbox.cif.g08.bks.cpg/sg2_142_cif.got.tgz:282007.got - 2010.06.03 11:33:40.
