data_PCOD9021656
_publ_section_title
;
Structure prediction by ZEFSAII (Michael W. Deem and Ramdas Pophale) SiO2 
 PCOD9021656
Probable space group: P -1
;
_chemical_formula_sum "Si O2"
_cell_formula_units_Z 13
_cell_length_a 6.380421
_cell_length_b 10.344163
_cell_length_c 9.339525
_cell_angle_alpha 115.793181
_cell_angle_beta 97.861995
_cell_angle_gamma 102.220104
_cell_volume 523.751113
_symmetry_space_group_name_H-M "P -1"
_symmetry_group_IT_number 2
_symmetry_cell_setting 'triclinic'
loop_
_space_group_symop_operation_xyz
x,y,z
-x,-y,-z
loop_
_atom_site_type_symbol
_atom_site_label
_atom_site_fract_x
_atom_site_fract_y
_atom_site_fract_z
Si Si1 0.494329 0.645083 0.659464
Si Si2 0.907973 0.356370 0.524071
Si Si3 0.025417 0.160951 0.233211
Si Si4 0.912633 0.285980 0.790833
Si Si5 0.740124 0.874873 0.206639
Si Si6 0.710409 0.289860 0.066678
Si Si7 0.500000 0.000000 0.500000
O O1 0.500000 0.500000 0.500000
O O2 0.349041 0.719811 0.580940
O O3 0.368006 0.603486 0.778138
O O4 0.729363 0.766104 0.766335
O O5 0.034743 0.243261 0.428311
O O6 0.916848 0.392571 0.706975
O O7 0.000000 0.500000 0.500000
O O8 0.855479 0.210492 0.138474
O O9 0.929143 0.988507 0.180436
O O10 0.148511 0.254350 0.808090
O O11 0.719358 0.131498 0.654034
O O12 0.842248 0.344416 0.959977
O O13 0.667534 0.947565 0.376189
O O14 0.520947 0.822766 0.064254
#
# Coordination Sequence:
#
# PCOD9021656 Si02
#       7
#     2   2   2   2   2   2   1
#     4  11  24  45  72  99 135 190 244 286 349 422
#     4  11  24  45  69 101 134 187 245 286 341 425
#     4  11  23  42  72 100 142 188 230 288 350 430
#     4  11  24  42  68 104 148 180 229 298 358 415
#     4  11  23  42  70 108 146 185 227 288 366 419
#     4  10  25  43  67 106 144 180 235 295 357 419
#     4  10  22  38  64 106 142 178 228 284 350 428
#
# _framework density 24.820948999999999
#
# number of rings (size 3 to 8) (size 9 to 14) (size 15 to 20)
#    0.000    1.231    3.077    1.846    2.154    4.923 
#    0.000    3.846    0.000    0.000    0.000    0.000 
#    0.000    0.000    0.000    0.000    0.000    0.000 
#
# Total GULP energy -72463.536768 kJ/mol
# GULP energy per Si atom -5574.118213 kJ/mol
# Density = 2.476446 g / cm^3
# Si number density = 24.820949 Si / 1000 Ang^3
#
#
#
# Elastic Constant Matrix: (Units=GPa)
#
#
# Indices 1 2 3 4 5 6 
#
# 1 148.3888 33.6063 64.2558 -13.0826 -7.7829 22.8734
# 2 33.6063 56.0541 33.6477 -16.0702 -0.3966 11.1642
# 3 64.2558 33.6477 197.2004 -11.4934 -35.3356 8.8414
# 4 -13.0826 -16.0702 -11.4934 39.1752 7.2684 3.4934
# 5 -7.7829 -0.3966 -35.3356 7.2684 64.1495 4.7404
# 6 22.8734 11.1642 8.8414 3.4934 4.7404 19.0216
#
#
#
# Elastic Compliance Matrix: (Units=1/GPa)
#
#
# Indices 1 2 3 4 5 6 
#
# 1 0.010012 -0.001719 -0.002251 0.002845 0.000426 -0.010613
# 2 -0.001719 0.026572 -0.003076 0.011006 -0.001979 -0.013628
# 3 -0.002251 -0.003076 0.006900 -0.000696 0.003547 0.000549
# 4 0.002845 0.011006 -0.000696 0.032592 -0.002562 -0.014905
# 5 0.000426 -0.001979 0.003547 -0.002562 0.018247 -0.005076
# 6 -0.010613 -0.013628 0.000549 -0.014905 -0.005076 0.077080
#
#
# Mechanical properties :
#
#
# Convention : Reuss Voigt Hill
#
# Bulk Modulus (GPa) = 34.02232 73.85143 53.93687
# Shear Modulus (GPa) = 25.60270 42.47816 34.04043
#
# Velocity S-wave (km/s) = 3.21517 4.14138 3.70731
# Velocity P-wave (km/s) = 5.24595 7.25853 6.33270
#
# Compressibility (1/GPa) = 0.02939247
#
# Stress axis : x y z
#
# Youngs Moduli (GPa) = 99.87706 37.63314 144.93503
#
# Poissons Ratio (x) = 0.06468 0.32627
# Poissons Ratio (y) = 0.17167 0.44582
# Poissons Ratio (z) = 0.22484 0.11576
#
# Static dielectric constant tensor:
#      x y z
#    x 1.997410 0.008320 -0.004630 
#    y 0.008320 2.022800 0.022380 
#    z -0.004630 0.022380 1.981320 
# 
# From -- ./inp_files/105212.got.cif
#   From: 2010.05.17/outbox.cif.g08.bks.cpg/sg2_53_cif.got.tgz:105212.got - 2010.06.03 11:33:40.
