data_PCOD9021416
_publ_section_title
;
Structure prediction by ZEFSAII (Michael W. Deem and Ramdas Pophale) SiO2 
 PCOD9021416
Probable space group: P -1
;
_chemical_formula_sum "Si O2"
_cell_formula_units_Z 14
_cell_length_a 8.158501
_cell_length_b 6.319239
_cell_length_c 12.362551
_cell_angle_alpha 87.049287
_cell_angle_beta 96.783486
_cell_angle_gamma 90.694380
_cell_volume 632.045133
_symmetry_space_group_name_H-M "P -1"
_symmetry_group_IT_number 2
_symmetry_cell_setting 'triclinic'
loop_
_space_group_symop_operation_xyz
x,y,z
-x,-y,-z
loop_
_atom_site_type_symbol
_atom_site_label
_atom_site_fract_x
_atom_site_fract_y
_atom_site_fract_z
Si Si1 0.113335 0.078847 0.106085
Si Si2 0.963328 0.262023 0.524656
Si Si3 0.449251 0.839432 0.096218
Si Si4 0.569687 0.040942 0.296996
Si Si5 0.654585 0.571191 0.808787
Si Si6 0.395022 0.670316 0.414893
Si Si7 0.070976 0.952818 0.683092
O O1 0.192603 0.315891 0.118942
O O2 0.008815 0.063363 0.207731
O O3 0.269357 0.921747 0.117772
O O4 0.000000 0.000000 0.000000
O O5 0.769821 0.249459 0.540551
O O6 0.027905 0.146808 0.423304
O O7 0.000000 0.500000 0.500000
O O8 0.071375 0.193693 0.637719
O O9 0.430848 0.585613 0.106081
O O10 0.581894 0.891530 0.196894
O O11 0.500000 0.000000 0.000000
O O12 0.448306 0.229015 0.249504
O O13 0.749591 0.140895 0.316328
O O14 0.503255 0.879730 0.387013
O O15 0.668167 0.434686 0.701613
O O16 0.500000 0.500000 0.500000
#
# Coordination Sequence:
#
# PCOD9021416 Si02
#       7
#     2   2   2   2   2   2   2
#     4  11  24  42  65  93 128 169 213 263 318 382
#     4  11  23  38  61  90 127 168 207 261 321 379
#     4  10  22  43  66  91 121 160 214 266 316 378
#     4  10  22  38  61  91 125 164 211 261 313 381
#     4  10  22  41  64  92 128 165 209 268 318 374
#     4  11  22  39  64  95 128 169 216 261 318 382
#     4  11  23  40  60  91 128 163 208 261 318 378
#
# _framework density 22.150314999999999
#
# number of rings (size 3 to 8) (size 9 to 14) (size 15 to 20)
#    0.000    1.429    0.000    6.000    0.000    8.571 
#    0.000    2.857    0.000    0.000    0.000    0.000 
#    0.000    0.000    0.000    0.000    0.000    0.000 
#
# Total GULP energy -77939.003111 kJ/mol
# GULP energy per Si atom -5567.071651 kJ/mol
# Density = 2.209990 g / cm^3
# Si number density = 22.150315 Si / 1000 Ang^3
#
#
#
# Elastic Constant Matrix: (Units=GPa)
#
#
# Indices 1 2 3 4 5 6 
#
# 1 82.9653 14.8430 42.9437 -3.4149 -12.9831 -7.5551
# 2 14.8430 105.0977 62.3614 -18.7684 -14.0533 12.5180
# 3 42.9437 62.3614 152.6185 -0.9156 -20.2738 13.2772
# 4 -3.4149 -18.7684 -0.9156 46.1673 5.6615 -0.9562
# 5 -12.9831 -14.0533 -20.2738 5.6615 34.2804 -4.6605
# 6 -7.5551 12.5180 13.2772 -0.9562 -4.6605 27.3881
#
#
#
# Elastic Compliance Matrix: (Units=1/GPa)
#
#
# Indices 1 2 3 4 5 6 
#
# 1 0.015733 0.000402 -0.004650 0.000868 0.004203 0.007156
# 2 0.000402 0.014237 -0.005418 0.005466 0.001428 -0.003336
# 3 -0.004650 -0.005418 0.010682 -0.002690 0.002278 -0.003691
# 4 0.000868 0.005466 -0.002690 0.024262 -0.003115 -0.000638
# 5 0.004203 0.001428 0.002278 -0.003115 0.033898 0.005062
# 6 0.007156 -0.003336 -0.003691 -0.000638 0.005062 0.042640
#
#
# Mechanical properties :
#
#
# Convention : Reuss Voigt Hill
#
# Bulk Modulus (GPa) = 46.90334 64.55306 55.72820
# Shear Modulus (GPa) = 29.78095 36.26940 33.02518
#
# Velocity S-wave (km/s) = 3.67071 4.05090 3.86548
# Velocity P-wave (km/s) = 6.25991 7.14746 6.71836
#
# Compressibility (1/GPa) = 0.02132045
#
# Stress axis : x y z
#
# Youngs Moduli (GPa) = 63.55867 70.23734 93.61416
#
# Poissons Ratio (x) = -0.02823 0.43534
# Poissons Ratio (y) = -0.02554 0.50719
# Poissons Ratio (z) = 0.29557 0.38054
#
# Static dielectric constant tensor:
#      x y z
#    x 1.922020 0.039730 0.093820 
#    y 0.039730 1.848210 -0.000750 
#    z 0.093820 -0.000750 1.938940 
# 
# From -- ./inp_files/37358.got.cif
#   From: 2010.05.17/outbox.cif.g08.bks.cpg/sg2_19_cif.got.tgz:37358.got - 2010.06.03 11:33:40.
