data_PCOD9021761
_publ_section_title
;
Structure prediction by ZEFSAII (Michael W. Deem and Ramdas Pophale) SiO2 
 PCOD9021761
Probable space group: P -1
;
_chemical_formula_sum "Si O2"
_cell_formula_units_Z 14
_cell_length_a 19.410457
_cell_length_b 8.491439
_cell_length_c 7.437021
_cell_angle_alpha 63.390505
_cell_angle_beta 147.893352
_cell_angle_gamma 115.920221
_cell_volume 578.184139
_symmetry_space_group_name_H-M "P -1"
_symmetry_group_IT_number 2
_symmetry_cell_setting 'triclinic'
loop_
_space_group_symop_operation_xyz
x,y,z
-x,-y,-z
loop_
_atom_site_type_symbol
_atom_site_label
_atom_site_fract_x
_atom_site_fract_y
_atom_site_fract_z
Si Si1 0.698181 0.229841 0.456875
Si Si2 0.589270 0.801412 0.064316
Si Si3 0.032123 0.041386 0.342004
Si Si4 0.278872 0.845964 0.876002
Si Si5 0.849734 0.528811 0.117752
Si Si6 0.238468 0.128926 0.230352
Si Si7 0.819987 0.603314 0.603793
O O1 0.698912 0.195195 0.263255
O O2 0.805765 0.398069 0.628714
O O3 0.718440 0.041796 0.690774
O O4 0.559623 0.273639 0.200093
O O5 0.656728 0.828305 0.399529
O O6 0.680590 0.676980 0.228960
O O7 0.605359 0.996880 0.910343
O O8 0.072213 0.251334 0.313046
O O9 0.151753 0.943134 0.588010
O O10 0.000000 0.000000 0.500000
O O11 0.906221 0.963564 0.988612
O O12 0.246757 0.653982 0.993352
O O13 0.000000 0.500000 0.500000
O O14 0.790963 0.685793 0.018951
O O15 0.848338 0.604659 0.876801
#
# Coordination Sequence:
#
# PCOD9021761 Si02
#       7
#     2   2   2   2   2   2   2
#     4  11  23  42  70  95 129 171 228 266 320 379
#     4   9  21  45  68  91 129 176 218 272 315 384
#     4  11  25  43  66  98 136 168 214 274 331 393
#     4  10  22  40  67  93 131 172 212 269 322 380
#     4  11  23  40  64  96 137 169 216 261 328 395
#     4  10  22  38  65  91 130 165 220 252 334 373
#     4  10  25  42  70  98 130 174 212 269 335 381
#
# _framework density 24.213742
#
# number of rings (size 3 to 8) (size 9 to 14) (size 15 to 20)
#    0.000    1.714    1.429    3.000    8.000    4.000 
#    0.000    7.143    6.286    0.000    0.000    0.000 
#    0.000    0.000    0.000    0.000    0.000    0.000 
#
# Total GULP energy -78155.159628 kJ/mol
# GULP energy per Si atom -5582.511402 kJ/mol
# Density = 2.415863 g / cm^3
# Si number density = 24.213742 Si / 1000 Ang^3
#
#
#
# Elastic Constant Matrix: (Units=GPa)
#
#
# Indices 1 2 3 4 5 6 
#
# 1 65.2157 9.2225 9.0477 -8.7850 4.5070 21.7192
# 2 9.2225 190.4617 44.1152 -22.5700 10.0329 16.3719
# 3 9.0477 44.1152 64.0994 -14.2035 16.3123 10.9653
# 4 -8.7850 -22.5700 -14.2035 27.3498 -0.3561 6.3663
# 5 4.5070 10.0329 16.3123 -0.3561 33.7493 -1.4019
# 6 21.7192 16.3719 10.9653 6.3663 -1.4019 40.6587
#
#
#
# Elastic Compliance Matrix: (Units=1/GPa)
#
#
# Indices 1 2 3 4 5 6 
#
# 1 0.021982 0.001448 0.002767 0.013191 -0.005201 -0.015317
# 2 0.001448 0.006852 -0.002836 0.005487 -0.000954 -0.003660
# 3 0.002767 -0.002836 0.024770 0.013478 -0.011752 -0.009532
# 4 0.013191 0.005487 0.013478 0.057368 -0.010225 -0.022226
# 5 -0.005201 -0.000954 -0.011752 -0.010225 0.036563 0.009193
# 6 -0.015317 -0.003660 -0.009532 -0.022226 0.009193 0.040618
#
#
# Mechanical properties :
#
#
# Convention : Reuss Voigt Hill
#
# Bulk Modulus (GPa) = 17.74195 49.39418 33.56807
# Shear Modulus (GPa) = 24.48792 37.51097 30.99944
#
# Velocity S-wave (km/s) = 3.18358 3.94021 3.58193
# Velocity P-wave (km/s) = 4.56692 6.41435 5.56779
#
# Compressibility (1/GPa) = 0.05636358
#
# Stress axis : x y z
#
# Youngs Moduli (GPa) = 45.49101 145.94027 40.37177
#
# Poissons Ratio (x) = -0.21138 -0.11170
# Poissons Ratio (y) = -0.06589 0.11448
# Poissons Ratio (z) = -0.12587 0.41383
#
# Static dielectric constant tensor:
#      x y z
#    x 2.007320 -0.087360 0.005680 
#    y -0.087360 1.996180 -0.065370 
#    z 0.005680 -0.065370 1.956820 
# 
# From -- ./inp_files/157848.got.cif
#   From: 2010.05.17/outbox.cif.g08.bks.cpg/sg2_79_cif.got.tgz:157848.got - 2010.06.03 11:33:40.
