data_PCOD9021692
_publ_section_title
;
Structure prediction by ZEFSAII (Michael W. Deem and Ramdas Pophale) SiO2 
 PCOD9021692
Probable space group: P -1
;
_chemical_formula_sum "Si O2"
_cell_formula_units_Z 16
_cell_length_a 7.486380
_cell_length_b 14.981338
_cell_length_c 7.996404
_cell_angle_alpha 75.239073
_cell_angle_beta 50.259790
_cell_angle_gamma 84.524260
_cell_volume 664.119694
_symmetry_space_group_name_H-M "P -1"
_symmetry_group_IT_number 2
_symmetry_cell_setting 'triclinic'
loop_
_space_group_symop_operation_xyz
x,y,z
-x,-y,-z
loop_
_atom_site_type_symbol
_atom_site_label
_atom_site_fract_x
_atom_site_fract_y
_atom_site_fract_z
Si Si1 0.790649 0.471116 0.015840
Si Si2 0.341320 0.908221 0.089252
Si Si3 0.592518 0.134276 0.325451
Si Si4 0.083963 0.605998 0.346800
Si Si5 0.470913 0.275759 0.844366
Si Si6 0.885793 0.984129 0.259127
Si Si7 0.888751 0.667565 0.735221
Si Si8 0.405623 0.675154 0.591111
O O1 0.889146 0.398265 0.864394
O O2 0.753802 0.565886 0.899425
O O3 0.582713 0.420428 0.271378
O O4 0.000000 0.500000 0.000000
O O5 0.411864 0.820248 0.190879
O O6 0.079856 0.934392 0.265677
O O7 0.379923 0.882594 0.882225
O O8 0.500000 0.000000 0.000000
O O9 0.352723 0.081786 0.561633
O O10 0.590288 0.240185 0.324889
O O11 0.803282 0.084130 0.309794
O O12 0.339715 0.644879 0.237500
O O13 0.000000 0.500000 0.500000
O O14 0.921932 0.672230 0.513403
O O15 0.412772 0.306320 0.677256
O O16 0.259014 0.264359 0.106610
O O17 0.000000 0.000000 0.000000
O O18 0.148125 0.669544 0.658829
#
# Coordination Sequence:
#
# PCOD9021692 Si02
#       8
#     2   2   2   2   2   2   2   2
#     4   9  18  38  62  91 127 168 211 259 322 382
#     4  11  26  42  63  93 131 171 219 270 326 390
#     4  10  22  42  68  93 121 167 218 267 330 385
#     4   9  19  39  63  88 127 164 210 265 318 382
#     4  11  24  39  60  95 128 169 220 262 327 387
#     4   9  22  42  65  90 121 161 212 267 328 382
#     4   9  21  39  62  93 130 171 209 265 320 385
#     4  10  22  38  64  93 127 164 214 271 317 389
#
# _framework density 24.092040000000001
#
# number of rings (size 3 to 8) (size 9 to 14) (size 15 to 20)
#    0.000    2.250    0.000    1.500    7.000    6.000 
#    0.000    6.250    0.000    0.000    0.000    0.000 
#    0.000    0.000    0.000    0.000    0.000    0.000 
#
# Total GULP energy -89375.193151 kJ/mol
# GULP energy per Si atom -5585.949572 kJ/mol
# Density = 2.403721 g / cm^3
# Si number density = 24.092040 Si / 1000 Ang^3
#
#
#
# Elastic Constant Matrix: (Units=GPa)
#
#
# Indices 1 2 3 4 5 6 
#
# 1 39.9369 16.4749 22.5978 18.4951 1.3306 5.4381
# 2 16.4749 76.9956 13.4254 2.6298 0.2281 14.5577
# 3 22.5978 13.4254 96.0707 15.1417 3.9444 -0.6960
# 4 18.4951 2.6298 15.1417 41.6059 -1.3885 1.8003
# 5 1.3306 0.2281 3.9444 -1.3885 39.6810 11.1088
# 6 5.4381 14.5577 -0.6960 1.8003 11.1088 41.4174
#
#
#
# Elastic Compliance Matrix: (Units=1/GPa)
#
#
# Indices 1 2 3 4 5 6 
#
# 1 0.037743 -0.006185 -0.005765 -0.014216 -0.000564 -0.002110
# 2 -0.006185 0.015416 -0.001204 0.002498 0.001786 -0.005214
# 3 -0.005765 -0.001204 0.012327 -0.001984 -0.001629 0.001911
# 4 -0.014216 0.002498 -0.001984 0.031026 0.002006 -0.000932
# 5 -0.000564 0.001786 -0.001629 0.002006 0.027709 -0.008100
# 6 -0.002110 -0.005214 0.001911 -0.000932 -0.008100 0.028499
#
#
# Mechanical properties :
#
#
# Convention : Reuss Voigt Hill
#
# Bulk Modulus (GPa) = 25.52480 35.33328 30.42904
# Shear Modulus (GPa) = 26.02973 35.24123 30.63548
#
# Velocity S-wave (km/s) = 3.29055 3.82877 3.56982
# Velocity P-wave (km/s) = 5.00547 5.85182 5.44511
#
# Compressibility (1/GPa) = 0.03917759
#
# Stress axis : x y z
#
# Youngs Moduli (GPa) = 26.49532 64.86617 81.12360
#
# Poissons Ratio (x) = 0.40117 0.46768
# Poissons Ratio (y) = 0.16386 0.09771
# Poissons Ratio (z) = 0.15275 0.07813
#
# Static dielectric constant tensor:
#      x y z
#    x 1.970700 -0.002870 -0.006340 
#    y -0.002870 1.842050 0.060540 
#    z -0.006340 0.060540 1.935270 
# 
# From -- ./inp_files/206657.got.cif
#   From: 2010.05.17/outbox.cif.g08.bks.cpg/sg2_104_cif.got.tgz:206657.got - 2010.06.03 11:33:40.
