data_PCOD9021224
_publ_section_title
;
Structure prediction by ZEFSAII (Michael W. Deem and Ramdas Pophale) SiO2 
 PCOD9021224
Probable space group: P -1
;
_chemical_formula_sum "Si O2"
_cell_formula_units_Z 15
_cell_length_a 14.706788
_cell_length_b 9.121411
_cell_length_c 17.173791
_cell_angle_alpha 59.177344
_cell_angle_beta 21.678567
_cell_angle_gamma 62.404937
_cell_volume 730.216722
_symmetry_space_group_name_H-M "P -1"
_symmetry_group_IT_number 2
_symmetry_cell_setting 'triclinic'
loop_
_space_group_symop_operation_xyz
x,y,z
-x,-y,-z
loop_
_atom_site_type_symbol
_atom_site_label
_atom_site_fract_x
_atom_site_fract_y
_atom_site_fract_z
Si Si1 0.301658 0.574611 0.398960
Si Si2 0.453563 0.788304 0.681969
Si Si3 0.353608 0.943982 0.881676
Si Si4 0.815257 0.203586 0.422958
Si Si5 0.355124 0.161688 0.042895
Si Si6 0.835260 0.110449 0.264798
Si Si7 0.000000 0.500000 0.500000
Si Si8 0.429206 0.685871 0.031713
O O1 0.441080 0.399182 0.348376
O O2 0.203458 0.644275 0.540829
O O3 0.102689 0.530188 0.501594
O O4 0.492180 0.721687 0.172362
O O5 0.336860 0.835542 0.844917
O O6 0.262407 0.807427 0.758684
O O7 0.670420 0.934658 0.456874
O O8 0.594439 0.068364 0.653322
O O9 0.392987 0.814751 0.956017
O O10 0.114460 0.054400 0.051143
O O11 0.799648 0.233193 0.334331
O O12 0.080121 0.121780 0.245133
O O13 0.349662 0.262237 0.100850
O O14 0.500000 0.000000 0.000000
O O15 0.178699 0.660795 0.286034
O O16 0.500000 0.500000 0.000000
#
# Coordination Sequence:
#
# PCOD9021224 Si02
#       8
#     2   2   2   2   2   2   1   2
#     4  11  23  40  63  94 126 164 209 262 315 378
#     4  10  23  41  67  95 124 162 214 267 318 376
#     4  11  22  41  66  91 125 168 214 261 315 380
#     4  11  24  41  62  91 127 167 211 258 315 377
#     4  11  24  40  58  87 127 167 205 250 313 380
#     4  10  22  43  65  92 125 166 211 264 324 377
#     4  10  22  38  58  88 124 154 196 248 308 368
#     4  11  22  36  59  89 119 156 201 254 308 367
#
# _framework density 20.541844999999999
#
# number of rings (size 3 to 8) (size 9 to 14) (size 15 to 20)
#    0.000    1.333    0.000    6.000    0.000   10.133 
#    0.000    2.667    0.000    0.000    0.000    0.000 
#    0.000    0.000    0.000    0.000    0.000    0.000 
#
# Total GULP energy -83513.963263 kJ/mol
# GULP energy per Si atom -5567.597551 kJ/mol
# Density = 2.049509 g / cm^3
# Si number density = 20.541845 Si / 1000 Ang^3
#
#
#
# Elastic Constant Matrix: (Units=GPa)
#
#
# Indices 1 2 3 4 5 6 
#
# 1 155.5806 23.6900 45.6446 8.4851 3.3477 26.0148
# 2 23.6900 64.4206 7.6632 18.8942 6.1047 22.2880
# 3 45.6446 7.6632 80.9178 5.4482 -11.1230 -2.1319
# 4 8.4851 18.8942 5.4482 20.2562 3.3908 8.3573
# 5 3.3477 6.1047 -11.1230 3.3908 32.1012 -2.4581
# 6 26.0148 22.2880 -2.1319 8.3573 -2.4581 22.7524
#
#
#
# Elastic Compliance Matrix: (Units=1/GPa)
#
#
# Indices 1 2 3 4 5 6 
#
# 1 0.011546 0.002787 -0.008406 0.003646 -0.006468 -0.018758
# 2 0.002787 0.030205 -0.005393 -0.014547 -0.008577 -0.028864
# 3 -0.008406 -0.005393 0.020194 -0.007297 0.011254 0.020682
# 4 0.003646 -0.014547 -0.007297 0.072416 -0.009184 -0.018194
# 5 -0.006468 -0.008577 0.011254 -0.009184 0.040208 0.024570
# 6 -0.018758 -0.028864 0.020682 -0.018194 0.024570 0.104950
#
#
# Mechanical properties :
#
#
# Convention : Reuss Voigt Hill
#
# Bulk Modulus (GPa) = 25.04869 50.54605 37.79737
# Shear Modulus (GPa) = 15.88066 29.95003 22.91535
#
# Velocity S-wave (km/s) = 2.78346 3.82252 3.34360
# Velocity P-wave (km/s) = 4.74876 6.64395 5.77463
#
# Compressibility (1/GPa) = 0.03992225
#
# Stress axis : x y z
#
# Youngs Moduli (GPa) = 86.60972 33.10681 49.52061
#
# Poissons Ratio (x) = -0.09228 0.41626
# Poissons Ratio (y) = -0.24140 0.26706
# Poissons Ratio (z) = 0.72802 0.17854
#
# Static dielectric constant tensor:
#      x y z
#    x 1.655990 -0.064840 0.003670 
#    y -0.064840 1.544940 -0.013670 
#    z 0.003670 -0.013670 1.751870 
# 
# From -- ./inp_files/317664.got.cif
#   From: 2010.05.17/outbox.cif.g08.bks.cpg/sg2_159_cif.got.tgz:317664.got - 2010.06.03 11:33:40.
