data_PCOD9021860
_publ_section_title
;
Structure prediction by ZEFSAII (Michael W. Deem and Ramdas Pophale) SiO2 
 PCOD9021860
Probable space group: P -1
;
_chemical_formula_sum "Si O2"
_cell_formula_units_Z 15
_cell_length_a 10.498451
_cell_length_b 11.271158
_cell_length_c 8.848402
_cell_angle_alpha 41.555140
_cell_angle_beta 114.993765
_cell_angle_gamma 113.999817
_cell_volume 622.314585
_symmetry_space_group_name_H-M "P -1"
_symmetry_group_IT_number 2
_symmetry_cell_setting 'triclinic'
loop_
_space_group_symop_operation_xyz
x,y,z
-x,-y,-z
loop_
_atom_site_type_symbol
_atom_site_label
_atom_site_fract_x
_atom_site_fract_y
_atom_site_fract_z
Si Si1 0.626665 0.465438 0.305721
Si Si2 0.065323 0.904907 0.817341
Si Si3 0.356981 0.085237 0.858971
Si Si4 0.339566 0.822464 0.650554
Si Si5 0.024792 0.739672 0.638911
Si Si6 0.643835 0.859142 0.864041
Si Si7 0.097624 0.571992 0.339050
Si Si8 0.500000 0.500000 0.500000
O O1 0.608788 0.302892 0.335508
O O2 0.740469 0.420744 0.531749
O O3 0.493952 0.489192 0.320109
O O4 0.675962 0.654720 0.065216
O O5 0.994268 0.796922 0.739149
O O6 0.231146 0.982744 0.791029
O O7 0.061923 0.763030 0.084793
O O8 0.999117 0.086087 0.638318
O O9 0.402274 0.297604 0.654134
O O10 0.295654 0.063230 0.020265
O O11 0.500000 0.000000 0.000000
O O12 0.190639 0.722012 0.731177
O O13 0.473144 0.854641 0.796619
O O14 0.315777 0.010159 0.380957
O O15 0.933373 0.565934 0.684835
O O16 0.000000 0.500000 0.500000
#
# Coordination Sequence:
#
# PCOD9021860 Si02
#       8
#     2   2   2   2   2   2   2   1
#     4  11  23  42  63  99 127 174 224 281 341 399
#     4  11  26  45  67 103 140 181 235 281 347 410
#     4  11  21  40  67  94 129 176 220 280 338 404
#     4  11  22  40  63  92 132 175 220 274 344 403
#     4  11  25  44  68  98 140 185 227 287 341 411
#     4  10  23  38  60  94 129 163 224 277 331 408
#     4  12  25  44  71 100 139 183 235 287 337 411
#     4  10  22  38  66  92 130 162 218 280 334 400
#
# _framework density 24.103565
#
# number of rings (size 3 to 8) (size 9 to 14) (size 15 to 20)
#    0.000    1.067    1.333    5.600    1.867    2.667 
#    0.000    5.333    0.000    0.000    0.000    0.000 
#    0.000    0.000    0.000    0.000    0.000    0.000 
#
# Total GULP energy -83675.616592 kJ/mol
# GULP energy per Si atom -5578.374439 kJ/mol
# Density = 2.404870 g / cm^3
# Si number density = 24.103565 Si / 1000 Ang^3
#
#
#
# Elastic Constant Matrix: (Units=GPa)
#
#
# Indices 1 2 3 4 5 6 
#
# 1 25.0905 -5.5356 -7.4942 -5.7564 6.0974 10.1472
# 2 -5.5356 106.7790 12.7713 3.4488 -0.7511 3.9649
# 3 -7.4942 12.7713 117.9499 -17.5631 1.7708 4.4842
# 4 -5.7564 3.4488 -17.5631 28.7462 3.4631 8.7470
# 5 6.0974 -0.7511 1.7708 3.4631 21.8415 4.5756
# 6 10.1472 3.9649 4.4842 8.7470 4.5756 25.2064
#
#
#
# Elastic Compliance Matrix: (Units=1/GPa)
#
#
# Indices 1 2 3 4 5 6 
#
# 1 0.073404 0.002647 0.011623 0.036262 -0.018447 -0.041269
# 2 0.002647 0.009710 -0.000872 -0.000493 0.000227 -0.002308
# 3 0.011623 -0.000872 0.011754 0.013307 -0.004138 -0.010499
# 4 0.036262 -0.000493 0.013307 0.062906 -0.013600 -0.036248
# 5 -0.018447 0.000227 -0.004138 -0.013600 0.052749 0.003271
# 6 -0.041269 -0.002308 -0.010499 -0.036248 0.003271 0.070502
#
#
# Mechanical properties :
#
#
# Convention : Reuss Voigt Hill
#
# Bulk Modulus (GPa) = 8.21953 27.70027 17.95990
# Shear Modulus (GPa) = 16.96159 31.83065 24.39612
#
# Velocity S-wave (km/s) = 2.65561 3.63792 3.18486
# Velocity P-wave (km/s) = 3.58057 5.40029 4.58168
#
# Compressibility (1/GPa) = 0.12166141
#
# Stress axis : x y z
#
# Youngs Moduli (GPa) = 13.62330 102.98772 85.07912
#
# Poissons Ratio (x) = -0.27257 -0.98885
# Poissons Ratio (y) = -0.03606 0.07422
# Poissons Ratio (z) = -0.15834 0.08984
#
# Static dielectric constant tensor:
#      x y z
#    x 1.631760 0.160550 -0.160830 
#    y 0.160550 1.800270 0.089650 
#    z -0.160830 0.089650 1.843350 
# 
# From -- ./inp_files/256176.got.cif
#   From: 2010.05.17/outbox.cif.g08.bks.cpg/sg2_129_cif.got.tgz:256176.got - 2010.06.03 11:33:40.
