data_PCOD9021918
_publ_section_title
;
Structure prediction by ZEFSAII (Michael W. Deem and Ramdas Pophale) SiO2 
 PCOD9021918
Probable space group: P -1
;
_chemical_formula_sum "Si O2"
_cell_formula_units_Z 16
_cell_length_a 9.163484
_cell_length_b 7.555195
_cell_length_c 13.671419
_cell_angle_alpha 114.007593
_cell_angle_beta 47.655439
_cell_angle_gamma 103.356047
_cell_volume 637.745304
_symmetry_space_group_name_H-M "P -1"
_symmetry_group_IT_number 2
_symmetry_cell_setting 'triclinic'
loop_
_space_group_symop_operation_xyz
x,y,z
-x,-y,-z
loop_
_atom_site_type_symbol
_atom_site_label
_atom_site_fract_x
_atom_site_fract_y
_atom_site_fract_z
Si Si1 0.724180 0.602644 0.057414
Si Si2 0.186729 0.855126 0.359975
Si Si3 0.115559 0.353163 0.787511
Si Si4 0.564702 0.348657 0.312836
Si Si5 0.279978 0.023372 0.150152
Si Si6 0.804778 0.997478 0.022320
Si Si7 0.312921 0.462158 0.278740
Si Si8 0.628617 0.913541 0.510076
O O1 0.799198 0.674824 0.146545
O O2 0.720715 0.787487 0.030064
O O3 0.159307 0.633201 0.350549
O O4 0.515322 0.507768 0.139974
O O5 0.257828 0.897681 0.228596
O O6 0.106836 0.557075 0.087787
O O7 0.344381 0.925337 0.383758
O O8 0.000000 0.000000 0.500000
O O9 0.250662 0.523530 0.726890
O O10 0.169975 0.177018 0.650190
O O11 0.389283 0.462120 0.356480
O O12 0.481691 0.256025 0.425682
O O13 0.650389 0.169646 0.165725
O O14 0.241690 0.249799 0.244585
O O15 0.500000 0.000000 0.000000
O O16 0.146118 0.974364 0.106988
O O17 0.000000 0.000000 0.000000
O O18 0.500000 0.000000 0.500000
#
# Coordination Sequence:
#
# PCOD9021918 Si02
#       8
#     2   2   2   2   2   2   2   2
#     4  10  22  42  68 110 148 192 246 314 384 442
#     4  12  30  53  73 111 156 201 263 317 379 465
#     4  10  22  38  67 107 148 190 242 312 373 449
#     4  11  21  45  70 108 150 192 252 307 377 457
#     4  12  26  49  78 113 148 205 252 310 388 458
#     4  12  24  43  71 111 153 185 247 320 371 452
#     4  11  24  49  79  99 154 204 246 319 377 457
#     4  12  24  45  74 106 148 203 252 308 376 449
#
# _framework density 25.088384000000001
#
# number of rings (size 3 to 8) (size 9 to 14) (size 15 to 20)
#    0.000    0.750    3.750    4.125    0.000    6.500 
#    2.250    0.000    0.000    0.000    0.000    0.000 
#    0.000    0.000    0.000    0.000    0.000    0.000 
#
# Total GULP energy -89759.491729 kJ/mol
# GULP energy per Si atom -5609.968233 kJ/mol
# Density = 2.503128 g / cm^3
# Si number density = 25.088384 Si / 1000 Ang^3
#
#
#
# Elastic Constant Matrix: (Units=GPa)
#
#
# Indices 1 2 3 4 5 6 
#
# 1 99.0133 23.3145 34.7626 -3.8259 19.6944 -18.5717
# 2 23.3145 125.0081 26.9609 -9.0608 17.1490 -33.1712
# 3 34.7626 26.9609 122.9508 -12.5062 22.9502 -18.9501
# 4 -3.8259 -9.0608 -12.5062 45.4114 -8.7659 6.8468
# 5 19.6944 17.1490 22.9502 -8.7659 40.7668 2.8430
# 6 -18.5717 -33.1712 -18.9501 6.8468 2.8430 43.6673
#
#
#
# Elastic Compliance Matrix: (Units=1/GPa)
#
#
# Indices 1 2 3 4 5 6 
#
# 1 0.012845 0.000134 -0.001880 -0.001346 -0.005866 0.005342
# 2 0.000134 0.011038 -0.000142 -0.000162 -0.005273 0.008749
# 3 -0.001880 -0.000142 0.010284 0.001157 -0.004830 0.003688
# 4 -0.001346 -0.000162 0.001157 0.023905 0.005508 -0.004301
# 5 -0.005866 -0.005273 -0.004830 0.005508 0.034301 -0.011693
# 6 0.005342 0.008749 0.003688 -0.004301 -0.011693 0.034855
#
#
# Mechanical properties :
#
#
# Convention : Reuss Voigt Hill
#
# Bulk Modulus (GPa) = 32.90366 57.44980 45.17673
# Shear Modulus (GPa) = 35.42748 43.43137 39.42942
#
# Velocity S-wave (km/s) = 3.76188 4.16520 3.96867
# Velocity P-wave (km/s) = 5.65796 6.78827 6.24872
#
# Compressibility (1/GPa) = 0.03039176
#
# Stress axis : x y z
#
# Youngs Moduli (GPa) = 77.85312 90.59265 97.24128
#
# Poissons Ratio (x) = -0.01218 0.18280
# Poissons Ratio (y) = -0.01047 0.01383
# Poissons Ratio (z) = 0.14635 0.01288
#
# Static dielectric constant tensor:
#      x y z
#    x 2.048060 0.023620 -0.003450 
#    y 0.023620 1.987670 0.026410 
#    z -0.003450 0.026410 1.968330 
# 
# From -- ./inp_files/379445.got.cif
#   From: 2010.05.17/outbox.cif.g08.bks.cpg/sg2_190_cif.got.tgz:379445.got - 2010.06.03 11:33:40.
