data_PCOD9021777
_publ_section_title
;
Structure prediction by ZEFSAII (Michael W. Deem and Ramdas Pophale) SiO2 
 PCOD9021777
Probable space group: P -1
;
_chemical_formula_sum "Si O2"
_cell_formula_units_Z 14
_cell_length_a 12.284677
_cell_length_b 17.998701
_cell_length_c 8.394911
_cell_angle_alpha 133.312882
_cell_angle_beta 37.021909
_cell_angle_gamma 149.585961
_cell_volume 565.782992
_symmetry_space_group_name_H-M "P -1"
_symmetry_group_IT_number 2
_symmetry_cell_setting 'triclinic'
loop_
_space_group_symop_operation_xyz
x,y,z
-x,-y,-z
loop_
_atom_site_type_symbol
_atom_site_label
_atom_site_fract_x
_atom_site_fract_y
_atom_site_fract_z
Si Si1 0.907863 0.251427 0.717015
Si Si2 0.029119 0.990079 0.269468
Si Si3 0.400744 0.521597 0.380708
Si Si4 0.712546 0.470620 0.811853
Si Si5 0.783649 0.990072 0.313152
Si Si6 0.552303 0.228761 0.869101
Si Si7 0.010957 0.242022 0.935112
O O1 0.710548 0.249248 0.861712
O O2 0.872068 0.207303 0.878844
O O3 0.189709 0.417578 0.608954
O O4 0.877075 0.138290 0.476260
O O5 0.091406 0.894807 0.044772
O O6 0.760188 0.917029 0.396395
O O7 0.000000 0.000000 0.500000
O O8 0.277986 0.153108 0.153977
O O9 0.301408 0.550214 0.391774
O O10 0.686766 0.666445 0.319440
O O11 0.456271 0.433783 0.102675
O O12 0.699429 0.372545 0.804629
O O13 0.950268 0.641192 0.832989
O O14 0.542891 0.890259 0.329874
O O15 0.000000 0.000000 0.000000
#
# Coordination Sequence:
#
# PCOD9021777 Si02
#       7
#     2   2   2   2   2   2   2
#     4  12  23  39  62  99 131 162 205 271 322 366
#     4  11  22  41  67  92 120 166 219 257 306 373
#     4   9  20  39  67  88 121 166 221 247 309 371
#     4   9  21  41  65  90 120 168 216 252 309 379
#     4  10  22  40  65  86 122 167 215 256 304 377
#     4  11  25  40  63  94 133 165 205 261 326 374
#     4  10  22  38  65  94 123 165 211 265 302 378
#
# _framework density 24.74447
#
# number of rings (size 3 to 8) (size 9 to 14) (size 15 to 20)
#    0.857    0.857    1.429    3.429    4.000    1.714 
#    0.000    0.000    0.000    0.000    0.000    0.000 
#    0.000    0.000    0.000    0.000    0.000    0.000 
#
# Total GULP energy -78102.691809 kJ/mol
# GULP energy per Si atom -5578.763701 kJ/mol
# Density = 2.468815 g / cm^3
# Si number density = 24.744470 Si / 1000 Ang^3
#
#
#
# Elastic Constant Matrix: (Units=GPa)
#
#
# Indices 1 2 3 4 5 6 
#
# 1 126.2628 17.0035 -2.8229 -0.4776 -4.7843 8.4668
# 2 17.0035 77.7421 4.2963 10.4774 -3.7405 -12.6991
# 3 -2.8229 4.2963 20.5862 -1.9427 -6.5591 1.9202
# 4 -0.4776 10.4774 -1.9427 19.2746 5.7850 0.7386
# 5 -4.7843 -3.7405 -6.5591 5.7850 26.1715 3.3791
# 6 8.4668 -12.6991 1.9202 0.7386 3.3791 37.1319
#
#
#
# Elastic Compliance Matrix: (Units=1/GPa)
#
#
# Indices 1 2 3 4 5 6 
#
# 1 0.008643 -0.002680 0.002823 0.001481 0.001996 -0.003244
# 2 -0.002680 0.016235 -0.004651 -0.010236 0.002099 0.006416
# 3 0.002823 -0.004651 0.055266 0.004342 0.013570 -0.006414
# 4 0.001481 -0.010236 0.004342 0.062067 -0.013296 -0.004087
# 5 0.001996 0.002099 0.013570 -0.013296 0.045775 -0.004340
# 6 -0.003244 0.006416 -0.006414 -0.004087 -0.004340 0.030673
#
#
# Mechanical properties :
#
#
# Convention : Reuss Voigt Hill
#
# Bulk Modulus (GPa) = 14.05949 29.06056 21.56003
# Shear Modulus (GPa) = 19.88987 30.25655 25.07321
#
# Velocity S-wave (km/s) = 2.83823 3.50059 3.18667
# Velocity P-wave (km/s) = 4.05400 5.30176 4.71930
#
# Compressibility (1/GPa) = 0.07112631
#
# Stress axis : x y z
#
# Youngs Moduli (GPa) = 115.70397 61.59585 18.09441
#
# Poissons Ratio (x) = 0.16506 -0.05107
# Poissons Ratio (y) = 0.31006 0.08416
# Poissons Ratio (z) = -0.32659 0.28651
#
# Static dielectric constant tensor:
#      x y z
#    x 1.841000 -0.074040 -0.121810 
#    y -0.074040 1.951580 -0.000360 
#    z -0.121810 -0.000360 1.974300 
# 
# From -- ./inp_files/279765.got.cif
#   From: 2010.05.17/outbox.cif.g08.bks.cpg/sg2_140_cif.got.tgz:279765.got - 2010.06.03 11:33:40.
