data_PCOD9021239
_publ_section_title
;
Structure prediction by ZEFSAII (Michael W. Deem and Ramdas Pophale) SiO2 
 PCOD9021239
Probable space group: P -1
;
_chemical_formula_sum "Si O2"
_cell_formula_units_Z 15
_cell_length_a 11.490082
_cell_length_b 8.570220
_cell_length_c 12.777123
_cell_angle_alpha 113.146923
_cell_angle_beta 145.435276
_cell_angle_gamma 63.685691
_cell_volume 638.878031
_symmetry_space_group_name_H-M "P -1"
_symmetry_group_IT_number 2
_symmetry_cell_setting 'triclinic'
loop_
_space_group_symop_operation_xyz
x,y,z
-x,-y,-z
loop_
_atom_site_type_symbol
_atom_site_label
_atom_site_fract_x
_atom_site_fract_y
_atom_site_fract_z
Si Si1 0.036123 0.700474 0.350735
Si Si2 0.344375 0.242267 0.750774
Si Si3 0.286412 0.829116 0.270436
Si Si4 0.392679 0.833765 0.882293
Si Si5 0.398602 0.490187 0.685333
Si Si6 0.000000 0.000000 0.500000
Si Si7 0.899982 0.695253 0.014650
Si Si8 0.540583 0.912120 0.671913
O O1 0.211016 0.535012 0.472718
O O2 0.857238 0.768490 0.328287
O O3 0.923361 0.691837 0.156667
O O4 0.145013 0.860460 0.487853
O O5 0.301928 0.413789 0.694866
O O6 0.406410 0.078796 0.677818
O O7 0.543981 0.234256 0.971904
O O8 0.408732 0.657782 0.252655
O O9 0.407399 0.828173 0.469536
O O10 0.052382 0.815306 0.117816
O O11 0.308914 0.999033 0.267744
O O12 0.467805 0.662131 0.821344
O O13 0.155245 0.909303 0.691194
O O14 0.500000 0.000000 0.000000
O O15 0.677287 0.775660 0.817478
O O16 0.000000 0.500000 0.000000
#
# Coordination Sequence:
#
# PCOD9021239 Si02
#       8
#     2   2   2   2   2   1   2   2
#     4  11  24  41  66 102 135 175 226 277 344 400
#     4  11  23  43  70  99 136 181 222 284 341 404
#     4  10  24  48  70  97 133 184 227 283 338 405
#     4  11  22  39  65  95 133 170 218 273 335 396
#     4  10  24  44  69  98 137 179 228 280 339 402
#     4  10  22  38  58  94 128 166 210 272 326 392
#     4  12  27  42  69 102 136 180 228 283 341 405
#     4  10  24  46  72  98 134 178 233 278 343 409
#
# _framework density 23.478659
#
# number of rings (size 3 to 8) (size 9 to 14) (size 15 to 20)
#    0.000    1.333    1.333    2.800    3.733    2.133 
#    0.000    0.000    0.000    0.000    0.000    0.000 
#    0.000    0.000    0.000    0.000    0.000    0.000 
#
# Total GULP energy -83664.570254 kJ/mol
# GULP energy per Si atom -5577.638017 kJ/mol
# Density = 2.342522 g / cm^3
# Si number density = 23.478659 Si / 1000 Ang^3
#
#
#
# Elastic Constant Matrix: (Units=GPa)
#
#
# Indices 1 2 3 4 5 6 
#
# 1 80.0320 -0.7847 14.4868 8.2423 -11.6250 10.3355
# 2 -0.7847 83.4878 21.1560 5.0369 -15.1394 -2.3280
# 3 14.4868 21.1560 118.1788 -5.9233 -22.0199 18.4789
# 4 8.2423 5.0369 -5.9233 47.9250 -2.1300 -12.5462
# 5 -11.6250 -15.1394 -22.0199 -2.1300 36.5385 2.6664
# 6 10.3355 -2.3280 18.4789 -12.5462 2.6664 23.4751
#
#
#
# Elastic Compliance Matrix: (Units=1/GPa)
#
#
# Indices 1 2 3 4 5 6 
#
# 1 0.015158 0.001148 0.000407 -0.005104 0.005997 -0.010289
# 2 0.001148 0.013424 -0.001924 -0.001355 0.004609 0.001092
# 3 0.000407 -0.001924 0.011754 -0.000964 0.007159 -0.010950
# 4 -0.005104 -0.001355 -0.000964 0.026139 -0.002492 0.017125
# 5 0.005997 0.004609 0.007159 -0.002492 0.036324 -0.013276
# 6 -0.010289 0.001092 -0.010950 0.017125 -0.013276 0.066517
#
#
# Mechanical properties :
#
#
# Convention : Reuss Voigt Hill
#
# Bulk Modulus (GPa) = 25.25369 39.04608 32.14988
# Shear Modulus (GPa) = 27.28448 38.04374 32.66411
#
# Velocity S-wave (km/s) = 3.41265 4.02973 3.73396
# Velocity P-wave (km/s) = 5.12910 6.19017 5.68444
#
# Compressibility (1/GPa) = 0.03959818
#
# Stress axis : x y z
#
# Youngs Moduli (GPa) = 65.97112 74.49272 85.07641
#
# Poissons Ratio (x) = -0.08551 -0.03461
# Poissons Ratio (y) = -0.07573 0.16367
# Poissons Ratio (z) = -0.02683 0.14330
#
# Static dielectric constant tensor:
#      x y z
#    x 1.900670 -0.091790 -0.096470 
#    y -0.091790 1.714870 -0.146610 
#    z -0.096470 -0.146610 1.689370 
# 
# From -- ./inp_files/417954.got.cif
#   From: 2010.05.17/outbox.cif.g08.bks.cpg/sg2_209_cif.got.tgz:417954.got - 2010.06.03 11:33:40.
