data_PCOD9021910
_publ_section_title
;
Structure prediction by ZEFSAII (Michael W. Deem and Ramdas Pophale) SiO2 
 PCOD9021910
Probable space group: P -1
;
_chemical_formula_sum "Si O2"
_cell_formula_units_Z 16
_cell_length_a 18.920492
_cell_length_b 15.372684
_cell_length_c 5.511378
_cell_angle_alpha 118.686684
_cell_angle_beta 108.789676
_cell_angle_gamma 29.737188
_cell_volume 680.819508
_symmetry_space_group_name_H-M "P -1"
_symmetry_group_IT_number 2
_symmetry_cell_setting 'triclinic'
loop_
_space_group_symop_operation_xyz
x,y,z
-x,-y,-z
loop_
_atom_site_type_symbol
_atom_site_label
_atom_site_fract_x
_atom_site_fract_y
_atom_site_fract_z
Si Si1 0.414067 0.200617 0.210822
Si Si2 0.421865 0.719285 0.061865
Si Si3 0.921296 0.622375 0.328825
Si Si4 0.338754 0.229390 0.669239
Si Si5 0.626398 0.445816 0.323425
Si Si6 0.046962 0.889788 0.653028
Si Si7 0.617725 0.132982 0.200427
Si Si8 0.138778 0.095282 0.540776
O O1 0.314719 0.308520 0.485445
O O2 0.543183 0.133180 0.273278
O O3 0.333476 0.305623 0.003099
O O4 0.500000 0.000000 0.000000
O O5 0.376762 0.668462 0.812524
O O6 0.406695 0.842756 0.080786
O O7 0.578484 0.524033 0.097488
O O8 0.290004 0.876302 0.318019
O O9 0.769573 0.736295 0.340179
O O10 0.907608 0.756387 0.464327
O O11 0.000000 0.500000 0.500000
O O12 0.000000 0.500000 0.000000
O O13 0.500000 0.000000 0.500000
O O14 0.778772 0.313291 0.402773
O O15 0.496101 0.646696 0.590818
O O16 0.976380 0.861183 0.523102
O O17 0.000000 0.000000 0.500000
O O18 0.000000 0.000000 0.000000
O O19 0.790372 0.946586 0.184325
#
# Coordination Sequence:
#
# PCOD9021910 Si02
#       8
#     2   2   2   2   2   2   2   2
#     4  10  22  38  67 103 138 178 232 302 356 422
#     4  10  22  42  73 103 140 184 241 309 357 439
#     4  12  29  49  75 108 153 200 250 315 375 452
#     4  10  22  43  70  99 138 182 241 299 364 421
#     4  10  23  42  67 107 143 181 239 302 364 422
#     4  12  27  47  73 105 149 198 242 297 366 451
#     4  11  24  40  74 106 142 187 250 302 372 427
#     4  11  26  46  74 105 142 202 249 295 382 448
#
# _framework density 23.501090000000001
#
# number of rings (size 3 to 8) (size 9 to 14) (size 15 to 20)
#    0.000    1.250    1.250    3.375   10.500    2.000 
#    0.000    0.000    0.000    0.000    0.000    0.000 
#    0.000    0.000    0.000    0.000    0.000    0.000 
#
# Total GULP energy -89217.853592 kJ/mol
# GULP energy per Si atom -5576.115849 kJ/mol
# Density = 2.344760 g / cm^3
# Si number density = 23.501090 Si / 1000 Ang^3
#
#
#
# Elastic Constant Matrix: (Units=GPa)
#
#
# Indices 1 2 3 4 5 6 
#
# 1 171.7119 98.4981 49.3699 -32.0987 -18.0551 -14.4421
# 2 98.4981 139.3225 36.5317 -19.5446 -7.1475 -13.5048
# 3 49.3699 36.5317 96.0677 -22.6506 -17.8482 3.4285
# 4 -32.0987 -19.5446 -22.6506 33.5597 7.2351 0.6895
# 5 -18.0551 -7.1475 -17.8482 7.2351 30.0201 -3.6375
# 6 -14.4421 -13.5048 3.4285 0.6895 -3.6375 28.9809
#
#
#
# Elastic Compliance Matrix: (Units=1/GPa)
#
#
# Indices 1 2 3 4 5 6 
#
# 1 0.011777 -0.006612 -0.001713 0.005416 0.003587 0.003312
# 2 -0.006612 0.012474 -0.001739 0.000094 -0.001761 0.002500
# 3 -0.001713 -0.001739 0.014467 0.006016 0.005362 -0.002846
# 4 0.005416 0.000094 0.006016 0.039639 -0.002605 0.000761
# 5 0.003587 -0.001761 0.005362 -0.002605 0.039513 0.005354
# 6 0.003312 0.002500 -0.002846 0.000761 0.005354 0.038311
#
#
# Mechanical properties :
#
#
# Convention : Reuss Voigt Hill
#
# Bulk Modulus (GPa) = 53.79493 86.21127 70.00310
# Shear Modulus (GPa) = 27.39613 33.35896 30.37755
#
# Velocity S-wave (km/s) = 3.41800 3.77167 3.59918
# Velocity P-wave (km/s) = 6.20621 7.46531 6.86469
#
# Compressibility (1/GPa) = 0.01858911
#
# Stress axis : x y z
#
# Youngs Moduli (GPa) = 84.90883 80.16854 69.12217
#
# Poissons Ratio (x) = 0.53011 0.11839
# Poissons Ratio (y) = 0.56145 0.12023
# Poissons Ratio (z) = 0.14543 0.13944
#
# Static dielectric constant tensor:
#      x y z
#    x 2.292950 -0.381780 1.131570 
#    y -0.381780 2.488970 -1.570470 
#    z 1.131570 -1.570470 5.800600 
# 
# From -- ./inp_files/110974.got.cif
#   From: 2010.05.17/outbox.cif.g08.bks.cpg/sg2_56_cif.got.tgz:110974.got - 2010.06.03 11:33:40.
