data_PCOD9021992
_publ_section_title
;
Structure prediction by ZEFSAII (Michael W. Deem and Ramdas Pophale) SiO2 
 PCOD9021992
Probable space group: P -1
;
_chemical_formula_sum "Si O2"
_cell_formula_units_Z 12
_cell_length_a 10.157923
_cell_length_b 15.016437
_cell_length_c 14.222766
_cell_angle_alpha 35.719459
_cell_angle_beta 43.193036
_cell_angle_gamma 72.679659
_cell_volume 586.681792
_symmetry_space_group_name_H-M "P -1"
_symmetry_group_IT_number 2
_symmetry_cell_setting 'triclinic'
loop_
_space_group_symop_operation_xyz
x,y,z
-x,-y,-z
loop_
_atom_site_type_symbol
_atom_site_label
_atom_site_fract_x
_atom_site_fract_y
_atom_site_fract_z
Si Si1 0.273832 0.270027 0.612365
Si Si2 0.051894 0.356418 0.338604
Si Si3 0.958192 0.545926 0.379559
Si Si4 0.700985 0.768051 0.579590
Si Si5 0.829584 0.417773 0.256331
Si Si6 0.199777 0.839083 0.841758
O O1 0.326146 0.329594 0.423141
O O2 0.529751 0.317534 0.477279
O O3 0.249679 0.427309 0.532954
O O4 0.000000 0.000000 0.000000
O O5 0.918440 0.378784 0.473769
O O6 0.105822 0.217537 0.463958
O O7 0.855575 0.272560 0.422494
O O8 0.380039 0.598377 0.933699
O O9 0.000000 0.500000 0.500000
O O10 0.215087 0.782181 0.988110
O O11 0.856123 0.015186 0.261213
O O12 0.000000 0.500000 0.000000
O O13 0.982698 0.619315 0.078557
O O14 0.500000 0.000000 0.500000
#
# Coordination Sequence:
#
# PCOD9021992 Si02
#       6
#     2   2   2   2   2   2
#     4  12  24  40  67  95 130 170 219 266 331 385
#     4  10  22  38  68  91 133 168 220 263 325 386
#     4  11  22  38  63  98 132 171 211 271 332 382
#     4  11  20  41  66  96 124 177 215 265 320 395
#     4  11  23  42  65  95 130 172 219 268 322 393
#     4  11  21  40  69  94 128 173 218 263 324 391
#
# _framework density 20.454018000000001
#
# number of rings (size 3 to 8) (size 9 to 14) (size 15 to 20)
#    0.000    1.000    8.333    0.000    0.000    2.667 
#    0.000    3.333    0.000    0.000    0.000    0.000 
#    0.000    0.000    0.000    0.000    0.000    0.000 
#
# Total GULP energy -66806.331971 kJ/mol
# GULP energy per Si atom -5567.194331 kJ/mol
# Density = 2.040746 g / cm^3
# Si number density = 20.454018 Si / 1000 Ang^3
#
#
#
# Elastic Constant Matrix: (Units=GPa)
#
#
# Indices 1 2 3 4 5 6 
#
# 1 179.7493 19.7620 57.2158 21.3449 13.9301 -19.2870
# 2 19.7620 68.8349 18.8489 27.5345 3.0029 -11.1609
# 3 57.2158 18.8489 71.2796 15.7737 10.9652 0.5559
# 4 21.3449 27.5345 15.7737 34.2758 -2.6272 7.4148
# 5 13.9301 3.0029 10.9652 -2.6272 50.0287 5.6155
# 6 -19.2870 -11.1609 0.5559 7.4148 5.6155 38.0394
#
#
#
# Elastic Compliance Matrix: (Units=1/GPa)
#
#
# Indices 1 2 3 4 5 6 
#
# 1 0.009022 0.003315 -0.006178 -0.007242 -0.002571 0.007428
# 2 0.003315 0.028078 -0.003493 -0.026849 -0.005043 0.015948
# 3 -0.006178 -0.003493 0.020812 -0.002311 -0.002342 -0.003665
# 4 -0.007242 -0.026849 -0.002311 0.062559 0.010251 -0.025224
# 5 -0.002571 -0.005043 -0.002342 0.010251 0.022972 -0.008138
# 6 0.007428 0.015948 -0.003665 -0.025224 -0.008138 0.040906
#
#
# Mechanical properties :
#
#
# Convention : Reuss Voigt Hill
#
# Bulk Modulus (GPa) = 22.12382 56.83526 39.47954
# Shear Modulus (GPa) = 23.57071 39.40459 31.48765
#
# Velocity S-wave (km/s) = 3.39835 4.39395 3.92782
# Velocity P-wave (km/s) = 5.12233 7.32049 6.31774
#
# Compressibility (1/GPa) = 0.04520014
#
# Stress axis : x y z
#
# Youngs Moduli (GPa) = 110.84411 35.61519 48.04858
#
# Poissons Ratio (x) = -0.11807 0.29685
# Poissons Ratio (y) = -0.36747 0.16783
# Poissons Ratio (z) = 0.68480 0.12440
#
# Static dielectric constant tensor:
#      x y z
#    x 1.759250 -0.070990 0.039210 
#    y -0.070990 1.778880 0.045410 
#    z 0.039210 0.045410 1.717730 
# 
# From -- ./inp_files/148013.got.cif
#   From: 2010.05.17/outbox.cif.g08.bks.cpg/sg2_75_cif.got.tgz:148013.got - 2010.06.03 11:33:40.
