data_PCOD9021215
_publ_section_title
;
Structure prediction by ZEFSAII (Michael W. Deem and Ramdas Pophale) SiO2 
 PCOD9021215
Probable space group: P -1
;
_chemical_formula_sum "Si O2"
_cell_formula_units_Z 14
_cell_length_a 20.073650
_cell_length_b 18.013883
_cell_length_c 6.336282
_cell_angle_alpha 43.411780
_cell_angle_beta 131.845378
_cell_angle_gamma 157.446816
_cell_volume 603.868208
_symmetry_space_group_name_H-M "P -1"
_symmetry_group_IT_number 2
_symmetry_cell_setting 'triclinic'
loop_
_space_group_symop_operation_xyz
x,y,z
-x,-y,-z
loop_
_atom_site_type_symbol
_atom_site_label
_atom_site_fract_x
_atom_site_fract_y
_atom_site_fract_z
Si Si1 0.525232 0.193366 0.014554
Si Si2 0.398036 0.289299 0.494310
Si Si3 0.143198 0.969981 0.258559
Si Si4 0.074864 0.701118 0.387985
Si Si5 0.114613 0.353082 0.250402
Si Si6 0.227531 0.243792 0.582386
Si Si7 0.727628 0.243116 0.614173
O O1 0.605711 0.215088 0.342020
O O2 0.388367 0.969096 0.084363
O O3 0.433760 0.211013 0.843617
O O4 0.695345 0.400567 0.811364
O O5 0.267093 0.227287 0.479015
O O6 0.581516 0.539762 0.357991
O O7 0.313760 0.169568 0.344202
O O8 0.158539 0.878536 0.341622
O O9 0.986884 0.787277 0.467223
O O10 0.119978 0.050799 0.897808
O O11 0.205054 0.746648 0.479730
O O12 0.906392 0.472109 0.616230
O O13 0.996325 0.679660 0.058420
O O14 0.147341 0.279253 0.334434
#
# Coordination Sequence:
#
# PCOD9021215 Si02
#       7
#     2   2   2   2   2   2   2
#     4   9  18  38  61  83 113 149 194 239 280 338
#     4  10  22  40  61  86 116 152 194 237 285 342
#     4  12  22  36  58  87 120 153 190 237 285 342
#     4  10  22  39  60  87 117 150 192 241 290 339
#     4  10  22  38  58  87 119 151 191 235 285 344
#     4  10  22  40  61  84 117 157 191 233 286 341
#     4   9  18  39  65  83 111 155 194 237 293 340
#
# _framework density 23.183865000000001
#
# number of rings (size 3 to 8) (size 9 to 14) (size 15 to 20)
#    0.000    2.000    0.000    3.429    0.000    3.429 
#    0.000   28.571    0.000    0.000    0.000    0.000 
#    0.000    0.000    0.000    0.000    0.000    0.000 
#
# Total GULP energy -78278.839589 kJ/mol
# GULP energy per Si atom -5591.345685 kJ/mol
# Density = 2.313110 g / cm^3
# Si number density = 23.183865 Si / 1000 Ang^3
#
#
#
# Elastic Constant Matrix: (Units=GPa)
#
#
# Indices 1 2 3 4 5 6 
#
# 1 31.5350 -13.0755 46.6384 -19.3776 25.4382 24.3153
# 2 -13.0755 105.4085 42.0531 -37.8929 -9.9662 8.3638
# 3 46.6384 42.0531 78.3345 -26.3913 9.7614 -10.9211
# 4 -19.3776 -37.8929 -26.3913 16.9872 6.9398 17.7820
# 5 25.4382 -9.9662 9.7614 6.9398 34.2734 -9.1181
# 6 24.3153 8.3638 -10.9211 17.7820 -9.1181 16.6960
#
#
#
# Elastic Compliance Matrix: (Units=1/GPa)
#
#
# Indices 1 2 3 4 5 6 
#
# 1 0.016234 -0.006531 -0.018944 -0.042583 0.004001 0.014776
# 2 -0.006531 0.010071 -0.001164 0.001635 0.009709 0.007265
# 3 -0.018944 -0.001164 0.042918 0.052508 -0.010585 -0.005457
# 4 -0.042583 0.001635 0.052508 0.079293 0.004705 0.013662
# 5 0.004001 0.009709 -0.010585 0.004705 0.029335 -0.006605
# 6 0.014776 0.007265 -0.005457 0.013662 -0.006605 0.013009
#
#
# Mechanical properties :
#
#
# Convention : Reuss Voigt Hill
#
# Bulk Modulus (GPa) = 62.71897 40.72333 51.72115
# Shear Modulus (GPa) = 20.04383 22.90211 21.47297
#
# Velocity S-wave (km/s) = 2.94353 3.14641 3.04666
# Velocity P-wave (km/s) = 6.21804 5.55008 5.89353
#
# Compressibility (1/GPa) = 0.01594414
#
# Stress axis : x y z
#
# Youngs Moduli (GPa) = 61.60052 99.29780 23.30021
#
# Poissons Ratio (x) = 0.64847 0.44141
# Poissons Ratio (y) = 0.40228 0.02713
# Poissons Ratio (z) = 1.16698 0.11561
#
# Static dielectric constant tensor:
#      x y z
#    x 1.823630 0.022460 -0.013180 
#    y 0.022460 1.918660 -0.025450 
#    z -0.013180 -0.025450 1.890710 
# 
# From -- ./inp_files/27669.got.cif
#   From: 2010.05.17/outbox.cif.g08.bks.cpg/sg2_14_cif.got.tgz:27669.got - 2010.06.03 11:33:40.
