data_PCOD9021271
_publ_section_title
;
Structure prediction by ZEFSAII (Michael W. Deem and Ramdas Pophale) SiO2 
 PCOD9021271
Probable space group: P -1
;
_chemical_formula_sum "Si O2"
_cell_formula_units_Z 16
_cell_length_a 5.217758
_cell_length_b 17.049430
_cell_length_c 11.403670
_cell_angle_alpha 64.552694
_cell_angle_beta 84.342951
_cell_angle_gamma 128.086285
_cell_volume 619.493207
_symmetry_space_group_name_H-M "P -1"
_symmetry_group_IT_number 2
_symmetry_cell_setting 'triclinic'
loop_
_space_group_symop_operation_xyz
x,y,z
-x,-y,-z
loop_
_atom_site_type_symbol
_atom_site_label
_atom_site_fract_x
_atom_site_fract_y
_atom_site_fract_z
Si Si1 0.577400 0.653612 0.464424
Si Si2 0.548006 0.910356 0.571364
Si Si3 0.718583 0.494570 0.650190
Si Si4 0.559005 0.846450 0.864931
Si Si5 0.550503 0.909268 0.072293
Si Si6 0.632598 0.353890 0.146455
Si Si7 0.731935 0.576434 0.823155
Si Si8 0.375615 0.134334 0.654080
O O1 0.730446 0.599286 0.541580
O O2 0.541480 0.626051 0.344767
O O3 0.726061 0.787954 0.391926
O O4 0.134915 0.554747 0.589815
O O5 0.406273 0.857152 0.747460
O O6 0.428740 0.844120 0.489957
O O7 0.500000 0.000000 0.500000
O O8 0.000000 0.000000 0.500000
O O9 0.573989 0.472195 0.801540
O O10 0.524037 0.737638 0.897109
O O11 0.390485 0.824960 0.014758
O O12 0.990088 0.983675 0.768433
O O13 0.412995 0.839177 0.250301
O O14 0.500000 0.000000 0.000000
O O15 0.000000 0.000000 0.000000
O O16 0.344132 0.340741 0.240016
O O17 0.830451 0.336188 0.236634
O O18 0.000000 0.500000 0.000000
O O19 0.500000 0.500000 0.000000
#
# Coordination Sequence:
#
# PCOD9021271 Si02
#       8
#     2   2   2   2   2   2   2   2
#     4  10  23  41  65  95 127 178 218 272 332 393
#     4  10  22  38  59  91 129 165 209 256 317 381
#     4  10  22  42  66  93 133 169 224 274 328 395
#     4  10  23  43  65  96 131 171 214 274 323 389
#     4  10  22  41  65  91 127 168 213 266 325 385
#     4  10  23  41  62  94 127 171 216 265 331 389
#     4  10  22  40  65  94 125 167 218 272 329 386
#     4  10  23  42  66  98 131 174 220 269 328 400
#
# _framework density 25.827566000000001
#
# number of rings (size 3 to 8) (size 9 to 14) (size 15 to 20)
#    0.000    2.000    0.000    1.500    3.500   10.000 
#    0.000    6.250    0.000    0.000    0.000    0.000 
#    0.000    0.000    0.000    0.000    0.000    0.000 
#
# Total GULP energy -89334.733564 kJ/mol
# GULP energy per Si atom -5583.420848 kJ/mol
# Density = 2.576878 g / cm^3
# Si number density = 25.827566 Si / 1000 Ang^3
#
#
#
# Elastic Constant Matrix: (Units=GPa)
#
#
# Indices 1 2 3 4 5 6 
#
# 1 165.0171 22.2411 13.9133 11.6810 4.7119 -30.6321
# 2 22.2411 184.1115 51.2075 37.5028 -8.8451 -30.7232
# 3 13.9133 51.2075 149.4421 47.0646 12.3582 -10.9202
# 4 11.6810 37.5028 47.0646 63.2418 -4.3174 -6.6385
# 5 4.7119 -8.8451 12.3582 -4.3174 29.1994 4.3791
# 6 -30.6321 -30.7232 -10.9202 -6.6385 4.3791 41.0520
#
#
#
# Elastic Compliance Matrix: (Units=1/GPa)
#
#
# Indices 1 2 3 4 5 6 
#
# 1 0.007205 0.000121 0.000243 -0.001150 -0.002236 0.005584
# 2 0.000121 0.007185 -0.001469 -0.002602 0.001723 0.004471
# 3 0.000243 -0.001469 0.009891 -0.006804 -0.005862 0.001238
# 4 -0.001150 -0.002602 -0.006804 0.022872 0.005891 -0.001545
# 5 -0.002236 0.001723 -0.005862 0.005891 0.039258 -0.005173
# 6 0.005584 0.004471 0.001238 -0.001545 -0.005173 0.032503
#
#
# Mechanical properties :
#
#
# Convention : Reuss Voigt Hill
#
# Bulk Modulus (GPa) = 45.31356 74.81050 60.06203
# Shear Modulus (GPa) = 38.91623 54.11256 46.51439
#
# Velocity S-wave (km/s) = 3.88593 4.58224 4.24837
# Velocity P-wave (km/s) = 6.14139 7.55144 6.88262
#
# Compressibility (1/GPa) = 0.02206845
#
# Stress axis : x y z
#
# Youngs Moduli (GPa) = 138.79293 139.18606 101.10656
#
# Poissons Ratio (x) = -0.01678 -0.02456
# Poissons Ratio (y) = -0.01673 0.14856
# Poissons Ratio (z) = -0.03371 0.20451
#
# Static dielectric constant tensor:
#      x y z
#    x 2.298850 -0.082180 0.013120 
#    y -0.082180 2.139170 0.019730 
#    z 0.013120 0.019730 2.107200 
# 
# From -- ./inp_files/367734.got.cif
#   From: 2010.05.17/outbox.cif.g08.bks.cpg/sg2_184_cif.got.tgz:367734.got - 2010.06.03 11:33:40.
