data_PCOD9021995
_publ_section_title
;
Structure prediction by ZEFSAII (Michael W. Deem and Ramdas Pophale) SiO2 
 PCOD9021995
Probable space group: P -1
;
_chemical_formula_sum "Si O2"
_cell_formula_units_Z 14
_cell_length_a 12.172342
_cell_length_b 19.103970
_cell_length_c 18.120738
_cell_angle_alpha 25.732380
_cell_angle_beta 161.658439
_cell_angle_gamma 143.476594
_cell_volume 533.320994
_symmetry_space_group_name_H-M "P -1"
_symmetry_group_IT_number 2
_symmetry_cell_setting 'triclinic'
loop_
_space_group_symop_operation_xyz
x,y,z
-x,-y,-z
loop_
_atom_site_type_symbol
_atom_site_label
_atom_site_fract_x
_atom_site_fract_y
_atom_site_fract_z
Si Si1 0.997462 0.548667 0.819529
Si Si2 0.531936 0.580694 0.022252
Si Si3 0.376316 0.716228 0.139492
Si Si4 0.257355 0.808509 0.818864
Si Si5 0.088404 0.996485 0.166423
Si Si6 0.096243 0.985339 0.343081
Si Si7 0.030438 0.264291 0.756874
O O1 0.708902 0.620814 0.499138
O O2 0.899668 0.391031 0.937537
O O3 0.405722 0.491388 0.095722
O O4 0.011497 0.695685 0.744802
O O5 0.234612 0.778859 0.633953
O O6 0.500000 0.500000 0.000000
O O7 0.922476 0.589730 0.294898
O O8 0.492827 0.726117 0.120896
O O9 0.159651 0.904200 0.859710
O O10 0.528398 0.805767 0.926159
O O11 0.000000 0.000000 0.500000
O O12 0.912876 0.045211 0.089061
O O13 0.521130 0.978235 0.454738
O O14 0.900696 0.149347 0.842667
O O15 0.094293 0.809927 0.326009
#
# Coordination Sequence:
#
# PCOD9021995 Si02
#       7
#     2   2   2   2   2   2   2
#     4  10  25  43  64  97 131 173 217 267 326 380
#     4  10  22  41  62  93 131 162 211 268 321 386
#     4  11  24  44  67  95 129 175 219 265 325 385
#     4  11  23  41  66  96 131 169 216 270 320 390
#     4   9  19  37  60  93 121 156 216 259 314 381
#     4  10  22  38  68  92 121 170 213 264 321 385
#     4   9  20  38  59  91 126 161 207 263 320 378
#
# _framework density 26.250608
#
# number of rings (size 3 to 8) (size 9 to 14) (size 15 to 20)
#    0.000    2.000    0.000    3.000   10.000    1.143 
#    0.000    2.143    0.000    0.000    0.000    0.000 
#    0.000    0.000    0.000    0.000    0.000    0.000 
#
# Total GULP energy -78125.781232 kJ/mol
# GULP energy per Si atom -5580.412945 kJ/mol
# Density = 2.619086 g / cm^3
# Si number density = 26.250608 Si / 1000 Ang^3
#
#
#
# Elastic Constant Matrix: (Units=GPa)
#
#
# Indices 1 2 3 4 5 6 
#
# 1 131.8620 23.7315 -57.7975 -20.2835 -6.1558 -18.2765
# 2 23.7315 178.2027 -32.8037 -20.5579 24.3425 -8.2821
# 3 -57.7975 -32.8037 -157.1454 -42.0513 12.0868 32.6036
# 4 -20.2835 -20.5579 -42.0513 22.2256 -13.9483 12.7298
# 5 -6.1558 24.3425 12.0868 -13.9483 34.3716 3.0533
# 6 -18.2765 -8.2821 32.6036 12.7298 3.0533 36.1818
#
#
#
# Elastic Compliance Matrix: (Units=1/GPa)
#
#
# Indices 1 2 3 4 5 6 
#
# 1 0.008084 -0.001493 -0.001964 0.001932 0.003577 0.004529
# 2 -0.001493 0.006401 -0.000561 -0.000814 -0.005106 0.001933
# 3 -0.001964 -0.000561 -0.001832 -0.011269 -0.004315 0.004860
# 4 0.001932 -0.000814 -0.011269 0.042086 0.022476 -0.005760
# 5 0.003577 -0.005106 -0.004315 0.022476 0.044624 -0.007147
# 6 0.004529 0.001933 0.004860 -0.005760 -0.007147 0.028619
#
#
# Mechanical properties :
#
#
# Convention : Reuss Voigt Hill
#
# Bulk Modulus (GPa) = 216.58303 2.13110 109.35706
# Shear Modulus (GPa) = 36.34918 33.20840 34.77879
#
# Velocity S-wave (km/s) = 3.72519 3.56062 3.64383
# Velocity P-wave (km/s) = 10.05921 4.20923 7.71056
#
# Compressibility (1/GPa) = 0.00461717
#
# Stress axis : x y z
#
# Youngs Moduli (GPa) = 123.70523 156.23575 -545.73240
#
# Poissons Ratio (x) = 0.23330 -1.07158
# Poissons Ratio (y) = 0.18473 -0.30590
# Poissons Ratio (z) = 0.24290 0.08757
#
# Static dielectric constant tensor:
#      x y z
#    x 2.027050 0.006430 -0.154850 
#    y 0.006430 2.183360 0.146530 
#    z -0.154850 0.146530 2.639490 
# 
# From -- ./inp_files/234050.got.cif
#   From: 2010.05.17/outbox.cif.g08.bks.cpg/sg2_118_cif.got.tgz:234050.got - 2010.06.03 11:33:40.
