data_PCOD9021452
_publ_section_title
;
Structure prediction by ZEFSAII (Michael W. Deem and Ramdas Pophale) SiO2 
 PCOD9021452
Probable space group: P -1
;
_chemical_formula_sum "Si O2"
_cell_formula_units_Z 15
_cell_length_a 9.937607
_cell_length_b 8.130527
_cell_length_c 9.572616
_cell_angle_alpha 73.801532
_cell_angle_beta 73.912377
_cell_angle_gamma 46.329808
_cell_volume 533.257493
_symmetry_space_group_name_H-M "P -1"
_symmetry_group_IT_number 2
_symmetry_cell_setting 'triclinic'
loop_
_space_group_symop_operation_xyz
x,y,z
-x,-y,-z
loop_
_atom_site_type_symbol
_atom_site_label
_atom_site_fract_x
_atom_site_fract_y
_atom_site_fract_z
Si Si1 0.000000 0.500000 0.000000
Si Si2 0.777951 0.540662 0.320568
Si Si3 0.611001 0.328566 0.342247
Si Si4 0.467775 0.010686 0.256532
Si Si5 0.937361 0.870375 0.476870
Si Si6 0.323560 0.953699 0.055376
Si Si7 0.802514 0.251893 0.010784
Si Si8 0.234911 0.497767 0.273260
O O1 0.850392 0.542884 0.148777
O O2 0.131928 0.216751 0.044139
O O3 0.650526 0.472975 0.377842
O O4 0.641318 0.804153 0.345605
O O5 0.963216 0.348988 0.399481
O O6 0.405903 0.445355 0.321607
O O7 0.722997 0.085288 0.446828
O O8 0.723709 0.279566 0.177947
O O9 0.396314 0.916303 0.200233
O O10 0.301813 0.247492 0.320662
O O11 0.548630 0.072582 0.098490
O O12 0.047232 0.729181 0.337146
O O13 0.000000 0.000000 0.500000
O O14 0.315177 0.762581 0.063873
O O15 0.797294 0.444239 0.898949
O O16 0.000000 0.000000 0.000000
#
# Coordination Sequence:
#
# PCOD9021452 Si02
#       8
#     1   2   2   2   2   2   2   2
#     4  10  22  38  70  94 132 178 228 290 352 402
#     4  10  23  46  68  99 140 183 238 290 352 432
#     4  11  23  44  72 107 140 181 238 293 352 420
#     4  10  23  41  64  97 143 179 232 286 350 428
#     4  10  25  47  70 102 140 186 241 291 352 433
#     4  10  22  38  62 100 136 178 228 280 357 413
#     4  12  23  38  69 106 141 177 233 302 346 411
#     4  12  25  42  71 105 144 185 232 297 359 413
#
# _framework density 28.129003000000001
#
# number of rings (size 3 to 8) (size 9 to 14) (size 15 to 20)
#    0.000    1.333    2.667    2.000    9.333    2.667 
#    2.400    0.667    0.000    0.000    0.000    0.000 
#    0.000    0.000    0.000    0.000    0.000    0.000 
#
# Total GULP energy -83798.115852 kJ/mol
# GULP energy per Si atom -5586.541057 kJ/mol
# Density = 2.806498 g / cm^3
# Si number density = 28.129003 Si / 1000 Ang^3
#
#
#
# Elastic Constant Matrix: (Units=GPa)
#
#
# Indices 1 2 3 4 5 6 
#
# 1 48.8897 9.4292 7.2826 -14.1262 0.5082 -23.7581
# 2 9.4292 205.3770 36.6693 -32.7647 2.3678 -20.2759
# 3 7.2826 36.6693 118.2231 -26.4698 18.1747 2.9065
# 4 -14.1262 -32.7647 -26.4698 59.2906 -7.6708 3.7591
# 5 0.5082 2.3678 18.1747 -7.6708 24.1883 -0.3135
# 6 -23.7581 -20.2759 2.9065 3.7591 -0.3135 36.0704
#
#
#
# Elastic Compliance Matrix: (Units=1/GPa)
#
#
# Indices 1 2 3 4 5 6 
#
# 1 0.033445 0.002211 -0.002203 0.007194 0.003312 0.022729
# 2 0.002211 0.005989 -0.001690 0.003000 0.001649 0.004661
# 3 -0.002203 -0.001690 0.010920 0.002717 -0.007178 -0.003627
# 4 0.007194 0.003000 0.002717 0.021777 0.004471 0.003975
# 5 0.003312 0.001649 -0.007178 0.004471 0.047970 0.003638
# 6 0.022729 0.004661 -0.003627 0.003975 0.003638 0.045224
#
#
# Mechanical properties :
#
#
# Convention : Reuss Voigt Hill
#
# Bulk Modulus (GPa) = 21.28147 53.25022 37.26585
# Shear Modulus (GPa) = 27.12190 45.18378 36.15284
#
# Velocity S-wave (km/s) = 3.10852 4.01222 3.58893
# Velocity P-wave (km/s) = 4.52393 6.35891 5.51823
#
# Compressibility (1/GPa) = 0.04698923
#
# Stress axis : x y z
#
# Youngs Moduli (GPa) = 29.89965 166.97073 91.57752
#
# Poissons Ratio (x) = -0.36923 0.20178
# Poissons Ratio (y) = -0.06612 0.15480
# Poissons Ratio (z) = 0.06588 0.28224
#
# Static dielectric constant tensor:
#      x y z
#    x 2.092680 0.160980 -0.020250 
#    y 0.160980 2.031400 0.041830 
#    z -0.020250 0.041830 2.292840 
# 
# From -- ./inp_files/243484.got.cif
#   From: 2010.05.17/outbox.cif.g08.bks.cpg/sg2_122_cif.got.tgz:243484.got - 2010.06.03 11:33:40.
