data_PCOD9021768
_publ_section_title
;
Structure prediction by ZEFSAII (Michael W. Deem and Ramdas Pophale) SiO2 
 PCOD9021768
Probable space group: P -1
;
_chemical_formula_sum "Si O2"
_cell_formula_units_Z 16
_cell_length_a 20.905373
_cell_length_b 8.701194
_cell_length_c 11.062397
_cell_angle_alpha 143.793142
_cell_angle_beta 38.326894
_cell_angle_gamma 124.931737
_cell_volume 727.052554
_symmetry_space_group_name_H-M "P -1"
_symmetry_group_IT_number 2
_symmetry_cell_setting 'triclinic'
loop_
_space_group_symop_operation_xyz
x,y,z
-x,-y,-z
loop_
_atom_site_type_symbol
_atom_site_label
_atom_site_fract_x
_atom_site_fract_y
_atom_site_fract_z
Si Si1 0.670362 0.362330 0.622019
Si Si2 0.065398 0.990571 0.517576
Si Si3 0.226510 0.346389 0.519957
Si Si4 0.518548 0.322711 0.032248
Si Si5 0.821347 0.959495 0.254668
Si Si6 0.409745 0.857538 0.927025
Si Si7 0.021622 0.777745 0.688327
Si Si8 0.753325 0.443985 0.129981
O O1 0.747390 0.559827 0.592496
O O2 0.615467 0.379948 0.845278
O O3 0.743571 0.080824 0.341187
O O4 0.576383 0.447854 0.720252
O O5 0.003434 0.959142 0.711621
O O6 0.117359 0.248567 0.619445
O O7 0.159588 0.745842 0.197486
O O8 0.000000 0.000000 0.500000
O O9 0.229424 0.564757 0.756955
O O10 0.316526 0.095206 0.255371
O O11 0.487556 0.034506 0.860890
O O12 0.541006 0.289254 0.119344
O O13 0.767952 0.741114 0.262720
O O14 0.860719 0.188260 0.423158
O O15 0.933954 0.837305 0.958455
O O16 0.355776 0.652736 0.800019
O O17 0.000000 0.500000 0.500000
#
# Coordination Sequence:
#
# PCOD9021768 Si02
#       8
#     2   2   2   2   2   2   2   2
#     4  10  22  38  65  93 126 166 199 263 315 361
#     4  11  25  40  63  93 125 166 208 259 312 370
#     4  10  22  41  60  92 129 161 211 254 309 373
#     4   9  19  42  66  95 125 162 210 259 320 369
#     4  11  24  41  65  92 128 166 211 257 305 377
#     4   9  20  41  69  88 123 168 205 257 314 378
#     4  11  24  43  63  93 126 169 212 251 313 372
#     4  11  22  41  63  91 122 171 206 252 317 372
#
# _framework density 22.006664000000001
#
# number of rings (size 3 to 8) (size 9 to 14) (size 15 to 20)
#    0.000    1.750    2.500    0.750    5.250    0.500 
#    0.000   13.750    0.000    0.000    0.000    0.000 
#    0.000    0.000    0.000    0.000    0.000    0.000 
#
# Total GULP energy -89189.841172 kJ/mol
# GULP energy per Si atom -5574.365073 kJ/mol
# Density = 2.195658 g / cm^3
# Si number density = 22.006664 Si / 1000 Ang^3
#
#
#
# Elastic Constant Matrix: (Units=GPa)
#
#
# Indices 1 2 3 4 5 6 
#
# 1 92.9748 47.2439 -1.9643 18.2134 6.9701 6.0575
# 2 47.2439 155.3826 12.4183 1.3585 14.7208 5.5122
# 3 -1.9643 12.4183 21.1022 7.5243 6.2149 8.1452
# 4 18.2134 1.3585 7.5243 20.3019 -2.0740 6.1381
# 5 6.9701 14.7208 6.2149 -2.0740 29.6598 10.7602
# 6 6.0575 5.5122 8.1452 6.1381 10.7602 37.3871
#
#
#
# Elastic Compliance Matrix: (Units=1/GPa)
#
#
# Indices 1 2 3 4 5 6 
#
# 1 0.019388 -0.006348 0.015770 -0.023478 -0.006368 0.000047
# 2 -0.006348 0.009052 -0.008774 0.008112 -0.000775 0.000497
# 3 0.015770 -0.008774 0.075915 -0.041358 -0.015806 -0.006461
# 4 -0.023478 0.008112 -0.041358 0.089758 0.019613 -0.008763
# 5 -0.006368 -0.000775 -0.015806 0.019613 0.044422 -0.011415
# 6 0.000047 0.000497 -0.006461 -0.008763 -0.011415 0.032798
#
#
# Mechanical properties :
#
#
# Convention : Reuss Voigt Hill
#
# Bulk Modulus (GPa) = 9.46511 42.76171 26.11341
# Shear Modulus (GPa) = 16.37975 31.58721 23.98348
#
# Velocity S-wave (km/s) = 2.73116 3.79271 3.30484
# Velocity P-wave (km/s) = 3.77571 6.21715 5.14339
#
# Compressibility (1/GPa) = 0.10565119
#
# Stress axis : x y z
#
# Youngs Moduli (GPa) = 51.57743 110.47197 13.17257
#
# Poissons Ratio (x) = 0.70132 -0.20773
# Poissons Ratio (y) = 0.32743 0.11557
# Poissons Ratio (z) = -0.81337 0.96926
#
# Static dielectric constant tensor:
#      x y z
#    x 1.766560 0.087910 -0.004300 
#    y 0.087910 1.787920 -0.001570 
#    z -0.004300 -0.001570 1.879270 
# 
# From -- ./inp_files/90492.got.cif
#   From: 2010.05.17/outbox.cif.g08.bks.cpg/sg2_46_cif.got.tgz:90492.got - 2010.06.03 11:33:40.
