data_PCOD9021637
_publ_section_title
;
Structure prediction by ZEFSAII (Michael W. Deem and Ramdas Pophale) SiO2 
 PCOD9021637
Probable space group: P -1
;
_chemical_formula_sum "Si O2"
_cell_formula_units_Z 16
_cell_length_a 13.866364
_cell_length_b 5.884558
_cell_length_c 9.408697
_cell_angle_alpha 102.532623
_cell_angle_beta 115.419818
_cell_angle_gamma 96.532943
_cell_volume 657.972441
_symmetry_space_group_name_H-M "P -1"
_symmetry_group_IT_number 2
_symmetry_cell_setting 'triclinic'
loop_
_space_group_symop_operation_xyz
x,y,z
-x,-y,-z
loop_
_atom_site_type_symbol
_atom_site_label
_atom_site_fract_x
_atom_site_fract_y
_atom_site_fract_z
Si Si1 0.457881 0.770309 0.124642
Si Si2 0.622619 0.532432 0.536902
Si Si3 0.690062 0.106307 0.698756
Si Si4 0.896647 0.949919 0.736421
Si Si5 0.081283 0.330320 0.999954
Si Si6 0.720212 0.650559 0.048787
Si Si7 0.769112 0.554136 0.387976
Si Si8 0.672476 0.077722 0.188753
O O1 0.390077 0.874045 0.216241
O O2 0.586435 0.901447 0.215100
O O3 0.406738 0.486512 0.074739
O O4 0.405728 0.805989 0.943515
O O5 0.500000 0.500000 0.500000
O O6 0.662100 0.310267 0.603801
O O7 0.652620 0.523782 0.390028
O O8 0.667229 0.814651 0.633908
O O9 0.819582 0.131602 0.752033
O O10 0.899997 0.790345 0.856504
O O11 0.852479 0.760807 0.556006
O O12 0.017956 0.121514 0.824019
O O13 0.200253 0.438702 0.021842
O O14 0.000000 0.500000 0.000000
O O15 0.763123 0.616948 0.229042
O O16 0.724478 0.928450 0.087106
O O17 0.770538 0.272295 0.350224
#
# Coordination Sequence:
#
# PCOD9021637 Si02
#       8
#     2   2   2   2   2   2   2   2
#     4  10  22  38  63  99 134 190 235 287 346 429
#     4  11  25  41  67 104 146 192 239 287 353 429
#     4  11  24  40  72  99 140 189 240 295 352 421
#     4  10  25  45  69 104 134 182 241 301 364 428
#     4  11  25  46  76  99 134 178 242 308 368 433
#     4  11  24  41  68  99 134 183 233 298 357 426
#     4  10  25  41  65 101 139 185 227 292 353 427
#     4  10  22  40  63  93 145 182 233 283 357 427
#
# _framework density 24.317125999999998
#
# number of rings (size 3 to 8) (size 9 to 14) (size 15 to 20)
#    0.000    1.500    0.000    3.000   14.000    3.500 
#    0.000    1.250    0.000    0.000    0.000    0.000 
#    0.000    0.000    0.000    0.000    0.000    0.000 
#
# Total GULP energy -89116.462852 kJ/mol
# GULP energy per Si atom -5569.778928 kJ/mol
# Density = 2.426178 g / cm^3
# Si number density = 24.317126 Si / 1000 Ang^3
#
#
#
# Elastic Constant Matrix: (Units=GPa)
#
#
# Indices 1 2 3 4 5 6 
#
# 1 70.6719 30.3137 2.3786 -10.8097 5.9734 -10.1725
# 2 30.3137 115.4293 37.1252 0.9250 16.8170 -21.4369
# 3 2.3786 37.1252 77.3846 10.1717 1.9909 -2.8197
# 4 -10.8097 0.9250 10.1717 49.6511 -0.0876 -2.2580
# 5 5.9734 16.8170 1.9909 -0.0876 31.9451 5.0529
# 6 -10.1725 -21.4369 -2.8197 -2.2580 5.0529 45.5662
#
#
#
# Elastic Compliance Matrix: (Units=1/GPa)
#
#
# Indices 1 2 3 4 5 6 
#
# 1 0.016911 -0.004242 0.001153 0.003621 -0.001336 0.002179
# 2 -0.004242 0.013918 -0.006190 0.000347 -0.007100 0.006022
# 3 0.001153 -0.006190 0.016119 -0.003026 0.002358 -0.002069
# 4 0.003621 0.000347 -0.003026 0.021630 -0.000922 0.001958
# 5 -0.001336 -0.007100 0.002358 -0.000922 0.036339 -0.007568
# 6 0.002179 0.006022 -0.002069 0.001958 -0.007568 0.026074
#
#
# Mechanical properties :
#
#
# Convention : Reuss Voigt Hill
#
# Bulk Modulus (GPa) = 35.22447 44.79121 40.00784
# Shear Modulus (GPa) = 31.44427 38.34370 34.89399
#
# Velocity S-wave (km/s) = 3.59986 3.97523 3.79219
# Velocity P-wave (km/s) = 5.63875 6.28725 5.97181
#
# Compressibility (1/GPa) = 0.02838936
#
# Stress axis : x y z
#
# Youngs Moduli (GPa) = 59.13343 71.84787 62.04040
#
# Poissons Ratio (x) = 0.30476 -0.07153
# Poissons Ratio (y) = 0.25083 0.38405
# Poissons Ratio (z) = -0.06818 0.44477
#
# Static dielectric constant tensor:
#      x y z
#    x 2.099390 0.090280 0.077270 
#    y 0.090280 2.139900 0.085800 
#    z 0.077270 0.085800 2.032680 
# 
# From -- ./inp_files/289087.got.cif
#   From: 2010.05.17/outbox.cif.g08.bks.cpg/sg2_145_cif.got.tgz:289087.got - 2010.06.03 11:33:40.
