data_PCOD9021897
_publ_section_title
;
Structure prediction by ZEFSAII (Michael W. Deem and Ramdas Pophale) SiO2 
 PCOD9021897
Probable space group: P -1
;
_chemical_formula_sum "Si O2"
_cell_formula_units_Z 14
_cell_length_a 5.110011
_cell_length_b 5.010396
_cell_length_c 21.456482
_cell_angle_alpha 102.874229
_cell_angle_beta 75.374470
_cell_angle_gamma 90.984665
_cell_volume 517.746029
_symmetry_space_group_name_H-M "P -1"
_symmetry_group_IT_number 2
_symmetry_cell_setting 'triclinic'
loop_
_space_group_symop_operation_xyz
x,y,z
-x,-y,-z
loop_
_atom_site_type_symbol
_atom_site_label
_atom_site_fract_x
_atom_site_fract_y
_atom_site_fract_z
Si Si1 0.303377 0.574750 0.123643
Si Si2 0.253039 0.752988 0.858176
Si Si3 0.764618 0.677010 0.488410
Si Si4 0.668087 0.419898 0.743939
Si Si5 0.034716 0.790636 0.043617
Si Si6 0.118885 0.606530 0.649145
Si Si7 0.645281 0.954074 0.626403
O O1 0.556321 0.360513 0.102692
O O2 0.304563 0.730183 0.198306
O O3 0.030210 0.400030 0.131790
O O4 0.294971 0.751216 0.070778
O O5 0.440854 0.656607 0.784189
O O6 0.180514 0.072953 0.886767
O O7 0.500000 0.500000 0.500000
O O8 0.705660 0.947552 0.547822
O O9 0.000000 0.500000 0.500000
O O10 0.835877 0.666987 0.410701
O O11 0.959352 0.532816 0.716530
O O12 0.592490 0.236534 0.680391
O O13 0.000000 0.500000 0.000000
O O14 0.000000 0.000000 0.000000
O O15 0.902933 0.804617 0.635951
O O16 0.392263 0.765376 0.643975
#
# Coordination Sequence:
#
# PCOD9021897 Si02
#       7
#     2   2   2   2   2   2   2
#     4  10  26  49  73 113 155 195 248 320 384 455
#     4  10  26  49  73 113 155 195 248 320 384 455
#     4   8  16  35  56  93 138 181 249 316 371 438
#     4  10  26  45  70 104 152 192 260 304 388 464
#     4  12  26  54  86 116 152 203 254 315 388 468
#     4  10  22  38  66  98 140 196 249 314 380 449
#     4  10  22  38  66  98 140 196 249 314 380 449
#
# _framework density 27.040282999999999
#
# number of rings (size 3 to 8) (size 9 to 14) (size 15 to 20)
#    0.857    1.143    1.429    0.000    4.000    5.143 
#    0.000    0.000    0.000   10.286    0.000    0.000 
#    0.000    0.000    0.000    0.000    0.000    0.143 
#
# Total GULP energy -78373.727701 kJ/mol
# GULP energy per Si atom -5598.123407 kJ/mol
# Density = 2.697874 g / cm^3
# Si number density = 27.040283 Si / 1000 Ang^3
#
#
#
# Elastic Constant Matrix: (Units=GPa)
#
#
# Indices 1 2 3 4 5 6 
#
# 1 162.7352 45.0733 31.0498 12.3743 -4.9143 2.2948
# 2 45.0733 112.9720 58.7217 24.9585 -0.2856 2.8002
# 3 31.0498 58.7217 182.8067 34.8853 -1.5747 4.5416
# 4 12.3743 24.9585 34.8853 56.7154 -4.9486 -6.4087
# 5 -4.9143 -0.2856 -1.5747 -4.9486 36.3914 -0.9304
# 6 2.2948 2.8002 4.5416 -6.4087 -0.9304 36.5591
#
#
#
# Elastic Compliance Matrix: (Units=1/GPa)
#
#
# Indices 1 2 3 4 5 6 
#
# 1 0.006958 -0.002574 -0.000316 -0.000137 0.000882 -0.000202
# 2 -0.002574 0.012071 -0.002811 -0.003207 -0.000836 -0.000997
# 3 -0.000316 -0.002811 0.007065 -0.003196 -0.000225 -0.001208
# 4 -0.000137 -0.003207 -0.003196 0.021806 0.002900 0.004548
# 5 0.000882 -0.000836 -0.000225 0.002900 0.028008 0.001258
# 6 -0.000202 -0.000997 -0.001208 0.004548 0.001258 0.028421
#
#
# Mechanical properties :
#
#
# Convention : Reuss Voigt Hill
#
# Bulk Modulus (GPa) = 68.06665 80.91147 74.48906
# Shear Modulus (GPa) = 41.44951 47.51113 44.48032
#
# Velocity S-wave (km/s) = 3.91945 4.19627 4.06022
# Velocity P-wave (km/s) = 6.76090 7.31203 7.04186
#
# Compressibility (1/GPa) = 0.01469148
#
# Stress axis : x y z
#
# Youngs Moduli (GPa) = 143.71552 82.84349 141.54800
#
# Poissons Ratio (x) = 0.21327 0.04476
# Poissons Ratio (y) = 0.36998 0.39783
# Poissons Ratio (z) = 0.04545 0.23284
#
# Static dielectric constant tensor:
#      x y z
#    x 2.107380 0.008930 0.028830 
#    y 0.008930 2.131200 -0.035700 
#    z 0.028830 -0.035700 2.171760 
# 
# From -- ./inp_files/614756.got.cif
#   From: 2010.05.17/outbox.cif.g08.bks.cpg/sg2_308_cif.got.tgz:614756.got - 2010.06.03 11:33:40.
