data_PCOD9021784
_publ_section_title
;
Structure prediction by ZEFSAII (Michael W. Deem and Ramdas Pophale) SiO2 
 PCOD9021784
Probable space group: P -1
;
_chemical_formula_sum "Si O2"
_cell_formula_units_Z 14
_cell_length_a 20.101406
_cell_length_b 8.889115
_cell_length_c 16.554130
_cell_angle_alpha 47.679329
_cell_angle_beta 159.731996
_cell_angle_gamma 139.296395
_cell_volume 658.776410
_symmetry_space_group_name_H-M "P -1"
_symmetry_group_IT_number 2
_symmetry_cell_setting 'triclinic'
loop_
_space_group_symop_operation_xyz
x,y,z
-x,-y,-z
loop_
_atom_site_type_symbol
_atom_site_label
_atom_site_fract_x
_atom_site_fract_y
_atom_site_fract_z
Si Si1 0.341423 0.743341 0.247959
Si Si2 0.915230 0.776667 0.787599
Si Si3 0.628137 0.106078 0.961181
Si Si4 0.126416 0.869744 0.480025
Si Si5 0.839030 0.041837 0.745370
Si Si6 0.258400 0.301889 0.768658
Si Si7 0.027854 0.514280 0.345360
O O1 0.243939 0.475523 0.263077
O O2 0.575562 0.890260 0.506020
O O3 0.373116 0.799458 0.166807
O O4 0.156314 0.806439 0.042687
O O5 0.899130 0.958772 0.761834
O O6 0.859502 0.874474 0.608789
O O7 0.777561 0.320227 0.112658
O O8 0.731943 0.935367 0.141752
O O9 0.376666 0.949382 0.759345
O O10 0.068720 0.678725 0.410785
O O11 0.930969 0.742120 0.366811
O O12 0.901212 0.309477 0.713471
O O13 0.000000 0.000000 0.000000
O O14 0.181935 0.396791 0.571169
O O15 0.500000 0.500000 0.000000
#
# Coordination Sequence:
#
# PCOD9021784 Si02
#       7
#     2   2   2   2   2   2   2
#     4  11  21  41  66  95 133 176 211 272 330 382
#     4  10  22  38  65  94 129 173 220 261 331 391
#     4  12  24  44  70  97 135 175 222 270 328 394
#     4  11  24  45  67  99 131 177 220 272 332 388
#     4  11  23  41  65  95 133 171 218 269 329 389
#     4  12  24  47  71  94 137 176 215 280 331 388
#     4  11  25  43  66 102 130 174 224 269 327 393
#
# _framework density 21.251518000000001
#
# number of rings (size 3 to 8) (size 9 to 14) (size 15 to 20)
#    0.000    0.857    5.714    2.143    2.000    1.143 
#    2.571    0.000    0.000    0.000    0.000    0.000 
#    0.000    0.000    0.000    0.000    0.000    0.000 
#
# Total GULP energy -78027.605589 kJ/mol
# GULP energy per Si atom -5573.400399 kJ/mol
# Density = 2.120315 g / cm^3
# Si number density = 21.251518 Si / 1000 Ang^3
#
#
#
# Elastic Constant Matrix: (Units=GPa)
#
#
# Indices 1 2 3 4 5 6 
#
# 1 11.3348 27.4635 41.4048 3.5593 18.8810 13.6651
# 2 27.4635 142.5783 71.6666 -6.3245 1.4890 18.3840
# 3 41.4048 71.6666 181.4229 15.7199 3.8938 4.8777
# 4 3.5593 -6.3245 15.7199 53.6285 10.4755 -9.6120
# 5 18.8810 1.4890 3.8938 10.4755 37.5509 -0.7136
# 6 13.6651 18.3840 4.8777 -9.6120 -0.7136 25.6586
#
#
#
# Elastic Compliance Matrix: (Units=1/GPa)
#
#
# Indices 1 2 3 4 5 6 
#
# 1 -0.074629 0.002026 0.014425 0.000409 0.036532 0.036721
# 2 0.002026 0.009671 -0.004183 0.001305 -0.001461 -0.006765
# 3 0.014425 -0.004183 0.004426 -0.002589 -0.006951 -0.006690
# 4 0.000409 0.001305 -0.002589 0.022035 -0.005995 0.007427
# 5 0.036532 -0.001461 -0.006951 -0.005995 0.010351 -0.019045
# 6 0.036721 -0.006765 -0.006690 0.007427 -0.019045 0.027788
#
#
# Mechanical properties :
#
#
# Convention : Reuss Voigt Hill
#
# Bulk Modulus (GPa) = -27.78158 68.48953 20.35397
# Shear Modulus (GPa) = -135.52639 36.35437 -49.58601
#
# Velocity S-wave (km/s) = -7.99444 4.14051 -4.83566
# Velocity P-wave (km/s) = 9.91543 7.42674 4.64539
#
# Compressibility (1/GPa) = -0.03599507
#
# Stress axis : x y z
#
# Youngs Moduli (GPa) = -13.39967 103.39973 225.95841
#
# Poissons Ratio (x) = -0.20953 -3.25938
# Poissons Ratio (y) = 0.02715 0.94511
# Poissons Ratio (z) = 0.19329 0.43249
#
# Static dielectric constant tensor:
#      x y z
#    x 2.353800 0.502050 -0.328000 
#    y 0.502050 2.163520 -0.255530 
#    z -0.328000 -0.255530 1.880130 
# 
# From -- ./inp_files/544182.got.cif
#   From: 2010.05.17/outbox.cif.g08.bks.cpg/sg2_273_cif.got.tgz:544182.got - 2010.06.03 11:33:40.
