data_PCOD9021406
_publ_section_title
;
Structure prediction by ZEFSAII (Michael W. Deem and Ramdas Pophale) SiO2 
 PCOD9021406
Probable space group: P -1
;
_chemical_formula_sum "Si O2"
_cell_formula_units_Z 14
_cell_length_a 8.848251
_cell_length_b 26.645068
_cell_length_c 4.911579
_cell_angle_alpha 69.434345
_cell_angle_beta 117.192861
_cell_angle_gamma 149.006812
_cell_volume 528.299796
_symmetry_space_group_name_H-M "P -1"
_symmetry_group_IT_number 2
_symmetry_cell_setting 'triclinic'
loop_
_space_group_symop_operation_xyz
x,y,z
-x,-y,-z
loop_
_atom_site_type_symbol
_atom_site_label
_atom_site_fract_x
_atom_site_fract_y
_atom_site_fract_z
Si Si1 0.235741 0.360786 0.678911
Si Si2 0.085422 0.417451 0.094395
Si Si3 0.833509 0.404103 0.418088
Si Si4 0.196701 0.278534 0.296890
Si Si5 0.902669 0.113806 0.724734
Si Si6 0.409345 0.051434 0.607307
Si Si7 0.848189 0.916189 0.829269
O O1 0.047763 0.353174 0.355315
O O2 0.548566 0.472241 0.830205
O O3 0.325592 0.342189 0.552006
O O4 0.094245 0.294044 0.953282
O O5 0.933801 0.420799 0.162582
O O6 0.941222 0.384145 0.741845
O O7 0.471294 0.318420 0.306586
O O8 0.000000 0.500000 0.500000
O O9 0.965080 0.175293 0.436177
O O10 0.719123 0.099079 0.833034
O O11 0.701354 0.012578 0.621957
O O12 0.206652 0.158228 0.963037
O O13 0.436324 0.122337 0.437852
O O14 0.116148 0.974155 0.716391
O O15 0.000000 0.000000 0.000000
#
# Coordination Sequence:
#
# PCOD9021406 Si02
#       7
#     2   2   2   2   2   2   2
#     4  11  23  42  62  92 125 167 218 264 321 385
#     4  11  22  41  67  86 123 173 216 264 316 387
#     4  12  21  39  64  92 122 166 215 262 323 381
#     4  12  25  40  62  95 130 162 213 271 322 379
#     4  10  22  38  61  90 126 168 206 269 328 377
#     4   9  19  40  65  87 122 164 216 253 319 396
#     4   9  18  37  64  92 113 157 213 255 310 395
#
# _framework density 26.500104
#
# number of rings (size 3 to 8) (size 9 to 14) (size 15 to 20)
#    0.000    1.429    2.857    2.571    2.000    2.286 
#    5.143    1.429    0.000    0.000    0.000    0.000 
#    0.000    0.000    0.000    0.000    0.000    0.000 
#
# Total GULP energy -78237.762991 kJ/mol
# GULP energy per Si atom -5588.411642 kJ/mol
# Density = 2.643979 g / cm^3
# Si number density = 26.500104 Si / 1000 Ang^3
#
#
#
# Elastic Constant Matrix: (Units=GPa)
#
#
# Indices 1 2 3 4 5 6 
#
# 1 165.3772 17.8088 50.4259 -8.6819 14.3146 11.3116
# 2 17.8088 67.1418 19.5737 -23.6985 10.3016 -2.8918
# 3 50.4259 19.5737 168.2321 -25.7852 26.0510 -10.5663
# 4 -8.6819 -23.6985 -25.7852 40.9481 -7.0794 1.0151
# 5 14.3146 10.3016 26.0510 -7.0794 57.0338 -2.0524
# 6 11.3116 -2.8918 -10.5663 1.0151 -2.0524 19.2667
#
#
#
# Elastic Compliance Matrix: (Units=1/GPa)
#
#
# Indices 1 2 3 4 5 6 
#
# 1 0.007394 -0.001726 -0.002413 -0.000937 -0.000772 -0.005956
# 2 -0.001726 0.019452 0.000393 0.010743 -0.001804 0.003391
# 3 -0.002413 0.000393 0.007972 0.004189 -0.002393 0.005372
# 4 -0.000937 0.010743 0.004189 0.033111 0.000591 0.002778
# 5 -0.000772 -0.001804 -0.002393 0.000591 0.019252 0.000890
# 6 -0.005956 0.003391 0.005372 0.002778 0.000890 0.058804
#
#
# Mechanical properties :
#
#
# Convention : Reuss Voigt Hill
#
# Bulk Modulus (GPa) = 36.59746 64.04088 50.31917
# Shear Modulus (GPa) = 30.75303 44.31256 37.53280
#
# Velocity S-wave (km/s) = 3.41029 4.09365 3.76749
# Velocity P-wave (km/s) = 5.41729 6.82369 6.16075
#
# Compressibility (1/GPa) = 0.02732430
#
# Stress axis : x y z
#
# Youngs Moduli (GPa) = 135.25129 51.40866 125.44057
#
# Poissons Ratio (x) = 0.08875 0.30275
# Poissons Ratio (y) = 0.23349 -0.04933
# Poissons Ratio (z) = 0.32643 -0.02022
#
# Static dielectric constant tensor:
#      x y z
#    x 2.079350 0.017860 0.112700 
#    y 0.017860 2.150920 0.041000 
#    z 0.112700 0.041000 2.243180 
# 
# From -- ./inp_files/56720.got.cif
#   From: 2010.05.17/outbox.cif.g08.bks.cpg/sg2_29_cif.got.tgz:56720.got - 2010.06.03 11:33:40.
