data_PCOD9021321
_publ_section_title
;
Structure prediction by ZEFSAII (Michael W. Deem and Ramdas Pophale) SiO2 
 PCOD9021321
Probable space group: P -1
;
_chemical_formula_sum "Si O2"
_cell_formula_units_Z 16
_cell_length_a 30.325826
_cell_length_b 9.918141
_cell_length_c 6.607046
_cell_angle_alpha 44.800415
_cell_angle_beta 142.429593
_cell_angle_gamma 145.761600
_cell_volume 673.143809
_symmetry_space_group_name_H-M "P -1"
_symmetry_group_IT_number 2
_symmetry_cell_setting 'triclinic'
loop_
_space_group_symop_operation_xyz
x,y,z
-x,-y,-z
loop_
_atom_site_type_symbol
_atom_site_label
_atom_site_fract_x
_atom_site_fract_y
_atom_site_fract_z
Si Si1 0.488763 0.693272 0.346621
Si Si2 0.186841 0.921032 0.500086
Si Si3 0.947859 0.153304 0.224253
Si Si4 0.319777 0.462306 0.291981
Si Si5 0.897946 0.791875 0.766237
Si Si6 0.091516 0.624049 0.832948
Si Si7 0.432908 0.871509 0.583806
Si Si8 0.159479 0.439060 0.778081
O O1 0.500000 0.500000 0.500000
O O2 0.401071 0.564850 0.316084
O O3 0.570393 0.926245 0.530387
O O4 0.472161 0.798801 0.978403
O O5 0.168352 0.863458 0.732145
O O6 0.183866 0.699306 0.639571
O O7 0.275768 0.185658 0.481610
O O8 0.101441 0.898534 0.112834
O O9 0.890631 0.928152 0.412344
O O10 0.946318 0.739074 0.493787
O O11 0.934238 0.333724 0.092279
O O12 0.352028 0.626872 0.437151
O O13 0.239716 0.471657 0.907226
O O14 0.887070 0.562189 0.883869
O O15 0.841033 0.681786 0.883263
O O16 0.000000 0.000000 0.000000
O O17 0.000000 0.500000 0.500000
O O18 0.500000 0.000000 0.500000
#
# Coordination Sequence:
#
# PCOD9021321 Si02
#       8
#     2   2   2   2   2   2   2   2
#     4  10  23  46  79 109 134 172 217 264 341 432
#     4  11  25  39  60  95 132 181 240 287 332 391
#     4  11  22  39  61  87 125 182 245 286 334 387
#     4  11  25  41  65 105 144 173 221 285 341 403
#     4   9  18  34  59  83 110 167 225 284 338 388
#     4  11  20  37  60  79 120 172 233 288 338 389
#     4   9  22  46  75 104 137 170 212 266 339 425
#     4  10  22  38  60  89 135 180 230 285 338 383
#
# _framework density 23.769065999999999
#
# number of rings (size 3 to 8) (size 9 to 14) (size 15 to 20)
#    0.000    1.750    3.750    1.125    1.750    9.500 
#    0.000    3.750    0.000    1.500    0.000    0.000 
#    0.000    0.000    0.000    0.000    0.000    0.000 
#
# Total GULP energy -89382.068467 kJ/mol
# GULP energy per Si atom -5586.379279 kJ/mol
# Density = 2.371497 g / cm^3
# Si number density = 23.769066 Si / 1000 Ang^3
#
#
#
# Elastic Constant Matrix: (Units=GPa)
#
#
# Indices 1 2 3 4 5 6 
#
# 1 135.1861 60.3818 42.9115 -7.4343 -6.4261 -17.9631
# 2 60.3818 163.4531 50.0827 -9.8552 -7.3596 -15.1444
# 3 42.9115 50.0827 92.5178 -20.9649 -20.1073 -2.8955
# 4 -7.4343 -9.8552 -20.9649 42.0743 -0.4000 -6.6735
# 5 -6.4261 -7.3596 -20.1073 -0.4000 35.8351 -9.9550
# 6 -17.9631 -15.1444 -2.8955 -6.6735 -9.9550 52.3604
#
#
#
# Elastic Compliance Matrix: (Units=1/GPa)
#
#
# Indices 1 2 3 4 5 6 
#
# 1 0.009817 -0.002428 -0.003105 0.000024 0.000225 0.002540
# 2 -0.002428 0.008131 -0.003277 0.000046 -0.000244 0.001297
# 3 -0.003105 -0.003277 0.017939 0.007996 0.009422 0.001789
# 4 0.000024 0.000046 0.007996 0.028669 0.006296 0.005315
# 5 0.000225 -0.000244 0.009422 0.006296 0.035497 0.008079
# 6 0.002540 0.001297 0.001789 0.005315 0.008079 0.022657
#
#
# Mechanical properties :
#
#
# Convention : Reuss Voigt Hill
#
# Bulk Modulus (GPa) = 54.74824 77.54545 66.14684
# Shear Modulus (GPa) = 34.14836 41.90600 38.02718
#
# Velocity S-wave (km/s) = 3.79446 4.20342 4.00416
# Velocity P-wave (km/s) = 6.50236 7.50025 7.01906
#
# Compressibility (1/GPa) = 0.01826543
#
# Stress axis : x y z
#
# Youngs Moduli (GPa) = 101.86550 122.98384 55.74601
#
# Poissons Ratio (x) = 0.29863 0.17309
# Poissons Ratio (y) = 0.24735 0.18270
# Poissons Ratio (z) = 0.31629 0.40306
#
# Static dielectric constant tensor:
#      x y z
#    x 1.833930 0.001310 -0.065120 
#    y 0.001310 2.021410 0.032260 
#    z -0.065120 0.032260 1.884160 
# 
# From -- ./inp_files/128203.got.cif
#   From: 2010.05.17/outbox.cif.g08.bks.cpg/sg2_65_cif.got.tgz:128203.got - 2010.06.03 11:33:40.
