data_PCOD9021320
_publ_section_title
;
Structure prediction by ZEFSAII (Michael W. Deem and Ramdas Pophale) SiO2 
 PCOD9021320
Probable space group: P -1
;
_chemical_formula_sum "Si O2"
_cell_formula_units_Z 16
_cell_length_a 19.012945
_cell_length_b 5.225757
_cell_length_c 29.224094
_cell_angle_alpha 104.844760
_cell_angle_beta 15.730936
_cell_angle_gamma 96.515833
_cell_volume 655.462123
_symmetry_space_group_name_H-M "P -1"
_symmetry_group_IT_number 2
_symmetry_cell_setting 'triclinic'
loop_
_space_group_symop_operation_xyz
x,y,z
-x,-y,-z
loop_
_atom_site_type_symbol
_atom_site_label
_atom_site_fract_x
_atom_site_fract_y
_atom_site_fract_z
Si Si1 0.735581 0.883824 0.130979
Si Si2 0.822655 0.728450 0.560532
Si Si3 0.838926 0.777096 0.159360
Si Si4 0.780755 0.971357 0.692665
Si Si5 0.373131 0.851656 0.107529
Si Si6 0.824325 0.998135 0.407020
Si Si7 0.158982 0.617078 0.662962
Si Si8 0.135706 0.758642 0.783837
O O1 0.785382 0.973963 0.155138
O O2 0.407117 0.133875 0.331142
O O3 0.838706 0.529025 0.061694
O O4 0.933778 0.808162 0.957017
O O5 0.667192 0.914029 0.713152
O O6 0.959960 0.371524 0.469596
O O7 0.086126 0.805624 0.389674
O O8 0.531106 0.770115 0.353564
O O9 0.849625 0.929883 0.207251
O O10 0.563194 0.103957 0.878222
O O11 0.015384 0.999650 0.330420
O O12 0.500000 0.500000 0.000000
O O13 0.500000 0.000000 0.000000
O O14 0.863595 0.664686 0.357253
O O15 0.949789 0.101855 0.290710
O O16 0.032581 0.703547 0.797345
O O17 0.516266 0.498830 0.439245
#
# Coordination Sequence:
#
# PCOD9021320 Si02
#       8
#     2   2   2   2   2   2   2   2
#     4  11  22  38  62 100 129 176 220 272 319 398
#     4  10  23  42  72  94 132 176 218 276 334 391
#     4  10  23  39  61  94 140 172 218 269 329 397
#     4  10  23  47  66  98 131 171 221 275 342 396
#     4  12  26  44  71 100 131 170 224 282 331 397
#     4  11  23  44  65  94 130 176 214 268 337 389
#     4  10  23  40  66  88 129 181 219 258 326 390
#     4  10  22  38  60  89 135 173 221 267 314 386
#
# _framework density 24.410259
#
# number of rings (size 3 to 8) (size 9 to 14) (size 15 to 20)
#    0.000    1.500    1.250    2.625    3.500    5.500 
#    0.000    0.000    0.000    0.000    0.000    0.000 
#    0.000    0.000    0.000    0.000    0.000    0.000 
#
# Total GULP energy -89326.213644 kJ/mol
# GULP energy per Si atom -5582.888353 kJ/mol
# Density = 2.435470 g / cm^3
# Si number density = 24.410259 Si / 1000 Ang^3
#
#
#
# Elastic Constant Matrix: (Units=GPa)
#
#
# Indices 1 2 3 4 5 6 
#
# 1 139.6264 29.1667 19.7983 -7.8733 17.7735 -2.3203
# 2 29.1667 78.9239 11.2508 -14.4773 2.7682 -11.1806
# 3 19.7983 11.2508 48.7961 -6.8184 18.0210 2.1387
# 4 -7.8733 -14.4773 -6.8184 28.5287 -12.5172 5.9872
# 5 17.7735 2.7682 18.0210 -12.5172 50.3988 1.8675
# 6 -2.3203 -11.1806 2.1387 5.9872 1.8675 27.2197
#
#
#
# Elastic Compliance Matrix: (Units=1/GPa)
#
#
# Indices 1 2 3 4 5 6 
#
# 1 0.008276 -0.002807 -0.001978 -0.000575 -0.002199 -0.000015
# 2 -0.002807 0.015942 -0.002765 0.006779 0.002607 0.004856
# 3 -0.001978 -0.002765 0.025087 0.001314 -0.007682 -0.003037
# 4 -0.000575 0.006779 0.001314 0.045098 0.010859 -0.008032
# 5 -0.002199 0.002607 -0.007682 0.010859 0.026018 -0.002687
# 6 -0.000015 0.004856 -0.003037 -0.008032 -0.002687 0.040921
#
#
# Mechanical properties :
#
#
# Convention : Reuss Voigt Hill
#
# Bulk Modulus (GPa) = 29.23545 43.08644 36.16094
# Shear Modulus (GPa) = 26.61777 35.03815 30.82796
#
# Velocity S-wave (km/s) = 3.30575 3.79276 3.55760
# Velocity P-wave (km/s) = 5.15494 6.07201 5.63217
#
# Compressibility (1/GPa) = 0.03420505
#
# Stress axis : x y z
#
# Youngs Moduli (GPa) = 120.82987 62.72761 39.86065
#
# Poissons Ratio (x) = 0.17607 0.07885
# Poissons Ratio (y) = 0.33916 0.11022
# Poissons Ratio (z) = 0.23902 0.17345
#
# Static dielectric constant tensor:
#      x y z
#    x 1.927340 -0.012040 0.010900 
#    y -0.012040 2.049300 -0.015060 
#    z 0.010900 -0.015060 2.007880 
# 
# From -- ./inp_files/620150.got.cif
#   From: 2010.05.17/outbox.cif.g08.bks.cpg/sg2_311_cif.got.tgz:620150.got - 2010.06.03 11:33:40.
