data_PCOD9021259
_publ_section_title
;
Structure prediction by ZEFSAII (Michael W. Deem and Ramdas Pophale) SiO2 
 PCOD9021259
Probable space group: P -1
;
_chemical_formula_sum "Si O2"
_cell_formula_units_Z 14
_cell_length_a 7.502872
_cell_length_b 7.401859
_cell_length_c 19.126227
_cell_angle_alpha 45.836383
_cell_angle_beta 50.044827
_cell_angle_gamma 63.080256
_cell_volume 584.048846
_symmetry_space_group_name_H-M "P -1"
_symmetry_group_IT_number 2
_symmetry_cell_setting 'triclinic'
loop_
_space_group_symop_operation_xyz
x,y,z
-x,-y,-z
loop_
_atom_site_type_symbol
_atom_site_label
_atom_site_fract_x
_atom_site_fract_y
_atom_site_fract_z
Si Si1 0.953546 0.739288 0.161590
Si Si2 0.964746 0.276952 0.371562
Si Si3 0.950451 0.639735 0.403353
Si Si4 0.344569 0.811241 0.938368
Si Si5 0.715959 0.108963 0.838672
Si Si6 0.501859 0.965811 0.425881
Si Si7 0.472132 0.352412 0.210379
O O1 0.096453 0.894149 0.144033
O O2 0.861359 0.481677 0.287433
O O3 0.752969 0.916673 0.135237
O O4 0.138893 0.685129 0.068362
O O5 0.013277 0.438597 0.383769
O O6 0.771643 0.089410 0.497275
O O7 0.220471 0.222803 0.293184
O O8 0.689561 0.741055 0.429487
O O9 0.000000 0.500000 0.500000
O O10 0.132331 0.854884 0.279933
O O11 0.548972 0.880139 0.922947
O O12 0.401986 0.669616 0.889954
O O13 0.566541 0.360924 0.830177
O O14 0.500000 0.000000 0.500000
O O15 0.569699 0.185002 0.295532
#
# Coordination Sequence:
#
# PCOD9021259 Si02
#       7
#     2   2   2   2   2   2   2
#     4   9  22  43  61  99 118 167 222 248 325 377
#     4  10  23  40  61  86 130 159 203 266 303 378
#     4  10  22  38  59  90 120 166 207 248 317 372
#     4  11  22  41  73  84 130 169 206 272 311 371
#     4  10  23  41  63  93 132 160 210 268 308 380
#     4  12  24  37  62  92 129 162 204 261 313 379
#     4  10  23  41  61  99 121 163 220 245 322 383
#
# _framework density 23.970596
#
# number of rings (size 3 to 8) (size 9 to 14) (size 15 to 20)
#    0.000    2.000    0.000    4.714    8.000    2.286 
#    0.000    2.857    0.000    0.000    0.000    0.000 
#    0.000    0.000    0.000    0.000    0.000    0.000 
#
# Total GULP energy -78124.883254 kJ/mol
# GULP energy per Si atom -5580.348804 kJ/mol
# Density = 2.391604 g / cm^3
# Si number density = 23.970596 Si / 1000 Ang^3
#
#
#
# Elastic Constant Matrix: (Units=GPa)
#
#
# Indices 1 2 3 4 5 6 
#
# 1 58.8405 28.6633 9.6791 -0.8474 19.5315 -1.0296
# 2 28.6633 58.5525 37.4745 16.7614 11.0235 -4.4003
# 3 9.6791 37.4745 117.3870 14.7614 28.7703 1.2885
# 4 -0.8474 16.7614 14.7614 38.6487 -1.7387 10.8968
# 5 19.5315 11.0235 28.7703 -1.7387 31.6637 4.5310
# 6 -1.0296 -4.4003 1.2885 10.8968 4.5310 36.3259
#
#
#
# Elastic Compliance Matrix: (Units=1/GPa)
#
#
# Indices 1 2 3 4 5 6 
#
# 1 0.030637 -0.017377 0.007056 0.004824 -0.018912 -0.000575
# 2 -0.017377 0.035212 -0.009388 -0.013997 0.005125 0.007665
# 3 0.007056 -0.009388 0.014881 -0.002446 -0.014901 0.001127
# 4 0.004824 -0.013997 -0.002446 0.037195 0.008114 -0.013642
# 5 -0.018912 0.005125 -0.014901 0.008114 0.056722 -0.008896
# 6 -0.000575 0.007665 0.001127 -0.013642 -0.008896 0.033602
#
#
# Mechanical properties :
#
#
# Convention : Reuss Voigt Hill
#
# Bulk Modulus (GPa) = 24.20654 42.93487 33.57070
# Shear Modulus (GPa) = 19.12491 31.92521 25.52506
#
# Velocity S-wave (km/s) = 2.82769 3.65341 3.26674
# Velocity P-wave (km/s) = 4.55867 5.97887 5.31640
#
# Compressibility (1/GPa) = 0.04131116
#
# Stress axis : x y z
#
# Youngs Moduli (GPa) = 32.64064 28.39932 67.19768
#
# Poissons Ratio (x) = 0.49351 -0.47417
# Poissons Ratio (y) = 0.56721 0.63088
# Poissons Ratio (z) = -0.23032 0.26662
#
# Static dielectric constant tensor:
#      x y z
#    x 1.912280 0.029770 0.006060 
#    y 0.029770 1.882160 -0.073510 
#    z 0.006060 -0.073510 1.987670 
# 
# From -- ./inp_files/508080.got.cif
#   From: 2010.05.17/outbox.cif.g08.bks.cpg/sg2_255_cif.got.tgz:508080.got - 2010.06.03 11:33:40.
