data_PCOD9021711
_publ_section_title
;
Structure prediction by ZEFSAII (Michael W. Deem and Ramdas Pophale) SiO2 
 PCOD9021711
Probable space group: P -1
;
_chemical_formula_sum "Si O2"
_cell_formula_units_Z 16
_cell_length_a 18.019874
_cell_length_b 11.631945
_cell_length_c 9.540034
_cell_angle_alpha 135.050472
_cell_angle_beta 45.103774
_cell_angle_gamma 148.974683
_cell_volume 700.517345
_symmetry_space_group_name_H-M "P -1"
_symmetry_group_IT_number 2
_symmetry_cell_setting 'triclinic'
loop_
_space_group_symop_operation_xyz
x,y,z
-x,-y,-z
loop_
_atom_site_type_symbol
_atom_site_label
_atom_site_fract_x
_atom_site_fract_y
_atom_site_fract_z
Si Si1 0.261420 0.160004 0.966327
Si Si2 0.765021 0.642376 0.606075
Si Si3 0.123173 0.501260 0.478433
Si Si4 0.159919 0.628455 0.222784
Si Si5 0.472660 0.350796 0.068367
Si Si6 0.744270 0.577022 0.264840
Si Si7 0.442174 0.120175 0.193339
Si Si8 0.889567 0.993516 0.231040
O O1 0.159311 0.135902 0.200200
O O2 0.359084 0.422240 0.003224
O O3 0.374860 0.175208 0.917064
O O4 0.197010 0.013725 0.786391
O O5 0.772871 0.477263 0.530871
O O6 0.606086 0.559900 0.730161
O O7 0.816329 0.677266 0.408421
O O8 0.188655 0.617597 0.338959
O O9 0.014955 0.523786 0.697668
O O10 0.995455 0.228768 0.376114
O O11 0.271191 0.902177 0.276872
O O12 0.198152 0.517330 0.977898
O O13 0.453304 0.220991 0.116573
O O14 0.564472 0.350381 0.322154
O O15 0.782912 0.772653 0.283917
O O16 0.500000 0.000000 0.000000
O O17 0.000000 0.000000 0.000000
#
# Coordination Sequence:
#
# PCOD9021711 Si02
#       8
#     2   2   2   2   2   2   2   2
#     4   9  19  37  63  94 130 159 200 280 310 370
#     4  10  22  38  64  95 129 159 211 278 312 359
#     4  11  24  43  66  92 128 176 215 255 311 390
#     4  10  24  45  63  88 131 178 212 247 323 391
#     4   9  19  38  60  96 126 159 208 265 315 363
#     4  11  23  40  66  97 126 165 213 270 318 371
#     4  10  22  40  65  88 129 171 203 259 323 379
#     4  12  20  39  68  93 124 165 217 257 314 372
#
# _framework density 22.840261000000002
#
# number of rings (size 3 to 8) (size 9 to 14) (size 15 to 20)
#    0.750    1.000    3.750    0.000    3.500    2.500 
#    2.250    5.625    0.000    0.000    0.000    0.000 
#    0.000    0.000    0.000    0.000    0.000    0.000 
#
# Total GULP energy -89169.970511 kJ/mol
# GULP energy per Si atom -5573.123157 kJ/mol
# Density = 2.278828 g / cm^3
# Si number density = 22.840261 Si / 1000 Ang^3
#
#
#
# Elastic Constant Matrix: (Units=GPa)
#
#
# Indices 1 2 3 4 5 6 
#
# 1 125.7552 24.8298 31.9500 -10.3419 19.3063 -25.9385
# 2 24.8298 113.0442 26.6054 -6.8075 5.7726 -20.6470
# 3 31.9500 26.6054 92.8394 -13.9241 12.3126 -9.7494
# 4 -10.3419 -6.8075 -13.9241 25.9018 -0.1207 3.4961
# 5 19.3063 5.7726 12.3126 -0.1207 31.5711 -8.2921
# 6 -25.9385 -20.6470 -9.7494 3.4961 -8.2921 26.3524
#
#
#
# Elastic Compliance Matrix: (Units=1/GPa)
#
#
# Indices 1 2 3 4 5 6 
#
# 1 0.010990 -0.000045 -0.002071 0.002086 -0.003639 0.008594
# 2 -0.000045 0.010809 -0.002316 0.000528 0.001009 0.007815
# 3 -0.002071 -0.002316 0.013439 0.005885 -0.003750 -0.000842
# 4 0.002086 0.000528 0.005885 0.043042 -0.004123 -0.002364
# 5 -0.003639 0.001009 -0.003750 -0.004123 0.037290 0.008102
# 6 0.008594 0.007815 -0.000842 -0.002364 0.008102 0.055080
#
#
# Mechanical properties :
#
#
# Convention : Reuss Voigt Hill
#
# Bulk Modulus (GPa) = 37.91773 55.37881 46.64827
# Shear Modulus (GPa) = 26.55247 33.31532 29.93389
#
# Velocity S-wave (km/s) = 3.41329 3.82333 3.62412
# Velocity P-wave (km/s) = 5.67198 6.61735 6.16282
#
# Compressibility (1/GPa) = 0.02637289
#
# Stress axis : x y z
#
# Youngs Moduli (GPa) = 90.99245 92.51829 74.40863
#
# Poissons Ratio (x) = 0.00420 0.15411
# Poissons Ratio (y) = 0.00413 0.17233
# Poissons Ratio (z) = 0.18846 0.21427
#
# Static dielectric constant tensor:
#      x y z
#    x 1.996450 0.089530 -0.055040 
#    y 0.089530 1.886840 -0.026530 
#    z -0.055040 -0.026530 1.964980 
# 
# From -- ./inp_files/346350.got.cif
#   From: 2010.05.17/outbox.cif.g08.bks.cpg/sg2_174_cif.got.tgz:346350.got - 2010.06.03 11:33:40.
