data_PCOD9021135
_publ_section_title
;
Structure prediction by ZEFSAII (Michael W. Deem and Ramdas Pophale) SiO2 
 PCOD9021135
Probable space group: P -1
;
_chemical_formula_sum "Si O2"
_cell_formula_units_Z 14
_cell_length_a 8.638125
_cell_length_b 22.171266
_cell_length_c 9.367587
_cell_angle_alpha 42.741586
_cell_angle_beta 75.054380
_cell_angle_gamma 41.165183
_cell_volume 601.907603
_symmetry_space_group_name_H-M "P -1"
_symmetry_group_IT_number 2
_symmetry_cell_setting 'triclinic'
loop_
_space_group_symop_operation_xyz
x,y,z
-x,-y,-z
loop_
_atom_site_type_symbol
_atom_site_label
_atom_site_fract_x
_atom_site_fract_y
_atom_site_fract_z
Si Si1 0.206562 0.608230 0.968099
Si Si2 0.408232 0.916595 0.249612
Si Si3 0.419982 0.299469 0.903907
Si Si4 0.685073 0.634861 0.514078
Si Si5 0.466246 0.104790 0.420746
Si Si6 0.683052 0.352330 0.874879
Si Si7 0.018808 0.734358 0.325538
O O1 0.290916 0.481167 0.261841
O O2 0.130036 0.726436 0.887161
O O3 0.500000 0.500000 0.000000
O O4 0.905688 0.723305 0.749777
O O5 0.472037 0.784847 0.422088
O O6 0.375091 0.954077 0.360607
O O7 0.722126 0.815841 0.292017
O O8 0.117990 0.100680 0.916635
O O9 0.442130 0.282533 0.756953
O O10 0.618170 0.286853 0.940180
O O11 0.048343 0.493448 0.682340
O O12 0.509475 0.167780 0.195777
O O13 0.500000 0.000000 0.500000
O O14 0.336339 0.556295 0.636970
O O15 0.859757 0.328693 0.757539
#
# Coordination Sequence:
#
# PCOD9021135 Si02
#       7
#     2   2   2   2   2   2   2
#     4  11  25  41  68  94 135 168 218 266 324 387
#     4  11  23  40  68  97 132 167 217 273 320 382
#     4  10  23  40  68  93 129 173 220 260 321 396
#     4  10  22  41  66  97 125 173 222 262 316 390
#     4  11  26  44  65  95 132 177 213 263 331 387
#     4  11  21  43  65  95 130 172 211 271 329 377
#     4  10  22  37  69  93 125 169 216 265 326 379
#
# _framework density 23.259383
#
# number of rings (size 3 to 8) (size 9 to 14) (size 15 to 20)
#    0.000    1.429    1.429    3.429   10.000    1.143 
#    2.571    2.857    0.000    0.000    0.000    0.000 
#    0.000    0.000    0.000    0.000    0.000    0.000 
#
# Total GULP energy -78201.496352 kJ/mol
# GULP energy per Si atom -5585.821168 kJ/mol
# Density = 2.320644 g / cm^3
# Si number density = 23.259383 Si / 1000 Ang^3
#
#
#
# Elastic Constant Matrix: (Units=GPa)
#
#
# Indices 1 2 3 4 5 6 
#
# 1 103.4473 34.8432 33.7440 11.4852 -3.4220 9.0430
# 2 34.8432 102.2435 10.9730 1.8666 -11.7458 6.3291
# 3 33.7440 10.9730 78.4092 -2.0067 -7.4575 7.8194
# 4 11.4852 1.8666 -2.0067 31.7035 2.2558 -4.5355
# 5 -3.4220 -11.7458 -7.4575 2.2558 30.9509 -6.0114
# 6 9.0430 6.3291 7.8194 -4.5355 -6.0114 47.4232
#
#
#
# Elastic Compliance Matrix: (Units=1/GPa)
#
#
# Indices 1 2 3 4 5 6 
#
# 1 0.013405 -0.003940 -0.005289 -0.005128 -0.001265 -0.001809
# 2 -0.003940 0.011537 0.000503 0.000451 0.003968 -0.000325
# 3 -0.005289 0.000503 0.015402 0.002511 0.002943 -0.000985
# 4 -0.005128 0.000451 0.002511 0.034156 -0.001587 0.003569
# 5 -0.001265 0.003968 0.002943 -0.001587 0.035186 0.003535
# 6 -0.001809 -0.000325 -0.000985 0.003569 0.003535 0.022427
#
#
# Mechanical properties :
#
#
# Convention : Reuss Voigt Hill
#
# Bulk Modulus (GPa) = 43.68575 49.24673 46.46624
# Shear Modulus (GPa) = 31.80760 35.65152 33.72956
#
# Velocity S-wave (km/s) = 3.70201 3.91932 3.81221
# Velocity P-wave (km/s) = 6.09064 6.45757 6.27679
#
# Compressibility (1/GPa) = 0.02289076
#
# Stress axis : x y z
#
# Youngs Moduli (GPa) = 74.60129 86.67656 64.92830
#
# Poissons Ratio (x) = 0.34153 0.34337
# Poissons Ratio (y) = 0.29395 -0.03263
# Poissons Ratio (z) = 0.39453 -0.04356
#
# Static dielectric constant tensor:
#      x y z
#    x 1.863840 0.029520 0.008150 
#    y 0.029520 1.889240 -0.039250 
#    z 0.008150 -0.039250 1.902240 
# 
# From -- ./inp_files/188749.got.cif
#   From: 2010.05.17/outbox.cif.g08.bks.cpg/sg2_95_cif.got.tgz:188749.got - 2010.06.03 11:33:40.
