data_PCOD9021045
_publ_section_title
;
Structure prediction by ZEFSAII (Michael W. Deem and Ramdas Pophale) SiO2 
 PCOD9021045
Probable space group: P -1
;
_chemical_formula_sum "Si O2"
_cell_formula_units_Z 16
_cell_length_a 19.084743
_cell_length_b 16.898943
_cell_length_c 9.411669
_cell_angle_alpha 134.784676
_cell_angle_beta 52.493742
_cell_angle_gamma 159.931432
_cell_volume 721.667652
_symmetry_space_group_name_H-M "P -1"
_symmetry_group_IT_number 2
_symmetry_cell_setting 'triclinic'
loop_
_space_group_symop_operation_xyz
x,y,z
-x,-y,-z
loop_
_atom_site_type_symbol
_atom_site_label
_atom_site_fract_x
_atom_site_fract_y
_atom_site_fract_z
Si Si1 0.523671 0.699953 0.595470
Si Si2 0.158467 0.155473 0.285652
Si Si3 0.851320 0.228029 0.454876
Si Si4 0.432111 0.729010 0.493057
Si Si5 0.729103 0.211209 0.302373
Si Si6 0.361193 0.628573 0.952429
Si Si7 0.029316 0.853984 0.330378
Si Si8 0.107622 0.304847 0.143040
O O1 0.405211 0.463157 0.364195
O O2 0.450609 0.725034 0.630653
O O3 0.431480 0.599166 0.741418
O O4 0.770629 0.978265 0.644111
O O5 0.052630 0.150295 0.459456
O O6 0.110638 0.016674 0.299309
O O7 0.048208 0.971980 0.056841
O O8 0.758804 0.206252 0.423168
O O9 0.027244 0.493104 0.666514
O O10 0.974037 0.266022 0.276718
O O11 0.657044 0.958891 0.440564
O O12 0.378196 0.793283 0.598452
O O13 0.245782 0.446724 0.292381
O O14 0.569440 0.940551 0.090699
O O15 0.158538 0.435274 0.867464
O O16 0.274528 0.510622 0.068233
#
# Coordination Sequence:
#
# PCOD9021045 Si02
#       8
#     2   2   2   2   2   2   2   2
#     4  11  24  40  62  89 129 163 195 245 309 365
#     4   9  20  39  62  88 119 159 203 254 292 350
#     4  10  22  37  65  93 119 158 204 251 298 358
#     4  11  24  41  59  91 130 159 196 252 304 361
#     4  10  22  39  65  88 121 159 205 253 296 350
#     4  10  22  38  65  91 119 156 206 255 286 354
#     4   9  20  38  61  90 122 159 200 248 298 357
#     4  10  22  39  66  94 118 154 211 253 294 353
#
# _framework density 22.170870000000001
#
# number of rings (size 3 to 8) (size 9 to 14) (size 15 to 20)
#    0.000    2.000    1.250    1.500    7.000    6.000 
#    0.000    2.500    0.000    0.000    0.000    0.000 
#    0.000    0.000    0.000    0.000    0.000    0.000 
#
# Total GULP energy -89265.850137 kJ/mol
# GULP energy per Si atom -5579.115634 kJ/mol
# Density = 2.212041 g / cm^3
# Si number density = 22.170870 Si / 1000 Ang^3
#
#
#
# Elastic Constant Matrix: (Units=GPa)
#
#
# Indices 1 2 3 4 5 6 
#
# 1 79.2598 35.2799 26.3017 -3.5396 20.3432 19.4669
# 2 35.2799 67.8215 32.1367 25.1329 14.3713 11.2100
# 3 26.3017 32.1367 90.7300 45.4897 13.2682 12.4316
# 4 -3.5396 25.1329 45.4897 50.0128 2.0189 13.0302
# 5 20.3432 14.3713 13.2682 2.0189 21.7568 9.8532
# 6 19.4669 11.2100 12.4316 13.0302 9.8532 20.7142
#
#
#
# Elastic Compliance Matrix: (Units=1/GPa)
#
#
# Indices 1 2 3 4 5 6 
#
# 1 0.040297 -0.020990 -0.020685 0.043369 0.004481 -0.043510
# 2 -0.020990 0.032306 0.009817 -0.032296 -0.015615 0.024095
# 3 -0.020685 0.009817 0.034521 -0.044914 -0.017638 0.030052
# 4 0.043369 -0.032296 -0.044914 0.097936 0.032272 -0.073282
# 5 0.004481 -0.015615 -0.017638 0.032272 0.079443 -0.043264
# 6 -0.043510 0.024095 0.030052 -0.073282 -0.043264 0.124768
#
#
# Mechanical properties :
#
#
# Convention : Reuss Voigt Hill
#
# Bulk Modulus (GPa) = 23.03716 47.24975 35.14345
# Shear Modulus (GPa) = 10.25731 28.10296 19.18014
#
# Velocity S-wave (km/s) = 2.15326 3.56415 2.94446
# Velocity P-wave (km/s) = 4.07374 6.18833 5.23883
#
# Compressibility (1/GPa) = 0.04340813
#
# Stress axis : x y z
#
# Youngs Moduli (GPa) = 24.81584 30.95377 28.96750
#
# Poissons Ratio (x) = 0.64972 0.59919
# Poissons Ratio (y) = 0.52088 -0.28436
# Poissons Ratio (z) = 0.51331 -0.30386
#
# Static dielectric constant tensor:
#      x y z
#    x 1.802210 0.006680 -0.005600 
#    y 0.006680 1.848810 0.037150 
#    z -0.005600 0.037150 1.835840 
# 
# From -- ./inp_files/348588.got.cif
#   From: 2010.05.17/outbox.cif.g08.bks.cpg/sg2_175_cif.got.tgz:348588.got - 2010.06.03 11:33:40.
