data_PCOD9021296
_publ_section_title
;
Structure prediction by ZEFSAII (Michael W. Deem and Ramdas Pophale) SiO2 
 PCOD9021296
Probable space group: P -1
;
_chemical_formula_sum "Si O2"
_cell_formula_units_Z 12
_cell_length_a 9.508043
_cell_length_b 23.424370
_cell_length_c 20.101922
_cell_angle_alpha 16.550085
_cell_angle_beta 158.233378
_cell_angle_gamma 154.664187
_cell_volume 468.992389
_symmetry_space_group_name_H-M "P -1"
_symmetry_group_IT_number 2
_symmetry_cell_setting 'triclinic'
loop_
_space_group_symop_operation_xyz
x,y,z
-x,-y,-z
loop_
_atom_site_type_symbol
_atom_site_label
_atom_site_fract_x
_atom_site_fract_y
_atom_site_fract_z
Si Si1 0.560859 0.138058 0.218216
Si Si2 0.542294 0.004696 0.808561
Si Si3 0.276349 0.545445 0.634580
Si Si4 0.704737 0.904458 0.136522
Si Si5 0.687966 0.848673 0.699976
Si Si6 0.052753 0.536670 0.694561
O O1 0.640771 0.115533 0.200735
O O2 0.821299 0.014022 0.516775
O O3 0.541710 0.372778 0.958379
O O4 0.127209 0.030324 0.167467
O O5 0.493889 0.238548 0.519425
O O6 0.500290 0.920389 0.958395
O O7 0.000000 0.000000 0.000000
O O8 0.049204 0.558216 0.589305
O O9 0.000000 0.500000 0.500000
O O10 0.737631 0.673465 0.428758
O O11 0.500000 0.000000 0.000000
O O12 0.420605 0.678790 0.728681
O O13 0.500000 0.000000 0.500000
O O14 0.910997 0.693493 0.013325
#
# Coordination Sequence:
#
# PCOD9021296 Si02
#       6
#     2   2   2   2   2   2
#     4  10  19  32  53  78 101 132 173 216 260 298
#     4  10  17  31  49  73 103 129 171 214 252 296
#     4  12  17  28  54  77 106 128 168 217 262 304
#     4  10  19  34  51  73 110 142 166 208 262 312
#     4  10  18  31  53  76 105 132 170 223 258 291
#     4  10  20  31  49  81 104 132 174 212 257 307
#
# _framework density 25.586770999999999
#
# number of rings (size 3 to 8) (size 9 to 14) (size 15 to 20)
#    0.000    1.667   10.000    0.000    0.000    0.000 
#    0.000    0.833    0.000    1.000    0.000    5.833 
#    0.000    0.000    0.000    0.000    0.000    0.000 
#
# Total GULP energy -67056.260033 kJ/mol
# GULP energy per Si atom -5588.021669 kJ/mol
# Density = 2.552853 g / cm^3
# Si number density = 25.586771 Si / 1000 Ang^3
#
#
#
# Elastic Constant Matrix: (Units=GPa)
#
#
# Indices 1 2 3 4 5 6 
#
# 1 170.3389 38.0486 52.4809 -11.9091 -15.0972 -34.3231
# 2 38.0486 67.8081 28.3449 -3.4590 -3.7358 -15.4305
# 3 52.4809 28.3449 254.8270 -23.0102 -21.5349 -3.0425
# 4 -11.9091 -3.4590 -23.0102 61.3214 -6.8671 -10.5812
# 5 -15.0972 -3.7358 -21.5349 -6.8671 42.7924 -8.3658
# 6 -34.3231 -15.4305 -3.0425 -10.5812 -8.3658 53.3396
#
#
#
# Elastic Compliance Matrix: (Units=1/GPa)
#
#
# Indices 1 2 3 4 5 6 
#
# 1 0.008395 -0.002741 -0.000798 0.002587 0.003847 0.005680
# 2 -0.002741 0.017684 -0.001233 0.000699 0.000761 0.003540
# 3 -0.000798 -0.001233 0.004572 0.001753 0.002210 0.000085
# 4 0.002587 0.000699 0.001753 0.019386 0.006297 0.006800
# 5 0.003847 0.000761 0.002210 0.006297 0.028587 0.008554
# 6 0.005680 0.003540 0.000085 0.006800 0.008554 0.026122
#
#
# Mechanical properties :
#
#
# Convention : Reuss Voigt Hill
#
# Bulk Modulus (GPa) = 47.37514 81.19143 64.28329
# Shear Modulus (GPa) = 41.21198 56.43066 48.82132
#
# Velocity S-wave (km/s) = 4.01768 4.70133 4.37288
# Velocity P-wave (km/s) = 6.33072 7.82756 7.11859
#
# Compressibility (1/GPa) = 0.02110812
#
# Stress axis : x y z
#
# Youngs Moduli (GPa) = 119.11891 56.54910 218.73775
#
# Poissons Ratio (x) = 0.15498 0.17445
# Poissons Ratio (y) = 0.32647 0.26969
# Poissons Ratio (z) = 0.09500 0.06972
#
# Static dielectric constant tensor:
#      x y z
#    x 2.191440 0.134060 0.146310 
#    y 0.134060 2.143000 0.123740 
#    z 0.146310 0.123740 2.076960 
# 
# From -- ./inp_files/389498.got.cif
#   From: 2010.05.17/outbox.cif.g08.bks.cpg/sg2_195_cif.got.tgz:389498.got - 2010.06.03 11:33:40.
