data_PCOD9021250
_publ_section_title
;
Structure prediction by ZEFSAII (Michael W. Deem and Ramdas Pophale) SiO2 
 PCOD9021250
Probable space group: P -1
;
_chemical_formula_sum "Si O2"
_cell_formula_units_Z 14
_cell_length_a 5.613643
_cell_length_b 12.062278
_cell_length_c 16.607797
_cell_angle_alpha 134.510525
_cell_angle_beta 59.146343
_cell_angle_gamma 100.226153
_cell_volume 657.337762
_symmetry_space_group_name_H-M "P -1"
_symmetry_group_IT_number 2
_symmetry_cell_setting 'triclinic'
loop_
_space_group_symop_operation_xyz
x,y,z
-x,-y,-z
loop_
_atom_site_type_symbol
_atom_site_label
_atom_site_fract_x
_atom_site_fract_y
_atom_site_fract_z
Si Si1 0.796697 0.264712 0.293894
Si Si2 0.400640 0.290216 0.974286
Si Si3 0.815835 0.273719 0.115009
Si Si4 0.583375 0.383900 0.652565
Si Si5 0.246872 0.359079 0.535617
Si Si6 0.297511 0.984167 0.102041
Si Si7 0.661534 0.582031 0.117585
O O1 0.838064 0.200296 0.162493
O O2 0.487870 0.264168 0.381612
O O3 0.806511 0.449777 0.379665
O O4 0.061291 0.155293 0.244644
O O5 0.530020 0.114992 0.903667
O O6 0.437269 0.288902 0.871517
O O7 0.534853 0.429985 0.051359
O O8 0.070397 0.353310 0.095012
O O9 0.515331 0.417405 0.234685
O O10 0.859547 0.140804 0.971130
O O11 0.422969 0.333660 0.577546
O O12 0.439679 0.346323 0.740894
O O13 0.934687 0.326130 0.568111
O O14 0.500000 0.000000 0.000000
O O15 0.000000 0.500000 0.000000
#
# Coordination Sequence:
#
# PCOD9021250 Si02
#       7
#     2   2   2   2   2   2   2
#     4  10  22  38  59  85 126 168 208 244 303 377
#     4  11  22  36  56  96 125 158 200 244 337 367
#     4  11  21  37  57  93 127 160 198 257 318 376
#     4  11  21  39  64  85 127 150 211 263 300 363
#     4  10  24  41  59  91 119 174 212 250 298 360
#     4  12  22  35  60  90 131 164 196 256 321 372
#     4  11  21  36  63  90 122 157 202 266 313 369
#
# _framework density 21.298030000000001
#
# number of rings (size 3 to 8) (size 9 to 14) (size 15 to 20)
#    0.000    1.143    4.286    3.000    2.000    6.286 
#    0.000    0.000    0.000    1.714    0.000    0.000 
#    0.000    0.000    0.000    0.000    0.000    0.000 
#
# Total GULP energy -78177.913779 kJ/mol
# GULP energy per Si atom -5584.136699 kJ/mol
# Density = 2.124956 g / cm^3
# Si number density = 21.298030 Si / 1000 Ang^3
#
#
#
# Elastic Constant Matrix: (Units=GPa)
#
#
# Indices 1 2 3 4 5 6 
#
# 1 108.6053 50.0342 35.3188 -22.8316 -27.2067 2.7550
# 2 50.0342 117.3522 33.9159 -25.6589 -13.3644 -30.3038
# 3 35.3188 33.9159 63.4902 -23.1797 -24.3608 -0.4135
# 4 -22.8316 -25.6589 -23.1797 31.1424 5.2221 -9.9960
# 5 -27.2067 -13.3644 -24.3608 5.2221 35.2725 -6.5302
# 6 2.7550 -30.3038 -0.4135 -9.9960 -6.5302 42.7604
#
#
#
# Elastic Compliance Matrix: (Units=1/GPa)
#
#
# Indices 1 2 3 4 5 6 
#
# 1 0.014558 -0.004705 -0.001286 0.003855 0.007575 -0.002227
# 2 -0.004705 0.020406 0.001377 0.019932 0.005867 0.020333
# 3 -0.001286 0.001377 0.032336 0.024118 0.020160 0.010088
# 4 0.003855 0.019932 0.024118 0.076959 0.022363 0.035516
# 5 0.007575 0.005867 0.020160 0.022363 0.050130 0.016748
# 6 -0.002227 0.020333 0.010088 0.035516 0.016748 0.048897
#
#
# Mechanical properties :
#
#
# Convention : Reuss Voigt Hill
#
# Bulk Modulus (GPa) = 17.21970 58.66503 37.94236
# Shear Modulus (GPa) = 18.39103 33.18033 25.78568
#
# Velocity S-wave (km/s) = 2.94174 3.95131 3.48330
# Velocity P-wave (km/s) = 4.43183 6.95858 5.83365
#
# Compressibility (1/GPa) = 0.05807302
#
# Stress axis : x y z
#
# Youngs Moduli (GPa) = 68.69210 49.00459 30.92514
#
# Poissons Ratio (x) = 0.23055 0.03976
# Poissons Ratio (y) = 0.32318 -0.04258
# Poissons Ratio (z) = 0.08832 -0.06747
#
# Static dielectric constant tensor:
#      x y z
#    x 1.908870 0.003670 0.034490 
#    y 0.003670 1.796100 0.014780 
#    z 0.034490 0.014780 1.793210 
# 
# From -- ./inp_files/64565.got.cif
#   From: 2010.05.17/outbox.cif.g08.bks.cpg/sg2_33_cif.got.tgz:64565.got - 2010.06.03 11:33:40.
