data_PCOD9021014
_publ_section_title
;
Structure prediction by ZEFSAII (Michael W. Deem and Ramdas Pophale) SiO2 
 PCOD9021014
Probable space group: P -1
;
_chemical_formula_sum "Si O2"
_cell_formula_units_Z 16
_cell_length_a 12.412095
_cell_length_b 11.577641
_cell_length_c 12.074602
_cell_angle_alpha 86.804512
_cell_angle_beta 131.325780
_cell_angle_gamma 132.546109
_cell_volume 679.595794
_symmetry_space_group_name_H-M "P -1"
_symmetry_group_IT_number 2
_symmetry_cell_setting 'triclinic'
loop_
_space_group_symop_operation_xyz
x,y,z
-x,-y,-z
loop_
_atom_site_type_symbol
_atom_site_label
_atom_site_fract_x
_atom_site_fract_y
_atom_site_fract_z
Si Si1 0.862337 0.715212 0.275519
Si Si2 0.357055 0.406163 0.644717
Si Si3 0.705327 0.305890 0.161361
Si Si4 0.882862 0.993128 0.214523
Si Si5 0.765422 0.197173 0.397800
Si Si6 0.338379 0.962782 0.300644
Si Si7 0.759269 0.836122 0.755623
Si Si8 0.246072 0.505438 0.008685
O O1 0.660895 0.546428 0.249786
O O2 0.797748 0.609370 0.121682
O O3 0.164621 0.883636 0.510779
O O4 0.834186 0.831370 0.235149
O O5 0.515132 0.594179 0.655109
O O6 0.047715 0.175265 0.409337
O O7 0.509954 0.387758 0.764082
O O8 0.735705 0.202798 0.247242
O O9 0.721890 0.348767 0.039221
O O10 0.964186 0.551129 0.380957
O O11 0.406703 0.148292 0.001633
O O12 0.101331 0.126933 0.257233
O O13 0.505727 0.066762 0.295078
O O14 0.033176 0.700165 0.101116
O O15 0.500000 0.000000 0.500000
O O16 0.321007 0.085045 0.318958
O O17 0.000000 0.000000 0.000000
#
# Coordination Sequence:
#
# PCOD9021014 Si02
#       8
#     2   2   2   2   2   2   2   2
#     4  11  22  40  66  96 121 169 216 262 305 380
#     4  12  26  40  65  96 130 168 208 267 322 371
#     4  10  22  37  64  91 127 163 205 269 312 368
#     4  12  24  44  64  93 133 166 210 261 325 376
#     4  10  23  37  64  97 130 158 219 265 315 363
#     4  12  21  39  64  98 124 161 206 274 312 366
#     4  12  25  41  69  95 122 165 217 264 312 374
#     4  11  22  38  66  95 127 159 224 258 314 365
#
# _framework density 23.543405
#
# number of rings (size 3 to 8) (size 9 to 14) (size 15 to 20)
#    0.000    0.750    6.250    1.875   10.500    0.000 
#    0.000    0.625    2.750    1.500    0.000    0.000 
#    0.000    0.000    0.000    0.000    0.000    0.000 
#
# Total GULP energy -89443.948814 kJ/mol
# GULP energy per Si atom -5590.246801 kJ/mol
# Density = 2.348982 g / cm^3
# Si number density = 23.543405 Si / 1000 Ang^3
#
#
#
# Elastic Constant Matrix: (Units=GPa)
#
#
# Indices 1 2 3 4 5 6 
#
# 1 65.6667 16.4959 34.2937 2.7557 18.9976 16.1810
# 2 16.4959 106.0535 40.4403 -15.8787 7.4137 11.7862
# 3 34.2937 40.4403 90.6357 -9.2442 20.3191 1.4558
# 4 2.7557 -15.8787 -9.2442 38.4273 -0.9795 15.1831
# 5 18.9976 7.4137 20.3191 -0.9795 29.9447 2.7507
# 6 16.1810 11.7862 1.4558 15.1831 2.7507 36.7899
#
#
#
# Elastic Compliance Matrix: (Units=1/GPa)
#
#
# Indices 1 2 3 4 5 6 
#
# 1 0.023948 0.000861 -0.007044 0.000683 -0.009677 -0.010088
# 2 0.000861 0.013229 -0.005595 0.006982 0.000878 -0.007343
# 3 -0.007044 -0.005595 0.017633 0.000502 -0.006505 0.004472
# 4 0.000683 0.006982 0.000502 0.035851 0.000266 -0.017373
# 5 -0.009677 0.000878 -0.006505 0.000266 0.043661 0.000858
# 6 -0.010088 -0.007343 0.004472 -0.017373 0.000858 0.040899
#
#
# Mechanical properties :
#
#
# Convention : Reuss Voigt Hill
#
# Bulk Modulus (GPa) = 31.99690 49.42397 40.71043
# Shear Modulus (GPa) = 23.90127 32.44077 28.17102
#
# Velocity S-wave (km/s) = 3.18968 3.71605 3.46288
# Velocity P-wave (km/s) = 5.21397 6.28095 5.77217
#
# Compressibility (1/GPa) = 0.03125303
#
# Stress axis : x y z
#
# Youngs Moduli (GPa) = 41.75773 75.59270 56.71335
#
# Poissons Ratio (x) = -0.06509 0.39949
# Poissons Ratio (y) = -0.03596 0.31731
# Poissons Ratio (z) = 0.29414 0.42295
#
# Static dielectric constant tensor:
#      x y z
#    x 1.306460 -0.625190 0.034070 
#    y -0.625190 1.412530 0.067510 
#    z 0.034070 0.067510 1.913120 
# 
# From -- ./inp_files/426059.got.cif
#   From: 2010.05.17/outbox.cif.g08.bks.cpg/sg2_214_cif.got.tgz:426059.got - 2010.06.03 11:33:40.
