data_PCOD9021572
_publ_section_title
;
Structure prediction by ZEFSAII (Michael W. Deem and Ramdas Pophale) SiO2 
 PCOD9021572
Probable space group: P -1
;
_chemical_formula_sum "Si O2"
_cell_formula_units_Z 16
_cell_length_a 11.762701
_cell_length_b 9.650014
_cell_length_c 12.356878
_cell_angle_alpha 73.846689
_cell_angle_beta 143.524732
_cell_angle_gamma 82.522965
_cell_volume 628.600470
_symmetry_space_group_name_H-M "P -1"
_symmetry_group_IT_number 2
_symmetry_cell_setting 'triclinic'
loop_
_space_group_symop_operation_xyz
x,y,z
-x,-y,-z
loop_
_atom_site_type_symbol
_atom_site_label
_atom_site_fract_x
_atom_site_fract_y
_atom_site_fract_z
Si Si1 0.704234 0.849939 0.865907
Si Si2 0.342218 0.829552 0.016854
Si Si3 0.375171 0.881982 0.800407
Si Si4 0.097966 0.647600 0.830220
Si Si5 0.901576 0.286835 0.408688
Si Si6 0.938423 0.251752 0.678375
Si Si7 0.417189 0.261733 0.560473
Si Si8 0.437068 0.341271 0.332568
O O1 0.536646 0.866163 0.831175
O O2 0.638644 0.787334 0.725252
O O3 0.635674 0.047013 0.747443
O O4 0.971890 0.707623 0.154536
O O5 0.511456 0.710099 0.273563
O O6 0.482423 0.803712 0.019461
O O7 0.151658 0.792443 0.850302
O O8 0.171057 0.042520 0.873047
O O9 0.260469 0.783299 0.697077
O O10 0.164782 0.099265 0.616179
O O11 0.176676 0.577752 0.781553
O O12 0.826507 0.718781 0.622575
O O13 0.261975 0.506272 0.080611
O O14 0.894402 0.353683 0.508951
O O15 0.709434 0.259626 0.528949
O O16 0.399886 0.379055 0.422893
#
# Coordination Sequence:
#
# PCOD9021572 Si02
#       8
#     2   2   2   2   2   2   2   2
#     4  11  22  39  64  91 118 155 198 248 297 348
#     4   9  22  39  65  94 110 151 206 251 290 343
#     4   9  16  34  64  92 116 143 198 255 290 342
#     4  11  23  40  63  86 120 162 195 244 293 351
#     4   9  17  35  63  88 118 149 197 246 295 344
#     4  10  22  38  63  90 120 154 194 251 298 343
#     4  11  24  41  65  85 115 162 207 243 282 349
#     4  12  26  41  55  89 130 159 194 236 299 361
#
# _framework density 25.453368999999999
#
# number of rings (size 3 to 8) (size 9 to 14) (size 15 to 20)
#    0.000    1.750    2.500    2.250    1.750    6.500 
#    0.000    0.625    0.000    0.000    0.000    0.000 
#    0.000    0.000    0.000    0.000    0.000    0.000 
#
# Total GULP energy -89577.592178 kJ/mol
# GULP energy per Si atom -5598.599511 kJ/mol
# Density = 2.539544 g / cm^3
# Si number density = 25.453369 Si / 1000 Ang^3
#
#
#
# Elastic Constant Matrix: (Units=GPa)
#
#
# Indices 1 2 3 4 5 6 
#
# 1 106.7365 20.7694 56.5025 12.7323 -34.0162 -18.5112
# 2 20.7694 30.8534 17.5816 7.0219 -11.0067 -9.1642
# 3 56.5025 17.5816 131.7258 32.8961 -34.1638 -13.7095
# 4 12.7323 7.0219 32.8961 37.9470 1.6399 -0.5608
# 5 -34.0162 -11.0067 -34.1638 1.6399 39.2151 8.0703
# 6 -18.5112 -9.1642 -13.7095 -0.5608 8.0703 28.9091
#
#
#
# Elastic Compliance Matrix: (Units=1/GPa)
#
#
# Indices 1 2 3 4 5 6 
#
# 1 0.015604 -0.003616 -0.002621 -0.002625 0.009329 0.004947
# 2 -0.003616 0.041446 0.000745 -0.007299 0.007617 0.008908
# 3 -0.002621 0.000745 0.014809 -0.012533 0.010889 0.002298
# 4 -0.002625 -0.007299 -0.012533 0.040069 -0.015951 -0.004708
# 5 0.009329 0.007617 0.010889 -0.015951 0.045789 0.000460
# 6 0.004947 0.008908 0.002298 -0.004708 0.000460 0.041453
#
#
# Mechanical properties :
#
#
# Convention : Reuss Voigt Hill
#
# Bulk Modulus (GPa) = 16.42705 51.00253 33.71479
# Shear Modulus (GPa) = 21.69713 32.84505 27.27109
#
# Velocity S-wave (km/s) = 2.92280 3.59611 3.27680
# Velocity P-wave (km/s) = 4.22589 6.10932 5.25271
#
# Compressibility (1/GPa) = 0.06087521
#
# Stress axis : x y z
#
# Youngs Moduli (GPa) = 64.08659 24.12804 67.52429
#
# Poissons Ratio (x) = 0.08724 0.17696
# Poissons Ratio (y) = 0.23172 -0.05028
# Poissons Ratio (z) = 0.16795 -0.01797
#
# Static dielectric constant tensor:
#      x y z
#    x 1.937850 0.004680 -0.044580 
#    y 0.004680 2.088610 -0.012410 
#    z -0.044580 -0.012410 2.076520 
# 
# From -- ./inp_files/180215.got.cif
#   From: 2010.05.17/outbox.cif.g08.bks.cpg/sg2_91_cif.got.tgz:180215.got - 2010.06.03 11:33:40.
