data_PCOD9021760
_publ_section_title
;
Structure prediction by ZEFSAII (Michael W. Deem and Ramdas Pophale) SiO2 
 PCOD9021760
Probable space group: P -1
;
_chemical_formula_sum "Si O2"
_cell_formula_units_Z 14
_cell_length_a 11.915648
_cell_length_b 8.861962
_cell_length_c 7.979548
_cell_angle_alpha 106.202238
_cell_angle_beta 56.433974
_cell_angle_gamma 68.680609
_cell_volume 513.983450
_symmetry_space_group_name_H-M "P -1"
_symmetry_group_IT_number 2
_symmetry_cell_setting 'triclinic'
loop_
_space_group_symop_operation_xyz
x,y,z
-x,-y,-z
loop_
_atom_site_type_symbol
_atom_site_label
_atom_site_fract_x
_atom_site_fract_y
_atom_site_fract_z
Si Si1 0.575437 0.483276 0.181622
Si Si2 0.757249 0.060247 0.504866
Si Si3 0.215781 0.453860 0.172744
Si Si4 0.195262 0.169788 0.290535
Si Si5 0.199938 0.292069 0.794663
Si Si6 0.328193 0.447279 0.521252
Si Si7 0.001474 0.885073 0.802523
O O1 0.402656 0.720245 0.369478
O O2 0.491780 0.376130 0.250418
O O3 0.663736 0.461307 0.279918
O O4 0.694144 0.446353 0.914405
O O5 0.923799 0.050195 0.377746
O O6 0.718090 0.000586 0.690563
O O7 0.796901 0.894576 0.286115
O O8 0.269343 0.286001 0.217668
O O9 0.006005 0.641604 0.419516
O O10 0.258388 0.321697 0.929342
O O11 0.162839 0.084595 0.127754
O O12 0.315536 0.281621 0.548324
O O13 0.000000 0.500000 0.000000
O O14 0.149068 0.640483 0.640800
O O15 0.000000 0.000000 0.000000
#
# Coordination Sequence:
#
# PCOD9021760 Si02
#       7
#     2   2   2   2   2   2   2
#     4   9  21  42  62  92 131 170 206 260 317 378
#     4  11  23  39  65  95 131 160 212 265 314 374
#     4  10  22  38  65  91 128 171 214 250 321 374
#     4  11  23  40  64  96 126 163 211 271 309 378
#     4  11  19  37  68  97 122 170 213 263 309 368
#     4   9  20  38  65  91 126 165 215 256 309 381
#     4  11  23  40  67  95 121 164 214 267 315 368
#
# _framework density 27.238229
#
# number of rings (size 3 to 8) (size 9 to 14) (size 15 to 20)
#    0.000    1.714    1.429    3.000    4.000    2.857 
#    0.000    4.286    9.429    0.000    0.000    0.000 
#    0.000    0.000    0.000    0.000    0.000    0.000 
#
# Total GULP energy -78421.746510 kJ/mol
# GULP energy per Si atom -5601.553322 kJ/mol
# Density = 2.717623 g / cm^3
# Si number density = 27.238229 Si / 1000 Ang^3
#
#
#
# Elastic Constant Matrix: (Units=GPa)
#
#
# Indices 1 2 3 4 5 6 
#
# 1 87.0825 34.2382 21.4128 -6.0849 17.8060 10.0046
# 2 34.2382 146.1533 50.1351 -32.5217 -4.9473 13.8919
# 3 21.4128 50.1351 92.5394 -22.4371 9.1204 17.5855
# 4 -6.0849 -32.5217 -22.4371 56.4311 9.0372 -5.0193
# 5 17.8060 -4.9473 9.1204 9.0372 51.1167 -12.0846
# 6 10.0046 13.8919 17.5855 -5.0193 -12.0846 57.0154
#
#
#
# Elastic Compliance Matrix: (Units=1/GPa)
#
#
# Indices 1 2 3 4 5 6 
#
# 1 0.014371 -0.003073 -0.000458 0.000295 -0.005952 -0.002867
# 2 -0.003073 0.009738 -0.003993 0.003360 0.002168 0.000153
# 3 -0.000458 -0.003993 0.015363 0.004129 -0.004720 -0.004322
# 4 0.000295 0.003360 0.004129 0.021974 -0.004683 -0.001202
# 5 -0.005952 0.002168 -0.004720 -0.004683 0.025145 0.006889
# 6 -0.002867 0.000153 -0.004322 -0.001202 0.006889 0.020692
#
#
# Mechanical properties :
#
#
# Convention : Reuss Voigt Hill
#
# Bulk Modulus (GPa) = 40.94089 59.70528 50.32309
# Shear Modulus (GPa) = 38.32237 47.57858 42.95047
#
# Velocity S-wave (km/s) = 3.75498 4.18396 3.97526
# Velocity P-wave (km/s) = 5.81920 6.73111 6.29170
#
# Compressibility (1/GPa) = 0.02442546
#
# Stress axis : x y z
#
# Youngs Moduli (GPa) = 69.58420 102.68931 65.09099
#
# Poissons Ratio (x) = 0.31556 0.02978
# Poissons Ratio (y) = 0.21383 0.25990
# Poissons Ratio (z) = 0.03184 0.41003
#
# Static dielectric constant tensor:
#      x y z
#    x 2.135010 0.038000 0.030360 
#    y 0.038000 2.053650 -0.055850 
#    z 0.030360 -0.055850 2.207080 
# 
# From -- ./inp_files/187462.got.cif
#   From: 2010.05.17/outbox.cif.g08.bks.cpg/sg2_94_cif.got.tgz:187462.got - 2010.06.03 11:33:40.
