data_PCOD9021515
_publ_section_title
;
Structure prediction by ZEFSAII (Michael W. Deem and Ramdas Pophale) SiO2 
 PCOD9021515
Probable space group: P -1
;
_chemical_formula_sum "Si O2"
_cell_formula_units_Z 14
_cell_length_a 7.856177
_cell_length_b 5.156876
_cell_length_c 16.814951
_cell_angle_alpha 73.338448
_cell_angle_beta 54.102908
_cell_angle_gamma 80.225329
_cell_volume 528.674322
_symmetry_space_group_name_H-M "P -1"
_symmetry_group_IT_number 2
_symmetry_cell_setting 'triclinic'
loop_
_space_group_symop_operation_xyz
x,y,z
-x,-y,-z
loop_
_atom_site_type_symbol
_atom_site_label
_atom_site_fract_x
_atom_site_fract_y
_atom_site_fract_z
Si Si1 0.027610 0.147477 0.733979
Si Si2 0.792951 0.809538 0.144036
Si Si3 0.777597 0.370684 0.010423
Si Si4 0.735155 0.289717 0.398405
Si Si5 0.227749 0.897316 0.423146
Si Si6 0.407061 0.742146 0.092814
Si Si7 0.577520 0.570270 0.663181
O O1 0.103216 0.085370 0.810016
O O2 0.136246 0.430974 0.658026
O O3 0.774989 0.176174 0.803335
O O4 0.115099 0.922998 0.670017
O O5 0.739490 0.071733 0.083216
O O6 0.601598 0.622394 0.237054
O O7 0.969945 0.629450 0.066676
O O8 0.606298 0.566441 0.079784
O O9 0.715578 0.412274 0.930635
O O10 0.676958 0.195434 0.510465
O O11 0.528976 0.328288 0.398302
O O12 0.232994 0.634848 0.389657
O O13 0.353261 0.159714 0.334017
O O14 0.000000 0.000000 0.500000
O O15 0.500000 0.000000 0.000000
#
# Coordination Sequence:
#
# PCOD9021515 Si02
#       7
#     2   2   2   2   2   2   2
#     4  10  23  40  68  97 132 173 223 271 320 400
#     4   9  20  42  66  97 127 175 228 276 324 381
#     4   9  20  42  62  92 137 173 222 274 324 387
#     4  11  23  45  70  96 130 178 222 270 334 398
#     4  12  26  46  67 100 135 168 217 283 340 399
#     4  10  22  38  62  93 135 179 216 262 335 394
#     4  11  23  43  72  96 132 174 223 272 332 406
#
# _framework density 26.481331000000001
#
# number of rings (size 3 to 8) (size 9 to 14) (size 15 to 20)
#    0.000    1.714    0.000    3.857    8.000    1.143 
#   10.286    2.143    0.000    0.000    0.000    0.000 
#    0.000    0.000    0.000    0.000    0.000    0.000 
#
# Total GULP energy -78483.285698 kJ/mol
# GULP energy per Si atom -5605.948978 kJ/mol
# Density = 2.642106 g / cm^3
# Si number density = 26.481331 Si / 1000 Ang^3
#
#
#
# Elastic Constant Matrix: (Units=GPa)
#
#
# Indices 1 2 3 4 5 6 
#
# 1 95.4074 25.6347 14.2270 3.8724 -12.2076 -22.9725
# 2 25.6347 153.1371 48.1058 13.6834 -24.0008 -28.5423
# 3 14.2270 48.1058 78.3193 4.1341 -5.3810 -13.6935
# 4 3.8724 13.6834 4.1341 55.6836 7.5538 -9.5191
# 5 -12.2076 -24.0008 -5.3810 7.5538 51.9425 11.1556
# 6 -22.9725 -28.5423 -13.6935 -9.5191 11.1556 27.7449
#
#
#
# Elastic Compliance Matrix: (Units=1/GPa)
#
#
# Indices 1 2 3 4 5 6 
#
# 1 0.013181 -0.000040 -0.000507 0.000874 0.000606 0.010678
# 2 -0.000040 0.009687 -0.004620 -0.001402 0.002903 0.006005
# 3 -0.000507 -0.004620 0.016200 0.000801 -0.001486 0.003695
# 4 0.000874 -0.001402 0.000801 0.020388 -0.005207 0.008765
# 5 0.000606 0.002903 -0.001486 -0.005207 0.023128 -0.008331
# 6 0.010678 0.006005 0.003695 0.008765 -0.008331 0.059242
#
#
# Mechanical properties :
#
#
# Convention : Reuss Voigt Hill
#
# Bulk Modulus (GPa) = 34.80177 55.86653 45.33415
# Shear Modulus (GPa) = 30.91425 43.00061 36.95743
#
# Velocity S-wave (km/s) = 3.42043 4.03402 3.73983
# Velocity P-wave (km/s) = 5.36373 6.54524 5.98372
#
# Compressibility (1/GPa) = 0.02873417
#
# Stress axis : x y z
#
# Youngs Moduli (GPa) = 75.86660 103.22766 61.72985
#
# Poissons Ratio (x) = 0.00412 0.03132
# Poissons Ratio (y) = 0.00302 0.28517
# Poissons Ratio (z) = 0.03849 0.47688
#
# Static dielectric constant tensor:
#      x y z
#    x 2.174570 0.044160 0.033810 
#    y 0.044160 2.051520 0.047040 
#    z 0.033810 0.047040 2.040150 
# 
# From -- ./inp_files/134977.got.cif
#   From: 2010.05.17/outbox.cif.g08.bks.cpg/sg2_68_cif.got.tgz:134977.got - 2010.06.03 11:33:40.
