data_PCOD9021074
_publ_section_title
;
Structure prediction by ZEFSAII (Michael W. Deem and Ramdas Pophale) SiO2 
 PCOD9021074
Probable space group: P -1
;
_chemical_formula_sum "Si O2"
_cell_formula_units_Z 16
_cell_length_a 15.508653
_cell_length_b 10.031856
_cell_length_c 28.964997
_cell_angle_alpha 37.726755
_cell_angle_beta 17.910617
_cell_angle_gamma 47.659875
_cell_volume 769.497826
_symmetry_space_group_name_H-M "P -1"
_symmetry_group_IT_number 2
_symmetry_cell_setting 'triclinic'
loop_
_space_group_symop_operation_xyz
x,y,z
-x,-y,-z
loop_
_atom_site_type_symbol
_atom_site_label
_atom_site_fract_x
_atom_site_fract_y
_atom_site_fract_z
Si Si1 0.916952 0.809016 0.635074
Si Si2 0.718540 0.281829 0.968485
Si Si3 0.052596 0.503437 0.918449
Si Si4 0.920405 0.978937 0.100325
Si Si5 0.242956 0.709971 0.158761
Si Si6 0.389473 0.064235 0.490216
Si Si7 0.812725 0.853291 0.892743
Si Si8 0.688080 0.213620 0.484655
O O1 0.968107 0.574577 0.657458
O O2 0.139020 0.910981 0.538069
O O3 0.561778 0.719842 0.857151
O O4 0.000000 0.000000 0.500000
O O5 0.618085 0.241668 0.977106
O O6 0.822250 0.080170 0.988757
O O7 0.032046 0.531419 0.741427
O O8 0.422232 0.651576 0.684766
O O9 0.895317 0.656421 0.930444
O O10 0.000000 0.500000 0.000000
O O11 0.931107 0.236265 0.036145
O O12 0.589349 0.787453 0.341411
O O13 0.000000 0.000000 0.000000
O O14 0.116525 0.911899 0.176287
O O15 0.471156 0.744654 0.075949
O O16 0.500000 0.000000 0.500000
O O17 0.456460 0.937197 0.446590
O O18 0.025632 0.954856 0.711393
#
# Coordination Sequence:
#
# PCOD9021074 Si02
#       8
#     2   2   2   2   2   2   2   2
#     4  11  24  41  68  98 137 174 218 280 343 396
#     4  11  24  43  66  95 137 174 223 269 338 406
#     4  11  23  42  64  91 136 171 214 278 336 387
#     4  12  27  41  67 103 137 176 222 282 343 395
#     4  10  22  41  66  93 127 174 222 271 323 403
#     4  10  22  37  66  88 124 172 221 261 331 391
#     4  10  22  40  67  93 125 172 228 266 323 403
#     4  11  23  44  66  97 132 181 225 273 335 406
#
# _framework density 20.792781999999999
#
# number of rings (size 3 to 8) (size 9 to 14) (size 15 to 20)
#    0.000    1.250    1.250    4.875    8.750    3.000 
#    0.000    0.000    0.000    5.250    0.000    0.000 
#    0.000    0.000    0.000    0.000    0.000    0.000 
#
# Total GULP energy -89237.023725 kJ/mol
# GULP energy per Si atom -5577.313983 kJ/mol
# Density = 2.074546 g / cm^3
# Si number density = 20.792782 Si / 1000 Ang^3
#
#
#
# Elastic Constant Matrix: (Units=GPa)
#
#
# Indices 1 2 3 4 5 6 
#
# 1 118.2919 50.5130 34.2183 -9.3981 13.2335 -5.0268
# 2 50.5130 114.3672 24.3662 -9.2024 6.6436 -6.0685
# 3 34.2183 24.3662 71.4761 6.5021 14.1398 5.1090
# 4 -9.3981 -9.2024 6.5021 28.5990 -1.5483 2.8091
# 5 13.2335 6.6436 14.1398 -1.5483 35.2278 3.2229
# 6 -5.0268 -6.0685 5.1090 2.8091 3.2229 41.4728
#
#
#
# Elastic Compliance Matrix: (Units=1/GPa)
#
#
# Indices 1 2 3 4 5 6 
#
# 1 0.011932 -0.003867 -0.004417 0.003443 -0.001952 0.001343
# 2 -0.003867 0.011231 -0.002378 0.002776 0.000296 0.001257
# 3 -0.004417 -0.002378 0.018766 -0.006553 -0.005500 -0.002324
# 4 0.003443 0.002776 -0.006553 0.038741 0.002625 -0.001197
# 5 -0.001952 0.000296 -0.005500 0.002625 0.031583 -0.002148
# 6 0.001343 0.001257 -0.002324 -0.001197 -0.002148 0.024993
#
#
# Mechanical properties :
#
#
# Convention : Reuss Voigt Hill
#
# Bulk Modulus (GPa) = 48.53372 58.03669 53.28520
# Shear Modulus (GPa) = 30.22245 34.06244 32.14245
#
# Velocity S-wave (km/s) = 3.81662 4.05184 3.93599
# Velocity P-wave (km/s) = 6.54328 7.06133 6.80723
#
# Compressibility (1/GPa) = 0.02060423
#
# Stress axis : x y z
#
# Youngs Moduli (GPa) = 83.81054 89.03608 53.28686
#
# Poissons Ratio (x) = 0.34432 0.23537
# Poissons Ratio (y) = 0.32411 0.12674
# Poissons Ratio (z) = 0.37019 0.21177
#
# Static dielectric constant tensor:
#      x y z
#    x 1.746190 0.007470 -0.018930 
#    y 0.007470 1.773490 0.009090 
#    z -0.018930 0.009090 1.853980 
# 
# From -- ./inp_files/619232.got.cif
#   From: 2010.05.17/outbox.cif.g08.bks.cpg/sg2_310_cif.got.tgz:619232.got - 2010.06.03 11:33:40.
