data_PCOD9021724
_publ_section_title
;
Structure prediction by ZEFSAII (Michael W. Deem and Ramdas Pophale) SiO2 
 PCOD9021724
Probable space group: P -1
;
_chemical_formula_sum "Si O2"
_cell_formula_units_Z 16
_cell_length_a 13.880961
_cell_length_b 20.739508
_cell_length_c 9.577791
_cell_angle_alpha 50.190803
_cell_angle_beta 49.698469
_cell_angle_gamma 19.437442
_cell_volume 694.781528
_symmetry_space_group_name_H-M "P -1"
_symmetry_group_IT_number 2
_symmetry_cell_setting 'triclinic'
loop_
_space_group_symop_operation_xyz
x,y,z
-x,-y,-z
loop_
_atom_site_type_symbol
_atom_site_label
_atom_site_fract_x
_atom_site_fract_y
_atom_site_fract_z
Si Si1 0.987445 0.206939 0.911433
Si Si2 0.144549 0.451123 0.213940
Si Si3 0.804508 0.036234 0.130226
Si Si4 0.820848 0.726353 0.399173
Si Si5 0.734360 0.509493 0.204184
Si Si6 0.781662 0.194349 0.515327
Si Si7 0.593287 0.460460 0.169198
Si Si8 0.124945 0.127028 0.468685
O O1 0.678520 0.359199 0.927339
O O2 0.097137 0.227388 0.715159
O O3 0.903210 0.278369 0.049599
O O4 0.212938 0.997423 0.957583
O O5 0.493682 0.248822 0.187361
O O6 0.089629 0.386900 0.396902
O O7 0.983367 0.597759 0.284654
O O8 0.112309 0.509972 0.007502
O O9 0.929231 0.886530 0.315418
O O10 0.000000 0.000000 0.000000
O O11 0.474867 0.927256 0.411934
O O12 0.459240 0.698325 0.299402
O O13 0.600444 0.523266 0.198606
O O14 0.967451 0.310620 0.341489
O O15 0.584128 0.370066 0.354292
O O16 0.987433 0.141157 0.471369
O O17 0.000000 0.000000 0.500000
#
# Coordination Sequence:
#
# PCOD9021724 Si02
#       8
#     2   2   2   2   2   2   2   2
#     4  11  22  39  66  96 129 164 222 266 319 397
#     4  10  22  39  63  93 128 173 211 265 322 378
#     4  11  23  38  67  97 129 169 217 278 325 376
#     4  10  23  43  65  96 133 174 219 263 323 397
#     4  11  21  45  67  93 130 173 219 264 333 379
#     4  11  24  39  65  96 131 165 220 280 320 379
#     4  10  22  38  64  97 122 168 214 272 322 378
#     4  10  23  42  66  92 132 180 212 263 334 393
#
# _framework density 23.028821000000001
#
# number of rings (size 3 to 8) (size 9 to 14) (size 15 to 20)
#    0.000    1.500    1.250    4.500    5.250    4.500 
#    0.000    1.250    0.000    4.500    0.000    0.000 
#    0.000    0.000    0.000    0.000    0.000    0.000 
#
# Total GULP energy -89325.983048 kJ/mol
# GULP energy per Si atom -5582.873941 kJ/mol
# Density = 2.297641 g / cm^3
# Si number density = 23.028821 Si / 1000 Ang^3
#
#
#
# Elastic Constant Matrix: (Units=GPa)
#
#
# Indices 1 2 3 4 5 6 
#
# 1 48.3204 34.4955 15.5775 8.8588 -15.2798 18.6099
# 2 34.4955 129.4889 69.8807 18.9528 -0.2413 23.8400
# 3 15.5775 69.8807 166.8657 -1.3230 -22.6749 23.2037
# 4 8.8588 18.9528 -1.3230 48.1357 -1.3484 4.4348
# 5 -15.2798 -0.2413 -22.6749 -1.3484 30.2349 -3.5420
# 6 18.6099 23.8400 23.2037 4.4348 -3.5420 24.2067
#
#
#
# Elastic Compliance Matrix: (Units=1/GPa)
#
#
# Indices 1 2 3 4 5 6 
#
# 1 0.044180 -0.010720 0.007443 -0.000542 0.024655 -0.026834
# 2 -0.010720 0.014900 -0.006582 -0.004289 -0.010529 -0.000879
# 3 0.007443 -0.006582 0.010722 0.002595 0.010881 -0.008401
# 4 -0.000542 -0.004289 0.002595 0.022858 0.002461 -0.001675
# 5 0.024655 -0.010529 0.010881 0.002461 0.052337 -0.011809
# 6 -0.026834 -0.000879 -0.008401 -0.001675 -0.011809 0.069438
#
#
# Mechanical properties :
#
#
# Convention : Reuss Voigt Hill
#
# Bulk Modulus (GPa) = 19.96677 64.95359 42.46018
# Shear Modulus (GPa) = 19.93240 35.49686 27.71463
#
# Velocity S-wave (km/s) = 2.94520 3.93034 3.47288
# Velocity P-wave (km/s) = 4.50053 6.99023 5.87869
#
# Compressibility (1/GPa) = 0.05008322
#
# Stress axis : x y z
#
# Youngs Moduli (GPa) = 22.63484 67.11220 93.26818
#
# Poissons Ratio (x) = 0.71945 -0.69416
# Poissons Ratio (y) = 0.24265 0.61388
# Poissons Ratio (z) = -0.16846 0.44172
#
# Static dielectric constant tensor:
#      x y z
#    x 1.866590 0.011590 0.072260 
#    y 0.011590 1.870130 -0.003750 
#    z 0.072260 -0.003750 1.988210 
# 
# From -- ./inp_files/319241.got.cif
#   From: 2010.05.17/outbox.cif.g08.bks.cpg/sg2_160_cif.got.tgz:319241.got - 2010.06.03 11:33:40.
