data_PCOD9021018
_publ_section_title
;
Structure prediction by ZEFSAII (Michael W. Deem and Ramdas Pophale) SiO2 
 PCOD9021018
Probable space group: P -1
;
_chemical_formula_sum "Si O2"
_cell_formula_units_Z 16
_cell_length_a 19.290947
_cell_length_b 13.042427
_cell_length_c 11.736875
_cell_angle_alpha 61.438691
_cell_angle_beta 143.735804
_cell_angle_gamma 145.427429
_cell_volume 825.445809
_symmetry_space_group_name_H-M "P -1"
_symmetry_group_IT_number 2
_symmetry_cell_setting 'triclinic'
loop_
_space_group_symop_operation_xyz
x,y,z
-x,-y,-z
loop_
_atom_site_type_symbol
_atom_site_label
_atom_site_fract_x
_atom_site_fract_y
_atom_site_fract_z
Si Si1 0.403343 0.530840 0.422102
Si Si2 0.596905 0.343102 0.054019
Si Si3 0.254582 0.309153 0.819258
Si Si4 0.973193 0.122984 0.181393
Si Si5 0.863701 0.558348 0.075126
Si Si6 0.133177 0.991987 0.156653
Si Si7 0.887576 0.134438 0.295997
Si Si8 0.942240 0.498206 0.551831
O O1 0.500000 0.500000 0.500000
O O2 0.269948 0.505710 0.175765
O O3 0.235090 0.344482 0.394130
O O4 0.615052 0.774394 0.615608
O O5 0.705324 0.560953 0.099143
O O6 0.703296 0.352202 0.289847
O O7 0.683441 0.377733 0.027427
O O8 0.338414 0.118998 0.838947
O O9 0.094511 0.230796 0.555767
O O10 0.135862 0.091494 0.814790
O O11 0.500000 0.500000 0.000000
O O12 0.904603 0.156842 0.169765
O O13 0.891936 0.071984 0.972313
O O14 0.023375 0.799910 0.189616
O O15 0.018118 0.574632 0.270123
O O16 0.000000 0.000000 0.000000
O O17 0.911818 0.273344 0.326921
O O18 0.000000 0.500000 0.500000
#
# Coordination Sequence:
#
# PCOD9021018 Si02
#       8
#     2   2   2   2   2   2   2   2
#     4  11  24  38  62  91 123 166 206 253 304 365
#     4  10  22  37  64  93 127 162 203 255 308 368
#     4  11  23  36  58  94 131 164 196 243 316 380
#     4  11  24  38  61  90 130 162 205 252 306 371
#     4  10  22  39  63  90 119 164 209 253 312 361
#     4  11  22  40  59  88 123 161 205 254 301 359
#     4  11  24  39  61  95 124 165 207 250 319 369
#     4   9  22  43  62  91 126 159 209 261 306 365
#
# _framework density 19.383464
#
# number of rings (size 3 to 8) (size 9 to 14) (size 15 to 20)
#    0.000    1.500    3.750    1.125    3.500    5.000 
#    0.000    2.500    0.000    4.500    0.000    0.000 
#    0.000    0.000    0.000    0.000    0.000    0.000 
#
# Total GULP energy -89128.178127 kJ/mol
# GULP energy per Si atom -5570.511133 kJ/mol
# Density = 1.933935 g / cm^3
# Si number density = 19.383464 Si / 1000 Ang^3
#
#
#
# Elastic Constant Matrix: (Units=GPa)
#
#
# Indices 1 2 3 4 5 6 
#
# 1 86.5973 33.3243 24.0645 14.9160 -9.3340 4.7959
# 2 33.3243 102.8954 65.3773 12.9865 11.6863 5.9621
# 3 24.0645 65.3773 119.6586 27.1943 3.6121 1.2584
# 4 14.9160 12.9865 27.1943 41.8486 1.7734 6.6841
# 5 -9.3340 11.6863 3.6121 1.7734 26.6994 8.3376
# 6 4.7959 5.9621 1.2584 6.6841 8.3376 30.6109
#
#
#
# Elastic Compliance Matrix: (Units=1/GPa)
#
#
# Indices 1 2 3 4 5 6 
#
# 1 0.015409 -0.005818 0.000773 -0.004113 0.008997 -0.002865
# 2 -0.005818 0.018011 -0.009039 0.002801 -0.008738 -0.000456
# 3 0.000773 -0.009039 0.014756 -0.007483 0.002071 0.002103
# 4 -0.004113 0.002801 -0.007483 0.030346 -0.001885 -0.005706
# 5 0.008997 -0.008738 0.002071 -0.001885 0.048173 -0.012502
# 6 -0.002865 -0.000456 0.002103 -0.005706 -0.012502 0.037771
#
#
# Mechanical properties :
#
#
# Convention : Reuss Voigt Hill
#
# Bulk Modulus (GPa) = 49.97867 61.63150 55.80509
# Shear Modulus (GPa) = 25.08738 32.25744 28.67241
#
# Velocity S-wave (km/s) = 3.60150 4.08385 3.85024
# Velocity P-wave (km/s) = 6.56769 7.35541 6.97268
#
# Compressibility (1/GPa) = 0.02000853
#
# Stress axis : x y z
#
# Youngs Moduli (GPa) = 64.89866 55.52063 67.76877
#
# Poissons Ratio (x) = 0.32304 -0.05241
# Poissons Ratio (y) = 0.37761 0.61254
# Poissons Ratio (z) = -0.05019 0.50183
#
# Static dielectric constant tensor:
#      x y z
#    x 1.743940 -0.011840 -0.005060 
#    y -0.011840 1.695150 -0.026700 
#    z -0.005060 -0.026700 1.736490 
# 
# From -- ./inp_files/465073.got.cif
#   From: 2010.05.17/outbox.cif.g08.bks.cpg/sg2_233_cif.got.tgz:465073.got - 2010.06.03 11:33:40.
