data_PCOD9021350
_publ_section_title
;
Structure prediction by ZEFSAII (Michael W. Deem and Ramdas Pophale) SiO2 
 PCOD9021350
Probable space group: P -1
;
_chemical_formula_sum "Si O2"
_cell_formula_units_Z 12
_cell_length_a 13.061189
_cell_length_b 12.230751
_cell_length_c 10.172228
_cell_angle_alpha 35.493393
_cell_angle_beta 50.829755
_cell_angle_gamma 32.291135
_cell_volume 495.556718
_symmetry_space_group_name_H-M "P -1"
_symmetry_group_IT_number 2
_symmetry_cell_setting 'triclinic'
loop_
_space_group_symop_operation_xyz
x,y,z
-x,-y,-z
loop_
_atom_site_type_symbol
_atom_site_label
_atom_site_fract_x
_atom_site_fract_y
_atom_site_fract_z
Si Si1 0.010353 0.640216 0.629998
Si Si2 0.295135 0.020402 0.991289
Si Si3 0.996242 0.940171 0.895089
Si Si4 0.008748 0.196946 0.241165
Si Si5 0.420857 0.070613 0.300673
Si Si6 0.384103 0.430627 0.198439
O O1 0.072518 0.597885 0.774034
O O2 0.150268 0.338897 0.750385
O O3 0.007066 0.841155 0.361586
O O4 0.794151 0.786188 0.668712
O O5 0.502564 0.894677 0.922285
O O6 0.227242 0.031157 0.181913
O O7 0.221378 0.920367 0.061441
O O8 0.081776 0.737534 0.893889
O O9 0.153702 0.723888 0.089343
O O10 0.000000 0.000000 0.500000
O O11 0.549280 0.750377 0.547684
O O12 0.434131 0.218329 0.256941
O O13 0.500000 0.500000 0.000000
#
# Coordination Sequence:
#
# PCOD9021350 Si02
#       6
#     2   2   2   2   2   2
#     4  11  19  40  64  84 124 158 187 245 299 342
#     4  10  22  38  60  94 117 150 204 240 288 357
#     4   9  20  39  59  85 118 160 192 236 297 346
#     4   8  18  37  62  84 120 159 188 236 302 346
#     4  11  24  38  63  92 114 154 207 240 291 352
#     4  11  22  42  61  82 124 160 190 250 300 340
#
# _framework density 24.215191000000001
#
# number of rings (size 3 to 8) (size 9 to 14) (size 15 to 20)
#    1.000    1.000    3.333    0.500    0.000    2.667 
#    0.000    1.667    0.000    6.000    0.000    0.000 
#    0.000    0.000    0.000    0.000    0.000    0.000 
#
# Total GULP energy -66885.087979 kJ/mol
# GULP energy per Si atom -5573.757332 kJ/mol
# Density = 2.416008 g / cm^3
# Si number density = 24.215191 Si / 1000 Ang^3
#
#
#
# Elastic Constant Matrix: (Units=GPa)
#
#
# Indices 1 2 3 4 5 6 
#
# 1 75.4854 5.0905 40.7050 10.2259 -25.2767 -8.7749
# 2 5.0905 61.9329 44.9954 21.9638 -18.9099 -22.0609
# 3 40.7050 44.9954 161.9242 17.9868 -39.8458 -7.9936
# 4 10.2259 21.9638 17.9868 41.9473 -3.2890 -4.5859
# 5 -25.2767 -18.9099 -39.8458 -3.2890 46.7194 6.6147
# 6 -8.7749 -22.0609 -7.9936 -4.5859 6.6147 29.1436
#
#
#
# Elastic Compliance Matrix: (Units=1/GPa)
#
#
# Indices 1 2 3 4 5 6 
#
# 1 0.019994 0.009929 -0.004294 -0.006488 0.009415 0.009200
# 2 0.009929 0.038592 -0.007860 -0.015729 0.009585 0.025396
# 3 -0.004294 -0.007860 0.010067 0.000573 0.003868 -0.005269
# 4 -0.006488 -0.015729 0.000573 0.032139 -0.006097 -0.007261
# 5 0.009415 0.009585 0.003868 -0.006097 0.032861 0.002734
# 6 0.009200 0.025396 -0.005269 -0.007261 0.002734 0.053099
#
#
# Mechanical properties :
#
#
# Convention : Reuss Voigt Hill
#
# Bulk Modulus (GPa) = 15.57549 53.43605 34.50577
# Shear Modulus (GPa) = 23.51796 37.46550 30.49173
#
# Velocity S-wave (km/s) = 3.11980 3.93770 3.55237
# Velocity P-wave (km/s) = 4.40722 6.54133 5.57731
#
# Compressibility (1/GPa) = 0.06420344
#
# Stress axis : x y z
#
# Youngs Moduli (GPa) = 50.01407 25.91216 99.33069
#
# Poissons Ratio (x) = -0.25727 0.42648
# Poissons Ratio (y) = -0.49657 0.78076
# Poissons Ratio (z) = 0.21474 0.20368
#
# Static dielectric constant tensor:
#      x y z
#    x 2.013810 0.066660 0.027420 
#    y 0.066660 2.007310 0.041100 
#    z 0.027420 0.041100 1.884000 
# 
# From -- ./inp_files/55306.got.cif
#   From: 2010.05.17/outbox.cif.g08.bks.cpg/sg2_28_cif.got.tgz:55306.got - 2010.06.03 11:33:40.
