data_PCOD9021383
_publ_section_title
;
Structure prediction by ZEFSAII (Michael W. Deem and Ramdas Pophale) SiO2 
 PCOD9021383
Probable space group: P -1
;
_chemical_formula_sum "Si O2"
_cell_formula_units_Z 14
_cell_length_a 12.552811
_cell_length_b 5.074248
_cell_length_c 11.838060
_cell_angle_alpha 69.140452
_cell_angle_beta 111.901816
_cell_angle_gamma 118.206782
_cell_volume 601.447657
_symmetry_space_group_name_H-M "P -1"
_symmetry_group_IT_number 2
_symmetry_cell_setting 'triclinic'
loop_
_space_group_symop_operation_xyz
x,y,z
-x,-y,-z
loop_
_atom_site_type_symbol
_atom_site_label
_atom_site_fract_x
_atom_site_fract_y
_atom_site_fract_z
Si Si1 0.170552 0.944489 0.008788
Si Si2 0.706958 0.721223 0.206957
Si Si3 0.508787 0.620961 0.670553
Si Si4 0.156009 0.734355 0.656010
Si Si5 0.123907 0.747815 0.376093
Si Si6 0.885513 0.718445 0.857227
Si Si7 0.357228 0.661874 0.385512
O O1 0.177463 0.647962 0.116179
O O2 0.164147 0.180769 0.063653
O O3 0.034827 0.815948 0.914349
O O4 0.273435 0.103947 0.930735
O O5 0.569265 0.581454 0.226565
O O6 0.756232 0.449135 0.256231
O O7 0.796441 0.962375 0.296441
O O8 0.414349 0.574997 0.534826
O O9 0.616179 0.525399 0.677463
O O10 0.563651 0.979783 0.664148
O O11 0.158316 0.798828 0.513759
O O12 0.013759 0.509715 0.658317
O O13 0.222579 0.638957 0.372668
O O14 0.127330 0.060866 0.277423
#
# Coordination Sequence:
#
# PCOD9021383 Si02
#       7
#     2   2   2   2   2   2   2
#     4  10  22  39  60  87 118 164 209 244 295 356
#     4  12  22  43  62  91 128 159 203 258 298 370
#     4  10  22  39  60  87 118 164 209 244 295 356
#     4  11  26  36  62  98 128 162 183 251 333 379
#     4  11  24  42  60  95 134 158 198 249 320 374
#     4  10  22  38  61  86 122 161 205 246 295 369
#     4  10  22  38  61  86 122 161 205 246 295 369
#
# _framework density 23.277172
#
# number of rings (size 3 to 8) (size 9 to 14) (size 15 to 20)
#    0.000    1.429    2.857    1.714    8.000    5.714 
#    0.000    0.000    0.000    5.143    0.000    0.000 
#    0.000    0.000    0.000    0.000    0.000    0.000 
#
# Total GULP energy -78479.516036 kJ/mol
# GULP energy per Si atom -5605.679717 kJ/mol
# Density = 2.322419 g / cm^3
# Si number density = 23.277172 Si / 1000 Ang^3
#
#
#
# Elastic Constant Matrix: (Units=GPa)
#
#
# Indices 1 2 3 4 5 6 
#
# 1 115.2637 20.1436 51.6326 -26.5213 -10.3192 5.2071
# 2 20.1436 40.1970 22.2559 -12.5884 -16.0631 -1.1946
# 3 51.6326 22.2559 85.1142 -31.6931 -14.1837 13.9000
# 4 -26.5213 -12.5884 -31.6931 26.6334 3.0648 0.3122
# 5 -10.3192 -16.0631 -14.1837 3.0648 42.3133 -16.3956
# 6 5.2071 -1.1946 13.9000 0.3122 -16.3956 25.7246
#
#
#
# Elastic Compliance Matrix: (Units=1/GPa)
#
#
# Indices 1 2 3 4 5 6 
#
# 1 0.012549 -0.001454 -0.005098 0.005674 0.000556 0.000432
# 2 -0.001454 0.039419 -0.006546 0.007039 0.018679 0.017482
# 3 -0.005098 -0.006546 0.028738 0.026509 -0.002490 -0.016709
# 4 0.005674 0.007039 0.026509 0.078087 0.001395 -0.015204
# 5 0.000556 0.018679 -0.002490 0.001395 0.040810 0.028093
# 6 0.000432 0.017482 -0.016709 -0.015204 0.028093 0.066716
#
#
# Mechanical properties :
#
#
# Convention : Reuss Voigt Hill
#
# Bulk Modulus (GPa) = 18.34535 47.62655 32.98595
# Shear Modulus (GPa) = 16.09346 28.70379 22.39862
#
# Velocity S-wave (km/s) = 2.63227 3.51541 3.10539
# Velocity P-wave (km/s) = 4.13967 6.08132 5.20189
#
# Compressibility (1/GPa) = 0.05450972
#
# Stress axis : x y z
#
# Youngs Moduli (GPa) = 79.68656 25.36839 34.79735
#
# Poissons Ratio (x) = 0.03689 0.17738
# Poissons Ratio (y) = 0.11589 0.22779
# Poissons Ratio (z) = 0.40621 0.16607
#
# Static dielectric constant tensor:
#      x y z
#    x 1.834630 0.025190 0.010790 
#    y 0.025190 1.868570 0.041880 
#    z 0.010790 0.041880 1.872420 
# 
# From -- ./inp_files/409917.got.cif
#   From: 2010.05.17/outbox.cif.g08.bks.cpg/sg2_205_cif.got.tgz:409917.got - 2010.06.03 11:33:40.
