data_PCOD9021097
_publ_section_title
;
Structure prediction by ZEFSAII (Michael W. Deem and Ramdas Pophale) SiO2 
 PCOD9021097
Probable space group: P -1
;
_chemical_formula_sum "Si O2"
_cell_formula_units_Z 12
_cell_length_a 9.179624
_cell_length_b 12.925127
_cell_length_c 15.362006
_cell_angle_alpha 162.059438
_cell_angle_beta 117.462291
_cell_angle_gamma 62.961649
_cell_volume 497.333249
_symmetry_space_group_name_H-M "P -1"
_symmetry_group_IT_number 2
_symmetry_cell_setting 'triclinic'
loop_
_space_group_symop_operation_xyz
x,y,z
-x,-y,-z
loop_
_atom_site_type_symbol
_atom_site_label
_atom_site_fract_x
_atom_site_fract_y
_atom_site_fract_z
Si Si1 0.411222 0.468054 0.815383
Si Si2 0.028609 0.137199 0.878830
Si Si3 0.260540 0.185193 0.376775
Si Si4 0.211977 0.765510 0.488346
Si Si5 0.533086 0.386265 0.320744
Si Si6 0.249372 0.419129 0.920179
O O1 0.350436 0.240789 0.538932
O O2 0.327620 0.381001 0.814689
O O3 0.605461 0.471016 0.888244
O O4 0.344813 0.853390 0.088678
O O5 0.924541 0.900899 0.721584
O O6 0.897762 0.297928 0.901082
O O7 0.174840 0.938910 0.709920
O O8 0.091822 0.463508 0.204480
O O9 0.295382 0.504540 0.583269
O O10 0.394157 0.597098 0.395839
O O11 0.190235 0.064813 0.652856
O O12 0.500000 0.500000 0.500000
O O13 0.500000 0.000000 0.000000
#
# Coordination Sequence:
#
# PCOD9021097 Si02
#       6
#     2   2   2   2   2   2
#     4  10  22  37  67 102 136 179 222 263 315 398
#     4  11  25  41  66 103 144 177 205 262 344 412
#     4  11  23  46  67  97 136 175 223 276 327 394
#     4  12  25  44  66 101 140 173 222 275 328 390
#     4  12  27  49  74  96 121 174 238 289 331 380
#     4  10  22  39  66 104 144 180 215 256 327 407
#
# _framework density 24.128691
#
# number of rings (size 3 to 8) (size 9 to 14) (size 15 to 20)
#    0.000    1.000    1.667    5.000    2.333   10.000 
#    0.000    5.000    0.000    0.000    0.000    0.000 
#    0.000    0.000    0.000    0.000    0.000    0.000 
#
# Total GULP energy -67254.652970 kJ/mol
# GULP energy per Si atom -5604.554414 kJ/mol
# Density = 2.407377 g / cm^3
# Si number density = 24.128691 Si / 1000 Ang^3
#
#
#
# Elastic Constant Matrix: (Units=GPa)
#
#
# Indices 1 2 3 4 5 6 
#
# 1 86.8375 18.1169 39.4687 22.4707 25.1144 12.0265
# 2 18.1169 42.4887 20.2254 3.7585 15.1179 18.2865
# 3 39.4687 20.2254 143.1941 10.8856 21.0781 24.7618
# 4 22.4707 3.7585 10.8856 42.0133 5.1264 9.9732
# 5 25.1144 15.1179 21.0781 5.1264 50.6353 20.7797
# 6 12.0265 18.2865 24.7618 9.9732 20.7797 39.4801
#
#
#
# Elastic Compliance Matrix: (Units=1/GPa)
#
#
# Indices 1 2 3 4 5 6 
#
# 1 0.017542 -0.004696 -0.003320 -0.008366 -0.007004 0.004714
# 2 -0.004696 0.031779 -0.000994 0.003114 -0.001964 -0.012418
# 3 -0.003320 -0.000994 0.008714 0.000590 -0.000055 -0.004113
# 4 -0.008366 0.003114 0.000590 0.029447 0.003500 -0.008544
# 5 -0.007004 -0.001964 -0.000055 0.003500 0.028798 -0.012963
# 6 0.004714 -0.012418 -0.004113 -0.008544 -0.012963 0.041206
#
#
# Mechanical properties :
#
#
# Convention : Reuss Voigt Hill
#
# Bulk Modulus (GPa) = 24.99100 47.57137 36.28118
# Shear Modulus (GPa) = 26.47667 39.40636 32.94152
#
# Velocity S-wave (km/s) = 3.31616 4.04564 3.69893
# Velocity P-wave (km/s) = 5.00424 6.44837 5.77165
#
# Compressibility (1/GPa) = 0.04001441
#
# Stress axis : x y z
#
# Youngs Moduli (GPa) = 57.00515 31.46684 114.76260
#
# Poissons Ratio (x) = 0.14777 0.38101
# Poissons Ratio (y) = 0.26770 0.11413
# Poissons Ratio (z) = 0.18926 0.03129
#
# Static dielectric constant tensor:
#      x y z
#    x 1.929320 -0.028590 0.031520 
#    y -0.028590 1.935940 0.024680 
#    z 0.031520 0.024680 1.878560 
# 
# From -- ./inp_files/41434.got.cif
#   From: 2010.05.17/outbox.cif.g08.bks.cpg/sg2_21_cif.got.tgz:41434.got - 2010.06.03 11:33:40.
