data_PCOD9021021
_publ_section_title
;
Structure prediction by ZEFSAII (Michael W. Deem and Ramdas Pophale) SiO2 
 PCOD9021021
Probable space group: P -1
;
_chemical_formula_sum "Si O2"
_cell_formula_units_Z 16
_cell_length_a 12.352731
_cell_length_b 9.360694
_cell_length_c 18.175202
_cell_angle_alpha 67.380292
_cell_angle_beta 150.263403
_cell_angle_gamma 125.571926
_cell_volume 809.185091
_symmetry_space_group_name_H-M "P -1"
_symmetry_group_IT_number 2
_symmetry_cell_setting 'triclinic'
loop_
_space_group_symop_operation_xyz
x,y,z
-x,-y,-z
loop_
_atom_site_type_symbol
_atom_site_label
_atom_site_fract_x
_atom_site_fract_y
_atom_site_fract_z
Si Si1 0.836929 0.113720 0.254189
Si Si2 0.713182 0.561994 0.456032
Si Si3 0.757139 0.014854 0.061522
Si Si4 0.776582 0.675517 0.153031
Si Si5 0.696931 0.721356 0.267819
Si Si6 0.880964 0.382291 0.025481
Si Si7 0.347547 0.782684 0.438181
Si Si8 0.615851 0.403387 0.635428
O O1 0.888871 0.099262 0.201798
O O2 0.029425 0.302009 0.371908
O O3 0.834186 0.939895 0.321595
O O4 0.550925 0.077666 0.093633
O O5 0.754765 0.615836 0.384654
O O6 0.605112 0.349987 0.454728
O O7 0.520997 0.621570 0.362364
O O8 0.849990 0.187690 0.030540
O O9 0.805379 0.858486 0.100105
O O10 0.767079 0.693498 0.232612
O O11 0.037502 0.687890 0.281222
O O12 0.500000 0.500000 0.000000
O O13 0.392002 0.648640 0.106093
O O14 0.081404 0.476734 0.191995
O O15 0.000000 0.500000 0.000000
O O16 0.431425 0.762514 0.409847
O O17 0.500000 0.000000 0.500000
O O18 0.500000 0.500000 0.500000
#
# Coordination Sequence:
#
# PCOD9021021 Si02
#       8
#     2   2   2   2   2   2   2   2
#     4   9  18  35  60  93 115 150 212 260 302 363
#     4  11  21  39  64  90 124 160 203 267 313 361
#     4   9  19  34  61  86 118 161 205 255 301 364
#     4  11  23  41  63  83 125 172 208 248 308 390
#     4  10  22  37  64  94 119 159 208 261 318 362
#     4  11  20  37  61  96 124 150 206 267 310 358
#     4  11  26  40  60  92 127 166 213 251 308 382
#     4  10  22  38  64  87 118 164 207 252 307 364
#
# _framework density 19.772977999999998
#
# number of rings (size 3 to 8) (size 9 to 14) (size 15 to 20)
#    0.000    1.750    1.250    4.125    7.000    0.500 
#    0.000    1.250    0.000    3.000    0.000    0.000 
#    0.000    0.000    0.000    0.000    0.000    0.000 
#
# Total GULP energy -89235.727145 kJ/mol
# GULP energy per Si atom -5577.232947 kJ/mol
# Density = 1.972797 g / cm^3
# Si number density = 19.772978 Si / 1000 Ang^3
#
#
#
# Elastic Constant Matrix: (Units=GPa)
#
#
# Indices 1 2 3 4 5 6 
#
# 1 66.0715 31.8907 13.2993 -5.2798 6.5532 -4.0327
# 2 31.8907 123.9917 36.1700 2.0254 -6.6033 -2.1270
# 3 13.2993 36.1700 82.0616 8.8601 -4.8224 -1.8655
# 4 -5.2798 2.0254 8.8601 29.9046 -3.0063 -2.8166
# 5 6.5532 -6.6033 -4.8224 -3.0063 21.8064 -2.0459
# 6 -4.0327 -2.1270 -1.8655 -2.8166 -2.0459 32.9190
#
#
#
# Elastic Compliance Matrix: (Units=1/GPa)
#
#
# Indices 1 2 3 4 5 6 
#
# 1 0.018843 -0.004736 -0.001719 0.003641 -0.006807 0.001793
# 2 -0.004736 0.010554 -0.003649 -0.000075 0.003814 0.000126
# 3 -0.001719 -0.003649 0.014650 -0.004172 0.002091 0.000157
# 4 0.003641 -0.000075 -0.004172 0.035978 0.003248 0.003485
# 5 -0.006807 0.003814 0.002091 0.003248 0.050244 0.002932
# 6 0.001793 0.000126 0.000157 0.003485 0.002932 0.031095
#
#
# Mechanical properties :
#
#
# Convention : Reuss Voigt Hill
#
# Bulk Modulus (GPa) = 41.94895 48.31610 45.13252
# Shear Modulus (GPa) = 26.38275 29.64364 28.01319
#
# Velocity S-wave (km/s) = 3.65675 3.87615 3.76805
# Velocity P-wave (km/s) = 6.25223 6.67242 6.46574
#
# Compressibility (1/GPa) = 0.02383850
#
# Stress axis : x y z
#
# Youngs Moduli (GPa) = 53.07118 94.74842 68.26016
#
# Poissons Ratio (x) = 0.44875 0.11731
# Poissons Ratio (y) = 0.25136 0.24911
# Poissons Ratio (z) = 0.09120 0.34577
#
# Static dielectric constant tensor:
#      x y z
#    x 1.726350 0.020750 0.021120 
#    y 0.020750 1.721070 -0.003430 
#    z 0.021120 -0.003430 1.746990 
# 
# From -- ./inp_files/392865.got.cif
#   From: 2010.05.17/outbox.cif.g08.bks.cpg/sg2_197_cif.got.tgz:392865.got - 2010.06.03 11:33:40.
