data_PCOD9021414
_publ_section_title
;
Structure prediction by ZEFSAII (Michael W. Deem and Ramdas Pophale) SiO2 
 PCOD9021414
Probable space group: P -1
;
_chemical_formula_sum "Si O2"
_cell_formula_units_Z 14
_cell_length_a 8.516226
_cell_length_b 11.494063
_cell_length_c 14.581741
_cell_angle_alpha 27.958026
_cell_angle_beta 69.724286
_cell_angle_gamma 67.057290
_cell_volume 616.232969
_symmetry_space_group_name_H-M "P -1"
_symmetry_group_IT_number 2
_symmetry_cell_setting 'triclinic'
loop_
_space_group_symop_operation_xyz
x,y,z
-x,-y,-z
loop_
_atom_site_type_symbol
_atom_site_label
_atom_site_fract_x
_atom_site_fract_y
_atom_site_fract_z
Si Si1 0.302070 0.536826 0.038164
Si Si2 0.091216 0.050211 0.682507
Si Si3 0.155047 0.265114 0.126133
Si Si4 0.436803 0.172568 0.996271
Si Si5 0.660816 0.326833 0.711433
Si Si6 0.770349 0.784648 0.267187
Si Si7 0.099959 0.582619 0.236685
O O1 0.239588 0.280247 0.197523
O O2 0.206234 0.604960 0.107677
O O3 0.500000 0.500000 0.000000
O O4 0.228185 0.796059 0.818281
O O5 0.122627 0.143891 0.715411
O O6 0.109578 0.286467 0.453747
O O7 0.918123 0.965464 0.742015
O O8 0.305738 0.316097 0.994926
O O9 0.000000 0.500000 0.000000
O O10 0.346530 0.953142 0.126493
O O11 0.608717 0.005669 0.123114
O O12 0.484419 0.368958 0.775729
O O13 0.693624 0.536731 0.485932
O O14 0.801426 0.328188 0.759531
O O15 0.903472 0.717912 0.202116
#
# Coordination Sequence:
#
# PCOD9021414 Si02
#       7
#     2   2   2   2   2   2   2
#     4  11  24  42  62  88 120 159 205 242 284 352
#     4  10  22  41  63  86 121 156 195 250 298 345
#     4  10  22  41  62  86 120 161 203 241 287 352
#     4  11  22  39  63  89 122 157 193 248 302 343
#     4  10  22  38  61  91 122 152 193 247 305 356
#     4  11  22  38  63  92 119 151 198 247 300 360
#     4  11  23  39  62  90 120 157 197 241 302 358
#
# _framework density 22.718679999999999
#
# number of rings (size 3 to 8) (size 9 to 14) (size 15 to 20)
#    0.000    1.429    0.000    6.429    0.000    9.143 
#    0.000    4.286    0.000    0.000    0.000    0.000 
#    0.000    0.000    0.000    0.000    0.000    0.000 
#
# Total GULP energy -77964.691773 kJ/mol
# GULP energy per Si atom -5568.906555 kJ/mol
# Density = 2.266697 g / cm^3
# Si number density = 22.718680 Si / 1000 Ang^3
#
#
#
# Elastic Constant Matrix: (Units=GPa)
#
#
# Indices 1 2 3 4 5 6 
#
# 1 118.5326 59.8500 51.9762 -0.9405 -31.5449 2.0969
# 2 59.8500 120.3051 43.2063 19.6243 -17.0638 -27.5628
# 3 51.9762 43.2063 117.6896 2.1304 -25.8080 -19.1585
# 4 -0.9405 19.6243 2.1304 27.1734 1.9067 -11.2099
# 5 -31.5449 -17.0638 -25.8080 1.9067 29.5447 -8.1582
# 6 2.0969 -27.5628 -19.1585 -11.2099 -8.1582 50.5481
#
#
#
# Elastic Compliance Matrix: (Units=1/GPa)
#
#
# Indices 1 2 3 4 5 6 
#
# 1 0.015683 -0.006764 -0.003049 0.003707 0.009049 -0.003212
# 2 -0.006764 0.015470 -0.000528 -0.008658 0.003800 0.007209
# 3 -0.003049 -0.000528 0.013259 0.001329 0.009797 0.006740
# 4 0.003707 -0.008658 0.001329 0.045436 -0.001296 0.005496
# 5 0.009049 0.003800 0.009797 -0.001296 0.058360 0.014542
# 6 -0.003212 0.007209 0.006740 0.005496 0.014542 0.029968
#
#
# Mechanical properties :
#
#
# Convention : Reuss Voigt Hill
#
# Bulk Modulus (GPa) = 42.14173 74.06582 58.10377
# Shear Modulus (GPa) = 24.18169 34.88623 29.53396
#
# Velocity S-wave (km/s) = 3.26605 3.92289 3.60944
# Velocity P-wave (km/s) = 5.72821 7.29320 6.55756
#
# Compressibility (1/GPa) = 0.02372945
#
# Stress axis : x y z
#
# Youngs Moduli (GPa) = 63.76235 64.64088 75.42242
#
# Poissons Ratio (x) = 0.43726 0.22993
# Poissons Ratio (y) = 0.43131 0.03984
# Poissons Ratio (z) = 0.19439 0.03415
#
# Static dielectric constant tensor:
#      x y z
#    x 2.028140 0.042250 -0.032560 
#    y 0.042250 1.920900 0.050600 
#    z -0.032560 0.050600 1.863920 
# 
# From -- ./inp_files/355262.got.cif
#   From: 2010.05.17/outbox.cif.g08.bks.cpg/sg2_178_cif.got.tgz:355262.got - 2010.06.03 11:33:40.
