data_PCOD9021668
_publ_section_title
;
Structure prediction by ZEFSAII (Michael W. Deem and Ramdas Pophale) SiO2 
 PCOD9021668
Probable space group: P -1
;
_chemical_formula_sum "Si O2"
_cell_formula_units_Z 16
_cell_length_a 7.078474
_cell_length_b 10.048237
_cell_length_c 14.149115
_cell_angle_alpha 96.693082
_cell_angle_beta 68.316483
_cell_angle_gamma 56.964420
_cell_volume 715.692330
_symmetry_space_group_name_H-M "P -1"
_symmetry_group_IT_number 2
_symmetry_cell_setting 'triclinic'
loop_
_space_group_symop_operation_xyz
x,y,z
-x,-y,-z
loop_
_atom_site_type_symbol
_atom_site_label
_atom_site_fract_x
_atom_site_fract_y
_atom_site_fract_z
Si Si1 0.728762 0.921035 0.219505
Si Si2 0.091570 0.506764 0.626470
Si Si3 0.892149 0.429751 0.819617
Si Si4 0.241662 0.037671 0.004075
Si Si5 0.633395 0.677920 0.174566
Si Si6 0.573743 0.717688 0.620060
Si Si7 0.585016 0.303918 0.983077
Si Si8 0.252674 0.625377 0.774810
O O1 0.564672 0.849836 0.248087
O O2 0.035462 0.752727 0.175326
O O3 0.614368 0.075286 0.324829
O O4 0.718707 0.967860 0.116336
O O5 0.346128 0.374030 0.503924
O O6 0.123418 0.609059 0.706061
O O7 0.031745 0.400513 0.692284
O O8 0.847264 0.639828 0.614667
O O9 0.051548 0.442364 0.874339
O O10 0.613699 0.617671 0.882535
O O11 0.214231 0.896679 0.035890
O O12 0.976433 0.228131 0.100355
O O13 0.500000 0.000000 0.000000
O O14 0.534382 0.711431 0.090546
O O15 0.566949 0.565964 0.226929
O O16 0.428097 0.669570 0.706113
O O17 0.500000 0.500000 0.000000
#
# Coordination Sequence:
#
# PCOD9021668 Si02
#       8
#     2   2   2   2   2   2   2   2
#     4  10  22  38  64  90 125 166 212 252 318 383
#     4  10  23  44  67  89 127 166 217 271 318 365
#     4   9  20  40  60  81 122 169 202 249 322 366
#     4  12  22  38  63  95 130 170 207 252 319 389
#     4   9  21  39  57  86 127 169 199 254 315 374
#     4  11  24  42  68  95 119 168 224 266 311 379
#     4  12  24  34  59  96 132 162 203 257 316 384
#     4  11  24  41  67  93 131 169 210 264 318 377
#
# _framework density 22.355974
#
# number of rings (size 3 to 8) (size 9 to 14) (size 15 to 20)
#    0.750    0.750    1.250    4.500    5.250    1.000 
#    0.000    0.000    0.000    1.500    0.000    0.000 
#    0.000    0.000    0.000    0.000    0.000    0.000 
#
# Total GULP energy -89127.809537 kJ/mol
# GULP energy per Si atom -5570.488096 kJ/mol
# Density = 2.230509 g / cm^3
# Si number density = 22.355974 Si / 1000 Ang^3
#
#
#
# Elastic Constant Matrix: (Units=GPa)
#
#
# Indices 1 2 3 4 5 6 
#
# 1 51.9527 8.1451 53.1304 20.2759 -31.1125 8.6601
# 2 8.1451 111.7966 13.5495 9.0958 -5.0415 21.6224
# 3 53.1304 13.5495 324.0557 55.4191 -152.8863 -11.6237
# 4 20.2759 9.0958 55.4191 36.4411 -23.9473 3.3276
# 5 -31.1125 -5.0415 -152.8863 -23.9473 112.6944 5.5714
# 6 8.6601 21.6224 -11.6237 3.3276 5.5714 42.5112
#
#
#
# Elastic Compliance Matrix: (Units=1/GPa)
#
#
# Indices 1 2 3 4 5 6 
#
# 1 0.028002 0.000270 -0.000690 -0.010934 0.004770 -0.005800
# 2 0.000270 0.010105 -0.000469 -0.001617 -0.000198 -0.005170
# 3 -0.000690 -0.000469 0.010184 -0.007340 0.011937 0.002174
# 4 -0.010934 -0.001617 -0.007340 0.042701 -0.003887 -0.001790
# 5 0.004770 -0.000198 0.011937 -0.003887 0.025582 -0.000656
# 6 -0.005800 -0.005170 0.002174 -0.001790 -0.000656 0.028155
#
#
# Mechanical properties :
#
#
# Convention : Reuss Voigt Hill
#
# Bulk Modulus (GPa) = 21.49959 70.82834 46.16397
# Shear Modulus (GPa) = 30.86219 65.86136 48.36177
#
# Velocity S-wave (km/s) = 3.71952 5.43362 4.65613
# Velocity P-wave (km/s) = 5.29946 8.43306 7.04276
#
# Compressibility (1/GPa) = 0.04651252
#
# Stress axis : x y z
#
# Youngs Moduli (GPa) = 35.71130 98.96492 98.19791
#
# Poissons Ratio (x) = -0.02671 0.06776
# Poissons Ratio (y) = -0.00964 0.04604
# Poissons Ratio (z) = 0.02464 0.04640
#
# Static dielectric constant tensor:
#      x y z
#    x 1.385190 0.155810 0.763700 
#    y 0.155810 1.865200 -0.188460 
#    z 0.763700 -0.188460 0.569190 
# 
# From -- ./inp_files/497987.got.cif
#   From: 2010.05.17/outbox.cif.g08.bks.cpg/sg2_249_cif.got.tgz:497987.got - 2010.06.03 11:33:40.
