data_PCOD9021924
_publ_section_title
;
Structure prediction by ZEFSAII (Michael W. Deem and Ramdas Pophale) SiO2 
 PCOD9021924
Probable space group: P -1
;
_chemical_formula_sum "Si O2"
_cell_formula_units_Z 12
_cell_length_a 7.010860
_cell_length_b 13.358511
_cell_length_c 21.901634
_cell_angle_alpha 159.083195
_cell_angle_beta 55.780001
_cell_angle_gamma 133.924635
_cell_volume 497.340539
_symmetry_space_group_name_H-M "P -1"
_symmetry_group_IT_number 2
_symmetry_cell_setting 'triclinic'
loop_
_space_group_symop_operation_xyz
x,y,z
-x,-y,-z
loop_
_atom_site_type_symbol
_atom_site_label
_atom_site_fract_x
_atom_site_fract_y
_atom_site_fract_z
Si Si1 0.739455 0.118734 0.409311
Si Si2 0.793327 0.288413 0.172280
Si Si3 0.705311 0.657292 0.494628
Si Si4 0.808328 0.826388 0.115114
Si Si5 0.849679 0.742915 0.807577
Si Si6 0.851101 0.307328 0.765226
O O1 0.701111 0.415779 0.604363
O O2 0.974442 0.173602 0.444766
O O3 0.864743 0.103607 0.312908
O O4 0.425139 0.781595 0.273419
O O5 0.624327 0.358134 0.290491
O O6 0.050629 0.338410 0.195272
O O7 0.918371 0.578132 0.262774
O O8 0.691148 0.924457 0.953242
O O9 0.500000 0.500000 0.500000
O O10 0.729471 0.973124 0.637228
O O11 0.500000 0.500000 0.000000
O O12 0.967438 0.637754 0.975876
O O13 0.871350 0.993788 0.132645
#
# Coordination Sequence:
#
# PCOD9021924 Si02
#       6
#     2   2   2   2   2   2
#     4  10  22  38  67  91 122 161 206 245 307 363
#     4   9  20  40  61  89 126 158 204 251 303 358
#     4  11  25  38  63  93 123 161 203 254 302 361
#     4   9  19  33  61  93 120 156 198 252 302 354
#     4   9  18  34  63  88 118 162 201 246 299 361
#     4  10  22  41  64  89 125 162 199 256 303 354
#
# _framework density 24.128337999999999
#
# number of rings (size 3 to 8) (size 9 to 14) (size 15 to 20)
#    0.000    2.333    0.000    1.000   11.667    3.333 
#    0.000    0.833    3.667    0.000    0.000    0.000 
#    0.000    0.000    0.000    0.000    0.000    0.000 
#
# Total GULP energy -66852.357616 kJ/mol
# GULP energy per Si atom -5571.029801 kJ/mol
# Density = 2.407342 g / cm^3
# Si number density = 24.128338 Si / 1000 Ang^3
#
#
#
# Elastic Constant Matrix: (Units=GPa)
#
#
# Indices 1 2 3 4 5 6 
#
# 1 59.9619 3.1651 12.7705 10.6597 5.1515 -0.7720
# 2 3.1651 132.0400 59.2103 -15.4626 -0.5638 -24.1178
# 3 12.7705 59.2103 181.2341 -35.9393 -2.8040 -16.0541
# 4 10.6597 -15.4626 -35.9393 47.0805 2.6999 -4.9677
# 5 5.1515 -0.5638 -2.8040 2.6999 31.7374 9.7985
# 6 -0.7720 -24.1178 -16.0541 -4.9677 9.7985 26.4637
#
#
#
# Elastic Compliance Matrix: (Units=1/GPa)
#
#
# Indices 1 2 3 4 5 6 
#
# 1 0.018563 -0.000338 -0.002660 -0.006409 -0.002158 -0.001784
# 2 -0.000338 0.010766 -0.001925 0.003458 -0.003482 0.010572
# 3 -0.002660 -0.001925 0.008050 0.006654 -0.000886 0.004629
# 4 -0.006409 0.003458 0.006654 0.030786 -0.005504 0.014819
# 5 -0.002158 -0.003482 -0.000886 -0.005504 0.038017 -0.018884
# 6 -0.001784 0.010572 0.004629 0.014819 -0.018884 0.059953
#
#
# Mechanical properties :
#
#
# Convention : Reuss Voigt Hill
#
# Bulk Modulus (GPa) = 36.31928 58.16976 47.24452
# Shear Modulus (GPa) = 27.00385 40.92899 33.96642
#
# Velocity S-wave (km/s) = 3.34904 4.12309 3.75606
# Velocity P-wave (km/s) = 5.48087 6.84305 6.19949
#
# Compressibility (1/GPa) = 0.02753358
#
# Stress axis : x y z
#
# Youngs Moduli (GPa) = 53.86944 92.88455 124.22378
#
# Poissons Ratio (x) = 0.03137 0.33044
# Poissons Ratio (y) = 0.01819 0.23915
# Poissons Ratio (z) = 0.14330 0.17882
#
# Static dielectric constant tensor:
#      x y z
#    x 1.981550 0.017280 -0.034280 
#    y 0.017280 1.938070 -0.065070 
#    z -0.034280 -0.065070 2.045700 
# 
# From -- ./inp_files/239853.got.cif
#   From: 2010.05.17/outbox.cif.g08.bks.cpg/sg2_120_cif.got.tgz:239853.got - 2010.06.03 11:33:40.
