data_PCOD9021317
_publ_section_title
;
Structure prediction by ZEFSAII (Michael W. Deem and Ramdas Pophale) SiO2 
 PCOD9021317
Probable space group: P -1
;
_chemical_formula_sum "Si O2"
_cell_formula_units_Z 14
_cell_length_a 7.875261
_cell_length_b 12.016985
_cell_length_c 10.885692
_cell_angle_alpha 139.705752
_cell_angle_beta 88.891119
_cell_angle_gamma 108.475992
_cell_volume 588.911599
_symmetry_space_group_name_H-M "P -1"
_symmetry_group_IT_number 2
_symmetry_cell_setting 'triclinic'
loop_
_space_group_symop_operation_xyz
x,y,z
-x,-y,-z
loop_
_atom_site_type_symbol
_atom_site_label
_atom_site_fract_x
_atom_site_fract_y
_atom_site_fract_z
Si Si1 0.286153 0.928118 0.681539
Si Si2 0.861021 0.097981 0.081270
Si Si3 0.031967 0.508394 0.662639
Si Si4 0.685172 0.938727 0.686915
Si Si5 0.873583 0.331173 0.949012
Si Si6 0.412317 0.484812 0.624930
Si Si7 0.470844 0.344765 0.976763
O O1 0.284709 0.977434 0.867014
O O2 0.468922 0.894737 0.623778
O O3 0.101501 0.718743 0.500218
O O4 0.308684 0.120149 0.772198
O O5 0.986173 0.334751 0.295652
O O6 0.741533 0.030026 0.899814
O O7 0.000000 0.000000 0.000000
O O8 0.015020 0.602908 0.870078
O O9 0.251922 0.555497 0.679469
O O10 0.695672 0.740984 0.524680
O O11 0.824916 0.109618 0.738484
O O12 0.669059 0.329691 0.962877
O O13 0.000000 0.500000 0.000000
O O14 0.500000 0.500000 0.500000
O O15 0.547713 0.585720 0.826342
O O16 0.500000 0.500000 0.000000
#
# Coordination Sequence:
#
# PCOD9021317 Si02
#       7
#     2   2   2   2   2   2   2
#     4  11  22  39  60  88 126 162 201 259 312 372
#     4  11  22  38  60  90 123 162 206 255 312 373
#     4  10  23  40  61  93 123 158 210 257 310 377
#     4  10  22  38  60  89 119 162 209 255 312 370
#     4   9  21  42  62  81 119 165 206 255 309 370
#     4  11  22  42  67  91 125 169 208 255 312 374
#     4  10  24  41  61  92 126 162 210 260 310 366
#
# _framework density 23.772667999999999
#
# number of rings (size 3 to 8) (size 9 to 14) (size 15 to 20)
#    0.000    1.714    0.000    4.286    0.000    8.000 
#    0.000    5.714    0.000    0.000    0.000    0.000 
#    0.000    0.000    0.000    0.000    0.000    0.000 
#
# Total GULP energy -78122.379896 kJ/mol
# GULP energy per Si atom -5580.169993 kJ/mol
# Density = 2.371856 g / cm^3
# Si number density = 23.772668 Si / 1000 Ang^3
#
#
#
# Elastic Constant Matrix: (Units=GPa)
#
#
# Indices 1 2 3 4 5 6 
#
# 1 58.3341 15.3797 12.4067 14.3359 -5.9962 -3.8743
# 2 15.3797 129.0686 37.9280 48.4469 -2.9617 -0.8442
# 3 12.4067 37.9280 97.5878 43.8913 -5.7844 -5.7206
# 4 14.3359 48.4469 43.8913 47.1279 -6.5644 -4.2842
# 5 -5.9962 -2.9617 -5.7844 -6.5644 28.2183 6.6263
# 6 -3.8743 -0.8442 -5.7206 -4.2842 6.6263 33.2000
#
#
#
# Elastic Compliance Matrix: (Units=1/GPa)
#
#
# Indices 1 2 3 4 5 6 
#
# 1 0.018776 -0.000295 0.000293 -0.005229 0.002556 0.001049
# 2 -0.000295 0.012888 0.001607 -0.014976 -0.001620 -0.001039
# 3 0.000293 0.001607 0.017873 -0.018388 -0.000594 0.000900
# 4 -0.005229 -0.014976 -0.018388 0.056366 0.006220 0.001873
# 5 0.002556 -0.001620 -0.000594 0.006220 0.038726 -0.006772
# 6 0.001049 -0.001039 0.000900 0.001873 -0.006772 0.031965
#
#
# Mechanical properties :
#
#
# Convention : Reuss Voigt Hill
#
# Bulk Modulus (GPa) = 18.95861 46.26880 32.61371
# Shear Modulus (GPa) = 26.18257 36.32763 31.25510
#
# Velocity S-wave (km/s) = 3.32229 3.91337 3.62988
# Velocity P-wave (km/s) = 4.76541 6.31859 5.59614
#
# Compressibility (1/GPa) = 0.05274649
#
# Stress axis : x y z
#
# Youngs Moduli (GPa) = 53.26034 77.59116 55.95051
#
# Poissons Ratio (x) = 0.02288 -0.01637
# Poissons Ratio (y) = 0.01570 -0.08992
# Poissons Ratio (z) = -0.01558 -0.12470
#
# Static dielectric constant tensor:
#      x y z
#    x 1.875450 -0.016410 0.057330 
#    y -0.016410 2.047710 0.024770 
#    z 0.057330 0.024770 2.047960 
# 
# From -- ./inp_files/181087.got.cif
#   From: 2010.05.17/outbox.cif.g08.bks.cpg/sg2_91_cif.got.tgz:181087.got - 2010.06.03 11:33:40.
