data_PCOD9021278
_publ_section_title
;
Structure prediction by ZEFSAII (Michael W. Deem and Ramdas Pophale) SiO2 
 PCOD9021278
Probable space group: P -1
;
_chemical_formula_sum "Si O2"
_cell_formula_units_Z 15
_cell_length_a 12.890526
_cell_length_b 11.396180
_cell_length_c 11.832023
_cell_angle_alpha 70.704264
_cell_angle_beta 108.362090
_cell_angle_gamma 47.902268
_cell_volume 782.292846
_symmetry_space_group_name_H-M "P -1"
_symmetry_group_IT_number 2
_symmetry_cell_setting 'triclinic'
loop_
_space_group_symop_operation_xyz
x,y,z
-x,-y,-z
loop_
_atom_site_type_symbol
_atom_site_label
_atom_site_fract_x
_atom_site_fract_y
_atom_site_fract_z
Si Si1 0.363877 0.092475 0.535317
Si Si2 0.403548 0.733147 0.399880
Si Si3 0.819365 0.480377 0.703516
Si Si4 0.724368 0.589555 0.900089
Si Si5 0.165078 0.943052 0.024985
Si Si6 0.495375 0.463283 0.139437
Si Si7 0.929301 0.839918 0.673791
Si Si8 0.000000 0.000000 0.500000
O O1 0.200483 0.366987 0.412239
O O2 0.231205 0.098580 0.461297
O O3 0.500000 0.000000 0.500000
O O4 0.550437 0.872336 0.758573
O O5 0.500000 0.500000 0.500000
O O6 0.598471 0.627435 0.544263
O O7 0.206471 0.942874 0.352807
O O8 0.304218 0.860594 0.202940
O O9 0.820614 0.497452 0.834772
O O10 0.019656 0.192553 0.838095
O O11 0.598635 0.582736 0.868247
O O12 0.907588 0.403392 0.116941
O O13 0.330221 0.713418 0.071046
O O14 0.000000 0.000000 0.000000
O O15 0.500000 0.500000 0.000000
O O16 0.738430 0.228201 0.345057
O O17 0.048729 0.816676 0.638476
#
# Coordination Sequence:
#
# PCOD9021278 Si02
#       8
#     2   2   2   2   2   2   2   1
#     4  10  22  38  59  93 137 167 220 264 326 389
#     4  12  21  34  60  91 131 165 202 265 335 375
#     4  11  22  38  61  93 133 167 208 269 329 381
#     4  11  20  38  60  94 129 167 212 269 318 381
#     4  12  23  39  63  96 135 164 212 274 335 384
#     4  12  24  41  65  98 130 171 214 266 329 393
#     4  12  22  37  63  95 130 174 216 270 321 389
#     4  12  24  38  64  96 130 168 216 260 330 382
#
# _framework density 19.174403999999999
#
# number of rings (size 3 to 8) (size 9 to 14) (size 15 to 20)
#    0.000    0.533    9.333    0.800    0.000    4.267 
#    0.000    0.000    0.000    1.600    0.000    0.000 
#    0.000    0.000    0.000    0.000    0.000    0.000 
#
# Total GULP energy -83514.416197 kJ/mol
# GULP energy per Si atom -5567.627746 kJ/mol
# Density = 1.913076 g / cm^3
# Si number density = 19.174404 Si / 1000 Ang^3
#
#
#
# Elastic Constant Matrix: (Units=GPa)
#
#
# Indices 1 2 3 4 5 6 
#
# 1 28.7486 -3.0692 -8.4795 2.1521 -10.2237 4.2091
# 2 -3.0692 43.3723 18.5848 -12.4987 -5.6365 2.2407
# 3 -8.4795 18.5848 133.8064 -18.1496 -9.7467 2.1224
# 4 2.1521 -12.4987 -18.1496 34.2902 4.3758 -5.7856
# 5 -10.2237 -5.6365 -9.7467 4.3758 35.0021 -9.8076
# 6 4.2091 2.2407 2.1224 -5.7856 -9.8076 21.3910
#
#
#
# Elastic Compliance Matrix: (Units=1/GPa)
#
#
# Indices 1 2 3 4 5 6 
#
# 1 0.041080 0.002849 0.002878 -0.002211 0.012552 -0.003510
# 2 0.002849 0.026998 -0.002203 0.008144 0.003760 0.000756
# 3 0.002878 -0.002203 0.008605 0.003388 0.002733 0.000980
# 4 -0.002211 0.008144 0.003388 0.035580 -0.000406 0.008683
# 5 0.012552 0.003760 0.002733 -0.000406 0.037571 0.013981
# 6 -0.003510 0.000756 0.000980 0.008683 0.013981 0.056022
#
#
# Mechanical properties :
#
#
# Convention : Reuss Voigt Hill
#
# Bulk Modulus (GPa) = 11.94283 24.44441 18.19362
# Shear Modulus (GPa) = 22.05388 31.39609 26.72498
#
# Velocity S-wave (km/s) = 3.39510 4.05086 3.73739
# Velocity P-wave (km/s) = 4.64876 5.88689 5.30408
#
# Compressibility (1/GPa) = 0.08373224
#
# Stress axis : x y z
#
# Youngs Moduli (GPa) = 24.34245 37.03970 116.21400
#
# Poissons Ratio (x) = -0.10554 -0.33443
# Poissons Ratio (y) = -0.06936 0.25599
# Poissons Ratio (z) = -0.07005 0.08159
#
# Static dielectric constant tensor:
#      x y z
#    x 1.511530 0.012880 -0.128230 
#    y 0.012880 1.670230 -0.015150 
#    z -0.128230 -0.015150 1.654360 
# 
# From -- ./inp_files/285754.got.cif
#   From: 2010.05.17/outbox.cif.g08.bks.cpg/sg2_143_cif.got.tgz:285754.got - 2010.06.03 11:33:40.
