data_PCOD9021270
_publ_section_title
;
Structure prediction by ZEFSAII (Michael W. Deem and Ramdas Pophale) SiO2 
 PCOD9021270
Probable space group: P -1
;
_chemical_formula_sum "Si O2"
_cell_formula_units_Z 16
_cell_length_a 10.877588
_cell_length_b 26.511914
_cell_length_c 6.125283
_cell_angle_alpha 48.111881
_cell_angle_beta 119.295195
_cell_angle_gamma 147.670175
_cell_volume 690.720711
_symmetry_space_group_name_H-M "P -1"
_symmetry_group_IT_number 2
_symmetry_cell_setting 'triclinic'
loop_
_space_group_symop_operation_xyz
x,y,z
-x,-y,-z
loop_
_atom_site_type_symbol
_atom_site_label
_atom_site_fract_x
_atom_site_fract_y
_atom_site_fract_z
Si Si1 0.763403 0.945185 0.026833
Si Si2 0.243531 0.408985 0.651958
Si Si3 0.509019 0.736334 0.217222
Si Si4 0.656595 0.696303 0.823509
Si Si5 0.058026 0.128541 0.070815
Si Si6 0.850828 0.182156 0.727736
Si Si7 0.593757 0.989733 0.420984
Si Si8 0.210381 0.548854 0.182083
O O1 0.727119 0.985447 0.688383
O O2 0.540718 0.810192 0.200413
O O3 0.000000 0.000000 0.000000
O O4 0.827160 0.998393 0.170160
O O5 0.500000 0.500000 0.500000
O O6 0.186884 0.464253 0.512041
O O7 0.031705 0.307505 0.600109
O O8 0.255421 0.347349 0.997103
O O9 0.578594 0.697174 0.527559
O O10 0.279283 0.630267 0.190603
O O11 0.718586 0.823679 0.972102
O O12 0.855699 0.817547 0.768698
O O13 0.432333 0.619800 0.009595
O O14 0.006002 0.181456 0.757866
O O15 0.635618 0.127056 0.561895
O O16 0.729351 0.091379 0.078932
O O17 0.500000 0.000000 0.500000
O O18 0.000000 0.500000 0.000000
#
# Coordination Sequence:
#
# PCOD9021270 Si02
#       8
#     2   2   2   2   2   2   2   2
#     4  10  22  38  59  91 125 162 202 253 306 366
#     4   9  20  40  66  91 114 161 212 259 309 352
#     4  10  22  39  60  89 124 159 210 252 310 367
#     4   9  20  39  62  85 117 158 205 256 306 373
#     4   9  19  37  59  91 117 157 200 257 295 363
#     4  10  22  39  67  90 126 165 208 252 315 368
#     4  11  23  42  60  93 133 164 202 253 307 382
#     4  10  22  41  58  86 125 156 201 265 313 362
#
# _framework density 23.164211000000002
#
# number of rings (size 3 to 8) (size 9 to 14) (size 15 to 20)
#    0.000    2.250    1.250    0.750    8.750    1.500 
#    6.750    2.500    0.000    0.000    0.000    0.000 
#    0.000    0.000    0.000    0.000    0.000    0.000 
#
# Total GULP energy -89125.371804 kJ/mol
# GULP energy per Si atom -5570.335738 kJ/mol
# Density = 2.311149 g / cm^3
# Si number density = 23.164211 Si / 1000 Ang^3
#
#
#
# Elastic Constant Matrix: (Units=GPa)
#
#
# Indices 1 2 3 4 5 6 
#
# 1 49.7894 26.6256 16.0971 0.4250 22.4380 4.7416
# 2 26.6256 205.3811 44.6660 12.4548 20.4596 -4.8853
# 3 16.0971 44.6660 71.4611 16.8679 23.3967 3.7808
# 4 0.4250 12.4548 16.8679 36.4019 6.6505 17.3405
# 5 22.4380 20.4596 23.3967 6.6505 25.4161 -3.9494
# 6 4.7416 -4.8853 3.7808 17.3405 -3.9494 27.4474
#
#
#
# Elastic Compliance Matrix: (Units=1/GPa)
#
#
# Indices 1 2 3 4 5 6 
#
# 1 0.049506 -0.004379 0.006535 0.024806 -0.058008 -0.034250
# 2 -0.004379 0.006164 -0.003587 -0.003585 0.003950 0.005181
# 3 0.006535 -0.003587 0.023973 -0.001530 -0.025763 -0.007810
# 4 0.024806 -0.003585 -0.001530 0.059473 -0.040646 -0.048134
# 5 -0.058008 0.003950 -0.025763 -0.040646 0.130862 0.058781
# 6 -0.034250 0.005181 -0.007810 -0.048134 0.058781 0.083216
#
#
# Mechanical properties :
#
#
# Convention : Reuss Voigt Hill
#
# Bulk Modulus (GPa) = 13.02440 55.71209 34.36825
# Shear Modulus (GPa) = 13.10099 33.80261 23.45180
#
# Velocity S-wave (km/s) = 2.38075 3.82417 3.18530
# Velocity P-wave (km/s) = 3.63210 6.60320 5.32890
#
# Compressibility (1/GPa) = 0.07677897
#
# Stress axis : x y z
#
# Youngs Moduli (GPa) = 20.19975 162.22925 41.71324
#
# Poissons Ratio (x) = 0.71047 -0.27259
# Poissons Ratio (y) = 0.08846 0.14964
# Poissons Ratio (z) = -0.13200 0.58197
#
# Static dielectric constant tensor:
#      x y z
#    x 1.956570 -0.006750 -0.012670 
#    y -0.006750 1.943940 -0.061260 
#    z -0.012670 -0.061260 1.877140 
# 
# From -- ./inp_files/84983.got.cif
#   From: 2010.05.17/outbox.cif.g08.bks.cpg/sg2_43_cif.got.tgz:84983.got - 2010.06.03 11:33:40.
