data_PCOD9021509
_publ_section_title
;
Structure prediction by ZEFSAII (Michael W. Deem and Ramdas Pophale) SiO2 
 PCOD9021509
Probable space group: P -1
;
_chemical_formula_sum "Si O2"
_cell_formula_units_Z 16
_cell_length_a 14.320853
_cell_length_b 8.787237
_cell_length_c 20.204082
_cell_angle_alpha 101.364987
_cell_angle_beta 18.980248
_cell_angle_gamma 111.777882
_cell_volume 660.919794
_symmetry_space_group_name_H-M "P -1"
_symmetry_group_IT_number 2
_symmetry_cell_setting 'triclinic'
loop_
_space_group_symop_operation_xyz
x,y,z
-x,-y,-z
loop_
_atom_site_type_symbol
_atom_site_label
_atom_site_fract_x
_atom_site_fract_y
_atom_site_fract_z
Si Si1 0.258418 0.605378 0.922026
Si Si2 0.175261 0.258077 0.715250
Si Si3 0.152403 0.564256 0.302796
Si Si4 0.082261 0.653258 0.762475
Si Si5 0.896049 0.880496 0.817617
Si Si6 0.943895 0.630962 0.328202
Si Si7 0.062311 0.253219 0.431911
Si Si8 0.783680 0.890845 0.501752
O O1 0.609402 0.700103 0.740149
O O2 0.426231 0.687411 0.744270
O O3 0.012659 0.676089 0.107461
O O4 0.034095 0.394284 0.087045
O O5 0.509741 0.263763 0.514100
O O6 0.280272 0.368625 0.583363
O O7 0.875535 0.040603 0.879438
O O8 0.145854 0.395658 0.326885
O O9 0.848036 0.504031 0.447769
O O10 0.138925 0.690433 0.379560
O O11 0.515595 0.707903 0.032516
O O12 0.880682 0.450736 0.840413
O O13 0.002555 0.787730 0.792261
O O14 0.180742 0.996900 0.579089
O O15 0.057592 0.832578 0.301465
O O16 0.874306 0.042621 0.510915
#
# Coordination Sequence:
#
# PCOD9021509 Si02
#       8
#     2   2   2   2   2   2   2   2
#     4  11  21  41  63  90 123 172 203 256 310 367
#     4  10  24  42  68  90 122 169 221 259 304 373
#     4  11  23  40  64  98 131 164 203 258 323 385
#     4  11  23  46  66  89 125 173 218 254 309 373
#     4  11  24  41  67  95 128 164 211 260 318 369
#     4  10  22  38  62  93 128 157 209 257 311 366
#     4  11  23  39  62  95 134 169 200 251 324 388
#     4  11  24  38  61  99 132 162 204 258 319 379
#
# _framework density 24.208687000000001
#
# number of rings (size 3 to 8) (size 9 to 14) (size 15 to 20)
#    0.000    1.250    2.500    3.750    5.250    2.000 
#    0.000    6.250    0.000    0.000    0.000    0.000 
#    0.000    0.000    0.000    0.000    0.000    0.000 
#
# Total GULP energy -89077.455415 kJ/mol
# GULP energy per Si atom -5567.340963 kJ/mol
# Density = 2.415359 g / cm^3
# Si number density = 24.208687 Si / 1000 Ang^3
#
#
#
# Elastic Constant Matrix: (Units=GPa)
#
#
# Indices 1 2 3 4 5 6 
#
# 1 94.4287 29.6415 29.0204 -2.3513 23.8703 -23.9062
# 2 29.6415 95.9297 27.5374 -1.8857 18.0416 -14.8719
# 3 29.0204 27.5374 104.4188 -11.0034 21.4342 -18.4409
# 4 -2.3513 -1.8857 -11.0034 23.7539 -6.4983 7.6890
# 5 23.8703 18.0416 21.4342 -6.4983 38.4204 -3.0012
# 6 -23.9062 -14.8719 -18.4409 7.6890 -3.0012 43.1213
#
#
#
# Elastic Compliance Matrix: (Units=1/GPa)
#
#
# Indices 1 2 3 4 5 6 
#
# 1 0.015378 -0.001791 -0.001218 -0.003828 -0.008095 0.007506
# 2 -0.001791 0.012598 -0.001745 -0.001931 -0.003947 0.002675
# 3 -0.001218 -0.001745 0.012158 0.003174 -0.004432 0.003048
# 4 -0.003828 -0.001931 0.003174 0.048559 0.008989 -0.009464
# 5 -0.008095 -0.003947 -0.004432 0.008989 0.036371 -0.006816
# 6 0.007506 0.002675 0.003048 -0.009464 -0.006816 0.030791
#
#
# Mechanical properties :
#
#
# Convention : Reuss Voigt Hill
#
# Bulk Modulus (GPa) = 32.65310 51.90842 42.28076
# Shear Modulus (GPa) = 28.47853 34.96430 31.72142
#
# Velocity S-wave (km/s) = 3.43356 3.80450 3.62378
# Velocity P-wave (km/s) = 5.40708 6.38652 5.91710
#
# Compressibility (1/GPa) = 0.03062496
#
# Stress axis : x y z
#
# Youngs Moduli (GPa) = 65.02925 79.37869 82.25054
#
# Poissons Ratio (x) = 0.14219 0.10015
# Poissons Ratio (y) = 0.11649 0.14356
# Poissons Ratio (z) = 0.07918 0.13855
#
# Static dielectric constant tensor:
#      x y z
#    x 2.017400 0.056970 -0.012130 
#    y 0.056970 1.928730 -0.041820 
#    z -0.012130 -0.041820 2.010730 
# 
# From -- ./inp_files/283243.got.cif
#   From: 2010.05.17/outbox.cif.g08.bks.cpg/sg2_142_cif.got.tgz:283243.got - 2010.06.03 11:33:40.
