data_PCOD9021262
_publ_section_title
;
Structure prediction by ZEFSAII (Michael W. Deem and Ramdas Pophale) SiO2 
 PCOD9021262
Probable space group: P -1
;
_chemical_formula_sum "Si O2"
_cell_formula_units_Z 16
_cell_length_a 5.842708
_cell_length_b 8.843584
_cell_length_c 20.856214
_cell_angle_alpha 119.608551
_cell_angle_beta 112.402769
_cell_angle_gamma 49.710026
_cell_volume 711.582805
_symmetry_space_group_name_H-M "P -1"
_symmetry_group_IT_number 2
_symmetry_cell_setting 'triclinic'
loop_
_space_group_symop_operation_xyz
x,y,z
-x,-y,-z
loop_
_atom_site_type_symbol
_atom_site_label
_atom_site_fract_x
_atom_site_fract_y
_atom_site_fract_z
Si Si1 0.675349 0.122786 0.861815
Si Si2 0.247809 0.925458 0.654128
Si Si3 0.830216 0.436881 0.384953
Si Si4 0.353005 0.900808 0.004803
Si Si5 0.900002 0.699613 0.743110
Si Si6 0.041689 0.348787 0.782395
Si Si7 0.806169 0.452737 0.923420
Si Si8 0.466097 0.316275 0.481863
O O1 0.542720 0.112284 0.913217
O O2 0.394676 0.251699 0.810707
O O3 0.812507 0.257781 0.911651
O O4 0.912734 0.887054 0.812807
O O5 0.167034 0.766873 0.638062
O O6 0.580229 0.824062 0.698161
O O7 0.288438 0.895235 0.574830
O O8 0.039256 0.162556 0.708101
O O9 0.567778 0.649029 0.437970
O O10 0.842738 0.443708 0.311361
O O11 0.143847 0.383755 0.435018
O O12 0.481160 0.671434 0.941115
O O13 0.500000 0.000000 0.000000
O O14 0.000000 0.000000 0.000000
O O15 0.898700 0.554121 0.766434
O O16 0.898205 0.407395 0.849775
O O17 0.000000 0.500000 0.000000
O O18 0.500000 0.500000 0.500000
#
# Coordination Sequence:
#
# PCOD9021262 Si02
#       8
#     2   2   2   2   2   2   2   2
#     4  11  25  43  67  92 129 170 221 277 339 409
#     4   9  19  37  60  89 125 164 213 265 322 394
#     4   9  16  33  60  87 126 165 210 257 321 385
#     4  12  27  45  73 103 134 174 227 287 351 414
#     4  10  22  38  59  90 125 166 217 268 330 395
#     4  11  24  42  64  91 128 171 218 274 337 402
#     4  12  25  45  67  93 131 174 226 283 345 412
#     4   8  15  30  60  93 120 165 208 257 316 382
#
# _framework density 22.485085000000002
#
# number of rings (size 3 to 8) (size 9 to 14) (size 15 to 20)
#    0.000    1.750    1.250    2.625    3.500    1.000 
#    0.000    0.625    0.000   25.500    0.000    0.000 
#    0.000    0.000    0.000    0.000    0.000    0.000 
#
# Total GULP energy -89328.345917 kJ/mol
# GULP energy per Si atom -5583.021620 kJ/mol
# Density = 2.243391 g / cm^3
# Si number density = 22.485085 Si / 1000 Ang^3
#
#
#
# Elastic Constant Matrix: (Units=GPa)
#
#
# Indices 1 2 3 4 5 6 
#
# 1 106.7140 33.3017 62.7136 17.1063 -9.1005 19.7692
# 2 33.3017 78.7907 60.1102 20.8912 -15.4914 10.2143
# 3 62.7136 60.1102 160.9860 43.0892 -34.9497 16.1320
# 4 17.1063 20.8912 43.0892 31.4428 3.6557 -3.5155
# 5 -9.1005 -15.4914 -34.9497 3.6557 56.1925 2.8251
# 6 19.7692 10.2143 16.1320 -3.5155 2.8251 37.2106
#
#
#
# Elastic Compliance Matrix: (Units=1/GPa)
#
#
# Indices 1 2 3 4 5 6 
#
# 1 0.013228 -0.001807 -0.003566 -0.001658 -0.000208 -0.005127
# 2 -0.001807 0.019331 -0.002777 -0.009016 0.004113 -0.004307
# 3 -0.003566 -0.002777 0.018606 -0.024098 0.012230 -0.008615
# 4 -0.001658 -0.009016 -0.024098 0.077060 -0.023907 0.022898
# 5 -0.000208 0.004113 0.012230 -0.023907 0.028599 -0.010750
# 6 -0.005127 -0.004307 -0.008615 0.022898 -0.010750 0.037494
#
#
# Mechanical properties :
#
#
# Convention : Reuss Voigt Hill
#
# Bulk Modulus (GPa) = 28.68114 73.19352 50.93733
# Shear Modulus (GPa) = 22.49821 37.66020 30.07920
#
# Velocity S-wave (km/s) = 3.16663 4.09699 3.66148
# Velocity P-wave (km/s) = 5.11404 7.41641 6.37011
#
# Compressibility (1/GPa) = 0.03486612
#
# Stress axis : x y z
#
# Youngs Moduli (GPa) = 75.59552 51.72943 53.74570
#
# Poissons Ratio (x) = 0.09348 0.19166
# Poissons Ratio (y) = 0.13661 0.14923
# Poissons Ratio (z) = 0.26958 0.14363
#
# Static dielectric constant tensor:
#      x y z
#    x 1.854450 -0.056370 -0.009490 
#    y -0.056370 1.839840 -0.020690 
#    z -0.009490 -0.020690 1.898570 
# 
# From -- ./inp_files/358143.got.cif
#   From: 2010.05.17/outbox.cif.g08.bks.cpg/sg2_180_cif.got.tgz:358143.got - 2010.06.03 11:33:40.
