data_PCOD9021415
_publ_section_title
;
Structure prediction by ZEFSAII (Michael W. Deem and Ramdas Pophale) SiO2 
 PCOD9021415
Probable space group: P -1
;
_chemical_formula_sum "Si O2"
_cell_formula_units_Z 16
_cell_length_a 7.963561
_cell_length_b 15.000545
_cell_length_c 14.445141
_cell_angle_alpha 128.260164
_cell_angle_beta 152.381612
_cell_angle_gamma 53.944765
_cell_volume 624.341031
_symmetry_space_group_name_H-M "P -1"
_symmetry_group_IT_number 2
_symmetry_cell_setting 'triclinic'
loop_
_space_group_symop_operation_xyz
x,y,z
-x,-y,-z
loop_
_atom_site_type_symbol
_atom_site_label
_atom_site_fract_x
_atom_site_fract_y
_atom_site_fract_z
Si Si1 0.678854 0.273371 0.911534
Si Si2 0.422143 0.270045 0.484835
Si Si3 0.207225 0.911249 0.314620
Si Si4 0.500663 0.305379 0.355752
Si Si5 0.477963 0.568841 0.211755
Si Si6 0.725013 0.035966 0.301508
Si Si7 0.319464 0.835582 0.974298
Si Si8 0.390094 0.353561 0.133174
O O1 0.778392 0.169229 0.820439
O O2 0.439748 0.377857 0.812294
O O3 0.509140 0.224478 0.887743
O O4 0.060681 0.318300 0.151666
O O5 0.694521 0.176707 0.609767
O O6 0.592922 0.335662 0.525407
O O7 0.307247 0.365354 0.565756
O O8 0.090916 0.196893 0.251439
O O9 0.500000 0.000000 0.500000
O O10 0.874664 0.991870 0.246361
O O11 0.641325 0.171008 0.339028
O O12 0.575407 0.360470 0.329251
O O13 0.519057 0.436911 0.171165
O O14 0.044230 0.611603 0.044138
O O15 0.372576 0.967536 0.095697
O O16 0.000000 0.000000 0.500000
O O17 0.517062 0.773839 0.942347
#
# Coordination Sequence:
#
# PCOD9021415 Si02
#       8
#     2   2   2   2   2   2   2   2
#     4   9  21  39  60  87 126 159 202 250 306 361
#     4  10  22  40  60  90 130 156 205 255 305 364
#     4  11  23  39  60  87 125 167 198 247 312 360
#     4  10  22  38  61  91 123 163 202 254 299 365
#     4   9  20  44  65  89 123 161 203 260 311 361
#     4  12  24  39  63  91 126 163 209 249 298 371
#     4  11  24  39  62  93 122 164 208 251 301 368
#     4  10  22  40  67  90 119 165 210 251 309 364
#
# _framework density 25.627020000000002
#
# number of rings (size 3 to 8) (size 9 to 14) (size 15 to 20)
#    0.000    1.750    1.250    3.000    3.500    3.500 
#    0.000    0.000    0.000    0.000    0.000    0.000 
#    0.000    0.000    0.000    0.000    0.000    0.000 
#
# Total GULP energy -89407.432970 kJ/mol
# GULP energy per Si atom -5587.964561 kJ/mol
# Density = 2.556869 g / cm^3
# Si number density = 25.627020 Si / 1000 Ang^3
#
#
#
# Elastic Constant Matrix: (Units=GPa)
#
#
# Indices 1 2 3 4 5 6 
#
# 1 69.9839 -6.6078 5.2761 -20.3305 -17.7591 12.0285
# 2 -6.6078 77.9863 7.0618 -5.3650 -6.5836 15.5182
# 3 5.2761 7.0618 49.2064 -11.7091 -6.9976 4.3360
# 4 -20.3305 -5.3650 -11.7091 31.6569 7.2908 -1.3704
# 5 -17.7591 -6.5836 -6.9976 7.2908 33.3800 -8.2855
# 6 12.0285 15.5182 4.3360 -1.3704 -8.2855 35.5775
#
#
#
# Elastic Compliance Matrix: (Units=1/GPa)
#
#
# Indices 1 2 3 4 5 6 
#
# 1 0.021783 0.004717 0.001961 0.013306 0.008229 -0.007232
# 2 0.004717 0.015278 -0.000613 0.004478 0.002577 -0.007412
# 3 0.001961 -0.000613 0.022945 0.008793 0.003294 -0.002086
# 4 0.013306 0.004478 0.008793 0.044195 -0.001372 -0.006140
# 5 0.008229 0.002577 0.003294 -0.001372 0.036884 0.004229
# 6 -0.007232 -0.007412 -0.002086 -0.006140 0.004229 0.034788
#
#
# Mechanical properties :
#
#
# Convention : Reuss Voigt Hill
#
# Bulk Modulus (GPa) = 13.86254 23.18186 18.52220
# Shear Modulus (GPa) = 26.62546 32.88598 29.75572
#
# Velocity S-wave (km/s) = 3.22679 3.58614 3.41120
# Velocity P-wave (km/s) = 4.39363 5.11983 4.77057
#
# Compressibility (1/GPa) = 0.07213687
#
# Stress axis : x y z
#
# Youngs Moduli (GPa) = 45.90673 65.45192 43.58241
#
# Poissons Ratio (x) = -0.30876 -0.08547
# Poissons Ratio (y) = -0.21656 0.02674
# Poissons Ratio (z) = -0.09003 0.04015
#
# Static dielectric constant tensor:
#      x y z
#    x 1.622460 0.240740 -0.340510 
#    y 0.240740 1.908750 0.120300 
#    z -0.340510 0.120300 1.873200 
# 
# From -- ./inp_files/179909.got.cif
#   From: 2010.05.17/outbox.cif.g08.bks.cpg/sg2_90_cif.got.tgz:179909.got - 2010.06.03 11:33:40.
