data_PCOD9021586
_publ_section_title
;
Structure prediction by ZEFSAII (Michael W. Deem and Ramdas Pophale) SiO2 
 PCOD9021586
Probable space group: P -1
;
_chemical_formula_sum "Si O2"
_cell_formula_units_Z 14
_cell_length_a 26.090211
_cell_length_b 6.045062
_cell_length_c 15.705761
_cell_angle_alpha 117.902561
_cell_angle_beta 163.723199
_cell_angle_gamma 60.360354
_cell_volume 603.192243
_symmetry_space_group_name_H-M "P -1"
_symmetry_group_IT_number 2
_symmetry_cell_setting 'triclinic'
loop_
_space_group_symop_operation_xyz
x,y,z
-x,-y,-z
loop_
_atom_site_type_symbol
_atom_site_label
_atom_site_fract_x
_atom_site_fract_y
_atom_site_fract_z
Si Si1 0.322976 0.962319 0.764997
Si Si2 0.731785 0.461046 0.499623
Si Si3 0.376573 0.330747 0.221884
Si Si4 0.597540 0.641606 0.923242
Si Si5 0.903463 0.892576 0.906707
Si Si6 0.925463 0.208892 0.155849
Si Si7 0.160029 0.895547 0.805659
O O1 0.300364 0.669925 0.665504
O O2 0.143052 0.143311 0.470343
O O3 0.500000 0.000000 0.000000
O O4 0.343548 0.091217 0.910879
O O5 0.571225 0.403082 0.295126
O O6 0.930616 0.304097 0.818838
O O7 0.750583 0.750503 0.594974
O O8 0.500000 0.500000 0.500000
O O9 0.453745 0.346218 0.253745
O O10 0.169325 0.499588 0.933897
O O11 0.333966 0.047871 0.114933
O O12 0.762829 0.397994 0.149689
O O13 0.832659 0.082306 0.905974
O O14 0.000000 0.000000 0.000000
O O15 0.907399 0.095114 0.201276
O O16 0.000000 0.000000 0.500000
#
# Coordination Sequence:
#
# PCOD9021586 Si02
#       7
#     2   2   2   2   2   2   2
#     4   9  18  40  65  90 119 169 209 265 323 371
#     4   9  21  38  62  92 126 164 211 267 317 376
#     4  11  26  39  63  99 131 176 217 262 331 392
#     4  10  22  40  66  91 133 163 216 269 317 388
#     4  10  22  38  63  92 127 171 210 258 326 383
#     4  10  23  40  64  93 135 164 217 273 318 389
#     4  11  24  42  66  95 128 176 221 267 332 382
#
# _framework density 23.209848000000001
#
# number of rings (size 3 to 8) (size 9 to 14) (size 15 to 20)
#    0.000    2.000    0.000    1.714    6.000    5.714 
#    0.000    4.286    0.000   20.571    0.000    0.000 
#    0.000    0.000    0.000    0.000    0.000    0.000 
#
# Total GULP energy -78081.630468 kJ/mol
# GULP energy per Si atom -5577.259319 kJ/mol
# Density = 2.315702 g / cm^3
# Si number density = 23.209848 Si / 1000 Ang^3
#
#
#
# Elastic Constant Matrix: (Units=GPa)
#
#
# Indices 1 2 3 4 5 6 
#
# 1 99.3790 62.5243 24.8967 30.8448 -19.8667 -39.2545
# 2 62.5243 70.2114 32.3080 23.7232 -14.0759 -35.6906
# 3 24.8967 32.3080 91.0958 25.1356 -8.8768 -18.4833
# 4 30.8448 23.7232 25.1356 49.3464 -14.5048 -8.9270
# 5 -19.8667 -14.0759 -8.8768 -14.5048 43.4390 10.4528
# 6 -39.2545 -35.6906 -18.4833 -8.9270 10.4528 36.3158
#
#
#
# Elastic Compliance Matrix: (Units=1/GPa)
#
#
# Indices 1 2 3 4 5 6 
#
# 1 0.027502 -0.016413 0.003310 -0.008047 0.002200 0.012670
# 2 -0.016413 0.043583 -0.005519 -0.004319 -0.001139 0.021549
# 3 0.003310 -0.005519 0.014540 -0.006180 -0.000363 0.004140
# 4 -0.008047 -0.004319 -0.006180 0.030501 0.006349 -0.010418
# 5 0.002200 -0.001139 -0.000363 0.006349 0.026935 -0.005118
# 6 0.012670 0.021549 0.004140 -0.010418 -0.005118 0.063429
#
#
# Mechanical properties :
#
#
# Convention : Reuss Voigt Hill
#
# Bulk Modulus (GPa) = 20.66898 55.57157 38.12027
# Shear Modulus (GPa) = 19.24115 35.21738 27.22926
#
# Velocity S-wave (km/s) = 2.88237 3.89954 3.42888
# Velocity P-wave (km/s) = 4.47236 6.65359 5.66888
#
# Compressibility (1/GPa) = 0.04838167
#
# Stress axis : x y z
#
# Youngs Moduli (GPa) = 36.36152 22.94451 68.77659
#
# Poissons Ratio (x) = 0.37660 -0.22768
# Poissons Ratio (y) = 0.59682 0.37954
# Poissons Ratio (z) = -0.12037 0.12662
#
# Static dielectric constant tensor:
#      x y z
#    x 1.898240 -0.101540 -0.083590 
#    y -0.101540 1.955160 0.072930 
#    z -0.083590 0.072930 2.001820 
# 
# From -- ./inp_files/542244.got.cif
#   From: 2010.05.17/outbox.cif.g08.bks.cpg/sg2_272_cif.got.tgz:542244.got - 2010.06.03 11:33:40.
