data_PCOD9021523
_publ_section_title
;
Structure prediction by ZEFSAII (Michael W. Deem and Ramdas Pophale) SiO2 
 PCOD9021523
Probable space group: P -1
;
_chemical_formula_sum "Si O2"
_cell_formula_units_Z 15
_cell_length_a 7.865099
_cell_length_b 20.609589
_cell_length_c 7.968104
_cell_angle_alpha 145.064780
_cell_angle_beta 102.919258
_cell_angle_gamma 69.464295
_cell_volume 687.683921
_symmetry_space_group_name_H-M "P -1"
_symmetry_group_IT_number 2
_symmetry_cell_setting 'triclinic'
loop_
_space_group_symop_operation_xyz
x,y,z
-x,-y,-z
loop_
_atom_site_type_symbol
_atom_site_label
_atom_site_fract_x
_atom_site_fract_y
_atom_site_fract_z
Si Si1 0.996757 0.253426 0.354128
Si Si2 0.547425 0.637836 0.415369
Si Si3 0.318665 0.869051 0.989354
Si Si4 0.000000 0.500000 0.000000
Si Si5 0.401856 0.448806 0.118555
Si Si6 0.113699 0.378719 0.356127
Si Si7 0.560144 0.758982 0.105764
Si Si8 0.340258 0.086503 0.257056
O O1 0.003228 0.306048 0.279878
O O2 0.185685 0.159892 0.252975
O O3 0.846379 0.185836 0.184808
O O4 0.974648 0.365060 0.709908
O O5 0.481253 0.777232 0.725004
O O6 0.507287 0.610023 0.160075
O O7 0.765144 0.587463 0.393416
O O8 0.446345 0.573167 0.384739
O O9 0.402617 0.848737 0.151500
O O10 0.273128 0.000034 0.184648
O O11 0.810931 0.541668 0.927918
O O12 0.485911 0.359598 0.096541
O O13 0.000000 0.500000 0.500000
O O14 0.258989 0.293773 0.081874
O O15 0.596880 0.824437 0.418545
O O16 0.500000 0.000000 0.000000
#
# Coordination Sequence:
#
# PCOD9021523 Si02
#       8
#     2   2   2   1   2   2   2   2
#     4  12  25  45  67 100 135 180 227 277 337 405
#     4  10  22  38  62  94 133 171 230 262 344 397
#     4  11  25  42  66  98 134 176 223 287 331 402
#     4  12  20  40  70  96 134 172 226 276 332 396
#     4  11  21  38  64  97 130 179 217 283 329 412
#     4  11  24  39  64  99 138 175 211 278 349 405
#     4  11  24  43  67  97 134 174 227 280 351 389
#     4  12  25  48  73  93 131 184 234 274 329 408
#
# _framework density 21.812346999999999
#
# number of rings (size 3 to 8) (size 9 to 14) (size 15 to 20)
#    0.000    0.800    4.000    4.000    1.867    1.067 
#    0.000    4.000    0.000    0.000    0.000    0.000 
#    0.000    0.000    0.000    0.000    0.000    0.000 
#
# Total GULP energy -83589.146319 kJ/mol
# GULP energy per Si atom -5572.609755 kJ/mol
# Density = 2.176270 g / cm^3
# Si number density = 21.812347 Si / 1000 Ang^3
#
#
#
# Elastic Constant Matrix: (Units=GPa)
#
#
# Indices 1 2 3 4 5 6 
#
# 1 65.1123 29.1675 7.3463 11.8046 20.8502 -1.7262
# 2 29.1675 116.6016 30.1253 18.4693 -2.5829 3.0073
# 3 7.3463 30.1253 73.4900 12.5201 -1.5622 0.1542
# 4 11.8046 18.4693 12.5201 40.1334 8.3056 2.6342
# 5 20.8502 -2.5829 -1.5622 8.3056 32.4109 7.6007
# 6 -1.7262 3.0073 0.1542 2.6342 7.6007 37.9979
#
#
#
# Elastic Compliance Matrix: (Units=1/GPa)
#
#
# Indices 1 2 3 4 5 6 
#
# 1 0.023873 -0.006320 0.000002 -0.000969 -0.016788 0.005010
# 2 -0.006320 0.011827 -0.003453 -0.003665 0.006300 -0.002215
# 3 0.000002 -0.003453 0.015663 -0.003590 0.001354 0.000188
# 4 -0.000969 -0.003665 -0.003590 0.029548 -0.007339 -0.000320
# 5 -0.016788 0.006300 0.001354 -0.007339 0.046459 -0.010051
# 6 0.005010 -0.002215 0.000188 -0.000320 -0.010051 0.028752
#
#
# Mechanical properties :
#
#
# Convention : Reuss Voigt Hill
#
# Bulk Modulus (GPa) = 31.42703 43.16469 37.29586
# Shear Modulus (GPa) = 26.84262 34.67943 30.76102
#
# Velocity S-wave (km/s) = 3.51182 3.99168 3.75941
# Velocity P-wave (km/s) = 5.55725 6.40911 5.99832
#
# Compressibility (1/GPa) = 0.03181975
#
# Stress axis : x y z
#
# Youngs Moduli (GPa) = 41.88792 84.55577 63.84585
#
# Poissons Ratio (x) = 0.53439 -0.00012
# Poissons Ratio (y) = 0.26473 0.22048
# Poissons Ratio (z) = -0.00008 0.29199
#
# Static dielectric constant tensor:
#      x y z
#    x 2.063690 0.127850 -0.240480 
#    y 0.127850 1.932420 -0.123830 
#    z -0.240480 -0.123830 2.000250 
# 
# From -- ./inp_files/195624.got.cif
#   From: 2010.05.17/outbox.cif.g08.bks.cpg/sg2_98_cif.got.tgz:195624.got - 2010.06.03 11:33:40.
