data_PCOD9021037
_publ_section_title
;
Structure prediction by ZEFSAII (Michael W. Deem and Ramdas Pophale) SiO2 
 PCOD9021037
Probable space group: P -1
;
_chemical_formula_sum "Si O2"
_cell_formula_units_Z 16
_cell_length_a 11.609164
_cell_length_b 8.832622
_cell_length_c 11.106214
_cell_angle_alpha 75.567882
_cell_angle_beta 133.484035
_cell_angle_gamma 124.721616
_cell_volume 659.415208
_symmetry_space_group_name_H-M "P -1"
_symmetry_group_IT_number 2
_symmetry_cell_setting 'triclinic'
loop_
_space_group_symop_operation_xyz
x,y,z
-x,-y,-z
loop_
_atom_site_type_symbol
_atom_site_label
_atom_site_fract_x
_atom_site_fract_y
_atom_site_fract_z
Si Si1 0.193740 0.262423 0.236693
Si Si2 0.857735 0.272915 0.906074
Si Si3 0.791978 0.960297 0.362473
Si Si4 0.830344 0.916496 0.137964
Si Si5 0.397848 0.111350 0.264405
Si Si6 0.683576 0.520823 0.068938
Si Si7 0.785797 0.313963 0.362841
Si Si8 0.410305 0.640758 0.227673
O O1 0.326121 0.201977 0.288132
O O2 0.322763 0.489470 0.303884
O O3 0.041709 0.112227 0.253302
O O4 0.024968 0.235429 0.031536
O O5 0.685032 0.241060 0.874192
O O6 0.706739 0.112367 0.731899
O O7 0.000000 0.500000 0.000000
O O8 0.724190 0.906420 0.185566
O O9 0.799658 0.141421 0.373341
O O10 0.636987 0.783981 0.366552
O O11 0.000000 0.000000 0.500000
O O12 0.848906 0.740234 0.172871
O O13 0.707267 0.905122 0.936477
O O14 0.624097 0.240610 0.367044
O O15 0.717051 0.377264 0.186791
O O16 0.500000 0.500000 0.000000
O O17 0.644271 0.480325 0.908643
O O18 0.000000 0.500000 0.500000
#
# Coordination Sequence:
#
# PCOD9021037 Si02
#       8
#     2   2   2   2   2   2   2   2
#     4  10  22  37  65 100 135 171 205 275 341 400
#     4   9  19  32  55  95 128 157 205 264 326 384
#     4  12  27  44  67  92 135 180 229 284 331 396
#     4  11  22  40  66 102 132 170 222 268 340 396
#     4  11  20  39  67  97 133 168 213 274 328 401
#     4  12  22  38  66  99 134 171 219 281 332 395
#     4  12  27  43  67  96 134 181 231 275 337 394
#     4  11  21  39  66  97 131 168 222 277 339 388
#
# _framework density 24.263925
#
# number of rings (size 3 to 8) (size 9 to 14) (size 15 to 20)
#    0.000    1.000    5.000    2.250    7.000    1.000 
#    0.000    0.625    0.000    1.500    0.000    0.000 
#    0.000    0.000    0.000    0.000    0.000    0.000 
#
# Total GULP energy -89071.472312 kJ/mol
# GULP energy per Si atom -5566.967020 kJ/mol
# Density = 2.420870 g / cm^3
# Si number density = 24.263925 Si / 1000 Ang^3
#
#
#
# Elastic Constant Matrix: (Units=GPa)
#
#
# Indices 1 2 3 4 5 6 
#
# 1 82.8059 22.3630 24.3705 6.5458 37.9321 -11.9853
# 2 22.3630 145.5477 23.0207 33.2873 25.5883 4.4933
# 3 24.3705 23.0207 85.0736 19.9082 30.4350 12.4760
# 4 6.5458 33.2873 19.9082 33.9256 7.7894 11.9902
# 5 37.9321 25.5883 30.4350 7.7894 45.0552 5.9730
# 6 -11.9853 4.4933 12.4760 11.9902 5.9730 44.8490
#
#
#
# Elastic Compliance Matrix: (Units=1/GPa)
#
#
# Indices 1 2 3 4 5 6 
#
# 1 0.022921 0.000617 -0.000023 -0.003821 -0.020269 0.009791
# 2 0.000617 0.009737 0.001094 -0.009872 -0.005379 0.002240
# 3 -0.000023 0.001094 0.017477 -0.008390 -0.010785 -0.001298
# 4 -0.003821 -0.009872 -0.008390 0.047017 0.007862 -0.011315
# 5 -0.020269 -0.005379 -0.010785 0.007862 0.049645 -0.010591
# 6 0.009791 0.002240 -0.001298 -0.011315 -0.010591 0.029486
#
#
# Mechanical properties :
#
#
# Convention : Reuss Voigt Hill
#
# Bulk Modulus (GPa) = 18.68790 50.32621 34.50706
# Shear Modulus (GPa) = 26.21327 41.01082 33.61205
#
# Velocity S-wave (km/s) = 3.29042 4.11566 3.72596
# Velocity P-wave (km/s) = 4.70685 6.58567 5.72388
#
# Compressibility (1/GPa) = 0.05351055
#
# Stress axis : x y z
#
# Youngs Moduli (GPa) = 43.62856 102.70203 57.21730
#
# Poissons Ratio (x) = -0.06336 0.00134
# Poissons Ratio (y) = -0.02692 -0.06261
# Poissons Ratio (z) = 0.00102 -0.11239
#
# Static dielectric constant tensor:
#      x y z
#    x 1.971870 0.224240 -0.069160 
#    y 0.224240 2.410290 -0.117830 
#    z -0.069160 -0.117830 2.045980 
# 
# From -- ./inp_files/514338.got.cif
#   From: 2010.05.17/outbox.cif.g08.bks.cpg/sg2_258_cif.got.tgz:514338.got - 2010.06.03 11:33:40.
