data_PCOD9021998
_publ_section_title
;
Structure prediction by ZEFSAII (Michael W. Deem and Ramdas Pophale) SiO2 
 PCOD9021998
Probable space group: P -1
;
_chemical_formula_sum "Si O2"
_cell_formula_units_Z 13
_cell_length_a 12.213990
_cell_length_b 8.340689
_cell_length_c 9.466941
_cell_angle_alpha 74.447365
_cell_angle_beta 36.153265
_cell_angle_gamma 74.052872
_cell_volume 545.240987
_symmetry_space_group_name_H-M "P -1"
_symmetry_group_IT_number 2
_symmetry_cell_setting 'triclinic'
loop_
_space_group_symop_operation_xyz
x,y,z
-x,-y,-z
loop_
_atom_site_type_symbol
_atom_site_label
_atom_site_fract_x
_atom_site_fract_y
_atom_site_fract_z
Si Si1 0.794356 0.439470 0.209794
Si Si2 0.379998 0.201065 0.628917
Si Si3 0.267969 0.795221 0.911533
Si Si4 0.000000 0.500000 0.500000
Si Si5 0.614748 0.156084 0.642643
Si Si6 0.635518 0.335799 0.864333
Si Si7 0.869547 0.840546 0.371219
O O1 0.652694 0.598056 0.362116
O O2 0.740979 0.285024 0.398148
O O3 0.776609 0.376879 0.080764
O O4 0.000000 0.500000 0.000000
O O5 0.422402 0.143468 0.759242
O O6 0.224406 0.176533 0.680450
O O7 0.578440 0.142423 0.363635
O O8 0.361971 0.765383 0.970133
O O9 0.071823 0.901192 0.112403
O O10 0.156117 0.610546 0.378973
O O11 0.088332 0.331725 0.544611
O O12 0.575667 0.236169 0.816428
O O13 0.737853 0.978995 0.559414
O O14 0.500000 0.500000 0.000000
#
# Coordination Sequence:
#
# PCOD9021998 Si02
#       7
#     2   2   2   1   2   2   2
#     4  11  21  40  67  97 128 178 228 276 336 404
#     4  11  22  44  68  98 135 177 227 278 346 404
#     4  10  22  38  68  92 130 179 218 282 332 405
#     4  10  24  40  70  90 132 184 218 274 338 404
#     4  11  25  41  68 101 142 173 226 291 329 408
#     4  11  22  43  66  95 132 177 227 274 342 405
#     4  11  23  44  64 101 137 178 231 278 344 396
#
# _framework density 23.842669999999998
#
# number of rings (size 3 to 8) (size 9 to 14) (size 15 to 20)
#    0.000    1.231    1.538    6.000    2.154    4.923 
#    2.769    3.077    0.000    0.000    0.000    0.000 
#    0.000    0.000    0.000    0.000    0.000    0.000 
#
# Total GULP energy -72398.429675 kJ/mol
# GULP energy per Si atom -5569.109975 kJ/mol
# Density = 2.378840 g / cm^3
# Si number density = 23.842670 Si / 1000 Ang^3
#
#
#
# Elastic Constant Matrix: (Units=GPa)
#
#
# Indices 1 2 3 4 5 6 
#
# 1 217.3808 64.9847 53.0833 21.5718 19.4023 -4.0724
# 2 64.9847 139.4053 38.9693 4.8841 14.3140 -17.8409
# 3 53.0833 38.9693 56.4388 16.0528 9.4106 1.5050
# 4 21.5718 4.8841 16.0528 39.4959 8.6419 2.1288
# 5 19.4023 14.3140 9.4106 8.6419 48.1797 9.6257
# 6 -4.0724 -17.8409 1.5050 2.1288 9.6257 40.0641
#
#
#
# Elastic Compliance Matrix: (Units=1/GPa)
#
#
# Indices 1 2 3 4 5 6 
#
# 1 0.006364 -0.001516 -0.004401 -0.001281 -0.001118 0.000474
# 2 -0.001516 0.010481 -0.006159 0.002359 -0.002780 0.005287
# 3 -0.004401 -0.006159 0.028520 -0.008281 0.000294 -0.003892
# 4 -0.001281 0.002359 -0.008281 0.029948 -0.004062 0.000616
# 5 -0.001118 -0.002780 0.000294 -0.004062 0.024088 -0.006934
# 6 0.000474 0.005287 -0.003892 0.000616 -0.006934 0.029142
#
#
# Mechanical properties :
#
#
# Convention : Reuss Voigt Hill
#
# Bulk Modulus (GPa) = 47.14059 80.81106 63.97583
# Shear Modulus (GPa) = 31.29556 42.62712 36.96134
#
# Velocity S-wave (km/s) = 3.62689 4.23288 3.94155
# Velocity P-wave (km/s) = 6.11176 7.60637 6.89965
#
# Compressibility (1/GPa) = 0.02121314
#
# Stress axis : x y z
#
# Youngs Moduli (GPa) = 157.13929 95.40793 35.06274
#
# Poissons Ratio (x) = 0.14465 0.15430
# Poissons Ratio (y) = 0.23825 0.21597
# Poissons Ratio (z) = 0.69151 0.58765
#
# Static dielectric constant tensor:
#      x y z
#    x 1.881480 0.002000 -0.027850 
#    y 0.002000 2.138710 0.014450 
#    z -0.027850 0.014450 1.992610 
# 
# From -- ./inp_files/238114.got.cif
#   From: 2010.05.17/outbox.cif.g08.bks.cpg/sg2_120_cif.got.tgz:238114.got - 2010.06.03 11:33:40.
