data_PCOD9021463
_publ_section_title
;
Structure prediction by ZEFSAII (Michael W. Deem and Ramdas Pophale) SiO2 
 PCOD9021463
Probable space group: P -1
;
_chemical_formula_sum "Si O2"
_cell_formula_units_Z 14
_cell_length_a 8.184813
_cell_length_b 14.489346
_cell_length_c 6.123375
_cell_angle_alpha 109.619735
_cell_angle_beta 57.771417
_cell_angle_gamma 95.098640
_cell_volume 574.916823
_symmetry_space_group_name_H-M "P -1"
_symmetry_group_IT_number 2
_symmetry_cell_setting 'triclinic'
loop_
_space_group_symop_operation_xyz
x,y,z
-x,-y,-z
loop_
_atom_site_type_symbol
_atom_site_label
_atom_site_fract_x
_atom_site_fract_y
_atom_site_fract_z
Si Si1 0.998698 0.243429 0.025902
Si Si2 0.353360 0.282763 0.080637
Si Si3 0.124087 0.598348 0.116694
Si Si4 0.338081 0.674409 0.408680
Si Si5 0.745088 0.522080 0.448844
Si Si6 0.476921 0.927753 0.158418
Si Si7 0.167144 0.032330 0.748561
O O1 0.135843 0.265506 0.150569
O O2 0.782091 0.248606 0.284734
O O3 0.078798 0.136915 0.792838
O O4 0.990398 0.330596 0.924841
O O5 0.356726 0.374764 0.311850
O O6 0.451622 0.302117 0.792019
O O7 0.471306 0.186641 0.024588
O O8 0.231876 0.668203 0.247551
O O9 0.972846 0.539526 0.307885
O O10 0.268834 0.517608 0.819615
O O11 0.316595 0.566972 0.435600
O O12 0.648710 0.945599 0.219385
O O13 0.265695 0.954505 0.441032
O O14 0.500000 0.000000 0.000000
O O15 0.000000 0.000000 0.000000
#
# Coordination Sequence:
#
# PCOD9021463 Si02
#       7
#     2   2   2   2   2   2   2
#     4  10  23  40  62  88 121 159 195 245 304 351
#     4  11  23  41  62  85 125 158 195 249 302 348
#     4  10  22  38  62  86 120 156 204 241 291 358
#     4  11  22  41  59  90 121 157 202 244 288 358
#     4  10  22  39  58  87 122 160 195 246 296 347
#     4  10  24  42  62  94 123 156 205 255 302 363
#     4  10  22  42  65  90 123 160 201 253 308 360
#
# _framework density 24.351351000000001
#
# number of rings (size 3 to 8) (size 9 to 14) (size 15 to 20)
#    0.000    1.714    1.429    1.714    6.000    2.286 
#    5.143    0.000    0.000    0.000    0.000    0.000 
#    0.000    0.000    0.000    0.000    0.000    0.000 
#
# Total GULP energy -78319.976923 kJ/mol
# GULP energy per Si atom -5594.284066 kJ/mol
# Density = 2.429593 g / cm^3
# Si number density = 24.351351 Si / 1000 Ang^3
#
#
#
# Elastic Constant Matrix: (Units=GPa)
#
#
# Indices 1 2 3 4 5 6 
#
# 1 46.9363 11.5805 25.3095 9.4270 -15.9561 -2.7587
# 2 11.5805 136.5418 60.5896 8.0869 -23.9476 -32.3779
# 3 25.3095 60.5896 124.5621 9.1360 -40.1238 -23.5874
# 4 9.4270 8.0869 9.1360 43.2611 2.1007 -13.5141
# 5 -15.9561 -23.9476 -40.1238 2.1007 30.3436 -3.7315
# 6 -2.7587 -32.3779 -23.5874 -13.5141 -3.7315 30.7218
#
#
#
# Elastic Compliance Matrix: (Units=1/GPa)
#
#
# Indices 1 2 3 4 5 6 
#
# 1 0.028150 0.001962 0.000264 -0.006081 0.017645 0.004267
# 2 0.001962 0.013454 0.001348 0.001641 0.015533 0.018000
# 3 0.000264 0.001348 0.022549 0.000497 0.033824 0.023084
# 4 -0.006081 0.001641 0.000497 0.028442 -0.001505 0.013894
# 5 0.017645 0.015533 0.033824 -0.001505 0.106230 0.056164
# 6 0.004267 0.018000 0.023084 0.013894 0.056164 0.082560
#
#
# Mechanical properties :
#
#
# Convention : Reuss Voigt Hill
#
# Bulk Modulus (GPa) = 14.02500 55.88882 34.95691
# Shear Modulus (GPa) = 16.77834 34.90266 25.84050
#
# Velocity S-wave (km/s) = 2.62775 3.78999 3.26107
# Velocity P-wave (km/s) = 3.87023 6.49253 5.34470
#
# Compressibility (1/GPa) = 0.07130124
#
# Stress axis : x y z
#
# Youngs Moduli (GPa) = 35.52421 74.32569 44.34866
#
# Poissons Ratio (x) = -0.14584 -0.01169
# Poissons Ratio (y) = -0.06970 -0.05980
# Poissons Ratio (z) = -0.00937 -0.10022
#
# Static dielectric constant tensor:
#      x y z
#    x 1.954110 -0.022150 -0.023890 
#    y -0.022150 1.923020 0.012380 
#    z -0.023890 0.012380 1.953420 
# 
# From -- ./inp_files/39597.got.cif
#   From: 2010.05.17/outbox.cif.g08.bks.cpg/sg2_20_cif.got.tgz:39597.got - 2010.06.03 11:33:40.
