data_PCOD9021808
_publ_section_title
;
Structure prediction by ZEFSAII (Michael W. Deem and Ramdas Pophale) SiO2 
 PCOD9021808
Probable space group: P -1
;
_chemical_formula_sum "Si O2"
_cell_formula_units_Z 10
_cell_length_a 12.522670
_cell_length_b 9.753240
_cell_length_c 5.768520
_cell_angle_alpha 75.274618
_cell_angle_beta 41.033919
_cell_angle_gamma 59.878039
_cell_volume 390.365038
_symmetry_space_group_name_H-M "P -1"
_symmetry_group_IT_number 2
_symmetry_cell_setting 'triclinic'
loop_
_space_group_symop_operation_xyz
x,y,z
-x,-y,-z
loop_
_atom_site_type_symbol
_atom_site_label
_atom_site_fract_x
_atom_site_fract_y
_atom_site_fract_z
Si Si1 0.702181 0.842557 0.741340
Si Si2 0.832865 0.493405 0.650708
Si Si3 0.683477 0.270176 0.212188
Si Si4 0.656421 0.458563 0.566811
Si Si5 0.723517 0.936319 0.167207
O O1 0.679946 0.683153 0.837976
O O2 0.792994 0.845741 0.341867
O O3 0.500000 0.000000 0.000000
O O4 0.791232 0.850611 0.841200
O O5 0.832339 0.457177 0.395318
O O6 0.000000 0.500000 0.500000
O O7 0.788548 0.362670 0.897653
O O8 0.707823 0.289225 0.436051
O O9 0.462670 0.387975 0.470490
O O10 0.747369 0.095238 0.082259
O O11 0.500000 0.500000 0.000000
O O12 0.500000 0.000000 0.500000
#
# Coordination Sequence:
#
# PCOD9021808 Si02
#       5
#     2   2   2   2   2
#     4  10  23  40  65  96 132 171 225 278 334 392
#     4  11  25  43  65  97 137 181 222 275 339 407
#     4  10  22  38  68  97 127 179 230 277 326 404
#     4   9  20  35  65  94 129 161 237 272 329 384
#     4  10  22  38  65  97 132 166 220 285 341 385
#
# _framework density 25.617049999999999
#
# number of rings (size 3 to 8) (size 9 to 14) (size 15 to 20)
#    0.000    2.000    0.000    2.400   25.200    0.800 
#    0.000    2.000    0.000    0.000    0.000    0.000 
#    0.000    0.000    0.000    0.000    0.000    0.000 
#
# Total GULP energy -55813.187720 kJ/mol
# GULP energy per Si atom -5581.318772 kJ/mol
# Density = 2.555874 g / cm^3
# Si number density = 25.617050 Si / 1000 Ang^3
#
#
#
# Elastic Constant Matrix: (Units=GPa)
#
#
# Indices 1 2 3 4 5 6 
#
# 1 194.5225 42.4494 57.5203 -6.3005 31.7388 44.8970
# 2 42.4494 150.1618 57.4297 -24.4154 16.5240 52.3891
# 3 57.5203 57.4297 76.3457 -12.1610 26.0410 8.5215
# 4 -6.3005 -24.4154 -12.1610 41.6586 7.0422 2.0760
# 5 31.7388 16.5240 26.0410 7.0422 57.4342 9.3847
# 6 44.8970 52.3891 8.5215 2.0760 9.3847 50.5186
#
#
#
# Elastic Compliance Matrix: (Units=1/GPa)
#
#
# Indices 1 2 3 4 5 6 
#
# 1 0.010302 0.006663 -0.010302 0.003339 -0.001016 -0.014277
# 2 0.006663 0.022386 -0.017588 0.010162 0.000979 -0.026770
# 3 -0.010302 -0.017588 0.034050 -0.001686 -0.008279 0.023259
# 4 0.003339 0.010162 -0.001686 0.031605 -0.005680 -0.013466
# 5 -0.001016 0.000979 -0.008279 -0.005680 0.022578 -0.002678
# 6 -0.014277 -0.026770 0.023259 -0.013466 -0.002678 0.057372
#
#
# Mechanical properties :
#
#
# Convention : Reuss Voigt Hill
#
# Bulk Modulus (GPa) = 41.17760 81.75877 61.46818
# Shear Modulus (GPa) = 21.84925 47.49765 34.67345
#
# Velocity S-wave (km/s) = 2.92364 4.31065 3.68303
# Velocity P-wave (km/s) = 5.24463 7.53396 6.49102
#
# Compressibility (1/GPa) = 0.02428505
#
# Stress axis : x y z
#
# Youngs Moduli (GPa) = 97.06749 44.66985 29.36891
#
# Poissons Ratio (x) = -0.29766 0.30257
# Poissons Ratio (y) = -0.64681 0.51653
# Poissons Ratio (z) = 1.00004 0.78563
#
# Static dielectric constant tensor:
#      x y z
#    x 2.204510 -0.072830 0.094820 
#    y -0.072830 1.972310 -0.024040 
#    z 0.094820 -0.024040 2.277800 
# 
# From -- ./inp_files/15549.got.cif
#   From: 2010.05.17/outbox.cif.g08.bks.cpg/sg2_8_cif.got.tgz:15549.got - 2010.06.03 11:33:40.
