data_PCOD9021005
_publ_section_title
;
Structure prediction by ZEFSAII (Michael W. Deem and Ramdas Pophale) SiO2 
 PCOD9021005
Probable space group: P -1
;
_chemical_formula_sum "Si O2"
_cell_formula_units_Z 16
_cell_length_a 12.835481
_cell_length_b 5.118104
_cell_length_c 16.815682
_cell_angle_alpha 111.465692
_cell_angle_beta 40.750361
_cell_angle_gamma 111.123657
_cell_volume 664.760195
_symmetry_space_group_name_H-M "P -1"
_symmetry_group_IT_number 2
_symmetry_cell_setting 'triclinic'
loop_
_space_group_symop_operation_xyz
x,y,z
-x,-y,-z
loop_
_atom_site_type_symbol
_atom_site_label
_atom_site_fract_x
_atom_site_fract_y
_atom_site_fract_z
Si Si1 0.858948 0.155724 0.823445
Si Si2 0.399275 0.592880 0.396384
Si Si3 0.287465 0.578379 0.735170
Si Si4 0.566422 0.635894 0.143065
Si Si5 0.052315 0.432343 0.615130
Si Si6 0.274048 0.479365 0.183742
Si Si7 0.224870 0.794917 0.956834
Si Si8 0.240133 0.932042 0.648534
O O1 0.756517 0.385716 0.868969
O O2 0.009015 0.189186 0.679140
O O3 0.749334 0.856603 0.845488
O O4 0.897555 0.212840 0.899842
O O5 0.528087 0.413086 0.340651
O O6 0.468496 0.709948 0.286099
O O7 0.219510 0.419660 0.473216
O O8 0.372962 0.840042 0.500860
O O9 0.186884 0.626036 0.878280
O O10 0.265503 0.810324 0.707927
O O11 0.247322 0.265929 0.686755
O O12 0.440159 0.598431 0.140582
O O13 0.631944 0.348912 0.100356
O O14 0.710084 0.885605 0.070543
O O15 0.084783 0.725606 0.680695
O O16 0.884339 0.440770 0.667963
#
# Coordination Sequence:
#
# PCOD9021005 Si02
#       8
#     2   2   2   2   2   2   2   2
#     4  10  22  43  59  87 121 163 196 245 294 345
#     4   9  21  40  62  90 126 150 195 252 292 360
#     4  11  21  39  60  95 112 159 195 248 303 344
#     4  11  23  40  61  97 114 160 192 253 302 340
#     4   8  23  39  61  88 120 163 194 243 285 365
#     4  10  22  40  63  87 122 156 208 228 302 360
#     4  11  24  40  63  87 129 143 206 256 291 347
#     4  10  22  37  64  86 123 154 199 238 302 354
#
# _framework density 24.068830999999999
#
# number of rings (size 3 to 8) (size 9 to 14) (size 15 to 20)
#    1.500    0.500    0.000    3.750    1.750    5.500 
#    6.750    1.875    0.000    0.000    0.000    0.000 
#    0.000    0.000    0.000    0.000    0.000    0.000 
#
# Total GULP energy -89350.163328 kJ/mol
# GULP energy per Si atom -5584.385208 kJ/mol
# Density = 2.401405 g / cm^3
# Si number density = 24.068831 Si / 1000 Ang^3
#
#
#
# Elastic Constant Matrix: (Units=GPa)
#
#
# Indices 1 2 3 4 5 6 
#
# 1 47.6962 -0.8884 1.6329 -7.8985 -2.5109 -1.7312
# 2 -0.8884 78.8073 -4.7455 -4.4603 2.6869 -21.6796
# 3 1.6329 -4.7455 77.7993 -16.9273 4.4974 -9.1981
# 4 -7.8985 -4.4603 -16.9273 22.3250 -1.5048 4.7690
# 5 -2.5109 2.6869 4.4974 -1.5048 33.1781 -9.1535
# 6 -1.7312 -21.6796 -9.1981 4.7690 -9.1535 23.4372
#
#
#
# Elastic Compliance Matrix: (Units=1/GPa)
#
#
# Indices 1 2 3 4 5 6 
#
# 1 0.022720 0.001645 0.001857 0.009298 0.002598 0.003051
# 2 0.001645 0.018321 0.003877 0.003297 0.003596 0.019324
# 3 0.001857 0.003877 0.016662 0.012407 0.000298 0.007854
# 4 0.009298 0.003297 0.012407 0.058860 0.000554 -0.003155
# 5 0.002598 0.003596 0.000298 0.000554 0.034746 0.017093
# 6 0.003051 0.019324 0.007854 -0.003155 0.017093 0.071168
#
#
# Mechanical properties :
#
#
# Convention : Reuss Voigt Hill
#
# Bulk Modulus (GPa) = 13.80028 21.81121 17.80575
# Shear Modulus (GPa) = 21.56352 29.67498 25.61925
#
# Velocity S-wave (km/s) = 2.99642 3.51511 3.26608
# Velocity P-wave (km/s) = 4.20922 5.05533 4.65155
#
# Compressibility (1/GPa) = 0.07246228
#
# Stress axis : x y z
#
# Youngs Moduli (GPa) = 44.01319 54.58176 60.01665
#
# Poissons Ratio (x) = -0.08979 -0.11146
# Poissons Ratio (y) = -0.07241 -0.23269
# Poissons Ratio (z) = -0.08174 -0.21161
#
# Static dielectric constant tensor:
#      x y z
#    x 1.937440 0.016760 -0.059480 
#    y 0.016760 1.871230 0.015310 
#    z -0.059480 0.015310 2.012580 
# 
# From -- ./inp_files/571572.got.cif
#   From: 2010.05.17/outbox.cif.g08.bks.cpg/sg2_286_cif.got.tgz:571572.got - 2010.06.03 11:33:40.
