data_PCOD9021716
_publ_section_title
;
Structure prediction by ZEFSAII (Michael W. Deem and Ramdas Pophale) SiO2 
 PCOD9021716
Probable space group: P -1
;
_chemical_formula_sum "Si O2"
_cell_formula_units_Z 16
_cell_length_a 12.883105
_cell_length_b 7.704832
_cell_length_c 16.603367
_cell_angle_alpha 65.476224
_cell_angle_beta 143.311807
_cell_angle_gamma 136.019722
_cell_volume 629.510537
_symmetry_space_group_name_H-M "P -1"
_symmetry_group_IT_number 2
_symmetry_cell_setting 'triclinic'
loop_
_space_group_symop_operation_xyz
x,y,z
-x,-y,-z
loop_
_atom_site_type_symbol
_atom_site_label
_atom_site_fract_x
_atom_site_fract_y
_atom_site_fract_z
Si Si1 0.574533 0.562278 0.129432
Si Si2 0.817834 0.070208 0.710508
Si Si3 0.610315 0.792711 0.330974
Si Si4 0.559329 0.016101 0.405434
Si Si5 0.704842 0.197178 0.958245
Si Si6 0.154217 0.374052 0.567443
Si Si7 0.707395 0.315305 0.104015
Si Si8 0.914268 0.034534 0.021602
O O1 0.805324 0.678103 0.305694
O O2 0.500000 0.500000 0.000000
O O3 0.508280 0.732005 0.066745
O O4 0.361783 0.265328 0.089411
O O5 0.641970 0.971273 0.545840
O O6 0.068793 0.380620 0.787442
O O7 0.907659 0.926932 0.809326
O O8 0.687724 0.060371 0.709969
O O9 0.376713 0.664604 0.154878
O O10 0.676102 0.624338 0.386807
O O11 0.535376 0.833173 0.359950
O O12 0.874462 0.106678 0.418993
O O13 0.755428 0.336531 0.440168
O O14 0.439665 0.888340 0.873815
O O15 0.818424 0.290059 0.100763
O O16 0.859864 0.203200 0.987663
O O17 0.000000 0.000000 0.000000
#
# Coordination Sequence:
#
# PCOD9021716 Si02
#       8
#     2   2   2   2   2   2   2   2
#     4  11  21  38  64  95 130 171 222 278 325 398
#     4  10  24  45  64  97 125 179 227 270 333 414
#     4  11  24  40  66 100 132 175 225 272 337 401
#     4  11  24  46  67  89 140 179 221 276 337 398
#     4  11  21  41  64  99 135 169 217 291 332 399
#     4  11  24  42  67 100 134 176 225 278 330 405
#     4  10  22  38  64  96 130 168 220 278 339 387
#     4  11  23  40  68  98 130 173 223 271 350 396
#
# _framework density 25.41657
#
# number of rings (size 3 to 8) (size 9 to 14) (size 15 to 20)
#    0.000    1.250    2.500    3.375    3.500    0.000 
#    9.000    3.125    0.000    0.000    0.000    0.000 
#    0.000    0.000    0.000    0.000    0.000    0.000 
#
# Total GULP energy -89212.490227 kJ/mol
# GULP energy per Si atom -5575.780639 kJ/mol
# Density = 2.535872 g / cm^3
# Si number density = 25.416570 Si / 1000 Ang^3
#
#
#
# Elastic Constant Matrix: (Units=GPa)
#
#
# Indices 1 2 3 4 5 6 
#
# 1 170.3535 3.7122 34.7748 -4.9394 -18.0863 -18.7798
# 2 3.7122 39.4690 -6.3997 3.3844 -1.5037 -1.7368
# 3 34.7748 -6.3997 100.1142 -16.2050 10.2241 -10.4812
# 4 -4.9394 3.3844 -16.2050 26.5130 2.1845 12.5256
# 5 -18.0863 -1.5037 10.2241 2.1845 38.4830 3.5983
# 6 -18.7798 -1.7368 -10.4812 12.5256 3.5983 31.2331
#
#
#
# Elastic Compliance Matrix: (Units=1/GPa)
#
#
# Indices 1 2 3 4 5 6 
#
# 1 0.007268 -0.000624 -0.002974 -0.002556 0.003961 0.003906
# 2 -0.000624 0.026141 0.001542 -0.004036 0.000250 0.003186
# 3 -0.002974 0.001542 0.012880 0.007439 -0.005204 0.000236
# 4 -0.002556 -0.004036 0.007439 0.051917 -0.004452 -0.019572
# 5 0.003961 0.000250 -0.005204 -0.004452 0.029583 -0.000973
# 6 0.003906 0.003186 0.000236 -0.019572 -0.000973 0.042584
#
#
# Mechanical properties :
#
#
# Convention : Reuss Voigt Hill
#
# Bulk Modulus (GPa) = 23.70843 41.56794 32.63819
# Shear Modulus (GPa) = 26.51926 37.76911 32.14419
#
# Velocity S-wave (km/s) = 3.23365 3.85905 3.56011
# Velocity P-wave (km/s) = 4.82599 6.02051 5.45604
#
# Compressibility (1/GPa) = 0.04217909
#
# Stress axis : x y z
#
# Youngs Moduli (GPa) = 137.59308 38.25423 77.63770
#
# Poissons Ratio (x) = 0.02386 0.23087
# Poissons Ratio (y) = 0.08583 -0.11975
# Poissons Ratio (z) = 0.40915 -0.05900
#
# Static dielectric constant tensor:
#      x y z
#    x 2.133330 -0.243150 -0.044830 
#    y -0.243150 1.088610 -0.374710 
#    z -0.044830 -0.374710 1.860580 
# 
# From -- ./inp_files/389409.got.cif
#   From: 2010.05.17/outbox.cif.g08.bks.cpg/sg2_195_cif.got.tgz:389409.got - 2010.06.03 11:33:40.
