data_PCOD9021315
_publ_section_title
;
Structure prediction by ZEFSAII (Michael W. Deem and Ramdas Pophale) SiO2 
 PCOD9021315
Probable space group: P -1
;
_chemical_formula_sum "Si O2"
_cell_formula_units_Z 16
_cell_length_a 8.847839
_cell_length_b 7.305702
_cell_length_c 11.330815
_cell_angle_alpha 87.381720
_cell_angle_beta 59.663003
_cell_angle_gamma 93.486345
_cell_volume 628.473796
_symmetry_space_group_name_H-M "P -1"
_symmetry_group_IT_number 2
_symmetry_cell_setting 'triclinic'
loop_
_space_group_symop_operation_xyz
x,y,z
-x,-y,-z
loop_
_atom_site_type_symbol
_atom_site_label
_atom_site_fract_x
_atom_site_fract_y
_atom_site_fract_z
Si Si1 0.781417 0.713666 0.293722
Si Si2 0.707241 0.732664 0.949460
Si Si3 0.500882 0.432499 0.363804
Si Si4 0.013836 0.262920 0.578545
Si Si5 0.986723 0.845853 0.666304
Si Si6 0.706033 0.114458 0.274523
Si Si7 0.341693 0.606972 0.191850
Si Si8 0.983399 0.281276 0.993994
O O1 0.689682 0.548617 0.258912
O O2 0.823551 0.648361 0.410822
O O3 0.680448 0.896008 0.313987
O O4 0.969768 0.766485 0.156479
O O5 0.796219 0.847219 0.801510
O O6 0.704174 0.527552 0.898329
O O7 0.854217 0.776395 0.989840
O O8 0.512987 0.739757 0.077943
O O9 0.500000 0.500000 0.500000
O O10 0.532627 0.218517 0.353930
O O11 0.393258 0.494800 0.292183
O O12 0.827354 0.299627 0.702709
O O13 0.020480 0.294481 0.435685
O O14 0.042138 0.049689 0.593572
O O15 0.142199 0.805193 0.695109
O O16 0.801648 0.174488 0.112191
O O17 0.000000 0.500000 0.000000
#
# Coordination Sequence:
#
# PCOD9021315 Si02
#       8
#     2   2   2   2   2   2   2   2
#     4  11  23  41  67  95 122 167 212 259 315 370
#     4  10  22  38  60  88 128 163 204 254 317 370
#     4  12  26  43  63  95 130 168 209 259 320 377
#     4  10  22  40  66  92 123 161 213 258 309 378
#     4   9  21  41  63  93 122 163 211 259 307 373
#     4  10  22  41  66  93 126 164 213 260 308 379
#     4  11  23  41  60  94 127 163 206 257 319 376
#     4  11  18  38  67  94 123 162 213 263 308 374
#
# _framework density 25.458499
#
# number of rings (size 3 to 8) (size 9 to 14) (size 15 to 20)
#    0.000    1.500    2.500    1.875    3.500    2.500 
#    2.250    0.000    0.000    0.000    0.000    0.000 
#    0.000    0.000    0.000    0.000    0.000    0.000 
#
# Total GULP energy -89384.894075 kJ/mol
# GULP energy per Si atom -5586.555880 kJ/mol
# Density = 2.540055 g / cm^3
# Si number density = 25.458499 Si / 1000 Ang^3
#
#
#
# Elastic Constant Matrix: (Units=GPa)
#
#
# Indices 1 2 3 4 5 6 
#
# 1 84.1747 9.4724 5.1112 15.5487 9.0333 -7.6746
# 2 9.4724 60.1363 -17.6740 9.8230 3.1988 -14.8663
# 3 5.1112 -17.6740 76.0523 12.3520 15.8828 -4.2904
# 4 15.5487 9.8230 12.3520 33.1513 1.6641 -8.6253
# 5 9.0333 3.1988 15.8828 1.6641 31.0656 -3.0129
# 6 -7.6746 -14.8663 -4.2904 -8.6253 -3.0129 36.1335
#
#
#
# Elastic Compliance Matrix: (Units=1/GPa)
#
#
# Indices 1 2 3 4 5 6 
#
# 1 0.013508 -0.000428 0.000848 -0.006063 -0.003893 0.001021
# 2 -0.000428 0.022403 0.007887 -0.007051 -0.005065 0.007957
# 3 0.000848 0.007887 0.018493 -0.008406 -0.009792 0.002798
# 4 -0.006063 -0.007051 -0.008406 0.039166 0.005134 0.004590
# 5 -0.003893 -0.005065 -0.009792 0.005134 0.038611 0.000371
# 6 0.001021 0.007957 0.002798 0.004590 0.000371 0.032625
#
#
# Mechanical properties :
#
#
# Convention : Reuss Voigt Hill
#
# Bulk Modulus (GPa) = 14.08129 23.79806 18.93967
# Shear Modulus (GPa) = 29.09283 34.96700 32.02992
#
# Velocity S-wave (km/s) = 3.38413 3.71008 3.55085
# Velocity P-wave (km/s) = 4.56212 5.26508 4.92615
#
# Compressibility (1/GPa) = 0.07101624
#
# Stress axis : x y z
#
# Youngs Moduli (GPa) = 74.03168 44.63772 54.07560
#
# Poissons Ratio (x) = 0.01912 -0.04586
# Poissons Ratio (y) = 0.03171 -0.42649
# Poissons Ratio (z) = -0.06279 -0.35205
#
# Static dielectric constant tensor:
#      x y z
#    x 2.096890 0.096420 -0.077590 
#    y 0.096420 2.060160 -0.124100 
#    z -0.077590 -0.124100 2.232280 
# 
# From -- ./inp_files/379041.got.cif
#   From: 2010.05.17/outbox.cif.g08.bks.cpg/sg2_190_cif.got.tgz:379041.got - 2010.06.03 11:33:40.
