data_PCOD9021573
_publ_section_title
;
Structure prediction by ZEFSAII (Michael W. Deem and Ramdas Pophale) SiO2 
 PCOD9021573
Probable space group: P -1
;
_chemical_formula_sum "Si O2"
_cell_formula_units_Z 16
_cell_length_a 10.415694
_cell_length_b 10.554154
_cell_length_c 9.051869
_cell_angle_alpha 66.016520
_cell_angle_beta 61.513548
_cell_angle_gamma 48.226233
_cell_volume 646.248353
_symmetry_space_group_name_H-M "P -1"
_symmetry_group_IT_number 2
_symmetry_cell_setting 'triclinic'
loop_
_space_group_symop_operation_xyz
x,y,z
-x,-y,-z
loop_
_atom_site_type_symbol
_atom_site_label
_atom_site_fract_x
_atom_site_fract_y
_atom_site_fract_z
Si Si1 0.344565 0.008500 0.812780
Si Si2 0.166365 0.530312 0.233930
Si Si3 0.064889 0.602229 0.565771
Si Si4 0.274276 0.066286 0.344251
Si Si5 0.175403 0.302013 0.989773
Si Si6 0.035340 0.072167 0.801917
Si Si7 0.779636 0.206537 0.615121
Si Si8 0.474587 0.319134 0.929997
O O1 0.248334 0.987553 0.738618
O O2 0.528977 0.989171 0.693285
O O3 0.399673 0.861707 0.971078
O O4 0.203682 0.186285 0.890395
O O5 0.192016 0.485427 0.415669
O O6 0.338194 0.442924 0.074839
O O7 0.023592 0.490483 0.284771
O O8 0.079028 0.727676 0.194512
O O9 0.164015 0.680017 0.549374
O O10 0.878638 0.785424 0.534882
O O11 0.214155 0.179885 0.169309
O O12 0.265105 0.906882 0.398074
O O13 0.344314 0.312099 0.892032
O O14 0.000000 0.500000 0.000000
O O15 0.942950 0.070144 0.702502
O O16 0.000000 0.000000 0.000000
O O17 0.607984 0.337346 0.752168
#
# Coordination Sequence:
#
# PCOD9021573 Si02
#       8
#     2   2   2   2   2   2   2   2
#     4  11  20  36  62  92 126 158 212 257 315 372
#     4  10  22  40  62  91 127 168 212 252 315 379
#     4  10  22  38  63  90 125 172 212 249 312 384
#     4  11  20  41  65  88 125 171 211 252 310 387
#     4  11  20  33  61  95 122 160 209 260 310 364
#     4  11  22  38  60  95 131 157 202 269 316 362
#     4  11  22  39  64  96 127 159 213 262 318 360
#     4  11  19  38  64  93 119 163 211 265 304 367
#
# _framework density 24.758285000000001
#
# number of rings (size 3 to 8) (size 9 to 14) (size 15 to 20)
#    0.000    1.250    6.250    1.875    0.000    2.000 
#    0.000    2.500    0.000    3.000    0.000    0.000 
#    0.000    0.000    0.000    0.000    0.000    0.000 
#
# Total GULP energy -89205.170703 kJ/mol
# GULP energy per Si atom -5575.323169 kJ/mol
# Density = 2.470193 g / cm^3
# Si number density = 24.758285 Si / 1000 Ang^3
#
#
#
# Elastic Constant Matrix: (Units=GPa)
#
#
# Indices 1 2 3 4 5 6 
#
# 1 107.7499 -3.2887 13.5476 -3.8697 -26.9909 -0.8535
# 2 -3.2887 78.7434 33.5329 3.6789 -19.0196 16.1552
# 3 13.5476 33.5329 81.3033 23.5280 -30.2785 1.1437
# 4 -3.8697 3.6789 23.5280 42.5532 5.1783 -0.8690
# 5 -26.9909 -19.0196 -30.2785 5.1783 44.3421 -2.4826
# 6 -0.8535 16.1552 1.1437 -0.8690 -2.4826 38.7397
#
#
#
# Elastic Compliance Matrix: (Units=1/GPa)
#
#
# Indices 1 2 3 4 5 6 
#
# 1 0.011345 0.002399 0.000230 -0.000295 0.008113 -0.000244
# 2 0.002399 0.017976 -0.006754 0.001774 0.003963 -0.006950
# 3 0.000230 -0.006754 0.025820 -0.015666 0.016860 0.002788
# 4 -0.000295 0.001774 -0.015666 0.033685 -0.014074 -0.000430
# 5 0.008113 0.003963 0.016860 -0.014074 0.042370 0.000428
# 6 -0.000244 -0.006950 0.002788 -0.000430 0.000428 0.028642
#
#
# Mechanical properties :
#
#
# Convention : Reuss Voigt Hill
#
# Bulk Modulus (GPa) = 21.32566 39.48668 30.40617
# Shear Modulus (GPa) = 27.21584 40.06064 33.63824
#
# Velocity S-wave (km/s) = 3.31911 4.02689 3.69001
# Velocity P-wave (km/s) = 4.82917 6.13226 5.51931
#
# Compressibility (1/GPa) = 0.04689186
#
# Stress axis : x y z
#
# Youngs Moduli (GPa) = 88.14731 55.62990 38.72997
#
# Poissons Ratio (x) = -0.13346 -0.00892
# Poissons Ratio (y) = -0.21148 0.26157
# Poissons Ratio (z) = -0.02030 0.37570
#
# Static dielectric constant tensor:
#      x y z
#    x 2.045340 0.008030 0.041190 
#    y 0.008030 1.942830 0.015170 
#    z 0.041190 0.015170 2.275710 
# 
# From -- ./inp_files/427716.got.cif
#   From: 2010.05.17/outbox.cif.g08.bks.cpg/sg2_214_cif.got.tgz:427716.got - 2010.06.03 11:33:40.
