data_PCOD9021003
_publ_section_title
;
Structure prediction by ZEFSAII (Michael W. Deem and Ramdas Pophale) SiO2 
 PCOD9021003
Probable space group: P -1
;
_chemical_formula_sum "Si O2"
_cell_formula_units_Z 14
_cell_length_a 8.045156
_cell_length_b 17.597174
_cell_length_c 9.003309
_cell_angle_alpha 150.820974
_cell_angle_beta 68.673124
_cell_angle_gamma 118.672165
_cell_volume 540.664300
_symmetry_space_group_name_H-M "P -1"
_symmetry_group_IT_number 2
_symmetry_cell_setting 'triclinic'
loop_
_space_group_symop_operation_xyz
x,y,z
-x,-y,-z
loop_
_atom_site_type_symbol
_atom_site_label
_atom_site_fract_x
_atom_site_fract_y
_atom_site_fract_z
Si Si1 0.408124 0.784691 0.832907
Si Si2 0.866501 0.492214 0.391296
Si Si3 0.971064 0.681026 0.413974
Si Si4 0.787843 0.016216 0.969357
Si Si5 0.224013 0.231077 0.936969
Si Si6 0.978038 0.143362 0.575988
Si Si7 0.532373 0.506960 0.174259
O O1 0.299237 0.692234 0.859834
O O2 0.288775 0.874414 0.932001
O O3 0.423901 0.624665 0.471397
O O4 0.623354 0.917921 0.972753
O O5 0.999450 0.554742 0.310489
O O6 0.000000 0.500000 0.500000
O O7 0.788632 0.643649 0.714012
O O8 0.076526 0.739351 0.322659
O O9 0.749673 0.586927 0.288590
O O10 0.038029 0.854200 0.777366
O O11 0.853639 0.897146 0.637905
O O12 0.068906 0.217374 0.831396
O O13 0.430534 0.323065 0.957763
O O14 0.180052 0.039873 0.666288
O O15 0.500000 0.500000 0.000000
#
# Coordination Sequence:
#
# PCOD9021003 Si02
#       7
#     2   2   2   2   2   2   2
#     4  10  22  37  64  85 127 164 200 243 318 356
#     4  11  22  41  59  94 126 160 206 258 301 363
#     4  12  23  37  67  89 126 159 205 265 295 355
#     4  11  21  39  60  93 122 161 205 255 297 367
#     4  10  22  37  64  85 127 164 200 243 318 356
#     4  11  21  39  60  93 122 161 205 255 297 367
#     4  11  22  41  59  94 126 160 206 258 301 363
#
# _framework density 25.894072000000001
#
# number of rings (size 3 to 8) (size 9 to 14) (size 15 to 20)
#    0.000    1.143    5.714    0.429    0.000    3.429 
#    0.000    2.857    0.000    0.000    0.000   14.000 
#    0.000    0.000    0.000    0.000    0.000    0.000 
#
# Total GULP energy -78249.324691 kJ/mol
# GULP energy per Si atom -5589.237478 kJ/mol
# Density = 2.583514 g / cm^3
# Si number density = 25.894072 Si / 1000 Ang^3
#
#
#
# Elastic Constant Matrix: (Units=GPa)
#
#
# Indices 1 2 3 4 5 6 
#
# 1 65.1510 29.2419 16.4971 10.4490 25.4169 1.2239
# 2 29.2419 229.0765 39.5915 65.3218 23.7918 -9.7562
# 3 16.4971 39.5915 98.5918 24.3256 15.7092 1.7109
# 4 10.4490 65.3218 24.3256 48.6757 8.5263 14.1632
# 5 25.4169 23.7918 15.7092 8.5263 32.7040 9.8611
# 6 1.2239 -9.7562 1.7109 14.1632 9.8611 44.9198
#
#
#
# Elastic Compliance Matrix: (Units=1/GPa)
#
#
# Indices 1 2 3 4 5 6 
#
# 1 0.022900 0.000012 -0.000311 -0.002832 -0.018209 0.004281
# 2 0.000012 0.009040 0.000464 -0.013563 -0.005513 0.007432
# 3 -0.000311 0.000464 0.012440 -0.006703 -0.005195 0.002889
# 4 -0.002832 -0.013563 -0.006703 0.046761 0.008921 -0.019315
# 5 -0.018209 -0.005513 -0.005195 0.008921 0.053447 -0.015049
# 6 0.004281 0.007432 0.002889 -0.019315 -0.015049 0.033043
#
#
# Mechanical properties :
#
#
# Convention : Reuss Voigt Hill
#
# Bulk Modulus (GPa) = 22.36655 62.60890 42.48772
# Shear Modulus (GPa) = 26.01373 45.75916 35.88645
#
# Velocity S-wave (km/s) = 3.17301 4.20833 3.72680
# Velocity P-wave (km/s) = 4.69899 6.91699 5.91292
#
# Compressibility (1/GPa) = 0.04470963
#
# Stress axis : x y z
#
# Youngs Moduli (GPa) = 43.66822 110.61351 80.38514
#
# Poissons Ratio (x) = -0.00127 0.02497
# Poissons Ratio (y) = -0.00050 -0.03727
# Poissons Ratio (z) = 0.01356 -0.05129
#
# Static dielectric constant tensor:
#      x y z
#    x 2.067510 0.001210 -0.036050 
#    y 0.001210 2.176080 0.006980 
#    z -0.036050 0.006980 1.998300 
# 
# From -- ./inp_files/219012.got.cif
#   From: 2010.05.17/outbox.cif.g08.bks.cpg/sg2_110_cif.got.tgz:219012.got - 2010.06.03 11:33:40.
