data_PCOD9021228
_publ_section_title
;
Structure prediction by ZEFSAII (Michael W. Deem and Ramdas Pophale) SiO2 
 PCOD9021228
Probable space group: P -1
;
_chemical_formula_sum "Si O2"
_cell_formula_units_Z 16
_cell_length_a 23.179811
_cell_length_b 7.794039
_cell_length_c 5.262355
_cell_angle_alpha 57.021276
_cell_angle_beta 58.219883
_cell_angle_gamma 51.882556
_cell_volume 600.703824
_symmetry_space_group_name_H-M "P -1"
_symmetry_group_IT_number 2
_symmetry_cell_setting 'triclinic'
loop_
_space_group_symop_operation_xyz
x,y,z
-x,-y,-z
loop_
_atom_site_type_symbol
_atom_site_label
_atom_site_fract_x
_atom_site_fract_y
_atom_site_fract_z
Si Si1 0.112757 0.683675 0.562685
Si Si2 0.740646 0.411894 0.427525
Si Si3 0.046450 0.121155 0.054299
Si Si4 0.353378 0.104872 0.431315
Si Si5 0.385209 0.725179 0.090601
Si Si6 0.212036 0.336775 0.251777
Si Si7 0.513994 0.815521 0.844140
Si Si8 0.080030 0.297888 0.360917
O O1 0.182985 0.713646 0.483734
O O2 0.151851 0.437025 0.538651
O O3 0.045523 0.735409 0.874580
O O4 0.069406 0.863651 0.295141
O O5 0.691349 0.667060 0.464789
O O6 0.693034 0.271499 0.643612
O O7 0.764487 0.470062 0.054462
O O8 0.064545 0.232315 0.171054
O O9 0.090726 0.112411 0.705253
O O10 0.290882 0.139879 0.334409
O O11 0.427737 0.137846 0.149338
O O12 0.373229 0.881169 0.740546
O O13 0.436168 0.451114 0.143651
O O14 0.434750 0.805154 0.094053
O O15 0.160667 0.306411 0.178488
O O16 0.500000 0.000000 0.500000
O O17 0.000000 0.500000 0.500000
#
# Coordination Sequence:
#
# PCOD9021228 Si02
#       8
#     2   2   2   2   2   2   2   2
#     4  10  24  42  64  88 130 166 225 287 345 404
#     4  10  22  38  58  90 130 170 218 276 340 408
#     4  11  26  43  67  97 125 178 233 291 351 426
#     4   9  20  38  59  92 127 170 219 274 336 406
#     4   9  17  34  65  89 127 172 216 267 337 408
#     4  11  24  40  63  88 134 172 220 290 344 407
#     4   8  15  33  63  96 123 166 218 271 331 400
#     4  12  25  42  67  94 130 174 233 284 354 414
#
# _framework density 26.635425999999999
#
# number of rings (size 3 to 8) (size 9 to 14) (size 15 to 20)
#    0.000    2.000    1.250    1.125    7.000    1.000 
#    0.000    0.625    0.000   25.500    0.000    0.000 
#    0.000    0.000    0.000    0.000    0.000    0.000 
#
# Total GULP energy -89493.134725 kJ/mol
# GULP energy per Si atom -5593.320920 kJ/mol
# Density = 2.657480 g / cm^3
# Si number density = 26.635426 Si / 1000 Ang^3
#
#
#
# Elastic Constant Matrix: (Units=GPa)
#
#
# Indices 1 2 3 4 5 6 
#
# 1 235.7039 68.0430 61.3366 -3.9425 -31.6425 2.0994
# 2 68.0430 111.3897 17.4205 -8.8017 -5.0899 -11.9292
# 3 61.3366 17.4205 137.1380 0.1870 -35.1538 -5.0640
# 4 -3.9425 -8.8017 0.1870 36.4633 -0.8980 -4.0884
# 5 -31.6425 -5.0899 -35.1538 -0.8980 49.1543 2.9922
# 6 2.0994 -11.9292 -5.0640 -4.0884 2.9922 49.5593
#
#
#
# Elastic Compliance Matrix: (Units=1/GPa)
#
#
# Indices 1 2 3 4 5 6 
#
# 1 0.006014 -0.003476 -0.001689 -0.000282 0.002385 -0.001431
# 2 -0.003476 0.011629 -0.000134 0.002763 -0.001276 0.003238
# 3 -0.001689 -0.000134 0.009546 -0.000049 0.005684 0.000668
# 4 -0.000282 0.002763 -0.000049 0.028407 0.000406 0.002991
# 5 0.002385 -0.001276 0.005684 0.000406 0.025903 -0.001358
# 6 -0.001431 0.003238 0.000668 0.002991 -0.001358 0.021415
#
#
# Mechanical properties :
#
#
# Convention : Reuss Voigt Hill
#
# Bulk Modulus (GPa) = 60.27440 86.42576 73.35008
# Shear Modulus (GPa) = 42.00208 49.53080 45.76644
#
# Velocity S-wave (km/s) = 3.97536 4.31697 4.14968
# Velocity P-wave (km/s) = 6.61437 7.57406 7.11042
#
# Compressibility (1/GPa) = 0.01659079
#
# Stress axis : x y z
#
# Youngs Moduli (GPa) = 166.28108 85.99536 104.75254
#
# Poissons Ratio (x) = 0.29892 0.17695
# Poissons Ratio (y) = 0.57799 0.01401
# Poissons Ratio (z) = 0.28089 0.01150
#
# Static dielectric constant tensor:
#      x y z
#    x 2.093050 0.018630 -0.012970 
#    y 0.018630 2.184250 -0.004540 
#    z -0.012970 -0.004540 2.098870 
# 
# From -- ./inp_files/53593.got.cif
#   From: 2010.05.17/outbox.cif.g08.bks.cpg/sg2_27_cif.got.tgz:53593.got - 2010.06.03 11:33:40.
