data_PCOD9021772
_publ_section_title
;
Structure prediction by ZEFSAII (Michael W. Deem and Ramdas Pophale) SiO2 
 PCOD9021772
Probable space group: P -1
;
_chemical_formula_sum "Si O2"
_cell_formula_units_Z 16
_cell_length_a 9.125477
_cell_length_b 16.098063
_cell_length_c 8.546916
_cell_angle_alpha 83.227880
_cell_angle_beta 46.561143
_cell_angle_gamma 55.421187
_cell_volume 668.237623
_symmetry_space_group_name_H-M "P -1"
_symmetry_group_IT_number 2
_symmetry_cell_setting 'triclinic'
loop_
_space_group_symop_operation_xyz
x,y,z
-x,-y,-z
loop_
_atom_site_type_symbol
_atom_site_label
_atom_site_fract_x
_atom_site_fract_y
_atom_site_fract_z
Si Si1 0.547865 0.485603 0.782713
Si Si2 0.204969 0.173672 0.685347
Si Si3 0.475806 0.670359 0.581128
Si Si4 0.403871 0.009069 0.319900
Si Si5 0.986383 0.605237 0.069752
Si Si6 0.987496 0.295648 0.278972
Si Si7 0.178479 0.873489 0.959634
Si Si8 0.616597 0.077161 0.933336
O O1 0.517466 0.584761 0.697551
O O2 0.831342 0.370857 0.531861
O O3 0.500000 0.500000 0.000000
O O4 0.299853 0.497453 0.899629
O O5 0.476396 0.081713 0.610281
O O6 0.074016 0.297195 0.797297
O O7 0.260004 0.128529 0.479471
O O8 0.001618 0.158394 0.892965
O O9 0.752332 0.607022 0.293112
O O10 0.221227 0.711850 0.649955
O O11 0.413498 0.775892 0.691602
O O12 0.635598 0.992534 0.054490
O O13 0.257108 0.990200 0.307572
O O14 0.974451 0.642400 0.893433
O O15 0.294657 0.180888 0.112499
O O16 0.274114 0.874742 0.061657
O O17 0.000000 0.000000 0.000000
#
# Coordination Sequence:
#
# PCOD9021772 Si02
#       8
#     2   2   2   2   2   2   2   2
#     4  11  27  48  75 107 142 181 236 304 361 416
#     4  11  21  43  67  97 143 188 239 289 351 425
#     4  11  25  48  76 103 142 193 238 289 360 429
#     4  10  22  38  65  93 137 189 229 296 349 408
#     4  11  23  47  73 103 141 191 236 290 357 426
#     4  11  25  48  73 102 144 184 241 299 354 424
#     4  12  24  40  69 105 142 192 237 287 358 426
#     4  11  23  41  64 101 140 181 238 295 347 419
#
# _framework density 23.943576
#
# number of rings (size 3 to 8) (size 9 to 14) (size 15 to 20)
#    0.000    1.000    5.000    2.250    7.000    3.000 
#    4.500    0.000    0.000    0.000    0.000    0.000 
#    0.000    0.000    0.000    0.000    0.000    0.000 
#
# Total GULP energy -89410.584802 kJ/mol
# GULP energy per Si atom -5588.161550 kJ/mol
# Density = 2.388908 g / cm^3
# Si number density = 23.943576 Si / 1000 Ang^3
#
#
#
# Elastic Constant Matrix: (Units=GPa)
#
#
# Indices 1 2 3 4 5 6 
#
# 1 130.9145 55.4490 49.9272 -1.4800 22.8746 12.5638
# 2 55.4490 70.8170 27.5664 11.9784 5.6836 6.1107
# 3 49.9272 27.5664 133.8893 -12.0283 21.7937 2.4425
# 4 -1.4800 11.9784 -12.0283 40.8838 13.9639 9.2734
# 5 22.8746 5.6836 21.7937 13.9639 46.5782 3.9537
# 6 12.5638 6.1107 2.4425 9.2734 3.9537 40.1961
#
#
#
# Elastic Compliance Matrix: (Units=1/GPa)
#
#
# Indices 1 2 3 4 5 6 
#
# 1 0.014406 -0.010988 -0.001372 0.006443 -0.006720 -0.003574
# 2 -0.010988 0.025273 -0.003364 -0.011665 0.007232 0.001777
# 3 -0.001372 -0.003364 0.010075 0.005835 -0.005337 -0.000493
# 4 0.006443 -0.011665 0.005835 0.036602 -0.014800 -0.007584
# 5 -0.006720 0.007232 -0.005337 -0.014800 0.030675 0.001723
# 6 -0.003574 0.001777 -0.000493 -0.007584 0.001723 0.027335
#
#
# Mechanical properties :
#
#
# Convention : Reuss Voigt Hill
#
# Bulk Modulus (GPa) = 54.62313 66.83400 60.72857
# Shear Modulus (GPa) = 27.48540 39.04350 33.26445
#
# Velocity S-wave (km/s) = 3.39178 4.04251 3.73135
# Velocity P-wave (km/s) = 6.18075 7.05428 6.63191
#
# Compressibility (1/GPa) = 0.01830726
#
# Stress axis : x y z
#
# Youngs Moduli (GPa) = 69.41745 39.56816 99.25678
#
# Poissons Ratio (x) = 0.43476 0.13615
# Poissons Ratio (y) = 0.76273 0.33388
# Poissons Ratio (z) = 0.09522 0.13310
#
# Static dielectric constant tensor:
#      x y z
#    x 1.939020 0.016250 0.032530 
#    y 0.016250 1.918660 0.037610 
#    z 0.032530 0.037610 2.084550 
# 
# From -- ./inp_files/215050.got.cif
#   From: 2010.05.17/outbox.cif.g08.bks.cpg/sg2_108_cif.got.tgz:215050.got - 2010.06.03 11:33:40.
