data_PCOD9021477
_publ_section_title
;
Structure prediction by ZEFSAII (Michael W. Deem and Ramdas Pophale) SiO2 
 PCOD9021477
Probable space group: P -1
;
_chemical_formula_sum "Si O2"
_cell_formula_units_Z 16
_cell_length_a 7.814274
_cell_length_b 17.902265
_cell_length_c 8.670996
_cell_angle_alpha 132.433451
_cell_angle_beta 50.528375
_cell_angle_gamma 111.132297
_cell_volume 686.101910
_symmetry_space_group_name_H-M "P -1"
_symmetry_group_IT_number 2
_symmetry_cell_setting 'triclinic'
loop_
_space_group_symop_operation_xyz
x,y,z
-x,-y,-z
loop_
_atom_site_type_symbol
_atom_site_label
_atom_site_fract_x
_atom_site_fract_y
_atom_site_fract_z
Si Si1 0.674708 0.312879 0.856895
Si Si2 0.464452 0.600876 0.260668
Si Si3 0.325262 0.473740 0.434986
Si Si4 0.954772 0.789067 0.064608
Si Si5 0.099340 0.894490 0.434282
Si Si6 0.580678 0.943700 0.531605
Si Si7 0.845414 0.045955 0.012895
Si Si8 0.980472 0.598244 0.975999
O O1 0.655312 0.324924 0.698520
O O2 0.750401 0.193859 0.680500
O O3 0.439653 0.367751 0.143480
O O4 0.863003 0.370069 0.926659
O O5 0.331902 0.562427 0.426872
O O6 0.500000 0.500000 0.000000
O O7 0.716908 0.615034 0.191418
O O8 0.500000 0.500000 0.500000
O O9 0.090812 0.490432 0.687296
O O10 0.022314 0.835455 0.252134
O O11 0.083716 0.847782 0.944738
O O12 0.698057 0.834039 0.260547
O O13 0.986705 0.672351 0.926951
O O14 0.242712 0.981066 0.414305
O O15 0.901735 0.955572 0.731074
O O16 0.500000 0.000000 0.500000
O O17 0.401069 0.938356 0.758213
O O18 0.000000 0.000000 0.000000
#
# Coordination Sequence:
#
# PCOD9021477 Si02
#       8
#     2   2   2   2   2   2   2   2
#     4   9  21  40  61  88 126 161 203 257 300 360
#     4  10  22  38  62  90 119 160 204 252 307 362
#     4   9  20  40  62  90 121 162 204 248 304 364
#     4  10  23  39  58  88 123 161 200 256 303 359
#     4  10  22  40  57  86 125 158 203 255 299 365
#     4  11  21  37  60  86 120 157 198 253 303 351
#     4  11  21  36  60  87 117 159 208 243 306 365
#     4  10  22  41  63  88 126 163 203 253 311 360
#
# _framework density 23.320149000000001
#
# number of rings (size 3 to 8) (size 9 to 14) (size 15 to 20)
#    0.000    2.000    2.500    1.500    1.750   10.500 
#    0.000   10.000    0.000    0.000    0.000    0.000 
#    0.000    0.000    0.000    0.000    0.000    0.000 
#
# Total GULP energy -89154.135826 kJ/mol
# GULP energy per Si atom -5572.133489 kJ/mol
# Density = 2.326707 g / cm^3
# Si number density = 23.320149 Si / 1000 Ang^3
#
#
#
# Elastic Constant Matrix: (Units=GPa)
#
#
# Indices 1 2 3 4 5 6 
#
# 1 83.6832 6.0124 10.2122 -6.4834 -4.0776 -22.8700
# 2 6.0124 105.3735 38.7663 -5.3903 -11.2788 -30.6482
# 3 10.2122 38.7663 125.7498 -14.8340 -22.0786 6.0467
# 4 -6.4834 -5.3903 -14.8340 36.8990 -1.8284 -2.1813
# 5 -4.0776 -11.2788 -22.0786 -1.8284 26.9889 -4.8309
# 6 -22.8700 -30.6482 6.0467 -2.1813 -4.8309 45.0135
#
#
#
# Elastic Compliance Matrix: (Units=1/GPa)
#
#
# Indices 1 2 3 4 5 6 
#
# 1 0.015482 0.003718 -0.001700 0.003484 0.004762 0.011306
# 2 0.003718 0.015778 -0.004491 0.002285 0.006143 0.014005
# 3 -0.001700 -0.004491 0.011265 0.003627 0.006511 -0.004561
# 4 0.003484 0.002285 0.003627 0.030173 0.007405 0.005096
# 5 0.004762 0.006143 0.006511 0.007405 0.048182 0.011257
# 6 0.011306 0.014005 -0.004561 0.005096 0.011257 0.039563
#
#
# Mechanical properties :
#
#
# Convention : Reuss Voigt Hill
#
# Bulk Modulus (GPa) = 26.61046 47.19871 36.90458
# Shear Modulus (GPa) = 28.10298 39.10132 33.60215
#
# Velocity S-wave (km/s) = 3.47521 4.09922 3.80005
# Velocity P-wave (km/s) = 5.24771 6.53362 5.92565
#
# Compressibility (1/GPa) = 0.03757921
#
# Stress axis : x y z
#
# Youngs Moduli (GPa) = 64.59124 63.37869 88.76751
#
# Poissons Ratio (x) = -0.23567 0.15092
# Poissons Ratio (y) = -0.24018 0.39869
# Poissons Ratio (z) = 0.10982 0.28466
#
# Static dielectric constant tensor:
#      x y z
#    x 4.478600 -4.476170 2.715120 
#    y -4.476170 10.050190 -5.161200 
#    z 2.715120 -5.161200 5.231910 
# 
# From -- ./inp_files/215433.got.cif
#   From: 2010.05.17/outbox.cif.g08.bks.cpg/sg2_108_cif.got.tgz:215433.got - 2010.06.03 11:33:40.
