data_PCOD9021706
_publ_section_title
;
Structure prediction by ZEFSAII (Michael W. Deem and Ramdas Pophale) SiO2 
 PCOD9021706
Probable space group: P -1
;
_chemical_formula_sum "Si O2"
_cell_formula_units_Z 16
_cell_length_a 21.554113
_cell_length_b 12.428265
_cell_length_c 16.235420
_cell_angle_alpha 154.813424
_cell_angle_beta 25.701607
_cell_angle_gamma 153.257710
_cell_volume 728.204282
_symmetry_space_group_name_H-M "P -1"
_symmetry_group_IT_number 2
_symmetry_cell_setting 'triclinic'
loop_
_space_group_symop_operation_xyz
x,y,z
-x,-y,-z
loop_
_atom_site_type_symbol
_atom_site_label
_atom_site_fract_x
_atom_site_fract_y
_atom_site_fract_z
Si Si1 0.320487 0.886209 0.006544
Si Si2 0.420657 0.235513 0.469246
Si Si3 0.152807 0.448471 0.789849
Si Si4 0.430023 0.746706 0.542787
Si Si5 0.787574 0.651600 0.605866
Si Si6 0.634804 0.394050 0.771587
Si Si7 0.836768 0.328591 0.623187
Si Si8 0.865356 0.160442 0.650502
O O1 0.286884 0.905059 0.155579
O O2 0.244151 0.078260 0.188688
O O3 0.488481 0.945908 0.805736
O O4 0.219287 0.564888 0.880408
O O5 0.500000 0.500000 0.500000
O O6 0.469943 0.355767 0.585936
O O7 0.242695 0.007299 0.528301
O O8 0.276241 0.662832 0.726279
O O9 0.138985 0.141038 0.577607
O O10 0.000000 0.500000 0.000000
O O11 0.354093 0.591047 0.442395
O O12 0.544309 0.071626 0.628294
O O13 0.766050 0.570697 0.670992
O O14 0.966649 0.699049 0.404166
O O15 0.715945 0.422041 0.782837
O O16 0.500000 0.500000 0.000000
O O17 0.860384 0.339520 0.701118
O O18 0.000000 0.500000 0.500000
#
# Coordination Sequence:
#
# PCOD9021706 Si02
#       8
#     2   2   2   2   2   2   2   2
#     4  11  23  40  67 106 132 180 232 284 347 407
#     4  10  23  45  68  98 140 183 231 289 349 415
#     4  11  20  37  63 100 141 176 219 285 347 407
#     4  10  22  38  64  94 131 175 230 281 340 407
#     4  12  21  40  66 102 136 174 231 291 340 416
#     4  11  24  44  66  95 132 188 238 277 348 416
#     4  11  23  44  69  97 138 188 227 286 353 411
#     4  12  24  41  70 102 144 175 228 289 348 424
#
# _framework density 21.971857
#
# number of rings (size 3 to 8) (size 9 to 14) (size 15 to 20)
#    0.000    1.000    3.750    5.250    0.000    0.500 
#    2.250    0.000    2.750    3.750    0.000    0.000 
#    0.000    0.000    0.000    0.000    0.000    0.000 
#
# Total GULP energy -89105.245545 kJ/mol
# GULP energy per Si atom -5569.077847 kJ/mol
# Density = 2.192185 g / cm^3
# Si number density = 21.971857 Si / 1000 Ang^3
#
#
#
# Elastic Constant Matrix: (Units=GPa)
#
#
# Indices 1 2 3 4 5 6 
#
# 1 113.8410 32.4682 21.6479 5.9072 -2.6693 -14.6314
# 2 32.4682 105.6584 11.3724 -13.1127 -7.6717 -9.0907
# 3 21.6479 11.3724 56.7254 -4.2132 -1.8676 -5.5295
# 4 5.9072 -13.1127 -4.2132 27.9351 1.7004 2.7281
# 5 -2.6693 -7.6717 -1.8676 1.7004 24.7196 -2.7311
# 6 -14.6314 -9.0907 -5.5295 2.7281 -2.7311 48.0741
#
#
#
# Elastic Compliance Matrix: (Units=1/GPa)
#
#
# Indices 1 2 3 4 5 6 
#
# 1 0.011009 -0.003319 -0.003616 -0.004716 0.000498 0.002603
# 2 -0.003319 0.011541 -0.000429 0.005785 0.002899 0.000959
# 3 -0.003616 -0.000429 0.019460 0.003360 0.000816 0.000912
# 4 -0.004716 0.005785 0.003360 0.040335 -0.001492 -0.002329
# 5 0.000498 0.002899 0.000816 -0.001492 0.041932 0.003260
# 6 0.002603 0.000959 0.000912 -0.002329 0.003260 0.022197
#
#
# Mechanical properties :
#
#
# Convention : Reuss Voigt Hill
#
# Bulk Modulus (GPa) = 36.65253 45.24462 40.94857
# Shear Modulus (GPa) = 29.36051 34.19486 31.77768
#
# Velocity S-wave (km/s) = 3.65948 3.94928 3.80714
# Velocity P-wave (km/s) = 5.87992 6.43681 6.16466
#
# Compressibility (1/GPa) = 0.02728325
#
# Stress axis : x y z
#
# Youngs Moduli (GPa) = 90.83160 86.64401 51.38716
#
# Poissons Ratio (x) = 0.28758 0.18583
# Poissons Ratio (y) = 0.30148 0.02202
# Poissons Ratio (z) = 0.32847 0.03713
#
# Static dielectric constant tensor:
#      x y z
#    x 1.971380 0.031440 -0.053920 
#    y 0.031440 1.696700 0.094890 
#    z -0.053920 0.094890 1.893990 
# 
# From -- ./inp_files/541007.got.cif
#   From: 2010.05.17/outbox.cif.g08.bks.cpg/sg2_271_cif.got.tgz:541007.got - 2010.06.03 11:33:40.
