data_PCOD9021993
_publ_section_title
;
Structure prediction by ZEFSAII (Michael W. Deem and Ramdas Pophale) SiO2 
 PCOD9021993
Probable space group: P -1
;
_chemical_formula_sum "Si O2"
_cell_formula_units_Z 14
_cell_length_a 5.722281
_cell_length_b 13.327210
_cell_length_c 12.853967
_cell_angle_alpha 64.958855
_cell_angle_beta 79.141725
_cell_angle_gamma 42.618961
_cell_volume 589.139310
_symmetry_space_group_name_H-M "P -1"
_symmetry_group_IT_number 2
_symmetry_cell_setting 'triclinic'
loop_
_space_group_symop_operation_xyz
x,y,z
-x,-y,-z
loop_
_atom_site_type_symbol
_atom_site_label
_atom_site_fract_x
_atom_site_fract_y
_atom_site_fract_z
Si Si1 0.690849 0.404005 0.685353
Si Si2 0.679272 0.831895 0.109562
Si Si3 0.539671 0.317333 0.308592
Si Si4 0.105385 0.108288 0.514367
Si Si5 0.910612 0.651208 0.505704
Si Si6 0.791880 0.491288 0.941084
Si Si7 0.317771 0.822425 0.311456
O O1 0.466510 0.548914 0.723468
O O2 0.547809 0.344439 0.666969
O O3 0.029751 0.244129 0.791608
O O4 0.814206 0.452743 0.567409
O O5 0.371393 0.877009 0.181509
O O6 0.900636 0.678772 0.077142
O O7 0.500000 0.000000 0.000000
O O8 0.216296 0.372017 0.373087
O O9 0.442781 0.347499 0.183839
O O10 0.882899 0.152883 0.410853
O O11 0.965633 0.275416 0.489782
O O12 0.051311 0.060220 0.647938
O O13 0.500000 0.000000 0.500000
O O14 0.562880 0.777819 0.406029
O O15 0.500000 0.500000 0.000000
O O16 0.000000 0.500000 0.000000
#
# Coordination Sequence:
#
# PCOD9021993 Si02
#       7
#     2   2   2   2   2   2   2
#     4   9  19  37  63  95 130 163 230 287 356 428
#     4  10  23  45  71  97 136 189 249 302 363 426
#     4  10  22  38  68  91 133 184 226 286 366 423
#     4  10  22  40  61  99 142 176 225 283 369 444
#     4   9  19  36  59  97 123 165 217 279 359 429
#     4  11  28  52  72 108 147 193 253 312 366 436
#     4   9  20  39  65  94 133 172 226 294 353 436
#
# _framework density 23.763477999999999
#
# number of rings (size 3 to 8) (size 9 to 14) (size 15 to 20)
#    0.000    2.286    0.000    0.429    6.000   11.429 
#   10.286    0.000    0.000    0.000    0.000    0.000 
#    0.000    0.000    0.000    0.000    0.000    0.000 
#
# Total GULP energy -77951.213547 kJ/mol
# GULP energy per Si atom -5567.943825 kJ/mol
# Density = 2.370939 g / cm^3
# Si number density = 23.763478 Si / 1000 Ang^3
#
#
#
# Elastic Constant Matrix: (Units=GPa)
#
#
# Indices 1 2 3 4 5 6 
#
# 1 107.1544 27.5357 75.0696 18.6587 2.1286 -18.6893
# 2 27.5357 67.7884 38.0928 8.7146 -2.0022 -23.1885
# 3 75.0696 38.0928 190.0620 2.5017 -14.5126 -12.8981
# 4 18.6587 8.7146 2.5017 38.6636 -1.8691 -1.8120
# 5 2.1286 -2.0022 -14.5126 -1.8691 52.4340 7.9759
# 6 -18.6893 -23.1885 -12.8981 -1.8120 7.9759 43.7971
#
#
#
# Elastic Compliance Matrix: (Units=1/GPa)
#
#
# Indices 1 2 3 4 5 6 
#
# 1 0.015816 -0.000553 -0.005957 -0.007048 -0.003326 0.005016
# 2 -0.000553 0.020670 -0.003337 -0.003797 -0.001751 0.009887
# 3 -0.005957 -0.003337 0.008308 0.003122 0.002868 -0.002255
# 4 -0.007048 -0.003797 0.003122 0.029888 0.002577 -0.003331
# 5 -0.003326 -0.001751 0.002868 0.002577 0.020814 -0.005186
# 6 0.005016 0.009887 -0.002255 -0.003331 -0.005186 0.030350
#
#
# Mechanical properties :
#
#
# Convention : Reuss Voigt Hill
#
# Bulk Modulus (GPa) = 39.84120 71.82232 55.83176
# Shear Modulus (GPa) = 32.48713 41.93272 37.20993
#
# Velocity S-wave (km/s) = 3.70145 4.20526 3.96137
# Velocity P-wave (km/s) = 5.92197 7.33951 6.66851
#
# Compressibility (1/GPa) = 0.02509964
#
# Stress axis : x y z
#
# Youngs Moduli (GPa) = 63.22740 48.37877 120.36761
#
# Poissons Ratio (x) = 0.02678 0.71700
# Poissons Ratio (y) = 0.03499 0.40166
# Poissons Ratio (z) = 0.37663 0.16144
#
# Static dielectric constant tensor:
#      x y z
#    x 2.009260 -0.014670 -0.022410 
#    y -0.014670 2.074800 -0.052570 
#    z -0.022410 -0.052570 1.921090 
# 
# From -- ./inp_files/366801.got.cif
#   From: 2010.05.17/outbox.cif.g08.bks.cpg/sg2_184_cif.got.tgz:366801.got - 2010.06.03 11:33:40.
