data_PCOD9021158
_publ_section_title
;
Structure prediction by ZEFSAII (Michael W. Deem and Ramdas Pophale) SiO2 
 PCOD9021158
Probable space group: P -1
;
_chemical_formula_sum "Si O2"
_cell_formula_units_Z 16
_cell_length_a 8.640407
_cell_length_b 19.654949
_cell_length_c 8.245049
_cell_angle_alpha 109.712920
_cell_angle_beta 51.112658
_cell_angle_gamma 133.700043
_cell_volume 776.318106
_symmetry_space_group_name_H-M "P -1"
_symmetry_group_IT_number 2
_symmetry_cell_setting 'triclinic'
loop_
_space_group_symop_operation_xyz
x,y,z
-x,-y,-z
loop_
_atom_site_type_symbol
_atom_site_label
_atom_site_fract_x
_atom_site_fract_y
_atom_site_fract_z
Si Si1 0.766083 0.739301 0.315822
Si Si2 0.233029 0.403101 0.657323
Si Si3 0.477477 0.614512 0.090894
Si Si4 0.885026 0.597027 0.883327
Si Si5 0.428733 0.788134 0.555287
Si Si6 0.664133 0.124337 0.886006
Si Si7 0.320355 0.725919 0.205999
Si Si8 0.731778 0.983116 0.662665
O O1 0.744535 0.678427 0.427777
O O2 0.567713 0.664088 0.247783
O O3 0.673418 0.797109 0.457918
O O4 0.072375 0.808923 0.121515
O O5 0.500000 0.500000 0.500000
O O6 0.985694 0.366921 0.684676
O O7 0.173973 0.407978 0.889250
O O8 0.204111 0.505572 0.183053
O O9 0.469222 0.685122 0.046293
O O10 0.696424 0.605208 0.907606
O O11 0.176844 0.693023 0.731801
O O12 0.386363 0.768351 0.376418
O O13 0.515906 0.889313 0.622462
O O14 0.638247 0.195724 0.874383
O O15 0.733439 0.069312 0.689931
O O16 0.396857 0.048703 0.098705
O O17 0.000000 0.000000 0.500000
#
# Coordination Sequence:
#
# PCOD9021158 Si02
#       8
#     2   2   2   2   2   2   2   2
#     4   9  19  38  61  86 125 162 200 247 313 369
#     4  10  22  38  54  83 126 167 204 254 307 354
#     4   9  20  37  60  85 123 164 207 241 313 353
#     4  10  22  39  58  87 123 170 213 247 296 383
#     4  11  22  38  66  90 119 162 214 251 307 375
#     4  10  22  45  65  92 130 155 204 266 313 372
#     4  10  23  39  59  92 125 157 200 265 314 352
#     4  11  22  42  72  91 117 170 208 248 320 387
#
# _framework density 20.610106999999999
#
# number of rings (size 3 to 8) (size 9 to 14) (size 15 to 20)
#    0.000    2.000    1.250    2.250    7.000    2.000 
#    4.500    0.625    0.000    0.000    0.000    0.000 
#    0.000    0.000    0.000    0.000    0.000    0.000 
#
# Total GULP energy -89127.311267 kJ/mol
# GULP energy per Si atom -5570.456954 kJ/mol
# Density = 2.056320 g / cm^3
# Si number density = 20.610107 Si / 1000 Ang^3
#
#
#
# Elastic Constant Matrix: (Units=GPa)
#
#
# Indices 1 2 3 4 5 6 
#
# 1 90.5670 36.1812 22.6108 5.0615 -19.5509 -13.0821
# 2 36.1812 128.3848 25.8821 16.2727 -10.1039 -5.7315
# 3 22.6108 25.8821 53.8669 -7.4883 -17.0190 -2.8569
# 4 5.0615 16.2727 -7.4883 32.9757 4.3118 -4.0846
# 5 -19.5509 -10.1039 -17.0190 4.3118 17.9319 8.5409
# 6 -13.0821 -5.7315 -2.8569 -4.0846 8.5409 35.6300
#
#
#
# Elastic Compliance Matrix: (Units=1/GPa)
#
#
# Indices 1 2 3 4 5 6 
#
# 1 0.015987 -0.002643 -0.001057 -0.003185 0.015042 0.001389
# 2 -0.002643 0.010166 -0.004570 -0.005702 0.000056 -0.000369
# 3 -0.001057 -0.004570 0.029663 0.005355 0.025115 -0.004151
# 4 -0.003185 -0.005702 0.005355 0.037310 -0.013345 0.005819
# 5 0.015042 0.000056 0.025115 -0.013345 0.108800 -0.020065
# 6 0.001389 -0.000369 -0.004151 0.005819 -0.020065 0.033661
#
#
# Mechanical properties :
#
#
# Convention : Reuss Voigt Hill
#
# Bulk Modulus (GPa) = 25.46074 49.12967 37.29520
# Shear Modulus (GPa) = 18.85243 29.85050 24.35146
#
# Velocity S-wave (km/s) = 3.02771 3.80984 3.44107
# Velocity P-wave (km/s) = 4.96015 6.57591 5.82433
#
# Compressibility (1/GPa) = 0.03927615
#
# Stress axis : x y z
#
# Youngs Moduli (GPa) = 62.55038 98.36982 33.71217
#
# Poissons Ratio (x) = 0.25997 0.03565
# Poissons Ratio (y) = 0.16531 0.15405
# Poissons Ratio (z) = 0.06614 0.44950
#
# Static dielectric constant tensor:
#      x y z
#    x 1.748440 -0.006940 -0.032020 
#    y -0.006940 1.813820 0.040280 
#    z -0.032020 0.040280 1.774590 
# 
# From -- ./inp_files/215325.got.cif
#   From: 2010.05.17/outbox.cif.g08.bks.cpg/sg2_108_cif.got.tgz:215325.got - 2010.06.03 11:33:40.
