data_PCOD9021274
_publ_section_title
;
Structure prediction by ZEFSAII (Michael W. Deem and Ramdas Pophale) SiO2 
 PCOD9021274
Probable space group: P -1
;
_chemical_formula_sum "Si O2"
_cell_formula_units_Z 16
_cell_length_a 18.962122
_cell_length_b 8.142589
_cell_length_c 12.868990
_cell_angle_alpha 143.786848
_cell_angle_beta 133.443450
_cell_angle_gamma 45.658547
_cell_volume 802.753450
_symmetry_space_group_name_H-M "P -1"
_symmetry_group_IT_number 2
_symmetry_cell_setting 'triclinic'
loop_
_space_group_symop_operation_xyz
x,y,z
-x,-y,-z
loop_
_atom_site_type_symbol
_atom_site_label
_atom_site_fract_x
_atom_site_fract_y
_atom_site_fract_z
Si Si1 0.381100 0.144473 0.580121
Si Si2 0.931870 0.305282 0.222350
Si Si3 0.911879 0.837105 0.215718
Si Si4 0.884040 0.247324 0.913046
Si Si5 0.256635 0.753840 0.877359
Si Si6 0.372824 0.102267 0.304715
Si Si7 0.097281 0.033579 0.491333
Si Si8 0.705749 0.304164 0.613067
O O1 0.328813 0.464311 0.743554
O O2 0.345403 0.158479 0.429179
O O3 0.504316 0.058864 0.658386
O O4 0.356117 0.893769 0.497686
O O5 0.841660 0.322959 0.219371
O O6 0.946273 0.619022 0.394015
O O7 0.884507 0.229564 0.028261
O O8 0.044507 0.062545 0.218039
O O9 0.891655 0.993041 0.386904
O O10 0.804339 0.972901 0.117800
O O11 0.937998 0.489453 0.071133
O O12 0.012642 0.889494 0.300122
O O13 0.772694 0.357182 0.804338
O O14 0.316123 0.886568 0.088935
O O15 0.347592 0.398537 0.357423
O O16 0.206682 0.897200 0.478431
#
# Coordination Sequence:
#
# PCOD9021274 Si02
#       8
#     2   2   2   2   2   2   2   2
#     4  11  26  46  68  97 129 165 218 278 332 387
#     4  10  22  38  59  92 130 167 211 258 312 382
#     4  10  22  38  59  92 130 167 211 258 312 382
#     4  10  22  38  59  92 130 167 211 258 312 382
#     4  12  22  42  68  92 126 174 214 264 328 382
#     4  11  26  46  68  97 129 165 218 278 332 387
#     4  10  22  38  59  92 130 167 211 258 312 382
#     4  12  22  42  68  92 126 174 214 264 328 382
#
# _framework density 19.931398999999999
#
# number of rings (size 3 to 8) (size 9 to 14) (size 15 to 20)
#    0.000    1.250    2.500    3.000    3.500    2.000 
#    0.000    0.000    0.000    6.000    0.000    0.000 
#    0.000    0.000    0.000    0.000    0.000    0.000 
#
# Total GULP energy -89260.593096 kJ/mol
# GULP energy per Si atom -5578.787068 kJ/mol
# Density = 1.988603 g / cm^3
# Si number density = 19.931399 Si / 1000 Ang^3
#
#
#
# Elastic Constant Matrix: (Units=GPa)
#
#
# Indices 1 2 3 4 5 6 
#
# 1 70.7566 11.5745 2.2567 3.2010 0.3354 -4.7590
# 2 11.5745 92.6411 10.5143 0.3944 -6.0618 -3.5255
# 3 2.2567 10.5143 57.0650 -7.5339 3.5682 -11.8372
# 4 3.2010 0.3944 -7.5339 34.8667 0.9495 -8.4071
# 5 0.3354 -6.0618 3.5682 0.9495 33.8133 -2.3593
# 6 -4.7590 -3.5255 -11.8372 -8.4071 -2.3593 27.1018
#
#
#
# Elastic Compliance Matrix: (Units=1/GPa)
#
#
# Indices 1 2 3 4 5 6 
#
# 1 0.014598 -0.001772 0.000102 -0.000781 -0.000304 0.002109
# 2 -0.001772 0.011428 -0.002177 -0.000429 0.002329 0.000294
# 3 0.000102 -0.002177 0.021339 0.007374 -0.002071 0.011162
# 4 -0.000781 -0.000429 0.007374 0.033599 -0.000858 0.013376
# 5 -0.000304 0.002329 -0.002071 -0.000858 0.030357 0.001721
# 6 0.002109 0.000294 0.011162 0.013376 0.001721 0.046481
#
#
# Mechanical properties :
#
#
# Convention : Reuss Voigt Hill
#
# Bulk Modulus (GPa) = 25.20589 29.90599 27.55594
# Shear Modulus (GPa) = 27.97669 32.23082 30.10375
#
# Velocity S-wave (km/s) = 3.75059 4.02567 3.89056
# Velocity P-wave (km/s) = 5.60622 6.05351 5.83416
#
# Compressibility (1/GPa) = 0.03967327
#
# Stress axis : x y z
#
# Youngs Moduli (GPa) = 68.50184 87.50301 46.86161
#
# Poissons Ratio (x) = 0.15504 -0.00480
# Poissons Ratio (y) = 0.12137 0.10201
# Poissons Ratio (z) = -0.00702 0.19048
#
# Static dielectric constant tensor:
#      x y z
#    x 1.744280 0.077920 -0.022120 
#    y 0.077920 1.726200 -0.024860 
#    z -0.022120 -0.024860 1.706030 
# 
# From -- ./inp_files/307851.got.cif
#   From: 2010.05.17/outbox.cif.g08.bks.cpg/sg2_154_cif.got.tgz:307851.got - 2010.06.03 11:33:40.
