data_PCOD9021242
_publ_section_title
;
Structure prediction by ZEFSAII (Michael W. Deem and Ramdas Pophale) SiO2 
 PCOD9021242
Probable space group: P -1
;
_chemical_formula_sum "Si O2"
_cell_formula_units_Z 15
_cell_length_a 11.764927
_cell_length_b 15.307450
_cell_length_c 13.889366
_cell_angle_alpha 160.811166
_cell_angle_beta 126.662009
_cell_angle_gamma 49.829983
_cell_volume 627.500184
_symmetry_space_group_name_H-M "P -1"
_symmetry_group_IT_number 2
_symmetry_cell_setting 'triclinic'
loop_
_space_group_symop_operation_xyz
x,y,z
-x,-y,-z
loop_
_atom_site_type_symbol
_atom_site_label
_atom_site_fract_x
_atom_site_fract_y
_atom_site_fract_z
Si Si1 0.098240 0.017465 0.160965
Si Si2 0.500000 0.500000 0.500000
Si Si3 0.577126 0.303895 0.079500
Si Si4 0.742383 0.640621 0.081478
Si Si5 0.078609 0.945007 0.378045
Si Si6 0.948148 0.645598 0.801031
Si Si7 0.623349 0.824469 0.741269
Si Si8 0.815689 0.430076 0.680375
O O1 0.271006 0.892753 0.092749
O O2 0.043642 0.334565 0.496200
O O3 0.053951 0.828557 0.021769
O O4 0.000000 0.000000 0.000000
O O5 0.551660 0.730747 0.700237
O O6 0.670519 0.388162 0.515560
O O7 0.432682 0.315501 0.957530
O O8 0.590458 0.611546 0.424566
O O9 0.564656 0.150795 0.018098
O O10 0.782684 0.554064 0.899898
O O11 0.840002 0.384896 0.929428
O O12 0.790864 0.910504 0.408246
O O13 0.945685 0.139123 0.449613
O O14 0.000000 0.000000 0.500000
O O15 0.800085 0.748192 0.766238
O O16 0.878476 0.628289 0.851887
#
# Coordination Sequence:
#
# PCOD9021242 Si02
#       8
#     2   1   2   2   2   2   2   2
#     4  12  22  40  59  86 127 169 215 250 303 379
#     4  10  22  38  58  96 140 156 190 244 330 392
#     4  12  23  37  63  85 124 159 211 257 298 358
#     4  11  23  42  65  94 123 164 213 257 308 368
#     4  10  22  41  66  90 124 167 209 255 304 369
#     4  11  23  38  61  89 124 169 203 253 313 371
#     4  11  21  38  54  90 125 169 188 248 310 374
#     4  10  22  41  65  96 130 163 202 257 317 384
#
# _framework density 23.904375999999999
#
# number of rings (size 3 to 8) (size 9 to 14) (size 15 to 20)
#    0.000    1.067    4.000    3.600    1.867    3.733 
#    2.400    0.000    0.000    4.800    0.000    0.000 
#    0.000    0.000    0.000    0.000    0.000    0.000 
#
# Total GULP energy -83805.447125 kJ/mol
# GULP energy per Si atom -5587.029808 kJ/mol
# Density = 2.384997 g / cm^3
# Si number density = 23.904376 Si / 1000 Ang^3
#
#
#
# Elastic Constant Matrix: (Units=GPa)
#
#
# Indices 1 2 3 4 5 6 
#
# 1 117.8904 37.5334 15.7858 -0.3697 20.2307 -23.2447
# 2 37.5334 117.8619 16.9157 -1.5966 17.3437 -33.3091
# 3 15.7858 16.9157 98.9514 12.8087 7.8440 -2.6202
# 4 -0.3697 -1.5966 12.8087 30.8510 1.9767 12.8532
# 5 20.2307 17.3437 7.8440 1.9767 29.3221 1.1066
# 6 -23.2447 -33.3091 -2.6202 12.8532 1.1066 43.9897
#
#
#
# Elastic Compliance Matrix: (Units=1/GPa)
#
#
# Indices 1 2 3 4 5 6 
#
# 1 0.011232 -0.000736 -0.000722 -0.001638 -0.007237 0.005996
# 2 -0.000736 0.012705 -0.000873 -0.002778 -0.006970 0.010166
# 3 -0.000722 -0.000873 0.011190 -0.005070 -0.001681 0.001148
# 4 -0.001638 -0.002778 -0.005070 0.040549 0.001968 -0.015168
# 5 -0.007237 -0.006970 -0.001681 0.001968 0.043948 -0.010883
# 6 0.005996 0.010166 0.001148 -0.015168 -0.010883 0.038373
#
#
# Mechanical properties :
#
#
# Convention : Reuss Voigt Hill
#
# Bulk Modulus (GPa) = 32.82338 52.79706 42.81022
# Shear Modulus (GPa) = 28.93269 38.46382 33.69825
#
# Velocity S-wave (km/s) = 3.48278 4.01567 3.75868
# Velocity P-wave (km/s) = 5.47120 6.60572 6.06505
#
# Compressibility (1/GPa) = 0.03046609
#
# Stress axis : x y z
#
# Youngs Moduli (GPa) = 89.02784 78.70620 89.36303
#
# Poissons Ratio (x) = 0.05795 0.06448
# Poissons Ratio (y) = 0.06555 0.07804
# Poissons Ratio (z) = 0.06424 0.06873
#
# Static dielectric constant tensor:
#      x y z
#    x 2.524170 0.671860 -0.373360 
#    y 0.671860 2.536840 -0.410920 
#    z -0.373360 -0.410920 2.150080 
# 
# From -- ./inp_files/522066.got.cif
#   From: 2010.05.17/outbox.cif.g08.bks.cpg/sg2_262_cif.got.tgz:522066.got - 2010.06.03 11:33:40.
