data_PCOD9021002
_publ_section_title
;
Structure prediction by ZEFSAII (Michael W. Deem and Ramdas Pophale) SiO2 
 PCOD9021002
Probable space group: P -1
;
_chemical_formula_sum "Si O2"
_cell_formula_units_Z 14
_cell_length_a 14.415002
_cell_length_b 8.864898
_cell_length_c 8.859952
_cell_angle_alpha 68.612465
_cell_angle_beta 38.304605
_cell_angle_gamma 56.536413
_cell_volume 580.361634
_symmetry_space_group_name_H-M "P -1"
_symmetry_group_IT_number 2
_symmetry_cell_setting 'triclinic'
loop_
_space_group_symop_operation_xyz
x,y,z
-x,-y,-z
loop_
_atom_site_type_symbol
_atom_site_label
_atom_site_fract_x
_atom_site_fract_y
_atom_site_fract_z
Si Si1 0.939741 0.556141 0.836036
Si Si2 0.164701 0.621183 0.196295
Si Si3 0.372074 0.363000 0.579663
Si Si4 0.171588 0.008243 0.505791
Si Si5 0.223235 0.668490 0.423023
Si Si6 0.738957 0.838753 0.404765
Si Si7 0.266841 0.816324 0.741798
O O1 0.866623 0.542359 0.770256
O O2 0.038452 0.676073 0.680300
O O3 0.088691 0.349137 0.741510
O O4 0.792411 0.602848 0.126846
O O5 0.271011 0.578056 0.229019
O O6 0.234107 0.687560 0.942295
O O7 0.995268 0.808322 0.380233
O O8 0.337254 0.536719 0.458070
O O9 0.395523 0.209923 0.481355
O O10 0.533797 0.292464 0.504240
O O11 0.224405 0.862414 0.358861
O O12 0.152107 0.887081 0.713591
O O13 0.291861 0.074852 0.418499
O O14 0.761125 0.990970 0.224446
#
# Coordination Sequence:
#
# PCOD9021002 Si02
#       7
#     2   2   2   2   2   2   2
#     4  10  22  38  62  86 113 152 198 238 276 338
#     4  11  22  38  59  86 118 155 187 237 290 342
#     4  11  22  38  61  89 115 150 192 240 287 334
#     4   9  21  37  59  84 114 151 199 232 274 342
#     4  11  22  37  60  88 118 148 193 238 289 340
#     4   8  19  38  61  82 113 147 198 236 271 336
#     4  10  22  37  64  83 118 149 195 236 285 338
#
# _framework density 24.122892
#
# number of rings (size 3 to 8) (size 9 to 14) (size 15 to 20)
#    0.857    1.143    0.000    4.286    4.000    2.857 
#    0.000    0.000    0.000    1.714    0.000    0.000 
#    0.000    0.000    0.000    0.000    0.000    0.000 
#
# Total GULP energy -78039.037808 kJ/mol
# GULP energy per Si atom -5574.216986 kJ/mol
# Density = 2.406799 g / cm^3
# Si number density = 24.122892 Si / 1000 Ang^3
#
#
#
# Elastic Constant Matrix: (Units=GPa)
#
#
# Indices 1 2 3 4 5 6 
#
# 1 102.8149 33.0145 13.6264 10.6582 8.9643 8.7742
# 2 33.0145 85.6367 -0.7452 3.4954 -5.6066 26.1039
# 3 13.6264 -0.7452 20.5103 -10.1743 9.1313 -12.7127
# 4 10.6582 3.4954 -10.1743 18.5592 0.9739 9.5331
# 5 8.9643 -5.6066 9.1313 0.9739 23.2153 4.2702
# 6 8.7742 26.1039 -12.7127 9.5331 4.2702 52.0697
#
#
#
# Elastic Compliance Matrix: (Units=1/GPa)
#
#
# Indices 1 2 3 4 5 6 
#
# 1 0.016734 -0.004556 -0.025684 -0.021389 0.004030 -0.003221
# 2 -0.004556 0.017388 -0.008029 -0.000094 0.011108 -0.010803
# 3 -0.025684 -0.008029 0.162840 0.089971 -0.066671 0.037105
# 4 -0.021389 -0.000094 0.089971 0.113352 -0.033304 0.007596
# 5 0.004030 0.011108 -0.066671 -0.033304 0.075990 -0.022660
# 6 -0.003221 -0.010803 0.037105 0.007596 -0.022660 0.034691
#
#
# Mechanical properties :
#
#
# Convention : Reuss Voigt Hill
#
# Bulk Modulus (GPa) = 8.30404 33.41705 20.86054
# Shear Modulus (GPa) = 9.29933 29.63993 19.46963
#
# Velocity S-wave (km/s) = 1.96554 3.50909 2.84404
# Velocity P-wave (km/s) = 2.93275 5.50465 4.41034
#
# Compressibility (1/GPa) = 0.12042338
#
# Stress axis : x y z
#
# Youngs Moduli (GPa) = 59.75875 57.51113 6.14101
#
# Poissons Ratio (x) = 0.26202 0.15773
# Poissons Ratio (y) = 0.27226 0.04931
# Poissons Ratio (z) = 1.53484 0.46177
#
# Static dielectric constant tensor:
#      x y z
#    x 1.984340 0.058140 0.028910 
#    y 0.058140 1.997400 -0.008060 
#    z 0.028910 -0.008060 1.945630 
# 
# From -- ./inp_files/295113.got.cif
#   From: 2010.05.17/outbox.cif.g08.bks.cpg/sg2_148_cif.got.tgz:295113.got - 2010.06.03 11:33:40.
