data_PCOD9021949
_publ_section_title
;
Structure prediction by ZEFSAII (Michael W. Deem and Ramdas Pophale) SiO2 
 PCOD9021949
Probable space group: P -1
;
_chemical_formula_sum "Si O2"
_cell_formula_units_Z 16
_cell_length_a 9.265190
_cell_length_b 14.893660
_cell_length_c 8.011497
_cell_angle_alpha 52.428902
_cell_angle_beta 84.983517
_cell_angle_gamma 113.025236
_cell_volume 721.450901
_symmetry_space_group_name_H-M "P -1"
_symmetry_group_IT_number 2
_symmetry_cell_setting 'triclinic'
loop_
_space_group_symop_operation_xyz
x,y,z
-x,-y,-z
loop_
_atom_site_type_symbol
_atom_site_label
_atom_site_fract_x
_atom_site_fract_y
_atom_site_fract_z
Si Si1 0.347310 0.511597 0.675680
Si Si2 0.910673 0.580366 0.883480
Si Si3 0.260483 0.889521 0.005282
Si Si4 0.092402 0.860799 0.705797
Si Si5 0.476740 0.182143 0.812765
Si Si6 0.284391 0.421762 0.418385
Si Si7 0.027951 0.124967 0.747838
Si Si8 0.806589 0.907892 0.768234
O O1 0.433364 0.671596 0.447518
O O2 0.247937 0.438533 0.595170
O O3 0.505047 0.491138 0.712299
O O4 0.229692 0.464888 0.903289
O O5 0.812744 0.550468 0.748451
O O6 0.054685 0.742626 0.714692
O O7 0.000000 0.500000 0.000000
O O8 0.174548 0.846859 0.881908
O O9 0.376151 0.053945 0.840469
O O10 0.377093 0.832869 0.099481
O O11 0.103420 0.838242 0.210947
O O12 0.902552 0.833451 0.802926
O O13 0.229625 0.022086 0.458398
O O14 0.341189 0.159800 0.998966
O O15 0.215375 0.263350 0.577566
O O16 0.968537 0.054627 0.656717
O O17 0.000000 0.000000 0.000000
#
# Coordination Sequence:
#
# PCOD9021949 Si02
#       8
#     2   2   2   2   2   2   2   2
#     4  11  27  45  71 100 139 188 231 275 351 418
#     4  12  29  47  69 102 144 189 233 284 344 421
#     4  10  22  38  67  97 133 167 222 285 348 409
#     4  11  23  42  66 100 127 176 230 289 339 414
#     4  10  24  42  63 101 133 177 218 286 351 408
#     4  11  25  47  71 101 138 184 234 290 337 416
#     4  11  19  38  69  96 126 173 224 283 342 398
#     4  10  22  39  68  96 129 168 228 285 348 394
#
# _framework density 22.177530999999998
#
# number of rings (size 3 to 8) (size 9 to 14) (size 15 to 20)
#    0.000    1.250    2.500    2.625    7.000    2.000 
#    2.250    0.000    0.000    0.000    0.000    0.000 
#    0.000    0.000    0.000    0.000    0.000    0.000 
#
# Total GULP energy -89364.523143 kJ/mol
# GULP energy per Si atom -5585.282696 kJ/mol
# Density = 2.212705 g / cm^3
# Si number density = 22.177531 Si / 1000 Ang^3
#
#
#
# Elastic Constant Matrix: (Units=GPa)
#
#
# Indices 1 2 3 4 5 6 
#
# 1 92.7397 34.9097 27.3936 8.1252 26.4201 9.6448
# 2 34.9097 78.9384 16.0806 6.7253 20.9129 17.7254
# 3 27.3936 16.0806 88.3716 0.6743 15.0117 8.6179
# 4 8.1252 6.7253 0.6743 41.6334 -0.8881 10.2168
# 5 26.4201 20.9129 15.0117 -0.8881 36.1986 0.7354
# 6 9.6448 17.7254 8.6179 10.2168 0.7354 23.5534
#
#
#
# Elastic Compliance Matrix: (Units=1/GPa)
#
#
# Indices 1 2 3 4 5 6 
#
# 1 0.015632 -0.003688 -0.002621 -0.002234 -0.008217 -0.001441
# 2 -0.003688 0.019349 0.000320 0.000648 -0.008335 -0.013188
# 3 -0.002621 0.000320 0.013097 0.001248 -0.003583 -0.004389
# 4 -0.002234 0.000648 0.001248 0.027290 0.001650 -0.011919
# 5 -0.008217 -0.008335 -0.003583 0.001650 0.039782 0.008990
# 6 -0.001441 -0.013188 -0.004389 -0.011919 0.008990 0.059467
#
#
# Mechanical properties :
#
#
# Convention : Reuss Voigt Hill
#
# Bulk Modulus (GPa) = 27.70243 46.31307 37.00775
# Shear Modulus (GPa) = 25.17251 32.38811 28.78031
#
# Velocity S-wave (km/s) = 3.37270 3.82567 3.60630
# Velocity P-wave (km/s) = 5.26167 6.35944 5.83642
#
# Compressibility (1/GPa) = 0.03609792
#
# Stress axis : x y z
#
# Youngs Moduli (GPa) = 63.97156 51.68357 76.35108
#
# Poissons Ratio (x) = 0.19063 0.20013
# Poissons Ratio (y) = 0.23595 -0.02440
# Poissons Ratio (z) = 0.16768 -0.01652
#
# Static dielectric constant tensor:
#      x y z
#    x 1.880240 0.067880 0.145120 
#    y 0.067880 1.852410 0.094760 
#    z 0.145120 0.094760 2.155030 
# 
# From -- ./inp_files/199611.got.cif
#   From: 2010.05.17/outbox.cif.g08.bks.cpg/sg2_100_cif.got.tgz:199611.got - 2010.06.03 11:33:40.
