data_PCOD9021410
_publ_section_title
;
Structure prediction by ZEFSAII (Michael W. Deem and Ramdas Pophale) SiO2 
 PCOD9021410
Probable space group: P -1
;
_chemical_formula_sum "Si O2"
_cell_formula_units_Z 14
_cell_length_a 16.538060
_cell_length_b 8.707446
_cell_length_c 14.055095
_cell_angle_alpha 125.879425
_cell_angle_beta 25.459235
_cell_angle_gamma 120.839067
_cell_volume 704.166033
_symmetry_space_group_name_H-M "P -1"
_symmetry_group_IT_number 2
_symmetry_cell_setting 'triclinic'
loop_
_space_group_symop_operation_xyz
x,y,z
-x,-y,-z
loop_
_atom_site_type_symbol
_atom_site_label
_atom_site_fract_x
_atom_site_fract_y
_atom_site_fract_z
Si Si1 0.945680 0.807962 0.862110
Si Si2 0.004632 0.749578 0.995702
Si Si3 0.614185 0.625497 0.041421
Si Si4 0.537439 0.702279 0.790361
Si Si5 0.786938 0.025227 0.702510
Si Si6 0.316291 0.437384 0.617194
Si Si7 0.259524 0.724556 0.342606
O O1 0.980779 0.720488 0.897496
O O2 0.106026 0.738518 0.592788
O O3 0.750063 0.748620 0.003511
O O4 0.954092 0.033308 0.948280
O O5 0.175798 0.615609 0.804348
O O6 0.811740 0.696708 0.232725
O O7 0.500214 0.489740 0.183012
O O8 0.464189 0.743016 0.179178
O O9 0.730425 0.478491 0.795449
O O10 0.615448 0.661074 0.588464
O O11 0.683890 0.828001 0.736887
O O12 0.341058 0.828106 0.044850
O O13 0.779205 0.116814 0.638687
O O14 0.000000 0.000000 0.500000
O O15 0.500000 0.500000 0.500000
#
# Coordination Sequence:
#
# PCOD9021410 Si02
#       7
#     2   2   2   2   2   2   2
#     4  11  22  41  62  86 123 158 195 250 298 345
#     4  10  25  40  60  92 117 157 212 244 289 358
#     4  10  22  39  61  89 120 155 195 245 301 354
#     4  10  22  40  62  90 120 156 203 244 294 362
#     4  10  23  40  63  93 123 154 193 247 304 355
#     4  11  23  42  63  86 121 161 201 250 297 344
#     4  10  22  38  61  91 118 154 201 240 295 366
#
# _framework density 19.881672999999999
#
# number of rings (size 3 to 8) (size 9 to 14) (size 15 to 20)
#    0.000    1.714    0.000    3.000    0.000   14.857 
#    0.000    3.571    0.000    0.000    0.000    0.000 
#    0.000    0.000    0.000    0.000    0.000    0.000 
#
# Total GULP energy -78300.999733 kJ/mol
# GULP energy per Si atom -5592.928552 kJ/mol
# Density = 1.983642 g / cm^3
# Si number density = 19.881673 Si / 1000 Ang^3
#
#
#
# Elastic Constant Matrix: (Units=GPa)
#
#
# Indices 1 2 3 4 5 6 
#
# 1 130.7002 66.4100 70.3334 -16.9418 -11.9024 1.5741
# 2 66.4100 76.4195 44.2453 -18.4510 -12.6270 -0.2381
# 3 70.3334 44.2453 132.2278 -17.1773 8.4801 -1.9108
# 4 -16.9418 -18.4510 -17.1773 11.6792 3.0164 -0.8759
# 5 -11.9024 -12.6270 8.4801 3.0164 55.8741 -10.7683
# 6 1.5741 -0.2381 -1.9108 -0.8759 -10.7683 21.1560
#
#
#
# Elastic Compliance Matrix: (Units=1/GPa)
#
#
# Indices 1 2 3 4 5 6 
#
# 1 0.015986 -0.011298 -0.005204 -0.002805 0.001582 -0.001098
# 2 -0.011298 0.031669 -0.000614 0.032048 0.003979 0.004494
# 3 -0.005204 -0.000614 0.012096 0.010211 -0.003625 0.000051
# 4 -0.002805 0.032048 0.010211 0.148122 -0.001588 0.006816
# 5 0.001582 0.003979 -0.003625 -0.001588 0.021820 0.010640
# 6 -0.001098 0.004494 0.000051 0.006816 0.010640 0.053103
#
#
# Mechanical properties :
#
#
# Convention : Reuss Voigt Hill
#
# Bulk Modulus (GPa) = 39.18878 77.92497 58.55688
# Shear Modulus (GPa) = 15.35928 28.29910 21.82919
#
# Velocity S-wave (km/s) = 2.78247 3.77686 3.31714
# Velocity P-wave (km/s) = 5.48422 7.63538 6.64739
#
# Compressibility (1/GPa) = 0.02551751
#
# Stress axis : x y z
#
# Youngs Moduli (GPa) = 62.55408 31.57660 82.67127
#
# Poissons Ratio (x) = 0.35676 0.43025
# Poissons Ratio (y) = 0.70676 0.05078
# Poissons Ratio (z) = 0.32555 0.01939
#
# Static dielectric constant tensor:
#      x y z
#    x 1.679460 -0.017030 0.010300 
#    y -0.017030 1.694700 0.000580 
#    z 0.010300 0.000580 1.682650 
# 
# From -- ./inp_files/92155.got.cif
#   From: 2010.05.17/outbox.cif.g08.bks.cpg/sg2_47_cif.got.tgz:92155.got - 2010.06.03 11:33:40.
