data_PCOD9021584
_publ_section_title
;
Structure prediction by ZEFSAII (Michael W. Deem and Ramdas Pophale) SiO2 
 PCOD9021584
Probable space group: P -1
;
_chemical_formula_sum "Si O2"
_cell_formula_units_Z 12
_cell_length_a 10.882246
_cell_length_b 12.493149
_cell_length_c 5.189356
_cell_angle_alpha 129.664441
_cell_angle_beta 72.979103
_cell_angle_gamma 108.547885
_cell_volume 510.987658
_symmetry_space_group_name_H-M "P -1"
_symmetry_group_IT_number 2
_symmetry_cell_setting 'triclinic'
loop_
_space_group_symop_operation_xyz
x,y,z
-x,-y,-z
loop_
_atom_site_type_symbol
_atom_site_label
_atom_site_fract_x
_atom_site_fract_y
_atom_site_fract_z
Si Si1 0.989726 0.804582 0.438716
Si Si2 0.849675 0.879429 0.127727
Si Si3 0.224580 0.679413 0.143037
Si Si4 0.409433 0.458877 0.739210
Si Si5 0.327890 0.847836 0.830557
Si Si6 0.371129 0.146881 0.437202
O O1 0.073585 0.680223 0.175430
O O2 0.914136 0.819255 0.245061
O O3 0.091247 0.953303 0.648466
O O4 0.895242 0.802328 0.735845
O O5 0.695992 0.855137 0.245748
O O6 0.244424 0.758474 0.526454
O O7 0.287702 0.540465 0.923959
O O8 0.304468 0.770063 0.000917
O O9 0.500000 0.500000 0.500000
O O10 0.363354 0.292381 0.529499
O O11 0.500000 0.500000 0.000000
O O12 0.476736 0.861611 0.665448
O O13 0.298499 0.005041 0.124423
#
# Coordination Sequence:
#
# PCOD9021584 Si02
#       6
#     2   2   2   2   2   2
#     4  10  22  39  62  92 125 169 211 259 318 365
#     4  10  22  38  63  92 126 165 213 266 306 374
#     4  12  22  45  64  96 129 171 211 260 324 385
#     4  12  25  44  63  94 134 173 204 256 332 391
#     4  11  25  38  69  97 130 158 218 272 319 373
#     4  11  24  43  64 102 129 165 215 269 319 377
#
# _framework density 23.483936
#
# number of rings (size 3 to 8) (size 9 to 14) (size 15 to 20)
#    0.000    1.000    5.000    1.000    4.667    6.667 
#    0.000    1.667    0.000    0.000    0.000    0.000 
#    0.000    0.000    0.000    0.000    0.000    0.000 
#
# Total GULP energy -67212.247941 kJ/mol
# GULP energy per Si atom -5601.020662 kJ/mol
# Density = 2.343049 g / cm^3
# Si number density = 23.483936 Si / 1000 Ang^3
#
#
#
# Elastic Constant Matrix: (Units=GPa)
#
#
# Indices 1 2 3 4 5 6 
#
# 1 62.2693 16.8861 45.9957 0.7485 -27.0703 -19.7139
# 2 16.8861 118.8554 73.6382 -2.2050 -12.7282 -14.1100
# 3 45.9957 73.6382 133.1206 -9.4638 -33.4711 -21.7578
# 4 0.7485 -2.2050 -9.4638 56.5000 -2.8106 -13.5946
# 5 -27.0703 -12.7282 -33.4711 -2.8106 50.9126 -3.0214
# 6 -19.7139 -14.1100 -21.7578 -13.5946 -3.0214 37.5860
#
#
#
# Elastic Compliance Matrix: (Units=1/GPa)
#
#
# Indices 1 2 3 4 5 6 
#
# 1 0.030971 0.002610 -0.005526 0.003454 0.014654 0.016453
# 2 0.002610 0.013194 -0.008196 -0.000612 -0.000659 0.001303
# 3 -0.005526 -0.008196 0.016929 0.004354 0.006735 0.005941
# 4 0.003454 -0.000612 0.004354 0.021680 0.006482 0.012465
# 5 0.014654 -0.000659 0.006735 0.006482 0.033024 0.016337
# 6 0.016453 0.001303 0.005941 0.012465 0.016337 0.044985
#
#
# Mechanical properties :
#
#
# Convention : Reuss Voigt Hill
#
# Bulk Modulus (GPa) = 25.72696 65.25392 45.49044
# Shear Modulus (GPa) = 25.51501 40.84808 33.18155
#
# Velocity S-wave (km/s) = 3.29977 4.17514 3.76300
# Velocity P-wave (km/s) = 5.04944 7.14768 6.18814
#
# Compressibility (1/GPa) = 0.03886972
#
# Stress axis : x y z
#
# Youngs Moduli (GPa) = 32.28846 75.79412 59.06989
#
# Poissons Ratio (x) = -0.19781 0.32639
# Poissons Ratio (y) = -0.08427 0.48415
# Poissons Ratio (z) = 0.17841 0.62123
#
# Static dielectric constant tensor:
#      x y z
#    x 1.926570 0.018360 -0.010310 
#    y 0.018360 1.865430 0.009500 
#    z -0.010310 0.009500 1.888360 
# 
# From -- ./inp_files/60304.got.cif
#   From: 2010.05.17/outbox.cif.g08.bks.cpg/sg2_31_cif.got.tgz:60304.got - 2010.06.03 11:33:40.
