data_PCOD9021723
_publ_section_title
;
Structure prediction by ZEFSAII (Michael W. Deem and Ramdas Pophale) SiO2 
 PCOD9021723
Probable space group: P -1
;
_chemical_formula_sum "Si O2"
_cell_formula_units_Z 16
_cell_length_a 9.544830
_cell_length_b 24.163975
_cell_length_c 12.785767
_cell_angle_alpha 31.964690
_cell_angle_beta 110.614035
_cell_angle_gamma 134.062226
_cell_volume 875.337179
_symmetry_space_group_name_H-M "P -1"
_symmetry_group_IT_number 2
_symmetry_cell_setting 'triclinic'
loop_
_space_group_symop_operation_xyz
x,y,z
-x,-y,-z
loop_
_atom_site_type_symbol
_atom_site_label
_atom_site_fract_x
_atom_site_fract_y
_atom_site_fract_z
Si Si1 0.472025 0.828694 0.833244
Si Si2 0.790255 0.319369 0.797333
Si Si3 0.611671 0.464753 0.024184
Si Si4 0.806070 0.215710 0.355292
Si Si5 0.717991 0.198458 0.769725
Si Si6 0.619059 0.238405 0.469999
Si Si7 0.230237 0.177134 0.208635
Si Si8 0.079848 0.825156 0.983071
O O1 0.274993 0.763594 0.801648
O O2 0.647945 0.846847 0.788979
O O3 0.636884 0.016888 0.620860
O O4 0.332015 0.700775 0.101170
O O5 0.612082 0.197735 0.846337
O O6 0.000000 0.500000 0.500000
O O7 0.885712 0.255764 0.955163
O O8 0.606671 0.354750 0.265124
O O9 0.439699 0.341839 0.076189
O O10 0.500000 0.500000 0.000000
O O11 0.902340 0.647769 0.783705
O O12 0.744869 0.251648 0.382968
O O13 0.760430 0.291100 0.530803
O O14 0.940302 0.250406 0.791618
O O15 0.500000 0.000000 0.000000
O O16 0.337892 0.034150 0.723535
O O17 0.125034 0.210276 0.054213
O O18 0.000000 0.000000 0.500000
#
# Coordination Sequence:
#
# PCOD9021723 Si02
#       8
#     2   2   2   2   2   2   2   2
#     4  11  23  40  66  93 131 168 210 268 316 392
#     4  10  22  38  64  97 115 164 219 265 304 367
#     4  12  27  36  59  98 130 164 205 266 323 380
#     4  11  23  39  63  96 126 164 215 262 321 379
#     4   8  18  35  64  84 113 165 212 250 301 365
#     4  11  19  41  66  90 127 165 214 261 317 380
#     4  12  23  41  63  94 136 172 203 259 339 381
#     4   9  20  39  63  90 122 167 213 250 321 381
#
# _framework density 18.278670999999999
#
# number of rings (size 3 to 8) (size 9 to 14) (size 15 to 20)
#    0.750    0.750    3.750    1.125    5.250    0.000 
#    0.000    0.625    2.750    2.250    0.000    0.000 
#    0.000    0.000    0.000    0.000    0.000    0.000 
#
# Total GULP energy -89094.946469 kJ/mol
# GULP energy per Si atom -5568.434154 kJ/mol
# Density = 1.823707 g / cm^3
# Si number density = 18.278671 Si / 1000 Ang^3
#
#
#
# Elastic Constant Matrix: (Units=GPa)
#
#
# Indices 1 2 3 4 5 6 
#
# 1 132.5178 65.2942 47.3385 8.7650 0.4877 -8.8354
# 2 65.2942 122.5855 44.0906 23.3471 -9.6347 11.6985
# 3 47.3385 44.0906 74.5764 8.0858 -5.9844 1.9531
# 4 8.7650 23.3471 8.0858 29.6908 2.3592 -3.0956
# 5 0.4877 -9.6347 -5.9844 2.3592 28.4965 4.4690
# 6 -8.8354 11.6985 1.9531 -3.0956 4.4690 38.5678
#
#
#
# Elastic Compliance Matrix: (Units=1/GPa)
#
#
# Indices 1 2 3 4 5 6 
#
# 1 0.012864 -0.006698 -0.005179 0.003903 -0.004855 0.006117
# 2 -0.006698 0.016496 -0.003469 -0.011466 0.007185 -0.008115
# 3 -0.005179 -0.003469 0.019208 -0.001405 0.003317 -0.001604
# 4 0.003903 -0.011466 -0.001405 0.043604 -0.009263 0.009016
# 5 -0.004855 0.007185 0.003317 -0.009263 0.040462 -0.008892
# 6 0.006117 -0.008115 -0.001604 0.009016 -0.008892 0.031626
#
#
# Mechanical properties :
#
#
# Convention : Reuss Voigt Hill
#
# Bulk Modulus (GPa) = 55.93761 71.45849 63.69805
# Shear Modulus (GPa) = 24.88700 30.88145 27.88423
#
# Velocity S-wave (km/s) = 3.69390 4.11479 3.91001
# Velocity P-wave (km/s) = 6.99016 7.85838 7.43695
#
# Compressibility (1/GPa) = 0.01787706
#
# Stress axis : x y z
#
# Youngs Moduli (GPa) = 77.73815 60.62190 52.06298
#
# Poissons Ratio (x) = 0.40603 0.26961
# Poissons Ratio (y) = 0.52067 0.18059
# Poissons Ratio (z) = 0.40257 0.21027
#
# Static dielectric constant tensor:
#      x y z
#    x 1.598280 -0.001920 0.008340 
#    y -0.001920 1.685490 -0.009460 
#    z 0.008340 -0.009460 1.684620 
# 
# From -- ./inp_files/404715.got.cif
#   From: 2010.05.17/outbox.cif.g08.bks.cpg/sg2_203_cif.got.tgz:404715.got - 2010.06.03 11:33:40.
