data_PCOD9021349
_publ_section_title
;
Structure prediction by ZEFSAII (Michael W. Deem and Ramdas Pophale) SiO2 
 PCOD9021349
Probable space group: P -1
;
_chemical_formula_sum "Si O2"
_cell_formula_units_Z 16
_cell_length_a 23.032836
_cell_length_b 11.275579
_cell_length_c 5.247841
_cell_angle_alpha 97.496350
_cell_angle_beta 112.341472
_cell_angle_gamma 32.380474
_cell_volume 623.146771
_symmetry_space_group_name_H-M "P -1"
_symmetry_group_IT_number 2
_symmetry_cell_setting 'triclinic'
loop_
_space_group_symop_operation_xyz
x,y,z
-x,-y,-z
loop_
_atom_site_type_symbol
_atom_site_label
_atom_site_fract_x
_atom_site_fract_y
_atom_site_fract_z
Si Si1 0.242455 0.375586 0.495515
Si Si2 0.465643 0.920163 0.460596
Si Si3 0.443144 0.776490 0.987588
Si Si4 0.326456 0.574095 0.095898
Si Si5 0.994802 0.642050 0.131119
Si Si6 0.843781 0.345647 0.086416
Si Si7 0.907395 0.917230 0.554546
Si Si8 0.348155 0.713237 0.569750
O O1 0.237347 0.458117 0.769684
O O2 0.135426 0.454271 0.355908
O O3 0.370548 0.092810 0.583452
O O4 0.202288 0.526507 0.228616
O O5 0.595957 0.634675 0.625235
O O6 0.500000 0.000000 0.500000
O O7 0.393663 0.965262 0.132816
O O8 0.565570 0.616931 0.989934
O O9 0.350321 0.849622 0.680875
O O10 0.509977 0.567823 0.225276
O O11 0.319881 0.717742 0.238693
O O12 0.189607 0.737789 0.934720
O O13 0.929031 0.787378 0.326429
O O14 0.938939 0.807526 0.848181
O O15 0.000000 0.500000 0.000000
O O16 0.989764 0.145004 0.311171
O O17 0.756839 0.183235 0.402808
#
# Coordination Sequence:
#
# PCOD9021349 Si02
#       8
#     2   2   2   2   2   2   2   2
#     4  10  22  38  60  93 135 163 205 266 324 391
#     4  11  22  37  61  96 126 170 211 260 337 385
#     4  10  24  42  63  92 130 167 222 276 316 388
#     4  11  23  39  66  91 129 171 217 275 318 387
#     4  10  22  40  63  95 129 166 218 263 321 386
#     4  10  22  41  63  94 131 163 212 268 324 385
#     4  10  23  42  66  92 128 174 210 271 324 385
#     4  10  24  44  63  91 128 170 228 263 326 381
#
# _framework density 25.676133
#
# number of rings (size 3 to 8) (size 9 to 14) (size 15 to 20)
#    0.000    1.750    1.250    1.500    7.000    2.500 
#    0.000    0.625    0.000    0.000    0.000    0.000 
#    0.000    0.000    0.000    0.000    0.000    0.000 
#
# Total GULP energy -89373.370234 kJ/mol
# GULP energy per Si atom -5585.835640 kJ/mol
# Density = 2.561769 g / cm^3
# Si number density = 25.676133 Si / 1000 Ang^3
#
#
#
# Elastic Constant Matrix: (Units=GPa)
#
#
# Indices 1 2 3 4 5 6 
#
# 1 90.0695 31.3325 13.6585 18.9991 23.7143 -8.5695
# 2 31.3325 87.0688 22.2633 -4.3891 6.8548 -28.4461
# 3 13.6585 22.2633 73.9770 16.3375 -0.8265 3.9713
# 4 18.9991 -4.3891 16.3375 42.8046 -4.0120 -0.3110
# 5 23.7143 6.8548 -0.8265 -4.0120 33.5665 16.9306
# 6 -8.5695 -28.4461 3.9713 -0.3110 16.9306 31.2952
#
#
#
# Elastic Compliance Matrix: (Units=1/GPa)
#
#
# Indices 1 2 3 4 5 6 
#
# 1 0.025395 0.005112 -0.005763 -0.011756 -0.036711 0.032075
# 2 0.005112 0.036297 -0.016413 0.004361 -0.040331 0.058337
# 3 -0.005763 -0.016413 0.022805 -0.005859 0.023509 -0.032167
# 4 -0.011756 0.004361 -0.005859 0.032542 0.014091 -0.005812
# 5 -0.036711 -0.040331 0.023509 0.014091 0.125455 -0.117426
# 6 0.032075 0.058337 -0.032167 -0.005812 -0.117426 0.161314
#
#
# Mechanical properties :
#
#
# Convention : Reuss Voigt Hill
#
# Bulk Modulus (GPa) = 19.85359 42.84712 31.35035
# Shear Modulus (GPa) = 10.99565 33.79065 22.39315
#
# Velocity S-wave (km/s) = 2.07165 3.63165 2.95640
# Velocity P-wave (km/s) = 3.67034 5.85739 4.88776
#
# Compressibility (1/GPa) = 0.05036872
#
# Stress axis : x y z
#
# Youngs Moduli (GPa) = 39.37740 27.55067 43.85096
#
# Poissons Ratio (x) = -0.14083 0.25271
# Poissons Ratio (y) = -0.20128 0.71971
# Poissons Ratio (z) = 0.22693 0.45218
#
# Static dielectric constant tensor:
#      x y z
#    x 2.409480 -0.089980 -0.105990 
#    y -0.089980 2.057430 0.015210 
#    z -0.105990 0.015210 2.349250 
# 
# From -- ./inp_files/77009.got.cif
#   From: 2010.05.17/outbox.cif.g08.bks.cpg/sg2_39_cif.got.tgz:77009.got - 2010.06.03 11:33:40.
