data_PCOD9021791
_publ_section_title
;
Structure prediction by ZEFSAII (Michael W. Deem and Ramdas Pophale) SiO2 
 PCOD9021791
Probable space group: P -1
;
_chemical_formula_sum "Si O2"
_cell_formula_units_Z 16
_cell_length_a 8.728782
_cell_length_b 11.886936
_cell_length_c 8.985981
_cell_angle_alpha 67.552391
_cell_angle_beta 105.989958
_cell_angle_gamma 70.800361
_cell_volume 722.804405
_symmetry_space_group_name_H-M "P -1"
_symmetry_group_IT_number 2
_symmetry_cell_setting 'triclinic'
loop_
_space_group_symop_operation_xyz
x,y,z
-x,-y,-z
loop_
_atom_site_type_symbol
_atom_site_label
_atom_site_fract_x
_atom_site_fract_y
_atom_site_fract_z
Si Si1 0.238645 0.549313 0.297196
Si Si2 0.297706 0.099193 0.465070
Si Si3 0.389138 0.192188 0.019037
Si Si4 0.071790 0.721868 0.865219
Si Si5 0.474642 0.880640 0.238722
Si Si6 0.937786 0.509710 0.151658
Si Si7 0.266240 0.851469 0.687959
Si Si8 0.651044 0.299799 0.521930
O O1 0.445527 0.429557 0.383389
O O2 0.238320 0.636944 0.395074
O O3 0.113481 0.476615 0.312801
O O4 0.154050 0.653698 0.080765
O O5 0.349740 0.162663 0.586787
O O6 0.148170 0.201496 0.256304
O O7 0.500000 0.000000 0.500000
O O8 0.209175 0.009048 0.550881
O O9 0.466195 0.178249 0.880279
O O10 0.207200 0.336121 0.918084
O O11 0.532522 0.199507 0.166693
O O12 0.380099 0.049501 0.115564
O O13 0.138218 0.598364 0.821014
O O14 0.148107 0.824686 0.790237
O O15 0.360602 0.816593 0.318731
O O16 0.000000 0.500000 0.000000
O O17 0.276169 0.770999 0.580582
#
# Coordination Sequence:
#
# PCOD9021791 Si02
#       8
#     2   2   2   2   2   2   2   2
#     4  10  24  39  62  93 135 170 228 273 327 409
#     4  11  23  41  71  95 133 175 224 275 333 405
#     4  10  23  41  67 100 135 173 228 269 343 391
#     4  11  24  42  65  97 132 174 223 280 334 395
#     4  10  22  41  68  95 130 182 219 277 328 405
#     4  10  22  38  65  95 128 171 225 272 325 400
#     4  11  23  39  67  97 131 176 220 279 326 402
#     4  11  22  41  63  95 131 179 223 269 343 385
#
# _framework density 22.136001
#
# number of rings (size 3 to 8) (size 9 to 14) (size 15 to 20)
#    0.000    1.500    1.250    3.375    7.000    5.000 
#    0.000    5.625    0.000    0.000    0.000    0.000 
#    0.000    0.000    0.000    0.000    0.000    0.000 
#
# Total GULP energy -89360.336182 kJ/mol
# GULP energy per Si atom -5585.021011 kJ/mol
# Density = 2.208562 g / cm^3
# Si number density = 22.136001 Si / 1000 Ang^3
#
#
#
# Elastic Constant Matrix: (Units=GPa)
#
#
# Indices 1 2 3 4 5 6 
#
# 1 27.1324 11.1679 9.5421 -8.7481 -4.5534 11.8898
# 2 11.1679 90.8834 26.7690 12.1793 6.7388 1.3768
# 3 9.5421 26.7690 94.0249 0.7277 7.8238 -3.2734
# 4 -8.7481 12.1793 0.7277 44.8140 2.6533 6.8286
# 5 -4.5534 6.7388 7.8238 2.6533 40.1097 3.6890
# 6 11.8898 1.3768 -3.2734 6.8286 3.6890 35.3262
#
#
#
# Elastic Compliance Matrix: (Units=1/GPa)
#
#
# Indices 1 2 3 4 5 6 
#
# 1 0.060787 -0.008561 -0.005623 0.017487 0.010591 -0.025133
# 2 -0.008561 0.013754 -0.002656 -0.005738 -0.002706 0.003491
# 3 -0.005623 -0.002656 0.012334 -0.000959 -0.002868 0.003624
# 4 0.017487 -0.005738 -0.000959 0.028932 0.002287 -0.011582
# 5 0.010591 -0.002706 -0.002868 0.002287 0.027645 -0.007054
# 6 -0.025133 0.003491 0.003624 -0.011582 -0.007054 0.039942
#
#
# Mechanical properties :
#
#
# Convention : Reuss Voigt Hill
#
# Bulk Modulus (GPa) = 18.79879 34.11097 26.45488
# Shear Modulus (GPa) = 21.29408 35.02077 28.15742
#
# Velocity S-wave (km/s) = 3.10492 3.98184 3.57041
# Velocity P-wave (km/s) = 4.62222 6.04841 5.38276
#
# Compressibility (1/GPa) = 0.05319490
#
# Stress axis : x y z
#
# Youngs Moduli (GPa) = 16.45094 72.70568 81.07346
#
# Poissons Ratio (x) = 0.62245 0.45589
# Poissons Ratio (y) = 0.14084 0.21532
# Poissons Ratio (z) = 0.09251 0.19309
#
# Static dielectric constant tensor:
#      x y z
#    x 1.836660 0.023130 -0.021370 
#    y 0.023130 1.836020 -0.050570 
#    z -0.021370 -0.050570 1.852370 
# 
# From -- ./inp_files/186040.got.cif
#   From: 2010.05.17/outbox.cif.g08.bks.cpg/sg2_94_cif.got.tgz:186040.got - 2010.06.03 11:33:40.
