data_PCOD9021623
_publ_section_title
;
Structure prediction by ZEFSAII (Michael W. Deem and Ramdas Pophale) SiO2 
 PCOD9021623
Probable space group: P -1
;
_chemical_formula_sum "Si O2"
_cell_formula_units_Z 16
_cell_length_a 17.822734
_cell_length_b 9.089741
_cell_length_c 11.105966
_cell_angle_alpha 71.168617
_cell_angle_beta 43.286565
_cell_angle_gamma 37.652304
_cell_volume 599.821791
_symmetry_space_group_name_H-M "P -1"
_symmetry_group_IT_number 2
_symmetry_cell_setting 'triclinic'
loop_
_space_group_symop_operation_xyz
x,y,z
-x,-y,-z
loop_
_atom_site_type_symbol
_atom_site_label
_atom_site_fract_x
_atom_site_fract_y
_atom_site_fract_z
Si Si1 0.783227 0.010439 0.794196
Si Si2 0.635611 0.464257 0.009387
Si Si3 0.978129 0.271933 0.744934
Si Si4 0.546207 0.077884 0.218528
Si Si5 0.816826 0.647343 0.508874
Si Si6 0.169489 0.666000 0.853372
Si Si7 0.604887 0.455430 0.565794
Si Si8 0.818742 0.614991 0.231352
O O1 0.596915 0.225683 0.857361
O O2 0.755287 0.205375 0.844730
O O3 0.734714 0.934391 0.967221
O O4 0.016357 0.688909 0.561176
O O5 0.583508 0.433815 0.202895
O O6 0.777115 0.442535 0.867155
O O7 0.082741 0.310928 0.582254
O O8 0.873502 0.399649 0.968567
O O9 0.174902 0.910335 0.596022
O O10 0.420011 0.129616 0.252974
O O11 0.415607 0.383024 0.351324
O O12 0.629237 0.881583 0.288287
O O13 0.791970 0.682320 0.383393
O O14 0.390067 0.471490 0.593579
O O15 0.104178 0.653392 0.812767
O O16 0.000000 0.000000 0.000000
O O17 0.000000 0.500000 0.000000
#
# Coordination Sequence:
#
# PCOD9021623 Si02
#       8
#     2   2   2   2   2   2   2   2
#     4  10  23  45  70  94 123 173 227 275 324 375
#     4  10  24  45  68  93 128 171 226 277 319 382
#     4  11  24  42  62  98 139 171 211 270 328 387
#     4  11  23  41  70  99 126 173 220 268 320 394
#     4  12  24  41  67  96 134 174 214 266 329 390
#     4  10  22  38  63  96 131 172 201 263 329 383
#     4  10  23  42  64  95 130 170 219 262 324 386
#     4  12  22  42  66  97 136 169 216 261 325 396
#
# _framework density 26.674590999999999
#
# number of rings (size 3 to 8) (size 9 to 14) (size 15 to 20)
#    0.000    1.250    3.750    1.125    1.750    4.000 
#    0.000    5.000    0.000    0.000    0.000    0.000 
#    0.000    0.000    0.000    0.000    0.000    0.000 
#
# Total GULP energy -89419.139102 kJ/mol
# GULP energy per Si atom -5588.696194 kJ/mol
# Density = 2.661388 g / cm^3
# Si number density = 26.674591 Si / 1000 Ang^3
#
#
#
# Elastic Constant Matrix: (Units=GPa)
#
#
# Indices 1 2 3 4 5 6 
#
# 1 144.1642 34.5240 37.7033 4.4873 -21.7103 3.9989
# 2 34.5240 77.1536 21.7096 16.5573 -0.1934 6.6213
# 3 37.7033 21.7096 103.5631 -10.8235 0.6674 4.7380
# 4 4.4873 16.5573 -10.8235 46.0452 -7.3667 -4.0305
# 5 -21.7103 -0.1934 0.6674 -7.3667 40.4836 0.2410
# 6 3.9989 6.6213 4.7380 -4.0305 0.2410 26.9744
#
#
#
# Elastic Compliance Matrix: (Units=1/GPa)
#
#
# Indices 1 2 3 4 5 6 
#
# 1 0.009195 -0.003492 -0.002589 0.000559 0.005059 -0.000013
# 2 -0.003492 0.017301 -0.002916 -0.007434 -0.003069 -0.004300
# 3 -0.002589 -0.002916 0.011635 0.003862 -0.000889 -0.000359
# 4 0.000559 -0.007434 0.003862 0.026478 0.004989 0.004975
# 5 0.005059 -0.003069 -0.000889 0.004989 0.028318 0.000652
# 6 -0.000013 -0.004300 -0.000359 0.004975 0.000652 0.038930
#
#
# Mechanical properties :
#
#
# Convention : Reuss Voigt Hill
#
# Bulk Modulus (GPa) = 49.65892 56.97276 53.31584
# Shear Modulus (GPa) = 31.93593 38.09691 35.01642
#
# Velocity S-wave (km/s) = 3.46387 3.78327 3.62709
# Velocity P-wave (km/s) = 5.88684 6.36309 6.12959
#
# Compressibility (1/GPa) = 0.02013737
#
# Stress axis : x y z
#
# Youngs Moduli (GPa) = 108.75883 57.80062 85.94393
#
# Poissons Ratio (x) = 0.20185 0.22250
# Poissons Ratio (y) = 0.37980 0.25059
# Poissons Ratio (z) = 0.28157 0.16853
#
# Static dielectric constant tensor:
#      x y z
#    x 2.113980 -0.037390 0.012310 
#    y -0.037390 2.456540 -0.228390 
#    z 0.012310 -0.228390 2.260130 
# 
# From -- ./inp_files/462112.got.cif
#   From: 2010.05.17/outbox.cif.g08.bks.cpg/sg2_232_cif.got.tgz:462112.got - 2010.06.03 11:33:40.
