data_PCOD9021925
_publ_section_title
;
Structure prediction by ZEFSAII (Michael W. Deem and Ramdas Pophale) SiO2 
 PCOD9021925
Probable space group: P -1
;
_chemical_formula_sum "Si O2"
_cell_formula_units_Z 16
_cell_length_a 14.468961
_cell_length_b 23.388058
_cell_length_c 7.666900
_cell_angle_alpha 126.904672
_cell_angle_beta 49.194631
_cell_angle_gamma 160.682111
_cell_volume 648.297476
_symmetry_space_group_name_H-M "P -1"
_symmetry_group_IT_number 2
_symmetry_cell_setting 'triclinic'
loop_
_space_group_symop_operation_xyz
x,y,z
-x,-y,-z
loop_
_atom_site_type_symbol
_atom_site_label
_atom_site_fract_x
_atom_site_fract_y
_atom_site_fract_z
Si Si1 0.410810 0.085615 0.914437
Si Si2 0.058082 0.953582 0.432749
Si Si3 0.050306 0.618992 0.599885
Si Si4 0.598294 0.580391 0.284157
Si Si5 0.008936 0.265073 0.242618
Si Si6 0.620809 0.832332 0.224523
Si Si7 0.617192 0.429479 0.086437
Si Si8 0.077813 0.463243 0.767155
O O1 0.351750 0.117590 0.907822
O O2 0.759270 0.254743 0.798160
O O3 0.220140 0.918501 0.770122
O O4 0.297078 0.045552 0.173929
O O5 0.798110 0.755437 0.408203
O O6 0.169782 0.029664 0.628291
O O7 0.000000 0.000000 0.500000
O O8 0.163488 0.758031 0.658612
O O9 0.896996 0.554955 0.852860
O O10 0.299463 0.691874 0.424817
O O11 0.842517 0.491104 0.452810
O O12 0.255925 0.415122 0.357908
O O13 0.779322 0.651191 0.018716
O O14 0.583973 0.496844 0.251690
O O15 0.627236 0.750113 0.037505
O O16 0.684099 0.436816 0.207967
O O17 0.000000 0.500000 0.000000
#
# Coordination Sequence:
#
# PCOD9021925 Si02
#       8
#     2   2   2   2   2   2   2   2
#     4  10  23  42  63  94 133 162 210 271 313 378
#     4  11  26  43  68  93 127 171 215 267 313 387
#     4  10  22  38  67  91 126 168 212 261 317 378
#     4   9  22  43  63  94 125 169 221 256 324 375
#     4   9  20  41  67  89 127 173 209 264 323 373
#     4  11  24  39  64 100 125 165 218 256 327 372
#     4  11  22  40  68  92 133 170 208 269 308 389
#     4  11  22  38  60 100 130 164 213 257 324 371
#
# _framework density 24.680026999999999
#
# number of rings (size 3 to 8) (size 9 to 14) (size 15 to 20)
#    0.000    1.750    2.500    1.125    8.750    4.500 
#    0.000    5.000    0.000    0.000    0.000    0.000 
#    0.000    0.000    0.000    0.000    0.000    0.000 
#
# Total GULP energy -89417.600546 kJ/mol
# GULP energy per Si atom -5588.600034 kJ/mol
# Density = 2.462385 g / cm^3
# Si number density = 24.680027 Si / 1000 Ang^3
#
#
#
# Elastic Constant Matrix: (Units=GPa)
#
#
# Indices 1 2 3 4 5 6 
#
# 1 109.3769 30.7922 40.7766 21.4048 -5.9323 -3.8068
# 2 30.7922 82.4920 55.6894 32.9929 -4.2375 -10.0932
# 3 40.7766 55.6894 150.9135 12.4058 7.1039 5.6706
# 4 21.4048 32.9929 12.4058 64.6858 -2.3415 -2.9825
# 5 -5.9323 -4.2375 7.1039 -2.3415 42.9687 10.1746
# 6 -3.8068 -10.0932 5.6706 -2.9825 10.1746 35.6140
#
#
#
# Elastic Compliance Matrix: (Units=1/GPa)
#
#
# Indices 1 2 3 4 5 6 
#
# 1 0.010981 -0.001434 -0.002333 -0.002377 0.001510 0.000508
# 2 -0.001434 0.021988 -0.007273 -0.009018 0.001230 0.006130
# 3 -0.002333 -0.007273 0.009951 0.002361 -0.001802 -0.003182
# 4 -0.002377 -0.009018 0.002361 0.020321 -0.000160 -0.001438
# 5 0.001510 0.001230 -0.001802 -0.000160 0.025426 -0.006480
# 6 0.000508 0.006130 -0.003182 -0.001438 -0.006480 0.032108
#
#
# Mechanical properties :
#
#
# Convention : Reuss Voigt Hill
#
# Bulk Modulus (GPa) = 47.98464 66.36654 57.17559
# Shear Modulus (GPa) = 33.37774 43.02199 38.19986
#
# Velocity S-wave (km/s) = 3.68151 4.17968 3.93848
# Velocity P-wave (km/s) = 6.12832 7.08817 6.62565
#
# Compressibility (1/GPa) = 0.02084000
#
# Stress axis : x y z
#
# Youngs Moduli (GPa) = 91.06868 45.47989 100.49331
#
# Poissons Ratio (x) = 0.06520 0.23443
# Poissons Ratio (y) = 0.13055 0.73092
# Poissons Ratio (z) = 0.21244 0.33079
#
# Static dielectric constant tensor:
#      x y z
#    x 1.960110 -0.028930 -0.025410 
#    y -0.028930 2.011260 -0.001010 
#    z -0.025410 -0.001010 2.025600 
# 
# From -- ./inp_files/320161.got.cif
#   From: 2010.05.17/outbox.cif.g08.bks.cpg/sg2_161_cif.got.tgz:320161.got - 2010.06.03 11:33:40.
