data_PCOD9021056
_publ_section_title
;
Structure prediction by ZEFSAII (Michael W. Deem and Ramdas Pophale) SiO2 
 PCOD9021056
Probable space group: P -1
;
_chemical_formula_sum "Si O2"
_cell_formula_units_Z 14
_cell_length_a 5.631867
_cell_length_b 15.799916
_cell_length_c 11.391906
_cell_angle_alpha 139.431553
_cell_angle_beta 64.055321
_cell_angle_gamma 93.612866
_cell_volume 526.207342
_symmetry_space_group_name_H-M "P -1"
_symmetry_group_IT_number 2
_symmetry_cell_setting 'triclinic'
loop_
_space_group_symop_operation_xyz
x,y,z
-x,-y,-z
loop_
_atom_site_type_symbol
_atom_site_label
_atom_site_fract_x
_atom_site_fract_y
_atom_site_fract_z
Si Si1 0.982459 0.923575 0.191986
Si Si2 0.611220 0.304748 0.515546
Si Si3 0.111843 0.624890 0.992279
Si Si4 0.456588 0.904535 0.230152
Si Si5 0.398483 0.878942 0.860808
Si Si6 0.863667 0.672825 0.708189
Si Si7 0.578947 0.294981 0.782244
O O1 0.183422 0.979926 0.280312
O O2 0.628974 0.989550 0.330712
O O3 0.083844 0.763198 0.064834
O O4 0.080752 0.927609 0.040662
O O5 0.340976 0.466828 0.726443
O O6 0.542138 0.179918 0.344896
O O7 0.689847 0.280782 0.610430
O O8 0.886127 0.292912 0.366368
O O9 0.266302 0.631268 0.090015
O O10 0.783095 0.635797 0.079773
O O11 0.351874 0.846586 0.302748
O O12 0.709658 0.763579 0.955113
O O13 0.595391 0.733955 0.739919
O O14 0.500000 0.000000 0.000000
O O15 0.000000 0.500000 0.500000
#
# Coordination Sequence:
#
# PCOD9021056 Si02
#       7
#     2   2   2   2   2   2   2
#     4   9  18  38  60  87 120 169 217 266 322 392
#     4  12  24  37  65  96 135 176 223 281 342 406
#     4  10  22  37  65  96 137 173 223 276 351 403
#     4   9  18  37  58  91 127 168 209 266 333 395
#     4  11  26  43  63  97 140 182 225 281 343 402
#     4  11  24  40  69  98 130 172 233 283 339 404
#     4  10  22  38  61  98 142 174 211 283 354 408
#
# _framework density 26.60548
#
# number of rings (size 3 to 8) (size 9 to 14) (size 15 to 20)
#    0.000    1.714    1.429    3.429    8.000    1.714 
#    0.000    0.000    0.000   11.143    0.000    0.000 
#    0.000    0.000    0.000    0.000    0.000    0.000 
#
# Total GULP energy -78353.008843 kJ/mol
# GULP energy per Si atom -5596.643489 kJ/mol
# Density = 2.654492 g / cm^3
# Si number density = 26.605480 Si / 1000 Ang^3
#
#
#
# Elastic Constant Matrix: (Units=GPa)
#
#
# Indices 1 2 3 4 5 6 
#
# 1 152.5864 21.0258 49.5937 -4.9946 18.7682 -6.7225
# 2 21.0258 123.9436 44.9160 -10.5054 13.6932 7.3942
# 3 49.5937 44.9160 135.4055 -26.9916 16.4046 -12.3413
# 4 -4.9946 -10.5054 -26.9916 40.2270 -8.3126 -6.3901
# 5 18.7682 13.6932 16.4046 -8.3126 48.3474 -7.3729
# 6 -6.7225 7.3942 -12.3413 -6.3901 -7.3729 47.1847
#
#
#
# Elastic Compliance Matrix: (Units=1/GPa)
#
#
# Indices 1 2 3 4 5 6 
#
# 1 0.007711 -0.000155 -0.002803 -0.001460 -0.002274 -0.000163
# 2 -0.000155 0.009620 -0.003246 -0.000557 -0.002083 -0.002779
# 3 -0.002803 -0.003246 0.011245 0.006985 0.000003 0.003997
# 4 -0.001460 -0.000557 0.006985 0.031262 0.004748 0.006682
# 5 -0.002274 -0.002083 0.000003 0.004748 0.023634 0.004339
# 6 -0.000163 -0.002779 0.003997 0.006682 0.004339 0.024234
#
#
# Mechanical properties :
#
#
# Convention : Reuss Voigt Hill
#
# Bulk Modulus (GPa) = 61.85553 71.44516 66.65035
# Shear Modulus (GPa) = 39.83998 46.91184 43.37591
#
# Velocity S-wave (km/s) = 3.87387 4.20365 4.04212
# Velocity P-wave (km/s) = 6.58094 7.10442 6.84768
#
# Compressibility (1/GPa) = 0.01616670
#
# Stress axis : x y z
#
# Youngs Moduli (GPa) = 129.68752 103.95481 88.92785
#
# Poissons Ratio (x) = 0.01611 0.24928
# Poissons Ratio (y) = 0.02010 0.28868
# Poissons Ratio (z) = 0.36353 0.33747
#
# Static dielectric constant tensor:
#      x y z
#    x 2.116590 0.003340 0.036770 
#    y 0.003340 2.068840 0.007510 
#    z 0.036770 0.007510 2.145950 
# 
# From -- ./inp_files/369134.got.cif
#   From: 2010.05.17/outbox.cif.g08.bks.cpg/sg2_185_cif.got.tgz:369134.got - 2010.06.03 11:33:40.
