data_PCOD9021282
_publ_section_title
;
Structure prediction by ZEFSAII (Michael W. Deem and Ramdas Pophale) SiO2 
 PCOD9021282
Probable space group: P -1
;
_chemical_formula_sum "Si O2"
_cell_formula_units_Z 16
_cell_length_a 8.436343
_cell_length_b 10.814748
_cell_length_c 15.844680
_cell_angle_alpha 52.295720
_cell_angle_beta 131.792178
_cell_angle_gamma 138.779373
_cell_volume 692.097282
_symmetry_space_group_name_H-M "P -1"
_symmetry_group_IT_number 2
_symmetry_cell_setting 'triclinic'
loop_
_space_group_symop_operation_xyz
x,y,z
-x,-y,-z
loop_
_atom_site_type_symbol
_atom_site_label
_atom_site_fract_x
_atom_site_fract_y
_atom_site_fract_z
Si Si1 0.801245 0.545218 0.042195
Si Si2 0.329071 0.465079 0.816287
Si Si3 0.189204 0.852777 0.953928
Si Si4 0.977542 0.599851 0.626621
Si Si5 0.970199 0.078891 0.770834
Si Si6 0.199159 0.801871 0.789807
Si Si7 0.452707 0.852439 0.344712
Si Si8 0.234333 0.960207 0.461289
O O1 0.626200 0.561398 0.905489
O O2 0.089403 0.670288 0.053772
O O3 0.805274 0.625411 0.101922
O O4 0.680499 0.321905 0.106663
O O5 0.215041 0.301948 0.774028
O O6 0.235729 0.599647 0.707322
O O7 0.099650 0.787821 0.853560
O O8 0.062510 0.959744 0.897027
O O9 0.500000 0.000000 0.000000
O O10 0.733041 0.377934 0.631005
O O11 0.999769 0.690978 0.687663
O O12 0.018627 0.743310 0.508342
O O13 0.731929 0.078012 0.725346
O O14 0.894371 0.010831 0.675787
O O15 0.393247 0.021048 0.735530
O O16 0.659321 0.913336 0.468693
O O17 0.500000 0.000000 0.500000
#
# Coordination Sequence:
#
# PCOD9021282 Si02
#       8
#     2   2   2   2   2   2   2   2
#     4  10  22  39  60  88 123 163 210 253 302 358
#     4   9  20  36  62  93 119 158 204 257 302 364
#     4  12  27  39  60  88 129 168 202 252 307 362
#     4   9  19  38  63  92 122 159 199 247 314 357
#     4  10  22  38  59  95 121 158 206 250 308 360
#     4  10  22  40  61  87 123 164 209 245 301 366
#     4   9  20  39  68  91 123 160 203 254 305 368
#     4   9  19  35  62  96 127 151 198 260 308 362
#
# _framework density 23.118137999999998
#
# number of rings (size 3 to 8) (size 9 to 14) (size 15 to 20)
#    0.000    2.250    0.000    1.125   14.000    5.000 
#    0.000    2.500    0.000    1.500    0.000    0.000 
#    0.000    0.000    0.000    0.000    0.000    0.000 
#
# Total GULP energy -89261.184352 kJ/mol
# GULP energy per Si atom -5578.824022 kJ/mol
# Density = 2.306552 g / cm^3
# Si number density = 23.118138 Si / 1000 Ang^3
#
#
#
# Elastic Constant Matrix: (Units=GPa)
#
#
# Indices 1 2 3 4 5 6 
#
# 1 38.8210 24.1505 9.6644 -4.3829 -16.3676 1.0274
# 2 24.1505 121.2463 22.4535 -10.1251 -8.2460 13.3701
# 3 9.6644 22.4535 53.0686 5.2640 -3.1074 5.9978
# 4 -4.3829 -10.1251 5.2640 28.1539 6.8506 -8.9768
# 5 -16.3676 -8.2460 -3.1074 6.8506 27.5067 -9.3235
# 6 1.0274 13.3701 5.9978 -8.9768 -9.3235 27.1000
#
#
#
# Elastic Compliance Matrix: (Units=1/GPa)
#
#
# Indices 1 2 3 4 5 6 
#
# 1 0.042319 -0.006912 -0.004970 0.002745 0.026215 0.012834
# 2 -0.006912 0.010725 -0.003240 0.002774 -0.003515 -0.004602
# 3 -0.004970 -0.003240 0.022512 -0.007775 -0.001591 -0.006318
# 4 0.002745 0.002774 -0.007775 0.043750 -0.004883 0.013060
# 5 0.026215 -0.003515 -0.001591 -0.004883 0.058591 0.019632
# 6 0.012834 -0.004602 -0.006318 0.013060 0.019632 0.051163
#
#
# Mechanical properties :
#
#
# Convention : Reuss Voigt Hill
#
# Bulk Modulus (GPa) = 22.06935 36.18586 29.12761
# Shear Modulus (GPa) = 18.22111 27.00996 22.61553
#
# Velocity S-wave (km/s) = 2.81049 3.42181 3.13111
# Velocity P-wave (km/s) = 4.48317 5.59449 5.06938
#
# Compressibility (1/GPa) = 0.04531171
#
# Stress axis : x y z
#
# Youngs Moduli (GPa) = 23.62990 93.24392 44.42158
#
# Poissons Ratio (x) = 0.64451 0.22078
# Poissons Ratio (y) = 0.16333 0.14391
# Poissons Ratio (z) = 0.11744 0.30208
#
# Static dielectric constant tensor:
#      x y z
#    x 1.902150 0.007630 0.022940 
#    y 0.007630 1.879610 0.009470 
#    z 0.022940 0.009470 1.870410 
# 
# From -- ./inp_files/500091.got.cif
#   From: 2010.05.17/outbox.cif.g08.bks.cpg/sg2_251_cif.got.tgz:500091.got - 2010.06.03 11:33:40.
