data_PCOD9021473
_publ_section_title
;
Structure prediction by ZEFSAII (Michael W. Deem and Ramdas Pophale) SiO2 
 PCOD9021473
Probable space group: P -1
;
_chemical_formula_sum "Si O2"
_cell_formula_units_Z 14
_cell_length_a 16.109092
_cell_length_b 8.066057
_cell_length_c 13.570423
_cell_angle_alpha 124.403955
_cell_angle_beta 153.935272
_cell_angle_gamma 54.661664
_cell_volume 626.917752
_symmetry_space_group_name_H-M "P -1"
_symmetry_group_IT_number 2
_symmetry_cell_setting 'triclinic'
loop_
_space_group_symop_operation_xyz
x,y,z
-x,-y,-z
loop_
_atom_site_type_symbol
_atom_site_label
_atom_site_fract_x
_atom_site_fract_y
_atom_site_fract_z
Si Si1 0.175910 0.824271 0.163051
Si Si2 0.663604 0.252014 0.484479
Si Si3 0.494182 0.724452 0.883470
Si Si4 0.802333 0.962913 0.230851
Si Si5 0.707815 0.852111 0.884146
Si Si6 0.854954 0.636320 0.773277
Si Si7 0.491046 0.747755 0.303083
O O1 0.229292 0.860867 0.344921
O O2 0.358073 0.795421 0.275323
O O3 0.076815 0.623481 0.980039
O O4 0.000000 0.000000 0.000000
O O5 0.625997 0.175717 0.309002
O O6 0.442837 0.295628 0.302260
O O7 0.774024 0.434597 0.642587
O O8 0.518500 0.480474 0.820565
O O9 0.359563 0.828249 0.863049
O O10 0.697301 0.797743 0.118466
O O11 0.826536 0.887988 0.118895
O O12 0.000000 0.000000 0.500000
O O13 0.825704 0.765518 0.885749
O O14 0.584111 0.073561 0.794160
O O15 0.708967 0.742348 0.568992
#
# Coordination Sequence:
#
# PCOD9021473 Si02
#       7
#     2   2   2   2   2   2   2
#     4  12  23  35  57  92 129 163 195 239 304 365
#     4  10  22  38  62  88 126 158 203 250 301 367
#     4   9  23  42  62  89 117 160 206 252 305 349
#     4  10  23  42  65  87 115 157 213 258 292 355
#     4  11  21  39  65  87 124 166 195 253 310 350
#     4  11  22  38  61  93 124 162 201 246 305 366
#     4  11  23  41  61  91 132 157 197 250 304 378
#
# _framework density 22.331475999999999
#
# number of rings (size 3 to 8) (size 9 to 14) (size 15 to 20)
#    0.000    1.429    2.857    2.143    6.000    2.857 
#    0.000    0.714    0.000    0.000    0.000    0.000 
#    0.000    0.000    0.000    0.000    0.000    0.000 
#
# Total GULP energy -78208.645723 kJ/mol
# GULP energy per Si atom -5586.331837 kJ/mol
# Density = 2.228065 g / cm^3
# Si number density = 22.331476 Si / 1000 Ang^3
#
#
#
# Elastic Constant Matrix: (Units=GPa)
#
#
# Indices 1 2 3 4 5 6 
#
# 1 48.7316 9.8805 28.3265 8.6046 -1.2395 6.1301
# 2 9.8805 78.2647 27.9940 10.3919 4.2738 1.1624
# 3 28.3265 27.9940 172.2844 13.6998 -0.0073 16.5302
# 4 8.6046 10.3919 13.6998 35.2497 3.7542 -2.6292
# 5 -1.2395 4.2738 -0.0073 3.7542 31.9641 4.1994
# 6 6.1301 1.1624 16.5302 -2.6292 4.1994 28.5576
#
#
#
# Elastic Compliance Matrix: (Units=1/GPa)
#
#
# Indices 1 2 3 4 5 6 
#
# 1 0.023939 -0.001393 -0.002925 -0.004844 0.002230 -0.004163
# 2 -0.001393 0.014095 -0.001916 -0.002826 -0.001716 0.000826
# 3 -0.002925 -0.001916 0.007098 -0.001846 0.000847 -0.003697
# 4 -0.004844 -0.002826 -0.001846 0.031996 -0.004331 0.005806
# 5 0.002230 -0.001716 0.000847 -0.004331 0.032916 -0.006138
# 6 -0.004163 0.000826 -0.003697 0.005806 -0.006138 0.039454
#
#
# Mechanical properties :
#
#
# Convention : Reuss Voigt Hill
#
# Bulk Modulus (GPa) = 30.61388 47.96477 39.28932
# Shear Modulus (GPa) = 28.92611 34.69293 31.80952
#
# Velocity S-wave (km/s) = 3.60294 3.94578 3.77825
# Velocity P-wave (km/s) = 5.57197 6.50262 6.05520
#
# Compressibility (1/GPa) = 0.03266493
#
# Stress axis : x y z
#
# Youngs Moduli (GPa) = 41.77308 70.94740 140.88210
#
# Poissons Ratio (x) = 0.09881 0.41207
# Poissons Ratio (y) = 0.05818 0.26991
# Poissons Ratio (z) = 0.12218 0.13593
#
# Static dielectric constant tensor:
#      x y z
#    x 1.855500 0.040830 0.022410 
#    y 0.040830 1.931580 0.004760 
#    z 0.022410 0.004760 1.832140 
# 
# From -- ./inp_files/246119.got.cif
#   From: 2010.05.17/outbox.cif.g08.bks.cpg/sg2_124_cif.got.tgz:246119.got - 2010.06.03 11:33:40.
