data_PCOD9021195
_publ_section_title
;
Structure prediction by ZEFSAII (Michael W. Deem and Ramdas Pophale) SiO2 
 PCOD9021195
Probable space group: P -1
;
_chemical_formula_sum "Si O2"
_cell_formula_units_Z 16
_cell_length_a 12.838370
_cell_length_b 7.280263
_cell_length_c 14.248821
_cell_angle_alpha 72.391859
_cell_angle_beta 135.217000
_cell_angle_gamma 85.516605
_cell_volume 804.631194
_symmetry_space_group_name_H-M "P -1"
_symmetry_group_IT_number 2
_symmetry_cell_setting 'triclinic'
loop_
_space_group_symop_operation_xyz
x,y,z
-x,-y,-z
loop_
_atom_site_type_symbol
_atom_site_label
_atom_site_fract_x
_atom_site_fract_y
_atom_site_fract_z
Si Si1 0.372168 0.803035 0.420571
Si Si2 0.174050 0.981292 0.078646
Si Si3 0.696284 0.899711 0.144994
Si Si4 0.165956 0.131808 0.376934
Si Si5 0.343595 0.084535 0.673776
Si Si6 0.710938 0.709193 0.991952
Si Si7 0.308568 0.417473 0.450485
Si Si8 0.809972 0.225403 0.074276
O O1 0.292737 0.900755 0.255615
O O2 0.288330 0.651141 0.423022
O O3 0.562617 0.661752 0.541265
O O4 0.323968 0.986116 0.438262
O O5 0.184324 0.194719 0.015335
O O6 0.224639 0.820142 0.047370
O O7 0.000000 0.000000 0.000000
O O8 0.736161 0.834393 0.288543
O O9 0.746158 0.087608 0.119351
O O10 0.755936 0.723542 0.127846
O O11 0.500000 0.000000 0.000000
O O12 0.216623 0.049187 0.528125
O O13 0.154718 0.371408 0.332070
O O14 0.005140 0.131604 0.231282
O O15 0.374229 0.264726 0.607343
O O16 0.518503 0.878420 0.828518
O O17 0.737052 0.474896 0.014668
#
# Coordination Sequence:
#
# PCOD9021195 Si02
#       8
#     2   2   2   2   2   2   2   2
#     4  11  20  39  59  83 121 163 192 238 292 347
#     4  11  22  36  58  84 123 158 192 235 293 345
#     4   9  21  43  63  84 121 151 199 253 294 350
#     4  10  22  38  57  89 124 148 195 245 290 351
#     4   9  20  42  60  84 118 151 199 250 288 347
#     4  10  22  41  62  88 118 155 202 243 290 357
#     4   9  22  36  59  86 116 157 201 237 287 354
#     4  11  24  38  62  92 118 155 198 243 305 351
#
# _framework density 19.884886000000002
#
# number of rings (size 3 to 8) (size 9 to 14) (size 15 to 20)
#    0.750    1.250    2.500    0.375    1.750    6.000 
#    2.250    0.625    0.000    0.000    0.000    0.000 
#    0.000    0.000    0.000    0.000    0.000    0.000 
#
# Total GULP energy -89147.036303 kJ/mol
# GULP energy per Si atom -5571.689769 kJ/mol
# Density = 1.983963 g / cm^3
# Si number density = 19.884886 Si / 1000 Ang^3
#
#
#
# Elastic Constant Matrix: (Units=GPa)
#
#
# Indices 1 2 3 4 5 6 
#
# 1 68.5312 25.4018 -0.9346 -1.1542 -16.7548 4.5191
# 2 25.4018 117.3517 5.0050 -3.4021 -21.8065 6.2148
# 3 -0.9346 5.0050 41.7304 11.9634 -17.4895 -14.9755
# 4 -1.1542 -3.4021 11.9634 27.2036 -2.3546 0.2927
# 5 -16.7548 -21.8065 -17.4895 -2.3546 35.3698 14.1921
# 6 4.5191 6.2148 -14.9755 0.2927 14.1921 25.2898
#
#
#
# Elastic Compliance Matrix: (Units=1/GPa)
#
#
# Indices 1 2 3 4 5 6 
#
# 1 0.018893 -0.001291 0.002702 0.000677 0.013065 -0.008798
# 2 -0.001291 0.011085 -0.001380 0.002819 0.009124 -0.008463
# 3 0.002702 -0.001380 0.040334 -0.016901 0.012447 0.016951
# 4 0.000677 0.002819 -0.016901 0.044844 0.001597 -0.012237
# 5 0.013065 0.009124 0.012447 0.001597 0.058379 -0.029986
# 6 -0.008798 -0.008463 0.016951 -0.012237 -0.029986 0.070201
#
#
# Mechanical properties :
#
#
# Convention : Reuss Voigt Hill
#
# Bulk Modulus (GPa) = 14.20983 31.83974 23.02478
# Shear Modulus (GPa) = 18.71727 30.78204 24.74966
#
# Velocity S-wave (km/s) = 3.07136 3.93875 3.53178
# Velocity P-wave (km/s) = 4.44288 6.06067 5.31371
#
# Compressibility (1/GPa) = 0.07037383
#
# Stress axis : x y z
#
# Youngs Moduli (GPa) = 52.92901 90.21119 24.79281
#
# Poissons Ratio (x) = 0.11651 -0.06699
# Poissons Ratio (y) = 0.06836 0.03421
# Poissons Ratio (z) = -0.14302 0.12449
#
# Static dielectric constant tensor:
#      x y z
#    x 1.704110 -0.000950 0.019100 
#    y -0.000950 1.697090 0.018370 
#    z 0.019100 0.018370 1.726290 
# 
# From -- ./inp_files/510906.got.cif
#   From: 2010.05.17/outbox.cif.g08.bks.cpg/sg2_256_cif.got.tgz:510906.got - 2010.06.03 11:33:40.
