data_PCOD9021487
_publ_section_title
;
Structure prediction by ZEFSAII (Michael W. Deem and Ramdas Pophale) SiO2 
 PCOD9021487
Probable space group: P -1
;
_chemical_formula_sum "Si O2"
_cell_formula_units_Z 14
_cell_length_a 15.065699
_cell_length_b 5.056704
_cell_length_c 8.632200
_cell_angle_alpha 117.349513
_cell_angle_beta 62.963654
_cell_angle_gamma 96.966970
_cell_volume 517.088605
_symmetry_space_group_name_H-M "P -1"
_symmetry_group_IT_number 2
_symmetry_cell_setting 'triclinic'
loop_
_space_group_symop_operation_xyz
x,y,z
-x,-y,-z
loop_
_atom_site_type_symbol
_atom_site_label
_atom_site_fract_x
_atom_site_fract_y
_atom_site_fract_z
Si Si1 0.106941 0.352873 0.026655
Si Si2 0.629492 0.713367 0.991858
Si Si3 0.921083 0.797988 0.657096
Si Si4 0.915095 0.744208 0.315124
Si Si5 0.714635 0.321972 0.076357
Si Si6 0.395129 0.552039 0.503256
Si Si7 0.399914 0.876959 0.276952
O O1 0.133065 0.219554 0.139074
O O2 0.985287 0.426403 0.148964
O O3 0.134858 0.192816 0.796371
O O4 0.172809 0.631854 0.043668
O O5 0.653327 0.613780 0.123582
O O6 0.510522 0.798443 0.096029
O O7 0.674303 0.010264 0.979546
O O8 0.663361 0.388768 0.801516
O O9 0.861987 0.785880 0.535983
O O10 0.000000 0.500000 0.500000
O O11 0.998685 0.041459 0.673788
O O12 0.693682 0.345470 0.281092
O O13 0.500000 0.500000 0.500000
O O14 0.405603 0.800308 0.433375
O O15 0.374737 0.228637 0.366416
#
# Coordination Sequence:
#
# PCOD9021487 Si02
#       7
#     2   2   2   2   2   2   2
#     4  10  22  38  62  91 126 166 210 269 320 391
#     4  11  23  42  64  92 124 170 219 269 324 386
#     4   9  18  37  63  91 118 157 210 260 317 384
#     4   9  19  40  66  90 118 168 215 253 322 397
#     4  12  25  40  62  95 132 166 213 271 329 375
#     4  12  21  39  63  93 125 168 214 267 320 387
#     4  11  22  41  67  88 122 172 224 263 318 391
#
# _framework density 27.074660999999999
#
# number of rings (size 3 to 8) (size 9 to 14) (size 15 to 20)
#    0.000    1.429    2.857    2.571    2.000    2.286 
#    2.571    4.286    0.000    0.000    0.000    0.000 
#    0.000    0.000    0.000    0.000    0.000    0.000 
#
# Total GULP energy -78223.281042 kJ/mol
# GULP energy per Si atom -5587.377217 kJ/mol
# Density = 2.701304 g / cm^3
# Si number density = 27.074661 Si / 1000 Ang^3
#
#
#
# Elastic Constant Matrix: (Units=GPa)
#
#
# Indices 1 2 3 4 5 6 
#
# 1 56.1174 25.7232 34.6551 -6.7144 9.8265 8.2141
# 2 25.7232 160.5454 53.8792 -8.6546 10.0484 13.0209
# 3 34.6551 53.8792 130.7185 -24.4921 52.0375 4.5675
# 4 -6.7144 -8.6546 -24.4921 56.3911 -4.4993 7.4092
# 5 9.8265 10.0484 52.0375 -4.4993 45.8047 -1.6538
# 6 8.2141 13.0209 4.5675 7.4092 -1.6538 34.1036
#
#
#
# Elastic Compliance Matrix: (Units=1/GPa)
#
#
# Indices 1 2 3 4 5 6 
#
# 1 0.022441 -0.001346 -0.006045 0.000558 0.002255 -0.004093
# 2 -0.001346 0.007750 -0.004047 -0.000233 0.003096 -0.001892
# 3 -0.006045 -0.004047 0.020173 0.006071 -0.020210 -0.002000
# 4 0.000558 -0.000233 0.006071 0.020728 -0.005132 -0.005611
# 5 0.002255 0.003096 -0.020210 -0.005132 0.043276 0.004195
# 6 -0.004093 -0.001892 -0.002000 -0.005611 0.004195 0.032721
#
#
# Mechanical properties :
#
#
# Convention : Reuss Voigt Hill
#
# Bulk Modulus (GPa) = 36.38003 63.98848 50.18426
# Shear Modulus (GPa) = 27.91296 42.80146 35.35721
#
# Velocity S-wave (km/s) = 3.21434 3.98033 3.61767
# Velocity P-wave (km/s) = 5.21940 6.69398 6.00215
#
# Compressibility (1/GPa) = 0.02748761
#
# Stress axis : x y z
#
# Youngs Moduli (GPa) = 44.56189 129.03484 49.57004
#
# Poissons Ratio (x) = 0.17368 0.29965
# Poissons Ratio (y) = 0.05998 0.20063
# Poissons Ratio (z) = 0.26937 0.52225
#
# Static dielectric constant tensor:
#      x y z
#    x 2.177940 -0.089240 0.045660 
#    y -0.089240 2.166790 0.134580 
#    z 0.045660 0.134580 2.350190 
# 
# From -- ./inp_files/126234.got.cif
#   From: 2010.05.17/outbox.cif.g08.bks.cpg/sg2_64_cif.got.tgz:126234.got - 2010.06.03 11:33:40.
