data_PCOD9021481
_publ_section_title
;
Structure prediction by ZEFSAII (Michael W. Deem and Ramdas Pophale) SiO2 
 PCOD9021481
Probable space group: P -1
;
_chemical_formula_sum "Si O2"
_cell_formula_units_Z 14
_cell_length_a 21.779090
_cell_length_b 7.235008
_cell_length_c 5.653824
_cell_angle_alpha 70.985728
_cell_angle_beta 44.855074
_cell_angle_gamma 59.014236
_cell_volume 537.554885
_symmetry_space_group_name_H-M "P -1"
_symmetry_group_IT_number 2
_symmetry_cell_setting 'triclinic'
loop_
_space_group_symop_operation_xyz
x,y,z
-x,-y,-z
loop_
_atom_site_type_symbol
_atom_site_label
_atom_site_fract_x
_atom_site_fract_y
_atom_site_fract_z
Si Si1 0.926251 0.499152 0.005983
Si Si2 0.273912 0.975462 0.145531
Si Si3 0.499684 0.764928 0.611704
Si Si4 0.987618 0.219052 0.564566
Si Si5 0.218853 0.451826 0.944804
Si Si6 0.721292 0.175867 0.304918
Si Si7 0.503038 0.231414 0.881065
O O1 0.975225 0.254952 0.865945
O O2 0.935589 0.687199 0.741668
O O3 0.814070 0.555783 0.237227
O O4 0.000000 0.500000 0.000000
O O5 0.231847 0.959024 0.525204
O O6 0.387265 0.816167 0.910706
O O7 0.235353 0.910204 0.038356
O O8 0.265979 0.214960 0.021606
O O9 0.542765 0.658836 0.287270
O O10 0.500000 0.000000 0.500000
O O11 0.540286 0.661896 0.796278
O O12 0.882225 0.406294 0.703375
O O13 0.000000 0.000000 0.500000
O O14 0.274804 0.597413 0.761712
O O15 0.614453 0.186885 0.583097
O O16 0.500000 0.000000 0.000000
#
# Coordination Sequence:
#
# PCOD9021481 Si02
#       7
#     2   2   2   2   2   2   2
#     4   9  21  40  59  86 117 156 204 259 313 378
#     4  10  22  39  60  90 127 161 205 261 316 363
#     4   8  14  28  53  79 111 158 197 238 303 363
#     4   9  21  41  58  84 116 153 205 250 317 376
#     4  10  23  40  61  92 120 158 213 262 309 391
#     4  10  22  38  62  90 123 167 204 255 324 365
#     4   8  14  28  52  80 113 155 199 241 296 365
#
# _framework density 26.043849999999999
#
# number of rings (size 3 to 8) (size 9 to 14) (size 15 to 20)
#    0.857    2.000    0.000    0.000    2.000    4.000 
#    0.000    0.000    0.000   27.429    0.000    0.000 
#    0.000    0.000    0.000    0.000    0.000    0.000 
#
# Total GULP energy -77986.595245 kJ/mol
# GULP energy per Si atom -5570.471089 kJ/mol
# Density = 2.598457 g / cm^3
# Si number density = 26.043850 Si / 1000 Ang^3
#
#
#
# Elastic Constant Matrix: (Units=GPa)
#
#
# Indices 1 2 3 4 5 6 
#
# 1 119.6080 55.1716 52.5970 10.2913 28.7530 30.8003
# 2 55.1716 172.9941 25.4728 -16.5445 8.0883 33.1381
# 3 52.5970 25.4728 70.9066 4.4685 43.8835 14.1948
# 4 10.2913 -16.5445 4.4685 33.9786 12.2831 -10.3334
# 5 28.7530 8.0883 43.8835 12.2831 72.6093 3.5115
# 6 30.8003 33.1381 14.1948 -10.3334 3.5115 32.6813
#
#
#
# Elastic Compliance Matrix: (Units=1/GPa)
#
#
# Indices 1 2 3 4 5 6 
#
# 1 0.017861 -0.002757 -0.010019 -0.009972 0.001606 -0.013011
# 2 -0.002757 0.007805 -0.000063 0.003408 -0.000113 -0.004198
# 3 -0.010019 -0.000063 0.031060 0.004206 -0.015461 -0.000994
# 4 -0.009972 0.003408 0.004206 0.041505 -0.006863 0.017976
# 5 0.001606 -0.000113 -0.015461 -0.006863 0.023625 0.000608
# 6 -0.013011 -0.004198 -0.000994 0.017976 0.000608 0.053167
#
#
# Mechanical properties :
#
#
# Convention : Reuss Voigt Hill
#
# Bulk Modulus (GPa) = 32.20910 69.99905 51.10408
# Shear Modulus (GPa) = 23.69124 43.20500 33.44812
#
# Velocity S-wave (km/s) = 3.01934 4.07742 3.58760
# Velocity P-wave (km/s) = 4.95473 7.00734 6.06845
#
# Compressibility (1/GPa) = 0.03104712
#
# Stress axis : x y z
#
# Youngs Moduli (GPa) = 55.98921 128.13091 32.19596
#
# Poissons Ratio (x) = 0.35330 0.32256
# Poissons Ratio (y) = 0.15438 0.00202
# Poissons Ratio (z) = 0.56094 0.00805
#
# Static dielectric constant tensor:
#      x y z
#    x 2.103460 0.009600 0.158810 
#    y 0.009600 1.983220 0.087910 
#    z 0.158810 0.087910 2.251030 
# 
# From -- ./inp_files/125500.got.cif
#   From: 2010.05.17/outbox.cif.g08.bks.cpg/sg2_63_cif.got.tgz:125500.got - 2010.06.03 11:33:40.
