data_PCOD9021905
_publ_section_title
;
Structure prediction by ZEFSAII (Michael W. Deem and Ramdas Pophale) SiO2 
 PCOD9021905
Probable space group: P -1
;
_chemical_formula_sum "Si O2"
_cell_formula_units_Z 16
_cell_length_a 10.039359
_cell_length_b 15.464845
_cell_length_c 9.371523
_cell_angle_alpha 144.763271
_cell_angle_beta 64.558861
_cell_angle_gamma 107.870087
_cell_volume 755.353057
_symmetry_space_group_name_H-M "P -1"
_symmetry_group_IT_number 2
_symmetry_cell_setting 'triclinic'
loop_
_space_group_symop_operation_xyz
x,y,z
-x,-y,-z
loop_
_atom_site_type_symbol
_atom_site_label
_atom_site_fract_x
_atom_site_fract_y
_atom_site_fract_z
Si Si1 0.925962 0.264786 0.654675
Si Si2 0.405555 0.784664 0.213915
Si Si3 0.861134 0.603406 0.039367
Si Si4 0.391142 0.243105 0.446260
Si Si5 0.559552 0.492288 0.622669
Si Si6 0.176097 0.147239 0.180215
Si Si7 0.453058 0.970712 0.714599
Si Si8 0.861429 0.620140 0.733259
O O1 0.772518 0.200189 0.680872
O O2 0.010802 0.317739 0.828045
O O3 0.035430 0.151388 0.356475
O O4 0.894005 0.422268 0.793332
O O5 0.458088 0.841063 0.418404
O O6 0.484433 0.885614 0.197357
O O7 0.459105 0.613910 0.924655
O O8 0.713184 0.656746 0.263943
O O9 0.842777 0.657186 0.958283
O O10 0.537076 0.326392 0.463410
O O11 0.294920 0.232584 0.333881
O O12 0.438998 0.084235 0.281388
O O13 0.500000 0.500000 0.500000
O O14 0.722985 0.538742 0.628071
O O15 0.126498 0.238020 0.183460
O O16 0.283161 0.003760 0.888316
O O17 0.000000 0.500000 0.500000
#
# Coordination Sequence:
#
# PCOD9021905 Si02
#       8
#     2   2   2   2   2   2   2   2
#     4  10  22  42  68  98 136 183 222 287 342 409
#     4  11  24  43  68 101 136 180 234 280 341 400
#     4  10  22  38  67 100 137 171 225 286 352 398
#     4  11  23  42  73  98 132 178 233 283 341 401
#     4  12  24  41  71 106 133 174 238 294 331 403
#     4  11  23  45  65 100 142 181 220 284 346 407
#     4  11  25  43  69  95 142 185 228 279 337 414
#     4  12  24  38  65 103 141 173 219 289 352 394
#
# _framework density 21.182148000000002
#
# number of rings (size 3 to 8) (size 9 to 14) (size 15 to 20)
#    0.000    1.000    5.000    1.125    5.250    1.500 
#    0.000    2.500    2.750    0.000    0.000    0.000 
#    0.000    0.000    0.000    0.000    0.000    0.000 
#
# Total GULP energy -89407.162869 kJ/mol
# GULP energy per Si atom -5587.947679 kJ/mol
# Density = 2.113394 g / cm^3
# Si number density = 21.182148 Si / 1000 Ang^3
#
#
#
# Elastic Constant Matrix: (Units=GPa)
#
#
# Indices 1 2 3 4 5 6 
#
# 1 100.3575 22.2999 14.0133 -13.5940 -11.9870 -2.4141
# 2 22.2999 38.5679 21.8197 -11.2175 9.9673 -23.9021
# 3 14.0133 21.8197 87.8832 -19.7398 -8.6614 -11.5321
# 4 -13.5940 -11.2175 -19.7398 22.2785 -4.8902 -0.8249
# 5 -11.9870 9.9673 -8.6614 -4.8902 33.4176 -3.7323
# 6 -2.4141 -23.9021 -11.5321 -0.8249 -3.7323 38.9277
#
#
#
# Elastic Compliance Matrix: (Units=1/GPa)
#
#
# Indices 1 2 3 4 5 6 
#
# 1 0.014952 -0.015361 0.003078 0.006282 0.010946 -0.006410
# 2 -0.015361 0.077428 -0.009786 0.017230 -0.023955 0.041759
# 3 0.003078 -0.009786 0.017959 0.015315 0.011018 0.000884
# 4 0.006282 0.017230 0.015315 0.074738 0.014080 0.018440
# 5 0.010946 -0.023955 0.011018 0.014080 0.045227 -0.006132
# 6 -0.006410 0.041759 0.000884 0.018440 -0.006132 0.050996
#
#
# Mechanical properties :
#
#
# Convention : Reuss Voigt Hill
#
# Bulk Modulus (GPa) = 15.10524 38.11938 26.61231
# Shear Modulus (GPa) = 14.38825 30.16980 22.27903
#
# Velocity S-wave (km/s) = 2.60910 3.77809 3.24664
# Velocity P-wave (km/s) = 4.02779 6.08827 5.16188
#
# Compressibility (1/GPa) = 0.06620218
#
# Stress axis : x y z
#
# Youngs Moduli (GPa) = 66.88027 12.91520 55.68164
#
# Poissons Ratio (x) = 0.19840 -0.17141
# Poissons Ratio (y) = 1.02737 0.54489
# Poissons Ratio (z) = -0.20589 0.12638
#
# Static dielectric constant tensor:
#      x y z
#    x 1.742710 0.005510 -0.013920 
#    y 0.005510 1.779220 -0.027990 
#    z -0.013920 -0.027990 1.790990 
# 
# From -- ./inp_files/209186.got.cif
#   From: 2010.05.17/outbox.cif.g08.bks.cpg/sg2_105_cif.got.tgz:209186.got - 2010.06.03 11:33:40.
