data_PCOD9021330
_publ_section_title
;
Structure prediction by ZEFSAII (Michael W. Deem and Ramdas Pophale) SiO2 
 PCOD9021330
Probable space group: P -1
;
_chemical_formula_sum "Si O2"
_cell_formula_units_Z 14
_cell_length_a 14.423939
_cell_length_b 5.043691
_cell_length_c 9.962313
_cell_angle_alpha 121.986685
_cell_angle_beta 83.453126
_cell_angle_gamma 78.026880
_cell_volume 579.034794
_symmetry_space_group_name_H-M "P -1"
_symmetry_group_IT_number 2
_symmetry_cell_setting 'triclinic'
loop_
_space_group_symop_operation_xyz
x,y,z
-x,-y,-z
loop_
_atom_site_type_symbol
_atom_site_label
_atom_site_fract_x
_atom_site_fract_y
_atom_site_fract_z
Si Si1 0.599975 0.964882 0.895324
Si Si2 0.071373 0.679907 0.469841
Si Si3 0.607803 0.515139 0.521396
Si Si4 0.108662 0.794599 0.777442
Si Si5 0.877608 0.899736 0.880270
Si Si6 0.299790 0.493959 0.013503
Si Si7 0.286925 0.219655 0.658280
O O1 0.599727 0.793506 0.707440
O O2 0.680778 0.728448 0.918077
O O3 0.500000 0.000000 0.000000
O O4 0.623372 0.301744 0.957570
O O5 0.127188 0.782652 0.612011
O O6 0.130426 0.422887 0.279942
O O7 0.000000 0.500000 0.500000
O O8 0.000000 0.000000 0.500000
O O9 0.500000 0.500000 0.500000
O O10 0.658381 0.599306 0.402447
O O11 0.672725 0.166404 0.479444
O O12 0.171922 0.427656 0.715913
O O13 0.991794 0.877946 0.836956
O O14 0.140300 0.038711 0.939580
O O15 0.805468 0.220709 0.905289
O O16 0.313643 0.266904 0.819501
#
# Coordination Sequence:
#
# PCOD9021330 Si02
#       7
#     2   2   2   2   2   2   2
#     4  12  26  45  70  99 135 175 224 283 345 410
#     4  10  22  38  60  90 126 170 218 270 320 382
#     4  12  26  45  70  99 135 175 224 283 345 410
#     4   9  21  42  67  97 137 181 226 274 332 396
#     4   9  21  42  67  97 137 181 226 274 332 396
#     4  11  24  44  70 100 136 179 227 279 338 408
#     4  11  24  44  70 100 136 179 227 279 338 408
#
# _framework density 24.178167999999999
#
# number of rings (size 3 to 8) (size 9 to 14) (size 15 to 20)
#    0.000    1.429    0.000    4.286    4.000    5.143 
#    0.000    8.571    0.000    0.000    0.000    0.000 
#    0.000    0.000    0.000    0.000    0.000    0.000 
#
# Total GULP energy -78394.464646 kJ/mol
# GULP energy per Si atom -5599.604618 kJ/mol
# Density = 2.412314 g / cm^3
# Si number density = 24.178168 Si / 1000 Ang^3
#
#
#
# Elastic Constant Matrix: (Units=GPa)
#
#
# Indices 1 2 3 4 5 6 
#
# 1 82.6183 2.2506 10.1850 -7.4472 -23.8324 -7.0868
# 2 2.2506 89.9586 16.9848 -9.1825 0.4421 1.1429
# 3 10.1850 16.9848 158.6860 -16.6445 18.8489 -16.4870
# 4 -7.4472 -9.1825 -16.6445 38.7240 -17.4513 5.6054
# 5 -23.8324 0.4421 18.8489 -17.4513 39.7258 -4.1499
# 6 -7.0868 1.1429 -16.4870 5.6054 -4.1499 41.5363
#
#
#
# Elastic Compliance Matrix: (Units=1/GPa)
#
#
# Indices 1 2 3 4 5 6 
#
# 1 0.018161 0.000797 -0.001889 0.009878 0.016397 0.002632
# 2 0.000797 0.011714 -0.001317 0.003611 0.002459 -0.000951
# 3 -0.001889 -0.001317 0.007320 0.000237 -0.004262 0.002162
# 4 0.009878 0.003611 0.000237 0.039167 0.022841 -0.001323
# 5 0.016397 0.002459 -0.004262 0.022841 0.047318 0.002684
# 6 0.002632 -0.000951 0.002162 -0.001323 0.002684 0.025855
#
#
# Mechanical properties :
#
#
# Convention : Reuss Voigt Hill
#
# Bulk Modulus (GPa) = 30.88767 43.34487 37.11627
# Shear Modulus (GPa) = 30.27638 44.12003 37.19820
#
# Velocity S-wave (km/s) = 3.54251 4.27639 3.92663
# Velocity P-wave (km/s) = 5.43464 6.50765 5.99520
#
# Compressibility (1/GPa) = 0.03237538
#
# Stress axis : x y z
#
# Youngs Moduli (GPa) = 55.06255 85.37150 136.61924
#
# Poissons Ratio (x) = -0.06801 0.25807
# Poissons Ratio (y) = -0.04386 0.17993
# Poissons Ratio (z) = 0.10401 0.11244
#
# Static dielectric constant tensor:
#      x y z
#    x 1.960210 -0.018890 0.000900 
#    y -0.018890 1.870840 -0.001140 
#    z 0.000900 -0.001140 1.906190 
# 
# From -- ./inp_files/442326.got.cif
#   From: 2010.05.17/outbox.cif.g08.bks.cpg/sg2_222_cif.got.tgz:442326.got - 2010.06.03 11:33:40.
