data_PCOD9021346
_publ_section_title
;
Structure prediction by ZEFSAII (Michael W. Deem and Ramdas Pophale) SiO2 
 PCOD9021346
Probable space group: P -1
;
_chemical_formula_sum "Si O2"
_cell_formula_units_Z 16
_cell_length_a 9.124217
_cell_length_b 14.971684
_cell_length_c 10.214054
_cell_angle_alpha 58.147604
_cell_angle_beta 69.500652
_cell_angle_gamma 42.408314
_cell_volume 797.394009
_symmetry_space_group_name_H-M "P -1"
_symmetry_group_IT_number 2
_symmetry_cell_setting 'triclinic'
loop_
_space_group_symop_operation_xyz
x,y,z
-x,-y,-z
loop_
_atom_site_type_symbol
_atom_site_label
_atom_site_fract_x
_atom_site_fract_y
_atom_site_fract_z
Si Si1 0.538434 0.643335 0.960490
Si Si2 0.538643 0.627321 0.675182
Si Si3 0.843927 0.675567 0.904256
Si Si4 0.209569 0.628488 0.709090
Si Si5 0.082517 0.844846 0.072656
Si Si6 0.822467 0.356238 0.592729
Si Si7 0.196574 0.323150 0.561158
Si Si8 0.267653 0.160606 0.917861
O O1 0.651451 0.515887 0.131533
O O2 0.283622 0.752958 0.981084
O O3 0.598059 0.580104 0.844149
O O4 0.621121 0.724654 0.889971
O O5 0.291486 0.705192 0.668743
O O6 0.681720 0.489491 0.637693
O O7 0.610755 0.711303 0.551496
O O8 0.963605 0.705200 0.753068
O O9 0.816986 0.741857 0.001552
O O10 0.000000 0.500000 0.000000
O O11 0.262596 0.594790 0.565287
O O12 0.165053 0.762340 0.251092
O O13 0.900756 0.849587 0.071362
O O14 0.000000 0.000000 0.000000
O O15 0.068371 0.286868 0.564381
O O16 0.278134 0.243583 0.736704
O O17 0.000000 0.500000 0.500000
O O18 0.500000 0.000000 0.000000
#
# Coordination Sequence:
#
# PCOD9021346 Si02
#       8
#     2   2   2   2   2   2   2   2
#     4  11  23  37  62  93 130 167 213 265 330 380
#     4  11  21  35  61  94 130 163 210 271 330 376
#     4  10  24  36  64  96 133 169 224 269 326 384
#     4  11  22  35  60  96 131 162 213 273 323 381
#     4  11  24  42  65  89 129 177 220 262 324 404
#     4  10  22  38  60  93 128 168 209 266 328 383
#     4   9  22  36  65  92 131 166 221 262 332 380
#     4  11  24  45  67  97 136 179 220 270 334 402
#
# _framework density 20.065363000000001
#
# number of rings (size 3 to 8) (size 9 to 14) (size 15 to 20)
#    0.000    1.500    1.250    3.000   17.500    1.000 
#    0.000    1.250    0.000    7.500    0.000    0.000 
#    0.000    0.000    0.000    0.000    0.000    0.000 
#
# Total GULP energy -89268.261473 kJ/mol
# GULP energy per Si atom -5579.266342 kJ/mol
# Density = 2.001969 g / cm^3
# Si number density = 20.065363 Si / 1000 Ang^3
#
#
#
# Elastic Constant Matrix: (Units=GPa)
#
#
# Indices 1 2 3 4 5 6 
#
# 1 127.7618 18.5361 57.1652 13.1678 -21.6055 -9.6143
# 2 18.5361 63.2865 55.0415 4.2135 4.2250 4.3787
# 3 57.1652 55.0415 176.2936 23.2360 7.8133 4.0086
# 4 13.1678 4.2135 23.2360 24.7965 4.9338 3.4875
# 5 -21.6055 4.2250 7.8133 4.9338 39.8027 8.0425
# 6 -9.6143 4.3787 4.0086 3.4875 8.0425 29.0500
#
#
#
# Elastic Compliance Matrix: (Units=1/GPa)
#
#
# Indices 1 2 3 4 5 6 
#
# 1 0.011190 -0.000936 -0.003090 -0.004648 0.006759 0.002958
# 2 -0.000936 0.022211 -0.007030 0.003983 -0.001419 -0.002773
# 3 -0.003090 -0.007030 0.009736 -0.005865 -0.002112 -0.000018
# 4 -0.004648 0.003983 -0.005865 0.049742 -0.006869 -0.005399
# 5 0.006759 -0.001419 -0.002112 -0.006869 0.031236 -0.005081
# 6 0.002958 -0.002773 -0.000018 -0.005399 -0.005081 0.037878
#
#
# Mechanical properties :
#
#
# Convention : Reuss Voigt Hill
#
# Bulk Modulus (GPa) = 47.56383 69.86972 58.71678
# Shear Modulus (GPa) = 26.16231 34.50312 30.33271
#
# Velocity S-wave (km/s) = 3.61481 4.15123 3.89227
# Velocity P-wave (km/s) = 6.41704 7.60747 7.03747
#
# Compressibility (1/GPa) = 0.02102438
#
# Stress axis : x y z
#
# Youngs Moduli (GPa) = 89.36327 45.02294 102.70710
#
# Poissons Ratio (x) = 0.04215 0.31741
# Poissons Ratio (y) = 0.08365 0.72204
# Poissons Ratio (z) = 0.27618 0.31651
#
# Static dielectric constant tensor:
#      x y z
#    x 1.766350 -0.008090 0.029490 
#    y -0.008090 1.678820 -0.004470 
#    z 0.029490 -0.004470 1.656560 
# 
# From -- ./inp_files/206350.got.cif
#   From: 2010.05.17/outbox.cif.g08.bks.cpg/sg2_104_cif.got.tgz:206350.got - 2010.06.03 11:33:40.
