data_PCOD9021868
_publ_section_title
;
Structure prediction by ZEFSAII (Michael W. Deem and Ramdas Pophale) SiO2 
 PCOD9021868
Probable space group: P -1
;
_chemical_formula_sum "Si O2"
_cell_formula_units_Z 15
_cell_length_a 10.920870
_cell_length_b 9.695447
_cell_length_c 12.518043
_cell_angle_alpha 144.393504
_cell_angle_beta 100.199450
_cell_angle_gamma 92.717388
_cell_volume 715.887467
_symmetry_space_group_name_H-M "P -1"
_symmetry_group_IT_number 2
_symmetry_cell_setting 'triclinic'
loop_
_space_group_symop_operation_xyz
x,y,z
-x,-y,-z
loop_
_atom_site_type_symbol
_atom_site_label
_atom_site_fract_x
_atom_site_fract_y
_atom_site_fract_z
Si Si1 0.896954 0.246890 0.141256
Si Si2 0.461679 0.443965 0.781107
Si Si3 0.586606 0.194557 0.820998
Si Si4 0.440886 0.604457 0.456220
Si Si5 0.176299 0.285256 0.284800
Si Si6 0.895270 0.458016 0.050920
Si Si7 0.000000 0.000000 0.500000
Si Si8 0.810787 0.709859 0.463009
O O1 0.940387 0.331737 0.079924
O O2 0.817692 0.427038 0.279259
O O3 0.029106 0.293690 0.258559
O O4 0.819202 0.951702 0.934123
O O5 0.526913 0.285434 0.765117
O O6 0.540862 0.522935 0.732743
O O7 0.315623 0.282193 0.617064
O O8 0.447889 0.665504 0.993092
O O9 0.517801 0.899011 0.639864
O O10 0.745418 0.292156 0.896370
O O11 0.500000 0.500000 0.500000
O O12 0.286265 0.533045 0.413514
O O13 0.203112 0.240803 0.383810
O O14 0.903406 0.731851 0.266748
O O15 0.000000 0.500000 0.000000
O O16 0.939547 0.900847 0.548410
#
# Coordination Sequence:
#
# PCOD9021868 Si02
#       8
#     2   2   2   2   2   2   1   2
#     4  10  23  43  64  94 134 170 219 277 331 397
#     4  11  25  46  67  97 139 180 225 282 333 406
#     4  11  26  46  67  99 139 180 227 284 336 402
#     4  12  26  43  72  98 135 185 226 276 343 400
#     4  11  24  43  65  98 134 174 222 276 334 400
#     4  11  23  39  67  93 126 169 218 273 332 390
#     4  10  22  38  66  94 122 168 212 264 330 392
#     4  11  22  43  68  95 132 171 222 278 336 398
#
# _framework density 20.953012999999999
#
# number of rings (size 3 to 8) (size 9 to 14) (size 15 to 20)
#    0.000    1.067    4.000    2.400    3.733    3.733 
#    0.000    0.000    0.000    0.000    0.000    0.000 
#    0.000    0.000    0.000    0.000    0.000    0.000 
#
# Total GULP energy -83576.526897 kJ/mol
# GULP energy per Si atom -5571.768460 kJ/mol
# Density = 2.090532 g / cm^3
# Si number density = 20.953013 Si / 1000 Ang^3
#
#
#
# Elastic Constant Matrix: (Units=GPa)
#
#
# Indices 1 2 3 4 5 6 
#
# 1 72.7054 54.7184 51.5504 -2.0512 6.7564 16.1693
# 2 54.7184 95.2339 44.1508 -14.7775 12.5784 6.2935
# 3 51.5504 44.1508 106.7507 2.6172 18.5992 5.3546
# 4 -2.0512 -14.7775 2.6172 43.9021 6.4511 5.0665
# 5 6.7564 12.5784 18.5992 6.4511 28.0914 -4.0421
# 6 16.1693 6.2935 5.3546 5.0665 -4.0421 38.5036
#
#
#
# Elastic Compliance Matrix: (Units=1/GPa)
#
#
# Indices 1 2 3 4 5 6 
#
# 1 0.034307 -0.015181 -0.010567 -0.002459 0.004721 -0.009637
# 2 -0.015181 0.021509 -0.000563 0.007476 -0.007151 0.001203
# 3 -0.010567 -0.000563 0.015918 -0.000743 -0.007338 0.001643
# 4 -0.002459 0.007476 -0.000743 0.027101 -0.009151 -0.004613
# 5 0.004721 -0.007151 -0.007338 -0.009151 0.045515 0.006189
# 6 -0.009637 0.001203 0.001643 -0.004613 0.006189 0.030850
#
#
# Mechanical properties :
#
#
# Convention : Reuss Voigt Hill
#
# Bulk Modulus (GPa) = 52.32299 63.94771 58.13535
# Shear Modulus (GPa) = 21.35001 30.38413 25.86707
#
# Velocity S-wave (km/s) = 3.19556 3.81216 3.51740
# Velocity P-wave (km/s) = 6.21621 7.06842 6.65597
#
# Compressibility (1/GPa) = 0.01911206
#
# Stress axis : x y z
#
# Youngs Moduli (GPa) = 29.14855 46.49267 62.82355
#
# Poissons Ratio (x) = 0.70580 0.66387
# Poissons Ratio (y) = 0.44250 0.03534
# Poissons Ratio (z) = 0.30802 0.02616
#
# Static dielectric constant tensor:
#      x y z
#    x 1.780560 -0.002630 -0.040290 
#    y -0.002630 1.721990 -0.005650 
#    z -0.040290 -0.005650 1.782370 
# 
# From -- ./inp_files/418695.got.cif
#   From: 2010.05.17/outbox.cif.g08.bks.cpg/sg2_210_cif.got.tgz:418695.got - 2010.06.03 11:33:40.
