data_PCOD9021812
_publ_section_title
;
Structure prediction by ZEFSAII (Michael W. Deem and Ramdas Pophale) SiO2 
 PCOD9021812
Probable space group: P -1
;
_chemical_formula_sum "Si O2"
_cell_formula_units_Z 16
_cell_length_a 7.886869
_cell_length_b 7.654410
_cell_length_c 17.328826
_cell_angle_alpha 129.559208
_cell_angle_beta 102.719145
_cell_angle_gamma 57.358301
_cell_volume 666.776479
_symmetry_space_group_name_H-M "P -1"
_symmetry_group_IT_number 2
_symmetry_cell_setting 'triclinic'
loop_
_space_group_symop_operation_xyz
x,y,z
-x,-y,-z
loop_
_atom_site_type_symbol
_atom_site_label
_atom_site_fract_x
_atom_site_fract_y
_atom_site_fract_z
Si Si1 0.612675 0.484240 0.182120
Si Si2 0.076980 0.924918 0.800557
Si Si3 0.613487 0.663260 0.075641
Si Si4 0.221897 0.230184 0.200818
Si Si5 0.956882 0.270561 0.417229
Si Si6 0.580433 0.149070 0.601596
Si Si7 0.803266 0.309797 0.567989
Si Si8 0.201640 0.492566 0.110466
O O1 0.714096 0.524346 0.128163
O O2 0.576621 0.701583 0.303223
O O3 0.390042 0.534265 0.157847
O O4 0.738003 0.199775 0.156282
O O5 0.908286 0.900503 0.825363
O O6 0.115675 0.747975 0.679037
O O7 0.996221 0.214573 0.839533
O O8 0.453147 0.976921 0.162120
O O9 0.500000 0.500000 0.000000
O O10 0.743097 0.634953 0.005149
O O11 0.162703 0.476954 0.322727
O O12 0.192288 0.334714 0.138928
O O13 0.784314 0.341702 0.483668
O O14 0.000000 0.500000 0.500000
O O15 0.188725 0.017374 0.385381
O O16 0.611048 0.336022 0.599198
O O17 0.500000 0.000000 0.500000
O O18 0.000000 0.000000 0.500000
#
# Coordination Sequence:
#
# PCOD9021812 Si02
#       8
#     2   2   2   2   2   2   2   2
#     4  11  23  44  67 100 142 179 234 283 345 417
#     4  12  24  43  69 100 141 187 225 289 346 411
#     4  10  22  44  74 101 135 187 229 288 359 411
#     4  12  21  44  76  97 141 187 224 293 356 409
#     4  11  20  38  63  92 134 182 228 274 347 407
#     4  11  22  41  63  97 136 177 232 289 338 411
#     4  10  22  38  65  98 136 182 234 279 343 420
#     4  11  23  48  70 101 140 178 236 289 347 419
#
# _framework density 23.996046
#
# number of rings (size 3 to 8) (size 9 to 14) (size 15 to 20)
#    0.000    1.000    6.250    1.875    1.750    0.500 
#    2.250    4.375    0.000    0.000    0.000    0.000 
#    0.000    0.000    0.000    0.000    0.000    0.000 
#
# Total GULP energy -89342.508036 kJ/mol
# GULP energy per Si atom -5583.906752 kJ/mol
# Density = 2.394143 g / cm^3
# Si number density = 23.996046 Si / 1000 Ang^3
#
#
#
# Elastic Constant Matrix: (Units=GPa)
#
#
# Indices 1 2 3 4 5 6 
#
# 1 29.8605 9.8182 19.0902 -16.2596 -1.1737 10.2036
# 2 9.8182 142.1453 34.8405 -20.6412 -12.3154 6.2754
# 3 19.0902 34.8405 103.5709 -18.0838 -20.9242 -0.2489
# 4 -16.2596 -20.6412 -18.0838 44.0913 13.6995 -10.6190
# 5 -1.1737 -12.3154 -20.9242 13.6995 40.1767 -11.0822
# 6 10.2036 6.2754 -0.2489 -10.6190 -11.0822 38.7048
#
#
#
# Elastic Compliance Matrix: (Units=1/GPa)
#
#
# Indices 1 2 3 4 5 6 
#
# 1 0.052237 0.000598 -0.009509 0.016370 -0.012408 -0.012991
# 2 0.000598 0.008005 -0.002283 0.002832 0.000136 -0.000654
# 3 -0.009509 -0.002283 0.013710 -0.000082 0.007603 0.005120
# 4 0.016370 0.002832 -0.000082 0.033395 -0.009634 0.001628
# 5 -0.012408 0.000136 0.007603 -0.009634 0.034738 0.010601
# 6 -0.012991 -0.000654 0.005120 0.001628 0.010601 0.032883
#
#
# Mechanical properties :
#
#
# Convention : Reuss Voigt Hill
#
# Bulk Modulus (GPa) = 19.39324 44.78606 32.08965
# Shear Modulus (GPa) = 23.30533 38.71640 31.01087
#
# Velocity S-wave (km/s) = 3.11981 4.02113 3.59880
# Velocity P-wave (km/s) = 4.59097 6.34538 5.53809
#
# Compressibility (1/GPa) = 0.05156436
#
# Stress axis : x y z
#
# Youngs Moduli (GPa) = 19.14356 124.91916 72.94010
#
# Poissons Ratio (x) = -0.07474 0.69361
# Poissons Ratio (y) = -0.01145 0.16650
# Poissons Ratio (z) = 0.18204 0.28515
#
# Static dielectric constant tensor:
#      x y z
#    x 3.599730 0.119410 -0.698080 
#    y 0.119410 1.983510 -0.081930 
#    z -0.698080 -0.081930 2.208330 
# 
# From -- ./inp_files/557602.got.cif
#   From: 2010.05.17/outbox.cif.g08.bks.cpg/sg2_279_cif.got.tgz:557602.got - 2010.06.03 11:33:40.
