data_PCOD9021283
_publ_section_title
;
Structure prediction by ZEFSAII (Michael W. Deem and Ramdas Pophale) SiO2 
 PCOD9021283
Probable space group: P -1
;
_chemical_formula_sum "Si O2"
_cell_formula_units_Z 14
_cell_length_a 9.557339
_cell_length_b 10.283131
_cell_length_c 8.275682
_cell_angle_alpha 124.687110
_cell_angle_beta 108.067370
_cell_angle_gamma 70.540762
_cell_volume 622.907104
_symmetry_space_group_name_H-M "P -1"
_symmetry_group_IT_number 2
_symmetry_cell_setting 'triclinic'
loop_
_space_group_symop_operation_xyz
x,y,z
-x,-y,-z
loop_
_atom_site_type_symbol
_atom_site_label
_atom_site_fract_x
_atom_site_fract_y
_atom_site_fract_z
Si Si1 0.330684 0.851275 0.368706
Si Si2 0.873070 0.640695 0.735392
Si Si3 0.820814 0.130519 0.338966
Si Si4 0.639238 0.865352 0.009378
Si Si5 0.879879 0.165174 0.027730
Si Si6 0.630520 0.782820 0.285964
Si Si7 0.942216 0.693357 0.427768
O O1 0.268286 0.803696 0.483969
O O2 0.497873 0.747352 0.323960
O O3 0.346224 0.038732 0.526270
O O4 0.229880 0.846671 0.169011
O O5 0.880435 0.675881 0.572975
O O6 0.015861 0.710885 0.897636
O O7 0.916496 0.451252 0.649493
O O8 0.717599 0.735047 0.817478
O O9 0.798873 0.208787 0.204899
O O10 0.992555 0.144003 0.448790
O O11 0.771642 0.959565 0.174883
O O12 0.577385 0.789372 0.088465
O O13 0.500000 0.000000 0.000000
O O14 0.000000 0.000000 0.000000
O O15 0.798202 0.679802 0.264065
#
# Coordination Sequence:
#
# PCOD9021283 Si02
#       7
#     2   2   2   2   2   2   2
#     4  10  22  38  59  95 125 159 211 260 310 367
#     4  10  23  40  64  91 126 166 207 259 312 381
#     4  10  22  38  65  91 119 166 209 256 307 371
#     4  11  23  38  65  97 122 161 213 263 312 365
#     4  11  20  36  64  90 120 162 212 263 303 369
#     4  10  23  37  61  92 129 163 198 267 317 363
#     4  10  23  42  62  91 128 167 207 251 322 378
#
# _framework density 22.475262000000001
#
# number of rings (size 3 to 8) (size 9 to 14) (size 15 to 20)
#    0.000    1.714    1.429    2.571    8.000    2.286 
#    0.000    1.429    3.143    0.000    0.000    0.000 
#    0.000    0.000    0.000    0.000    0.000    0.000 
#
# Total GULP energy -78052.347972 kJ/mol
# GULP energy per Si atom -5575.167712 kJ/mol
# Density = 2.242411 g / cm^3
# Si number density = 22.475262 Si / 1000 Ang^3
#
#
#
# Elastic Constant Matrix: (Units=GPa)
#
#
# Indices 1 2 3 4 5 6 
#
# 1 120.8366 40.3320 46.0874 -14.9533 -32.3916 -0.7676
# 2 40.3320 44.4339 29.5554 -4.9761 -15.5961 -13.0020
# 3 46.0874 29.5554 79.2440 -15.9614 -23.9026 -7.3825
# 4 -14.9533 -4.9761 -15.9614 23.5714 6.9409 0.5287
# 5 -32.3916 -15.5961 -23.9026 6.9409 34.7270 2.6234
# 6 -0.7676 -13.0020 -7.3825 0.5287 2.6234 28.6075
#
#
#
# Elastic Compliance Matrix: (Units=1/GPa)
#
#
# Indices 1 2 3 4 5 6 
#
# 1 0.015242 -0.011018 -0.002337 0.003725 0.007364 -0.005946
# 2 -0.011018 0.043638 -0.008214 -0.004699 0.003307 0.017201
# 3 -0.002337 -0.008214 0.020946 0.008978 0.006691 0.000830
# 4 0.003725 -0.004699 0.008978 0.050634 -0.002544 -0.000421
# 5 0.007364 0.003307 0.006691 -0.002544 0.042295 -0.000404
# 6 -0.005946 0.017201 0.000830 -0.000421 -0.000404 0.042873
#
#
# Mechanical properties :
#
#
# Convention : Reuss Voigt Hill
#
# Bulk Modulus (GPa) = 27.25769 52.94044 40.09906
# Shear Modulus (GPa) = 18.45050 25.95049 22.20049
#
# Velocity S-wave (km/s) = 2.86829 3.40166 3.14630
# Velocity P-wave (km/s) = 4.80870 6.24776 5.57486
#
# Compressibility (1/GPa) = 0.03668690
#
# Stress axis : x y z
#
# Youngs Moduli (GPa) = 65.60812 22.91600 47.74162
#
# Poissons Ratio (x) = 0.25249 0.11159
# Poissons Ratio (y) = 0.72287 0.39215
# Poissons Ratio (z) = 0.15335 0.18823
#
# Static dielectric constant tensor:
#      x y z
#    x 1.861970 -0.044950 -0.009320 
#    y -0.044950 1.888220 0.003990 
#    z -0.009320 0.003990 1.886290 
# 
# From -- ./inp_files/183373.got.cif
#   From: 2010.05.17/outbox.cif.g08.bks.cpg/sg2_92_cif.got.tgz:183373.got - 2010.06.03 11:33:40.
