data_PCOD9021653
_publ_section_title
;
Structure prediction by ZEFSAII (Michael W. Deem and Ramdas Pophale) SiO2 
 PCOD9021653
Probable space group: P -1
;
_chemical_formula_sum "Si O2"
_cell_formula_units_Z 15
_cell_length_a 25.089695
_cell_length_b 15.343285
_cell_length_c 15.399576
_cell_angle_alpha 27.778324
_cell_angle_beta 159.670872
_cell_angle_gamma 160.985092
_cell_volume 670.939886
_symmetry_space_group_name_H-M "P -1"
_symmetry_group_IT_number 2
_symmetry_cell_setting 'triclinic'
loop_
_space_group_symop_operation_xyz
x,y,z
-x,-y,-z
loop_
_atom_site_type_symbol
_atom_site_label
_atom_site_fract_x
_atom_site_fract_y
_atom_site_fract_z
Si Si1 0.515909 0.039745 0.699330
Si Si2 0.747616 0.147407 0.250482
Si Si3 0.014884 0.718425 0.235536
Si Si4 0.393915 0.321114 0.080517
Si Si5 0.011434 0.925948 0.221319
Si Si6 0.500000 0.000000 0.500000
Si Si7 0.171456 0.926607 0.747370
Si Si8 0.229077 0.393210 0.453864
O O1 0.684616 0.360375 0.688447
O O2 0.272628 0.894536 0.479404
O O3 0.518214 0.998010 0.637136
O O4 0.609263 0.951075 0.976550
O O5 0.774900 0.978560 0.494042
O O6 0.839977 0.193212 0.254549
O O7 0.888613 0.426350 0.269067
O O8 0.500000 0.000000 0.000000
O O9 0.942931 0.737965 0.200909
O O10 0.972932 0.850919 0.987388
O O11 0.570420 0.482295 0.285485
O O12 0.358046 0.070104 0.232506
O O13 0.500000 0.500000 0.000000
O O14 0.177587 0.239884 0.849405
O O15 0.969612 0.716317 0.690382
O O16 0.168560 0.147293 0.531582
#
# Coordination Sequence:
#
# PCOD9021653 Si02
#       8
#     2   2   2   2   2   1   2   2
#     4  11  23  42  71  98 135 179 228 287 331 408
#     4  12  29  45  68 103 138 180 231 290 351 415
#     4  11  26  46  73 102 132 184 241 285 341 406
#     4  11  22  38  69 100 135 174 227 285 331 407
#     4  11  25  46  74  99 135 185 233 289 342 406
#     4  10  22  38  64 106 132 166 234 276 338 384
#     4  11  25  42  66  96 144 180 219 280 352 407
#     4  10  23  41  61 101 133 182 221 270 346 408
#
# _framework density 22.356698000000002
#
# number of rings (size 3 to 8) (size 9 to 14) (size 15 to 20)
#    0.000    1.067    2.667    3.200    9.333    2.667 
#    0.000    0.000    0.000    0.000    0.000    0.000 
#    0.000    0.000    0.000    0.000    0.000    0.000 
#
# Total GULP energy -83684.310944 kJ/mol
# GULP energy per Si atom -5578.954063 kJ/mol
# Density = 2.230581 g / cm^3
# Si number density = 22.356698 Si / 1000 Ang^3
#
#
#
# Elastic Constant Matrix: (Units=GPa)
#
#
# Indices 1 2 3 4 5 6 
#
# 1 47.3172 12.5831 9.6507 -20.0536 15.8416 10.6458
# 2 12.5831 67.7977 22.9901 -4.9091 26.7609 8.3119
# 3 9.6507 22.9901 142.6701 -7.3010 15.0921 16.1003
# 4 -20.0536 -4.9091 -7.3010 22.2919 6.0413 4.6889
# 5 15.8416 26.7609 15.0921 6.0413 39.5884 -4.3559
# 6 10.6458 8.3119 16.1003 4.6889 -4.3559 14.4450
#
#
#
# Elastic Compliance Matrix: (Units=1/GPa)
#
#
# Indices 1 2 3 4 5 6 
#
# 1 -0.018602 -0.019566 -0.009037 -0.047369 0.038157 0.061924
# 2 -0.019566 0.012947 -0.005219 -0.023085 0.007055 0.022408
# 3 -0.009037 -0.005219 0.006119 -0.011131 0.007469 0.008709
# 4 -0.047369 -0.023085 -0.011131 -0.040341 0.054890 0.090248
# 5 0.038157 0.007055 0.007469 0.054890 -0.012845 -0.062197
# 6 0.061924 0.022408 0.008709 0.090248 -0.062197 -0.047060
#
#
# Mechanical properties :
#
#
# Convention : Reuss Voigt Hill
#
# Bulk Modulus (GPa) = -14.88512 38.69255 11.90372
# Shear Modulus (GPa) = -91.69132 29.43579 -31.12776
#
# Velocity S-wave (km/s) = -6.41108 3.63249 -3.73543
# Velocity P-wave (km/s) = 7.84060 5.91082 3.64261
#
# Compressibility (1/GPa) = -0.06718117
#
# Stress axis : x y z
#
# Youngs Moduli (GPa) = -53.75656 77.23558 163.42305
#
# Poissons Ratio (x) = 1.51119 1.47692
# Poissons Ratio (y) = -1.05180 0.85295
# Poissons Ratio (z) = -0.48582 0.40312
#
# Static dielectric constant tensor:
#      x y z
#    x 1.808300 0.013900 -0.008040 
#    y 0.013900 1.807580 -0.043040 
#    z -0.008040 -0.043040 1.799240 
# 
# From -- ./inp_files/543031.got.cif
#   From: 2010.05.17/outbox.cif.g08.bks.cpg/sg2_272_cif.got.tgz:543031.got - 2010.06.03 11:33:40.
