data_PCOD9021157
_publ_section_title
;
Structure prediction by ZEFSAII (Michael W. Deem and Ramdas Pophale) SiO2 
 PCOD9021157
Probable space group: P -1
;
_chemical_formula_sum "Si O2"
_cell_formula_units_Z 15
_cell_length_a 6.729196
_cell_length_b 17.357565
_cell_length_c 8.326366
_cell_angle_alpha 50.255806
_cell_angle_beta 56.953184
_cell_angle_gamma 45.434543
_cell_volume 524.403350
_symmetry_space_group_name_H-M "P -1"
_symmetry_group_IT_number 2
_symmetry_cell_setting 'triclinic'
loop_
_space_group_symop_operation_xyz
x,y,z
-x,-y,-z
loop_
_atom_site_type_symbol
_atom_site_label
_atom_site_fract_x
_atom_site_fract_y
_atom_site_fract_z
Si Si1 0.592602 0.505868 0.730584
Si Si2 0.885395 0.548453 0.235944
Si Si3 0.583714 0.819153 0.088381
Si Si4 0.356282 0.757651 0.557451
Si Si5 0.602767 0.098941 0.245948
Si Si6 0.895431 0.697241 0.608092
Si Si7 0.000000 0.000000 0.500000
Si Si8 0.865311 0.248420 0.863084
O O1 0.749250 0.519251 0.487422
O O2 0.338358 0.644133 0.684026
O O3 0.617897 0.381329 0.857659
O O4 0.809895 0.475267 0.821857
O O5 0.691839 0.691838 0.121959
O O6 0.936425 0.443500 0.233238
O O7 0.363662 0.830956 0.303893
O O8 0.851399 0.796335 0.100418
O O9 0.461367 0.927119 0.871243
O O10 0.660248 0.706994 0.573272
O O11 0.132706 0.857396 0.640447
O O12 0.297540 0.200912 0.316446
O O13 0.784942 0.153208 0.040026
O O14 0.778403 0.013939 0.429409
O O15 0.073555 0.730624 0.373549
#
# Coordination Sequence:
#
# PCOD9021157 Si02
#       8
#     2   2   2   2   2   2   1   2
#     4   7  11  25  53  79 106 148 184 216 283 346
#     4   7  11  25  50  77 112 146 170 225 284 327
#     4   9  18  34  58  86 114 148 195 237 280 341
#     4   8  15  33  56  77 113 156 183 232 289 327
#     4  11  22  37  58  86 115 153 195 235 284 338
#     4   8  16  33  54  80 119 149 178 229 283 335
#     4  10  22  38  54  80 118 150 194 246 284 332
#     4   9  18  37  61  86 115 152 187 227 289 351
#
# _framework density 28.603936000000001
#
# number of rings (size 3 to 8) (size 9 to 14) (size 15 to 20)
#    0.000    3.467    0.000    3.200    0.000    1.067 
#    0.000   27.333    0.000    0.000    0.000    0.000 
#    0.000    0.000    0.000    0.000    0.000    0.000 
#
# Total GULP energy -83656.519969 kJ/mol
# GULP energy per Si atom -5577.101331 kJ/mol
# Density = 2.853883 g / cm^3
# Si number density = 28.603936 Si / 1000 Ang^3
#
#
#
# Elastic Constant Matrix: (Units=GPa)
#
#
# Indices 1 2 3 4 5 6 
#
# 1 80.1790 -4.2806 17.5634 -4.6526 8.5967 2.7336
# 2 -4.2806 45.7627 -17.6792 11.9635 -15.9850 -8.6050
# 3 17.5634 -17.6792 142.9375 6.1164 6.1411 -5.4329
# 4 -4.6526 11.9635 6.1164 21.8079 3.6572 4.1053
# 5 8.5967 -15.9850 6.1411 3.6572 56.0301 -16.6448
# 6 2.7336 -8.6050 -5.4329 4.1053 -16.6448 33.8602
#
#
#
# Elastic Compliance Matrix: (Units=1/GPa)
#
#
# Indices 1 2 3 4 5 6 
#
# 1 0.014288 -0.005924 -0.002906 0.009585 -0.006397 -0.007432
# 2 -0.005924 0.052539 0.009206 -0.043825 0.027958 0.034364
# 3 -0.002906 0.009206 0.009020 -0.010521 0.005087 0.007798
# 4 0.009585 -0.043825 -0.010521 0.087277 -0.030096 -0.038975
# 5 -0.006397 0.027958 0.005087 -0.030096 0.037241 0.030393
# 6 -0.007432 0.034364 0.007798 -0.038975 0.030393 0.059783
#
#
# Mechanical properties :
#
#
# Convention : Reuss Voigt Hill
#
# Bulk Modulus (GPa) = 13.05498 28.89850 20.97674
# Shear Modulus (GPa) = 17.54829 40.55802 29.05316
#
# Velocity S-wave (km/s) = 2.47956 3.76961 3.19047
# Velocity P-wave (km/s) = 3.57374 5.39180 4.57401
#
# Compressibility (1/GPa) = 0.07659913
#
# Stress axis : x y z
#
# Youngs Moduli (GPa) = 69.98935 19.03358 110.86600
#
# Poissons Ratio (x) = 0.11276 0.32219
# Poissons Ratio (y) = 0.41462 -1.02068
# Poissons Ratio (z) = 0.20340 -0.17523
#
# Static dielectric constant tensor:
#      x y z
#    x 2.348720 -0.005880 0.050680 
#    y -0.005880 2.209880 0.074170 
#    z 0.050680 0.074170 2.335420 
# 
# From -- ./inp_files/220455.got.cif
#   From: 2010.05.17/outbox.cif.g08.bks.cpg/sg2_111_cif.got.tgz:220455.got - 2010.06.03 11:33:40.
