data_PCOD9021669
_publ_section_title
;
Structure prediction by ZEFSAII (Michael W. Deem and Ramdas Pophale) SiO2 
 PCOD9021669
Probable space group: P -1
;
_chemical_formula_sum "Si O2"
_cell_formula_units_Z 15
_cell_length_a 21.378220
_cell_length_b 7.817552
_cell_length_c 17.967588
_cell_angle_alpha 41.332997
_cell_angle_beta 19.270186
_cell_angle_gamma 40.521896
_cell_volume 636.076163
_symmetry_space_group_name_H-M "P -1"
_symmetry_group_IT_number 2
_symmetry_cell_setting 'triclinic'
loop_
_space_group_symop_operation_xyz
x,y,z
-x,-y,-z
loop_
_atom_site_type_symbol
_atom_site_label
_atom_site_fract_x
_atom_site_fract_y
_atom_site_fract_z
Si Si1 0.650830 0.492510 0.969969
Si Si2 0.493839 0.995633 0.248234
Si Si3 0.308936 0.923867 0.144065
Si Si4 0.156152 0.851128 0.594777
Si Si5 0.026719 0.251977 0.479578
Si Si6 0.000000 0.500000 0.000000
Si Si7 0.539299 0.790858 0.423988
Si Si8 0.519512 0.384331 0.305157
O O1 0.563885 0.253230 0.114121
O O2 0.502831 0.760639 0.020206
O O3 0.654900 0.455512 0.066282
O O4 0.864555 0.515456 0.698410
O O5 0.276674 0.022982 0.451634
O O6 0.500553 0.804062 0.375109
O O7 0.628355 0.922267 0.047526
O O8 0.192809 0.706141 0.316564
O O9 0.165475 0.108925 0.301976
O O10 0.319814 0.609795 0.454314
O O11 0.051484 0.024954 0.588307
O O12 0.017678 0.730954 0.843024
O O13 0.765461 0.644381 0.229081
O O14 0.421036 0.657096 0.661194
O O15 0.490982 0.098315 0.403679
#
# Coordination Sequence:
#
# PCOD9021669 Si02
#       8
#     2   2   2   2   2   1   2   2
#     4  11  21  41  61  94 130 171 205 268 308 381
#     4  11  23  38  64  91 129 164 219 252 325 378
#     4  11  22  38  60  95 124 167 214 257 313 386
#     4  11  21  40  64  91 127 173 205 272 312 385
#     4  11  23  38  64  92 131 167 214 257 321 373
#     4  10  22  38  64  90 126 154 212 272 320 352
#     4   9  20  40  61  91 116 169 209 263 313 383
#     4   9  19  37  67  81 122 171 214 245 321 375
#
# _framework density 23.582083000000001
#
# number of rings (size 3 to 8) (size 9 to 14) (size 15 to 20)
#    0.000    1.600    2.667    2.400    0.000    2.667 
#    4.800    2.667    0.000    8.000    0.000    0.000 
#    0.000    0.000    0.000    0.000    0.000    0.000 
#
# Total GULP energy -83540.800338 kJ/mol
# GULP energy per Si atom -5569.386689 kJ/mol
# Density = 2.352841 g / cm^3
# Si number density = 23.582083 Si / 1000 Ang^3
#
#
#
# Elastic Constant Matrix: (Units=GPa)
#
#
# Indices 1 2 3 4 5 6 
#
# 1 113.8641 37.5701 48.4824 -27.4704 22.5278 -10.6538
# 2 37.5701 69.5865 13.0870 -8.1436 11.5608 -5.5296
# 3 48.4824 13.0870 153.7025 -27.3419 31.6631 -26.5580
# 4 -27.4704 -8.1436 -27.3419 30.3436 -16.5345 6.1957
# 5 22.5278 11.5608 31.6631 -16.5345 50.9556 -16.2712
# 6 -10.6538 -5.5296 -26.5580 6.1957 -16.2712 36.2986
#
#
#
# Elastic Compliance Matrix: (Units=1/GPa)
#
#
# Indices 1 2 3 4 5 6 
#
# 1 0.013908 -0.005983 -0.002244 0.008649 -0.000670 -0.000248
# 2 -0.005983 0.017711 0.000694 -0.001269 -0.001965 0.000785
# 3 -0.002244 0.000694 0.009115 0.004375 -0.001978 0.004483
# 4 0.008649 -0.001269 0.004375 0.049718 0.010433 0.001737
# 5 -0.000670 -0.001965 -0.001978 0.010433 0.027767 0.008723
# 6 -0.000248 0.000785 0.004483 0.001737 0.008723 0.034490
#
#
# Mechanical properties :
#
#
# Convention : Reuss Voigt Hill
#
# Bulk Modulus (GPa) = 38.95900 59.49243 49.22572
# Shear Modulus (GPa) = 28.35588 39.38715 33.87151
#
# Velocity S-wave (km/s) = 3.47137 4.09126 3.79400
# Velocity P-wave (km/s) = 5.71172 6.89931 6.33341
#
# Compressibility (1/GPa) = 0.02566801
#
# Stress axis : x y z
#
# Youngs Moduli (GPa) = 71.90136 56.46262 109.70783
#
# Poissons Ratio (x) = 0.33783 0.24616
# Poissons Ratio (y) = 0.43020 -0.07615
# Poissons Ratio (z) = 0.16133 -0.03919
#
# Static dielectric constant tensor:
#      x y z
#    x 1.991930 0.085320 0.008500 
#    y 0.085320 1.932080 -0.049840 
#    z 0.008500 -0.049840 1.848370 
# 
# From -- ./inp_files/224776.got.cif
#   From: 2010.05.17/outbox.cif.g08.bks.cpg/sg2_113_cif.got.tgz:224776.got - 2010.06.03 11:33:40.
