data_PCOD9021039
_publ_section_title
;
Structure prediction by ZEFSAII (Michael W. Deem and Ramdas Pophale) SiO2 
 PCOD9021039
Probable space group: P -1
;
_chemical_formula_sum "Si O2"
_cell_formula_units_Z 16
_cell_length_a 14.368353
_cell_length_b 8.340225
_cell_length_c 14.037425
_cell_angle_alpha 134.055085
_cell_angle_beta 43.481757
_cell_angle_gamma 141.144095
_cell_volume 692.329219
_symmetry_space_group_name_H-M "P -1"
_symmetry_group_IT_number 2
_symmetry_cell_setting 'triclinic'
loop_
_space_group_symop_operation_xyz
x,y,z
-x,-y,-z
loop_
_atom_site_type_symbol
_atom_site_label
_atom_site_fract_x
_atom_site_fract_y
_atom_site_fract_z
Si Si1 0.626838 0.119568 0.210006
Si Si2 0.663860 0.762307 0.172845
Si Si3 0.664397 0.755504 0.879939
Si Si4 0.821297 0.789627 0.590090
Si Si5 0.290409 0.059309 0.421763
Si Si6 0.017199 0.489339 0.595771
Si Si7 0.207096 0.293444 0.752585
Si Si8 0.913951 0.845397 0.874248
O O1 0.450989 0.072058 0.329223
O O2 0.741580 0.428190 0.219314
O O3 0.661524 0.014049 0.237942
O O4 0.633550 0.942524 0.046259
O O5 0.503175 0.503269 0.139080
O O6 0.677702 0.693916 0.242972
O O7 0.825227 0.810549 0.023310
O O8 0.776371 0.887927 0.758006
O O9 0.766555 0.681794 0.840799
O O10 0.689338 0.726796 0.582579
O O11 0.836746 0.545308 0.505901
O O12 0.000000 0.000000 0.500000
O O13 0.213614 0.110610 0.590807
O O14 0.156608 0.775803 0.357247
O O15 0.025782 0.730449 0.741893
O O16 0.000000 0.500000 0.500000
O O17 0.026911 0.141040 0.868369
#
# Coordination Sequence:
#
# PCOD9021039 Si02
#       8
#     2   2   2   2   2   2   2   2
#     4  11  26  44  68  96 136 182 219 280 344 396
#     4  11  26  44  70 102 131 181 230 273 338 406
#     4  11  22  44  71  99 133 172 229 282 330 403
#     4  10  22  37  65 103 130 167 222 276 333 397
#     4  11  23  43  62  97 137 173 229 275 332 407
#     4  11  19  38  69  97 128 175 217 282 336 373
#     4  12  26  44  64  97 143 178 223 282 333 403
#     4  11  22  43  69 100 136 170 229 281 332 407
#
# _framework density 23.110392000000001
#
# number of rings (size 3 to 8) (size 9 to 14) (size 15 to 20)
#    0.000    1.000    2.500    5.250    0.000    7.500 
#    0.000    0.000    0.000    0.000    0.000    0.000 
#    0.000    0.000    0.000    0.000    0.000    0.000 
#
# Total GULP energy -89396.385040 kJ/mol
# GULP energy per Si atom -5587.274065 kJ/mol
# Density = 2.305779 g / cm^3
# Si number density = 23.110392 Si / 1000 Ang^3
#
#
#
# Elastic Constant Matrix: (Units=GPa)
#
#
# Indices 1 2 3 4 5 6 
#
# 1 111.9149 -0.0382 8.3137 11.8458 -5.9325 -19.7676
# 2 -0.0382 95.9376 2.5388 0.3642 -4.2405 -3.8787
# 3 8.3137 2.5388 79.2692 -6.7710 -1.0651 -13.1903
# 4 11.8458 0.3642 -6.7710 35.3235 -5.4849 -4.9047
# 5 -5.9325 -4.2405 -1.0651 -5.4849 37.5279 0.4055
# 6 -19.7676 -3.8787 -13.1903 -4.9047 0.4055 34.5818
#
#
#
# Elastic Compliance Matrix: (Units=1/GPa)
#
#
# Indices 1 2 3 4 5 6 
#
# 1 0.010249 0.000294 -0.000397 -0.002585 0.001207 0.005359
# 2 0.000294 0.010534 -0.000121 0.000144 0.001240 0.001309
# 3 -0.000397 -0.000121 0.013917 0.003701 0.000799 0.005583
# 4 -0.002585 0.000144 0.003701 0.031139 0.004217 0.004317
# 5 0.001207 0.001240 0.000799 0.004217 0.027602 0.001408
# 6 0.005359 0.001309 0.005583 0.004317 0.001408 0.034853
#
#
# Mechanical properties :
#
#
# Convention : Reuss Voigt Hill
#
# Bulk Modulus (GPa) = 29.19584 34.30562 31.75073
# Shear Modulus (GPa) = 35.67393 39.90713 37.79053
#
# Velocity S-wave (km/s) = 3.93317 4.15999 4.04817
# Velocity P-wave (km/s) = 5.76949 6.16040 5.96815
#
# Compressibility (1/GPa) = 0.03425146
#
# Stress axis : x y z
#
# Youngs Moduli (GPa) = 97.56919 94.93087 71.85613
#
# Poissons Ratio (x) = -0.02795 0.02854
# Poissons Ratio (y) = -0.02872 0.00873
# Poissons Ratio (z) = 0.03875 0.01153
#
# Static dielectric constant tensor:
#      x y z
#    x 1.911540 -0.044250 0.008310 
#    y -0.044250 1.967520 -0.005810 
#    z 0.008310 -0.005810 1.830480 
# 
# From -- ./inp_files/529058.got.cif
#   From: 2010.05.17/outbox.cif.g08.bks.cpg/sg2_265_cif.got.tgz:529058.got - 2010.06.03 11:33:40.
