data_PCOD9021753
_publ_section_title
;
Structure prediction by ZEFSAII (Michael W. Deem and Ramdas Pophale) SiO2 
 PCOD9021753
Probable space group: P -1
;
_chemical_formula_sum "Si O2"
_cell_formula_units_Z 16
_cell_length_a 13.511075
_cell_length_b 14.128316
_cell_length_c 8.037614
_cell_angle_alpha 58.919685
_cell_angle_beta 67.944156
_cell_angle_gamma 31.689319
_cell_volume 683.311639
_symmetry_space_group_name_H-M "P -1"
_symmetry_group_IT_number 2
_symmetry_cell_setting 'triclinic'
loop_
_space_group_symop_operation_xyz
x,y,z
-x,-y,-z
loop_
_atom_site_type_symbol
_atom_site_label
_atom_site_fract_x
_atom_site_fract_y
_atom_site_fract_z
Si Si1 0.711058 0.909339 0.629118
Si Si2 0.572417 0.732334 0.297709
Si Si3 0.037218 0.754676 0.772887
Si Si4 0.017762 0.867481 0.017792
Si Si5 0.400652 0.468612 0.292943
Si Si6 0.822402 0.589827 0.954478
Si Si7 0.653409 0.128888 0.205260
Si Si8 0.531191 0.587066 0.236079
O O1 0.743006 0.751473 0.737019
O O2 0.891876 0.829368 0.657973
O O3 0.556170 0.063189 0.730746
O O4 0.631634 0.032465 0.401053
O O5 0.674439 0.576216 0.521853
O O6 0.452821 0.730345 0.303730
O O7 0.691614 0.674341 0.120423
O O8 0.240955 0.619045 0.694862
O O9 0.974361 0.896864 0.822039
O O10 0.094244 0.597288 0.990134
O O11 0.233688 0.644341 0.112507
O O12 0.855920 0.943762 0.155518
O O13 0.000000 0.000000 0.000000
O O14 0.598623 0.263310 0.264781
O O15 0.438011 0.548678 0.299917
O O16 0.000000 0.500000 0.000000
O O17 0.514734 0.294905 0.000370
#
# Coordination Sequence:
#
# PCOD9021753 Si02
#       8
#     2   2   2   2   2   2   2   2
#     4  10  22  41  64  93 118 163 217 252 310 370
#     4  10  22  38  65  89 122 163 207 260 304 374
#     4  10  22  40  63  90 125 166 208 256 305 366
#     4  12  23  38  65  88 129 171 204 249 312 369
#     4  11  23  40  59  93 129 166 204 251 312 364
#     4   9  20  40  66  87 121 160 205 266 313 353
#     4  11  23  39  61  91 127 165 203 261 302 365
#     4  11  20  40  60  88 132 165 198 254 310 363
#
# _framework density 23.415375000000001
#
# number of rings (size 3 to 8) (size 9 to 14) (size 15 to 20)
#    0.000    1.500    2.500    2.625    5.250    0.000 
#    0.000    5.000    2.750    0.000    0.000    0.000 
#    0.000    0.000    0.000    0.000    0.000    0.000 
#
# Total GULP energy -89124.771423 kJ/mol
# GULP energy per Si atom -5570.298214 kJ/mol
# Density = 2.336208 g / cm^3
# Si number density = 23.415375 Si / 1000 Ang^3
#
#
#
# Elastic Constant Matrix: (Units=GPa)
#
#
# Indices 1 2 3 4 5 6 
#
# 1 61.9324 0.0170 2.3014 -5.3079 5.8120 -15.6328
# 2 0.0170 59.7805 -3.3122 0.1352 -2.9890 -7.5735
# 3 2.3014 -3.3122 75.6351 -14.2380 -15.1775 -3.8443
# 4 -5.3079 0.1352 -14.2380 35.1019 2.0231 -0.8407
# 5 5.8120 -2.9890 -15.1775 2.0231 12.2229 6.7172
# 6 -15.6328 -7.5735 -3.8443 -0.8407 6.7172 32.7488
#
#
#
# Elastic Compliance Matrix: (Units=1/GPa)
#
#
# Indices 1 2 3 4 5 6 
#
# 1 0.023034 0.000487 -0.004322 0.003582 -0.025550 0.015933
# 2 0.000487 0.017510 0.001925 0.000624 0.004341 0.003633
# 3 -0.004322 0.001925 0.020155 0.005694 0.029437 -0.005144
# 4 0.003582 0.000624 0.005694 0.031525 -0.001723 0.003685
# 5 -0.025550 0.004341 0.029437 -0.001723 0.153434 -0.039252
# 6 0.015933 0.003633 -0.005144 0.003685 -0.039252 0.046523
#
#
# Mechanical properties :
#
#
# Convention : Reuss Voigt Hill
#
# Bulk Modulus (GPa) = 17.58146 21.70671 19.64408
# Shear Modulus (GPa) = 15.87497 29.23749 22.55623
#
# Velocity S-wave (km/s) = 2.60661 3.53745 3.10709
# Velocity P-wave (km/s) = 4.07235 5.09658 4.61298
#
# Compressibility (1/GPa) = 0.05687811
#
# Stress axis : x y z
#
# Youngs Moduli (GPa) = 43.41488 57.10907 49.61608
#
# Poissons Ratio (x) = -0.02781 0.21446
# Poissons Ratio (y) = -0.02114 -0.09552
# Poissons Ratio (z) = 0.18766 -0.10995
#
# Static dielectric constant tensor:
#      x y z
#    x 1.971780 -0.026170 -0.015330 
#    y -0.026170 1.972190 -0.002970 
#    z -0.015330 -0.002970 1.978910 
# 
# From -- ./inp_files/270655.got.cif
#   From: 2010.05.17/outbox.cif.g08.bks.cpg/sg2_136_cif.got.tgz:270655.got - 2010.06.03 11:33:40.
