data_PCOD9021755
_publ_section_title
;
Structure prediction by ZEFSAII (Michael W. Deem and Ramdas Pophale) SiO2 
 PCOD9021755
Probable space group: P -1
;
_chemical_formula_sum "Si O2"
_cell_formula_units_Z 16
_cell_length_a 9.370605
_cell_length_b 21.821475
_cell_length_c 28.141476
_cell_angle_alpha 17.022577
_cell_angle_beta 37.529727
_cell_angle_gamma 29.935736
_cell_volume 815.339136
_symmetry_space_group_name_H-M "P -1"
_symmetry_group_IT_number 2
_symmetry_cell_setting 'triclinic'
loop_
_space_group_symop_operation_xyz
x,y,z
-x,-y,-z
loop_
_atom_site_type_symbol
_atom_site_label
_atom_site_fract_x
_atom_site_fract_y
_atom_site_fract_z
Si Si1 0.769709 0.752394 0.583172
Si Si2 0.379224 0.656105 0.699030
Si Si3 0.717886 0.047350 0.061122
Si Si4 0.734389 0.129675 0.536071
Si Si5 0.386318 0.977804 0.126457
Si Si6 0.723460 0.233906 0.608009
Si Si7 0.293509 0.391063 0.772204
Si Si8 0.704174 0.761374 0.360996
O O1 0.631999 0.658599 0.653912
O O2 0.997643 0.792206 0.468175
O O3 0.975387 0.522159 0.736898
O O4 0.500000 0.000000 0.500000
O O5 0.334209 0.777969 0.568471
O O6 0.468332 0.363667 0.893342
O O7 0.065335 0.868876 0.648987
O O8 0.643787 0.902036 0.151379
O O9 0.780752 0.919534 0.191275
O O10 0.000000 0.000000 0.000000
O O11 0.689227 0.379025 0.387757
O O12 0.507460 0.090833 0.647711
O O13 0.170307 0.987292 0.214826
O O14 0.480232 0.782740 0.201629
O O15 0.319372 0.229852 0.930459
O O16 0.500000 0.500000 0.500000
O O17 0.515371 0.245516 0.613038
O O18 0.000000 0.500000 0.500000
#
# Coordination Sequence:
#
# PCOD9021755 Si02
#       8
#     2   2   2   2   2   2   2   2
#     4  12  23  41  66  91 127 167 212 255 315 381
#     4  11  24  41  66  90 129 170 205 260 316 382
#     4  11  23  39  61  95 129 159 209 261 316 372
#     4  11  22  43  64  93 124 169 215 252 318 379
#     4  10  22  38  65  90 124 165 207 264 314 366
#     4  11  22  41  62  93 124 165 210 258 313 370
#     4  11  20  40  64  91 124 162 210 256 313 371
#     4  11  24  39  64  94 127 160 210 265 311 374
#
# _framework density 19.623736000000001
#
# number of rings (size 3 to 8) (size 9 to 14) (size 15 to 20)
#    0.000    1.000    5.000    1.500    3.500    0.500 
#    2.250    0.625    0.000    0.000    0.000    0.000 
#    0.000    0.000    0.000    0.000    0.000    0.000 
#
# Total GULP energy -89139.190674 kJ/mol
# GULP energy per Si atom -5571.199417 kJ/mol
# Density = 1.957907 g / cm^3
# Si number density = 19.623736 Si / 1000 Ang^3
#
#
#
# Elastic Constant Matrix: (Units=GPa)
#
#
# Indices 1 2 3 4 5 6 
#
# 1 63.6085 12.4929 3.4597 10.9351 9.9149 3.1975
# 2 12.4929 130.5577 48.6270 24.9401 12.8216 0.7225
# 3 3.4597 48.6270 84.4404 20.6882 26.2850 15.3841
# 4 10.9351 24.9401 20.6882 30.6636 9.2680 0.5988
# 5 9.9149 12.8216 26.2850 9.2680 39.3477 -0.4105
# 6 3.1975 0.7225 15.3841 0.5988 -0.4105 23.1011
#
#
#
# Elastic Compliance Matrix: (Units=1/GPa)
#
#
# Indices 1 2 3 4 5 6 
#
# 1 0.018013 -0.001587 0.004423 -0.006339 -0.005539 -0.005323
# 2 -0.001587 0.010913 -0.006652 -0.004643 0.002428 0.004472
# 3 0.004423 -0.006652 0.024988 -0.008518 -0.013811 -0.017070
# 4 -0.006339 -0.004643 -0.008518 0.044801 -0.001694 0.005504
# 5 -0.005539 0.002428 -0.013811 -0.001694 0.035754 0.010567
# 6 -0.005323 0.004472 -0.017070 0.005504 0.010567 0.055298
#
#
# Mechanical properties :
#
#
# Convention : Reuss Voigt Hill
#
# Bulk Modulus (GPa) = 21.60682 45.30733 33.45707
# Shear Modulus (GPa) = 23.49336 32.89095 28.19215
#
# Velocity S-wave (km/s) = 3.46380 4.09844 3.79441
# Velocity P-wave (km/s) = 5.19920 6.74792 6.02354
#
# Compressibility (1/GPa) = 0.04628169
#
# Stress axis : x y z
#
# Youngs Moduli (GPa) = 55.51571 91.63629 40.01855
#
# Poissons Ratio (x) = 0.14538 -0.17699
# Poissons Ratio (y) = 0.08808 0.26621
# Poissons Ratio (z) = -0.24553 0.60959
#
# Static dielectric constant tensor:
#      x y z
#    x 1.689360 0.000120 -0.018810 
#    y 0.000120 1.740850 0.033670 
#    z -0.018810 0.033670 1.779520 
# 
# From -- ./inp_files/617505.got.cif
#   From: 2010.05.17/outbox.cif.g08.bks.cpg/sg2_309_cif.got.tgz:617505.got - 2010.06.03 11:33:40.
