data_PCOD9021202
_publ_section_title
;
Structure prediction by ZEFSAII (Michael W. Deem and Ramdas Pophale) SiO2 
 PCOD9021202
Probable space group: P -1
;
_chemical_formula_sum "Si O2"
_cell_formula_units_Z 16
_cell_length_a 14.828506
_cell_length_b 9.530426
_cell_length_c 7.153903
_cell_angle_alpha 93.673196
_cell_angle_beta 41.999044
_cell_angle_gamma 97.612241
_cell_volume 669.617898
_symmetry_space_group_name_H-M "P -1"
_symmetry_group_IT_number 2
_symmetry_cell_setting 'triclinic'
loop_
_space_group_symop_operation_xyz
x,y,z
-x,-y,-z
loop_
_atom_site_type_symbol
_atom_site_label
_atom_site_fract_x
_atom_site_fract_y
_atom_site_fract_z
Si Si1 0.821242 0.449560 0.153722
Si Si2 0.787925 0.835649 0.611191
Si Si3 0.866581 0.884529 0.063052
Si Si4 0.377718 0.630400 0.854787
Si Si5 0.357160 0.907989 0.155008
Si Si6 0.820288 0.645713 0.857073
Si Si7 0.135022 0.824531 0.778238
Si Si8 0.387354 0.411510 0.291286
O O1 0.690555 0.363902 0.241048
O O2 0.904233 0.330741 0.092324
O O3 0.751423 0.529275 0.432605
O O4 0.893012 0.554720 0.892452
O O5 0.842276 0.859040 0.319248
O O6 0.740623 0.981522 0.767362
O O7 0.873031 0.744194 0.608928
O O8 0.649851 0.732657 0.775583
O O9 0.857198 0.049988 0.069623
O O10 0.775359 0.771297 0.068741
O O11 0.021643 0.854321 0.802789
O O12 0.533928 0.609447 0.637416
O O13 0.288969 0.484402 0.054666
O O14 0.365349 0.774378 0.997438
O O15 0.279087 0.842454 0.454337
O O16 0.500000 0.000000 0.000000
O O17 0.500000 0.500000 0.000000
#
# Coordination Sequence:
#
# PCOD9021202 Si02
#       8
#     2   2   2   2   2   2   2   2
#     4  10  23  39  63  96 129 169 213 268 320 386
#     4  11  22  40  67  95 129 175 216 265 320 389
#     4  10  23  48  65  93 128 173 219 269 321 380
#     4  10  22  38  57  99 132 161 213 261 321 385
#     4  11  23  41  65  97 126 170 220 259 327 390
#     4  10  23  39  67  96 125 168 217 264 322 378
#     4  10  24  45  68  87 132 174 211 271 326 377
#     4  12  19  37  63  88 139 172 208 266 324 378
#
# _framework density 23.894224000000001
#
# number of rings (size 3 to 8) (size 9 to 14) (size 15 to 20)
#    0.750    0.750    3.750    1.125    1.750    0.500 
#    2.250    3.750    0.000    0.000    0.000    0.000 
#    0.000    0.000    0.000    0.000    0.000    0.000 
#
# Total GULP energy -89100.968855 kJ/mol
# GULP energy per Si atom -5568.810553 kJ/mol
# Density = 2.383984 g / cm^3
# Si number density = 23.894224 Si / 1000 Ang^3
#
#
#
# Elastic Constant Matrix: (Units=GPa)
#
#
# Indices 1 2 3 4 5 6 
#
# 1 57.4920 28.0487 11.9621 6.2624 13.0976 5.7440
# 2 28.0487 165.5609 21.7469 14.1542 10.7977 9.9734
# 3 11.9621 21.7469 58.6835 -3.9046 1.5076 1.3081
# 4 6.2624 14.1542 -3.9046 38.9818 0.8303 7.5797
# 5 13.0976 10.7977 1.5076 0.8303 24.2995 -2.8540
# 6 5.7440 9.9734 1.3081 7.5797 -2.8540 48.8759
#
#
#
# Elastic Compliance Matrix: (Units=1/GPa)
#
#
# Indices 1 2 3 4 5 6 
#
# 1 0.022209 -0.002238 -0.003526 -0.002424 -0.010948 -0.002322
# 2 -0.002238 0.007077 -0.002248 -0.002225 -0.001826 -0.000883
# 3 -0.003526 -0.002248 0.018767 0.003235 0.001620 -0.000036
# 4 -0.002424 -0.002225 0.003235 0.027864 0.000716 -0.003627
# 5 -0.010948 -0.001826 0.001620 0.000716 0.048248 0.004322
# 6 -0.002322 -0.000883 -0.000036 -0.003627 0.004322 0.021729
#
#
# Mechanical properties :
#
#
# Convention : Reuss Voigt Hill
#
# Bulk Modulus (GPa) = 31.22174 45.02799 38.12486
# Shear Modulus (GPa) = 28.96959 37.09669 33.03314
#
# Velocity S-wave (km/s) = 3.48574 3.94450 3.72220
# Velocity P-wave (km/s) = 5.41254 6.29532 5.87055
#
# Compressibility (1/GPa) = 0.03202897
#
# Stress axis : x y z
#
# Youngs Moduli (GPa) = 45.02590 141.30244 53.28593
#
# Poissons Ratio (x) = 0.31629 0.18788
# Poissons Ratio (y) = 0.10079 0.11977
# Poissons Ratio (z) = 0.15876 0.31761
#
# Static dielectric constant tensor:
#      x y z
#    x 2.013760 -0.037140 0.008080 
#    y -0.037140 1.986450 -0.048810 
#    z 0.008080 -0.048810 1.986000 
# 
# From -- ./inp_files/326136.got.cif
#   From: 2010.05.17/outbox.cif.g08.bks.cpg/sg2_164_cif.got.tgz:326136.got - 2010.06.03 11:33:40.
