data_PCOD9021727
_publ_section_title
;
Structure prediction by ZEFSAII (Michael W. Deem and Ramdas Pophale) SiO2 
 PCOD9021727
Probable space group: P -1
;
_chemical_formula_sum "Si O2"
_cell_formula_units_Z 16
_cell_length_a 20.915915
_cell_length_b 8.445211
_cell_length_c 7.532342
_cell_angle_alpha 42.951623
_cell_angle_beta 132.052999
_cell_angle_gamma 128.859328
_cell_volume 647.955033
_symmetry_space_group_name_H-M "P -1"
_symmetry_group_IT_number 2
_symmetry_cell_setting 'triclinic'
loop_
_space_group_symop_operation_xyz
x,y,z
-x,-y,-z
loop_
_atom_site_type_symbol
_atom_site_label
_atom_site_fract_x
_atom_site_fract_y
_atom_site_fract_z
Si Si1 0.445974 0.523639 0.651779
Si Si2 0.300886 0.531671 0.674886
Si Si3 0.462706 0.013592 0.116872
Si Si4 0.195729 0.847137 0.363000
Si Si5 0.308635 0.381524 0.210605
Si Si6 0.141216 0.097167 0.600909
Si Si7 0.749837 0.235962 0.085204
Si Si8 0.017297 0.753303 0.928168
O O1 0.374447 0.542909 0.653623
O O2 0.399195 0.415222 0.464595
O O3 0.482793 0.297467 0.970810
O O4 0.493684 0.808789 0.459081
O O5 0.255429 0.754070 0.405043
O O6 0.217872 0.307303 0.656667
O O7 0.332264 0.501009 0.961158
O O8 0.353866 0.917829 0.992742
O O9 0.500000 0.000000 0.000000
O O10 0.215642 0.734590 0.674492
O O11 0.243240 0.125769 0.252658
O O12 0.089520 0.760395 0.209474
O O13 0.255550 0.493401 0.170648
O O14 0.186572 0.895873 0.782610
O O15 0.076234 0.969950 0.741238
O O16 0.077577 0.189623 0.269427
O O17 0.000000 0.500000 0.000000
#
# Coordination Sequence:
#
# PCOD9021727 Si02
#       8
#     2   2   2   2   2   2   2   2
#     4  11  24  43  70 104 134 181 227 277 341 411
#     4  11  22  37  69  97 124 181 229 274 332 406
#     4  11  23  42  71 105 137 176 226 281 340 405
#     4  11  21  39  62  90 127 169 221 279 329 394
#     4  10  22  38  64  97 133 168 230 276 328 398
#     4  11  22  40  59  89 127 164 226 267 334 402
#     4  10  23  40  64  94 123 174 220 269 337 404
#     4  11  24  36  59  90 125 168 214 281 329 390
#
# _framework density 24.693071
#
# number of rings (size 3 to 8) (size 9 to 14) (size 15 to 20)
#    0.000    1.250    5.000    0.375    5.250    1.500 
#    0.000    1.250    0.000   19.500    0.000    0.000 
#    0.000    0.000    0.000    0.000    0.000    0.000 
#
# Total GULP energy -89280.711385 kJ/mol
# GULP energy per Si atom -5580.044462 kJ/mol
# Density = 2.463687 g / cm^3
# Si number density = 24.693071 Si / 1000 Ang^3
#
#
#
# Elastic Constant Matrix: (Units=GPa)
#
#
# Indices 1 2 3 4 5 6 
#
# 1 100.5833 36.2802 25.3529 -0.3263 15.1497 -3.1192
# 2 36.2802 129.6248 53.9790 -9.3978 10.6645 -4.5921
# 3 25.3529 53.9790 98.4461 -8.4317 0.8095 -9.1195
# 4 -0.3263 -9.3978 -8.4317 55.6590 -11.7406 7.5630
# 5 15.1497 10.6645 0.8095 -11.7406 33.0223 -12.8607
# 6 -3.1192 -4.5921 -9.1195 7.5630 -12.8607 33.5859
#
#
#
# Elastic Compliance Matrix: (Units=1/GPa)
#
#
# Indices 1 2 3 4 5 6 
#
# 1 0.012131 -0.002166 -0.002189 -0.001675 -0.006075 -0.001713
# 2 -0.002166 0.010789 -0.005409 0.000611 -0.002668 -0.001354
# 3 -0.002189 -0.005409 0.014189 0.001619 0.004666 0.004332
# 4 -0.001675 0.000611 0.001619 0.019993 0.007086 -0.001421
# 5 -0.006075 -0.002668 0.004666 0.007086 0.042129 0.014874
# 6 -0.001713 -0.001354 0.004332 -0.001421 0.014874 0.036622
#
#
# Mechanical properties :
#
#
# Convention : Reuss Voigt Hill
#
# Bulk Modulus (GPa) = 56.87780 62.20871 59.54325
# Shear Modulus (GPa) = 31.00920 38.65624 34.83272
#
# Velocity S-wave (km/s) = 3.54755 3.96089 3.75991
# Velocity P-wave (km/s) = 6.31380 6.79453 6.55857
#
# Compressibility (1/GPa) = 0.01758155
#
# Stress axis : x y z
#
# Youngs Moduli (GPa) = 82.43005 92.68510 70.47764
#
# Poissons Ratio (x) = 0.20079 0.15424
# Poissons Ratio (y) = 0.17858 0.38122
# Poissons Ratio (z) = 0.18040 0.50134
#
# Static dielectric constant tensor:
#      x y z
#    x 2.091340 -0.009130 -0.037910 
#    y -0.009130 1.956970 -0.045900 
#    z -0.037910 -0.045900 2.353780 
# 
# From -- ./inp_files/336502.got.cif
#   From: 2010.05.17/outbox.cif.g08.bks.cpg/sg2_169_cif.got.tgz:336502.got - 2010.06.03 11:33:40.
