data_PCOD9021268
_publ_section_title
;
Structure prediction by ZEFSAII (Michael W. Deem and Ramdas Pophale) SiO2 
 PCOD9021268
Probable space group: P -1
;
_chemical_formula_sum "Si O2"
_cell_formula_units_Z 14
_cell_length_a 10.676367
_cell_length_b 14.543639
_cell_length_c 7.685952
_cell_angle_alpha 121.868313
_cell_angle_beta 86.436459
_cell_angle_gamma 48.300449
_cell_volume 573.838842
_symmetry_space_group_name_H-M "P -1"
_symmetry_group_IT_number 2
_symmetry_cell_setting 'triclinic'
loop_
_space_group_symop_operation_xyz
x,y,z
-x,-y,-z
loop_
_atom_site_type_symbol
_atom_site_label
_atom_site_fract_x
_atom_site_fract_y
_atom_site_fract_z
Si Si1 0.014004 0.022484 0.316694
Si Si2 0.925777 0.258371 0.034319
Si Si3 0.611574 0.939808 0.712561
Si Si4 0.554064 0.329642 0.584748
Si Si5 0.622425 0.064292 0.493025
Si Si6 0.456902 0.797961 0.900333
Si Si7 0.053302 0.581807 0.499360
O O1 0.033720 0.895990 0.080508
O O2 0.231831 0.933536 0.160556
O O3 0.000000 0.000000 0.500000
O O4 0.777569 0.240272 0.499936
O O5 0.677823 0.444648 0.170057
O O6 0.961857 0.316816 0.246019
O O7 0.117406 0.143936 0.763704
O O8 0.555964 0.057094 0.669783
O O9 0.868571 0.736841 0.526934
O O10 0.502084 0.908567 0.624098
O O11 0.528734 0.082180 0.010071
O O12 0.560438 0.259204 0.332143
O O13 0.568005 0.228461 0.632267
O O14 0.692145 0.597418 0.761325
O O15 0.000000 0.500000 0.500000
#
# Coordination Sequence:
#
# PCOD9021268 Si02
#       7
#     2   2   2   2   2   2   2
#     4  11  24  41  61  92 126 162 208 253 307 367
#     4  10  22  41  64  87 123 163 202 258 308 354
#     4  11  22  38  61  88 126 163 201 255 309 362
#     4  10  22  40  62  87 120 159 205 255 305 364
#     4  10  22  38  59  91 124 163 204 249 311 369
#     4  11  23  39  64  92 121 163 210 252 304 366
#     4  11  24  41  65  96 123 159 208 253 306 368
#
# _framework density 24.397096000000001
#
# number of rings (size 3 to 8) (size 9 to 14) (size 15 to 20)
#    0.000    1.429    0.000    6.429    0.000    8.000 
#    0.000    3.571    0.000    0.000    0.000    0.000 
#    0.000    0.000    0.000    0.000    0.000    0.000 
#
# Total GULP energy -78282.705593 kJ/mol
# GULP energy per Si atom -5591.621828 kJ/mol
# Density = 2.434157 g / cm^3
# Si number density = 24.397096 Si / 1000 Ang^3
#
#
#
# Elastic Constant Matrix: (Units=GPa)
#
#
# Indices 1 2 3 4 5 6 
#
# 1 58.4648 -9.1584 6.9350 7.2538 12.8651 -22.3855
# 2 -9.1584 115.2668 27.4958 26.4572 -14.5816 -25.1213
# 3 6.9350 27.4958 59.2269 27.0548 -2.6683 -17.0854
# 4 7.2538 26.4572 27.0548 49.3642 -14.2027 -13.3476
# 5 12.8651 -14.5816 -2.6683 -14.2027 33.5811 7.0461
# 6 -22.3855 -25.1213 -17.0854 -13.3476 7.0461 42.8353
#
#
#
# Elastic Compliance Matrix: (Units=1/GPa)
#
#
# Indices 1 2 3 4 5 6 
#
# 1 0.030334 0.006090 0.002646 -0.008388 -0.016637 0.020603
# 2 0.006090 0.012390 -0.002108 -0.004318 -0.000704 0.008379
# 3 0.002646 -0.002108 0.025383 -0.013219 -0.007036 0.007310
# 4 -0.008388 -0.004318 -0.013219 0.034481 0.015717 -0.004029
# 5 -0.016637 -0.000704 -0.007036 0.015717 0.044959 -0.014412
# 6 0.020603 0.008379 0.007310 -0.004029 -0.014412 0.043057
#
#
# Mechanical properties :
#
#
# Convention : Reuss Voigt Hill
#
# Bulk Modulus (GPa) = 12.29049 31.50035 21.89542
# Shear Modulus (GPa) = 24.45364 39.00187 31.72776
#
# Velocity S-wave (km/s) = 3.16937 4.00262 3.61012
# Velocity P-wave (km/s) = 4.29440 5.85669 5.13531
#
# Compressibility (1/GPa) = 0.08136371
#
# Stress axis : x y z
#
# Youngs Moduli (GPa) = 32.96585 80.71008 39.39691
#
# Poissons Ratio (x) = -0.49150 -0.10425
# Poissons Ratio (y) = -0.20075 0.08303
# Poissons Ratio (z) = -0.08723 0.17010
#
# Static dielectric constant tensor:
#      x y z
#    x 2.012430 0.005440 -0.013050 
#    y 0.005440 1.962280 -0.070330 
#    z -0.013050 -0.070330 1.973400 
# 
# From -- ./inp_files/278402.got.cif
#   From: 2010.05.17/outbox.cif.g08.bks.cpg/sg2_140_cif.got.tgz:278402.got - 2010.06.03 11:33:40.
