data_PCOD9021491
_publ_section_title
;
Structure prediction by ZEFSAII (Michael W. Deem and Ramdas Pophale) SiO2 
 PCOD9021491
Probable space group: P -1
;
_chemical_formula_sum "Si O2"
_cell_formula_units_Z 16
_cell_length_a 12.904188
_cell_length_b 12.185569
_cell_length_c 5.943441
_cell_angle_alpha 70.522503
_cell_angle_beta 92.793871
_cell_angle_gamma 130.517056
_cell_volume 651.182124
_symmetry_space_group_name_H-M "P -1"
_symmetry_group_IT_number 2
_symmetry_cell_setting 'triclinic'
loop_
_space_group_symop_operation_xyz
x,y,z
-x,-y,-z
loop_
_atom_site_type_symbol
_atom_site_label
_atom_site_fract_x
_atom_site_fract_y
_atom_site_fract_z
Si Si1 0.751180 0.019882 0.900410
Si Si2 0.804277 0.237886 0.443595
Si Si3 0.422165 0.284574 0.089338
Si Si4 0.316607 0.642127 0.453945
Si Si5 0.890400 0.629392 0.694877
Si Si6 0.630654 0.914611 0.395004
Si Si7 0.294750 0.420606 0.924136
Si Si8 0.004426 0.939552 0.292937
O O1 0.785108 0.177441 0.741397
O O2 0.850749 0.022257 0.746637
O O3 0.597840 0.854568 0.935481
O O4 0.756113 0.993374 0.176946
O O5 0.771216 0.347617 0.382009
O O6 0.958441 0.319268 0.322956
O O7 0.685163 0.070386 0.424197
O O8 0.383495 0.217582 0.383131
O O9 0.318101 0.302384 0.968199
O O10 0.577706 0.451156 0.978013
O O11 0.223903 0.549297 0.286836
O O12 0.472296 0.814437 0.356144
O O13 0.327361 0.522910 0.645038
O O14 0.845854 0.648720 0.917245
O O15 0.899558 0.750179 0.447865
O O16 0.000000 0.000000 0.500000
O O17 0.000000 0.000000 0.000000
#
# Coordination Sequence:
#
# PCOD9021491 Si02
#       8
#     2   2   2   2   2   2   2   2
#     4  10  22  38  66  89 130 171 230 279 347 403
#     4  10  24  43  61  94 135 174 233 291 351 414
#     4   9  20  39  59  94 131 167 217 283 349 416
#     4  11  24  42  65  96 130 179 235 284 351 420
#     4  11  25  40  65  97 136 176 230 283 359 410
#     4  10  22  41  69  95 126 179 229 288 348 421
#     4  10  22  38  62  91 134 170 217 280 353 421
#     4  11  27  43  70 103 144 188 235 288 355 436
#
# _framework density 24.570698
#
# number of rings (size 3 to 8) (size 9 to 14) (size 15 to 20)
#    0.000    1.750    0.000    2.250   10.500    3.000 
#    0.000    3.750    0.000    0.000    0.000    0.000 
#    0.000    0.000    0.000    0.000    0.000    0.000 
#
# Total GULP energy -89100.705593 kJ/mol
# GULP energy per Si atom -5568.794100 kJ/mol
# Density = 2.451477 g / cm^3
# Si number density = 24.570698 Si / 1000 Ang^3
#
#
#
# Elastic Constant Matrix: (Units=GPa)
#
#
# Indices 1 2 3 4 5 6 
#
# 1 64.8615 23.6100 2.8715 6.1861 -19.8689 13.6860
# 2 23.6100 102.0430 -5.2961 0.2449 -1.8617 10.6699
# 3 2.8715 -5.2961 71.8655 7.7452 -21.3450 -2.4855
# 4 6.1861 0.2449 7.7452 18.4018 -6.4889 -0.1776
# 5 -19.8689 -1.8617 -21.3450 -6.4889 25.3761 0.5731
# 6 13.6860 10.6699 -2.4855 -0.1776 0.5731 28.3486
#
#
#
# Elastic Compliance Matrix: (Units=1/GPa)
#
#
# Indices 1 2 3 4 5 6 
#
# 1 0.027325 -0.004316 0.006152 -0.002726 0.025817 -0.011567
# 2 -0.004316 0.010974 0.000198 0.000406 -0.002259 -0.001981
# 3 0.006152 0.000198 0.020224 -0.003169 0.021071 -0.001717
# 4 -0.002726 0.000406 -0.003169 0.060348 0.010638 0.001048
# 5 0.025817 -0.002259 0.021071 0.010638 0.080156 -0.011320
# 6 -0.011567 -0.001981 -0.001717 0.001048 -0.011320 0.041690
#
#
# Mechanical properties :
#
#
# Convention : Reuss Voigt Hill
#
# Bulk Modulus (GPa) = 15.97679 31.23785 23.60732
# Shear Modulus (GPa) = 19.41644 28.93094 24.17369
#
# Velocity S-wave (km/s) = 2.81415 3.43513 3.14003
# Velocity P-wave (km/s) = 4.13228 5.33616 4.77233
#
# Compressibility (1/GPa) = 0.06259081
#
# Stress axis : x y z
#
# Youngs Moduli (GPa) = 36.59589 91.12757 49.44554
#
# Poissons Ratio (x) = 0.39331 -0.30419
# Poissons Ratio (y) = 0.15795 -0.00978
# Poissons Ratio (z) = -0.22514 -0.01803
#
# Static dielectric constant tensor:
#      x y z
#    x 1.992760 0.057700 0.023240 
#    y 0.057700 2.052470 0.096520 
#    z 0.023240 0.096520 2.123710 
# 
# From -- ./inp_files/94766.got.cif
#   From: 2010.05.17/outbox.cif.g08.bks.cpg/sg2_48_cif.got.tgz:94766.got - 2010.06.03 11:33:40.
