data_PCOD9021211
_publ_section_title
;
Structure prediction by ZEFSAII (Michael W. Deem and Ramdas Pophale) SiO2 
 PCOD9021211
Probable space group: P -1
;
_chemical_formula_sum "Si O2"
_cell_formula_units_Z 14
_cell_length_a 19.006051
_cell_length_b 9.353649
_cell_length_c 14.226304
_cell_angle_alpha 57.856405
_cell_angle_beta 159.174587
_cell_angle_gamma 132.233627
_cell_volume 619.688616
_symmetry_space_group_name_H-M "P -1"
_symmetry_group_IT_number 2
_symmetry_cell_setting 'triclinic'
loop_
_space_group_symop_operation_xyz
x,y,z
-x,-y,-z
loop_
_atom_site_type_symbol
_atom_site_label
_atom_site_fract_x
_atom_site_fract_y
_atom_site_fract_z
Si Si1 0.708892 0.719564 0.937719
Si Si2 0.616803 0.041094 0.893497
Si Si3 0.217608 0.233369 0.775335
Si Si4 0.343479 0.826186 0.443053
Si Si5 0.851718 0.776938 0.506855
Si Si6 0.949062 0.863574 0.891985
Si Si7 0.499437 0.332784 0.720868
O O1 0.449234 0.689881 0.620901
O O2 0.715763 0.572920 0.922189
O O3 0.746996 0.677863 0.107056
O O4 0.907518 0.959688 0.072759
O O5 0.570206 0.173215 0.857103
O O6 0.427431 0.947071 0.604648
O O7 0.900359 0.193729 0.161690
O O8 0.609271 0.846062 0.990751
O O9 0.231900 0.338609 0.658315
O O10 0.950461 0.015263 0.524004
O O11 0.500000 0.000000 0.500000
O O12 0.071022 0.741917 0.105882
O O13 0.655782 0.704880 0.366676
O O14 0.672937 0.713501 0.566609
O O15 0.000000 0.000000 0.000000
#
# Coordination Sequence:
#
# PCOD9021211 Si02
#       7
#     2   2   2   2   2   2   2
#     4  10  22  38  58  86 113 146 194 235 281 343
#     4   9  18  35  57  85 111 149 193 229 279 343
#     4   8  17  39  60  78 117 152 184 235 279 341
#     4   9  17  36  57  73 112 153 183 231 280 330
#     4   9  18  37  62  81 114 153 188 228 287 337
#     4  11  21  38  56  81 116 149 189 235 279 333
#     4  12  22  36  61  88 114 149 189 239 286 330
#
# _framework density 22.591991
#
# number of rings (size 3 to 8) (size 9 to 14) (size 15 to 20)
#    0.857    1.429    2.857    0.857    0.000    2.286 
#    2.571    0.714    0.000    0.000    0.000    0.000 
#    0.000    0.000    0.000    0.000    0.000    0.000 
#
# Total GULP energy -77994.412441 kJ/mol
# GULP energy per Si atom -5571.029460 kJ/mol
# Density = 2.254057 g / cm^3
# Si number density = 22.591991 Si / 1000 Ang^3
#
#
#
# Elastic Constant Matrix: (Units=GPa)
#
#
# Indices 1 2 3 4 5 6 
#
# 1 69.8686 16.6655 8.1844 6.6019 -12.1280 -8.6757
# 2 16.6655 72.6017 7.6627 15.3971 -6.6830 -24.9994
# 3 8.1844 7.6627 67.4795 5.3008 -23.1580 -6.7024
# 4 6.6019 15.3971 5.3008 16.6718 -8.8089 -2.4043
# 5 -12.1280 -6.6830 -23.1580 -8.8089 37.6552 5.3065
# 6 -8.6757 -24.9994 -6.7024 -2.4043 5.3065 32.2108
#
#
#
# Elastic Compliance Matrix: (Units=1/GPa)
#
#
# Indices 1 2 3 4 5 6 
#
# 1 0.015952 -0.002333 0.000043 -0.001767 0.004099 0.001688
# 2 -0.002333 0.024441 -0.000526 -0.021164 -0.004131 0.017332
# 3 0.000043 -0.000526 0.018930 0.000774 0.011503 0.001705
# 4 -0.001767 -0.021164 0.000774 0.087887 0.018577 -0.013241
# 5 0.004099 -0.004131 0.011503 0.018577 0.039239 -0.004786
# 6 0.001688 0.017332 0.001705 -0.013241 -0.004786 0.045107
#
#
# Mechanical properties :
#
#
# Convention : Reuss Voigt Hill
#
# Bulk Modulus (GPa) = 18.62488 30.55277 24.58883
# Shear Modulus (GPa) = 19.60133 29.13669 24.36901
#
# Velocity S-wave (km/s) = 2.94874 3.59512 3.28785
# Velocity P-wave (km/s) = 4.45593 5.54854 5.03198
#
# Compressibility (1/GPa) = 0.05369162
#
# Stress axis : x y z
#
# Youngs Moduli (GPa) = 62.68771 40.91461 52.82579
#
# Poissons Ratio (x) = 0.09546 -0.00229
# Poissons Ratio (y) = 0.14627 0.02779
# Poissons Ratio (z) = -0.00272 0.02152
#
# Static dielectric constant tensor:
#      x y z
#    x 1.865120 0.040110 -0.001610 
#    y 0.040110 1.896640 0.033890 
#    z -0.001610 0.033890 1.895990 
# 
# From -- ./inp_files/340972.got.cif
#   From: 2010.05.17/outbox.cif.g08.bks.cpg/sg2_171_cif.got.tgz:340972.got - 2010.06.03 11:33:40.
