data_PCOD9021207
_publ_section_title
;
Structure prediction by ZEFSAII (Michael W. Deem and Ramdas Pophale) SiO2 
 PCOD9021207
Probable space group: P -1
;
_chemical_formula_sum "Si O2"
_cell_formula_units_Z 12
_cell_length_a 13.729609
_cell_length_b 12.900158
_cell_length_c 22.853589
_cell_angle_alpha 21.147055
_cell_angle_beta 21.272565
_cell_angle_gamma 30.945383
_cell_volume 527.756655
_symmetry_space_group_name_H-M "P -1"
_symmetry_group_IT_number 2
_symmetry_cell_setting 'triclinic'
loop_
_space_group_symop_operation_xyz
x,y,z
-x,-y,-z
loop_
_atom_site_type_symbol
_atom_site_label
_atom_site_fract_x
_atom_site_fract_y
_atom_site_fract_z
Si Si1 0.486279 0.442230 0.804589
Si Si2 0.083062 0.975218 0.205429
Si Si3 0.985875 0.414956 0.932946
Si Si4 0.278341 0.170334 0.736324
Si Si5 0.811341 0.266327 0.461241
Si Si6 0.608757 0.123997 0.466757
O O1 0.528409 0.700941 0.599029
O O2 0.750984 0.297579 0.748429
O O3 0.281211 0.209429 0.007213
O O4 0.316436 0.531626 0.907995
O O5 0.813247 0.934922 0.417152
O O6 0.039605 0.118222 0.091246
O O7 0.054368 0.503741 0.782045
O O8 0.814054 0.350307 0.267948
O O9 0.517798 0.155427 0.658139
O O10 0.236835 0.516453 0.572021
O O11 0.391232 0.035274 0.684954
O O12 0.000000 0.000000 0.000000
O O13 0.000000 0.000000 0.500000
#
# Coordination Sequence:
#
# PCOD9021207 Si02
#       6
#     2   2   2   2   2   2
#     4   8  13  22  43  70  99 134 170 217 272 321
#     4   8  13  23  43  71 101 134 171 218 271 320
#     4   8  15  27  44  73 106 134 174 222 268 322
#     4  10  22  39  58  82 114 150 188 231 276 327
#     4  10  22  38  58  84 113 149 189 229 276 330
#     4   8  15  27  44  73 105 134 176 222 267 321
#
# _framework density 22.737752
#
# number of rings (size 3 to 8) (size 9 to 14) (size 15 to 20)
#    0.000    3.333    0.000    2.000    0.000   10.000 
#    0.000    0.000    0.000    4.000    0.000    7.000 
#    0.000    0.000    0.000    0.000    0.000    0.000 
#
# Total GULP energy -66976.672049 kJ/mol
# GULP energy per Si atom -5581.389337 kJ/mol
# Density = 2.268600 g / cm^3
# Si number density = 22.737752 Si / 1000 Ang^3
#
#
#
# Elastic Constant Matrix: (Units=GPa)
#
#
# Indices 1 2 3 4 5 6 
#
# 1 66.7131 54.8442 40.9117 5.5155 -2.6970 10.3598
# 2 54.8442 199.4355 51.9262 12.5265 11.0154 -29.3430
# 3 40.9117 51.9262 151.9032 39.4997 -5.3885 -13.5483
# 4 5.5155 12.5265 39.4997 25.7545 12.0082 -8.6947
# 5 -2.6970 11.0154 -5.3885 12.0082 35.1205 3.2460
# 6 10.3598 -29.3430 -13.5483 -8.6947 3.2460 29.2709
#
#
#
# Elastic Compliance Matrix: (Units=1/GPa)
#
#
# Indices 1 2 3 4 5 6 
#
# 1 0.035287 -0.013408 -0.004355 -0.011639 0.013265 -0.032874
# 2 -0.013408 0.012344 -0.002746 0.013888 -0.012041 0.021310
# 3 -0.004355 -0.002746 0.017331 -0.032757 0.014808 -0.004562
# 4 -0.011639 0.013888 -0.032757 0.128055 -0.058440 0.047398
# 5 0.013265 -0.012041 0.014808 -0.058440 0.058644 -0.033774
# 6 -0.032874 0.021310 -0.004562 0.047398 -0.033774 0.082874
#
#
# Mechanical properties :
#
#
# Convention : Reuss Voigt Hill
#
# Bulk Modulus (GPa) = 41.76671 79.26846 60.51758
# Shear Modulus (GPa) = 13.03664 36.05384 24.54524
#
# Velocity S-wave (km/s) = 2.39707 3.98633 3.28913
# Velocity P-wave (km/s) = 5.10588 7.49169 6.41075
#
# Compressibility (1/GPa) = 0.02394252
#
# Stress axis : x y z
#
# Youngs Moduli (GPa) = 28.33939 81.00779 57.69952
#
# Poissons Ratio (x) = 1.08616 0.25130
# Poissons Ratio (y) = 0.37998 0.15847
# Poissons Ratio (z) = 0.12343 0.22248
#
# Static dielectric constant tensor:
#      x y z
#    x 1.900530 0.084030 -0.050970 
#    y 0.084030 1.862880 -0.000530 
#    z -0.050970 -0.000530 1.902610 
# 
# From -- ./inp_files/612072.got.cif
#   From: 2010.05.17/outbox.cif.g08.bks.cpg/sg2_307_cif.got.tgz:612072.got - 2010.06.03 11:33:40.
