data_PCOD9021824
_publ_section_title
;
Structure prediction by ZEFSAII (Michael W. Deem and Ramdas Pophale) SiO2 
 PCOD9021824
Probable space group: P -1
;
_chemical_formula_sum "Si O2"
_cell_formula_units_Z 15
_cell_length_a 15.012199
_cell_length_b 12.878619
_cell_length_c 9.112230
_cell_angle_alpha 60.312467
_cell_angle_beta 123.657563
_cell_angle_gamma 152.136605
_cell_volume 685.279970
_symmetry_space_group_name_H-M "P -1"
_symmetry_group_IT_number 2
_symmetry_cell_setting 'triclinic'
loop_
_space_group_symop_operation_xyz
x,y,z
-x,-y,-z
loop_
_atom_site_type_symbol
_atom_site_label
_atom_site_fract_x
_atom_site_fract_y
_atom_site_fract_z
Si Si1 0.103397 0.279389 0.565943
Si Si2 0.674892 0.250068 0.039088
Si Si3 0.063267 0.315761 0.169783
Si Si4 0.537078 0.645470 0.822442
Si Si5 0.500000 0.000000 0.500000
Si Si6 0.645088 0.963704 0.898406
Si Si7 0.105310 0.118241 0.171286
Si Si8 0.136992 0.717464 0.566052
O O1 0.088568 0.284208 0.375525
O O2 0.329523 0.500978 0.673831
O O3 0.972178 0.259987 0.533084
O O4 0.016531 0.072328 0.687320
O O5 0.559740 0.229905 0.060713
O O6 0.828549 0.313507 0.224841
O O7 0.788412 0.434223 0.893832
O O8 0.500000 0.000000 0.000000
O O9 0.111270 0.259521 0.131627
O O10 0.837315 0.142599 0.051247
O O11 0.645030 0.849131 0.872497
O O12 0.675643 0.729362 0.759288
O O13 0.500000 0.500000 0.000000
O O14 0.370344 0.936575 0.290262
O O15 0.651733 0.079378 0.463605
O O16 0.000000 0.000000 0.000000
O O17 0.000000 0.500000 0.500000
#
# Coordination Sequence:
#
# PCOD9021824 Si02
#       8
#     2   2   2   2   1   2   2   2
#     4  12  27  44  71 111 147 188 240 303 368 425
#     4  11  26  44  68 100 144 190 235 288 363 434
#     4  12  27  47  72 104 150 191 237 304 368 428
#     4  12  24  42  71 105 138 185 241 297 353 423
#     4  10  22  38  66 100 132 180 236 286 330 414
#     4  11  23  42  70 100 139 185 243 288 356 421
#     4  12  25  46  77 104 143 191 248 300 361 434
#     4  11  24  42  69 102 142 183 239 286 351 420
#
# _framework density 21.888864000000002
#
# number of rings (size 3 to 8) (size 9 to 14) (size 15 to 20)
#    0.000    0.533    2.667    5.200    1.867    9.067 
#    0.000    0.000    0.000    0.000    0.000    0.000 
#    0.000    0.000    0.000    0.000    0.000    0.000 
#
# Total GULP energy -83722.393252 kJ/mol
# GULP energy per Si atom -5581.492883 kJ/mol
# Density = 2.183904 g / cm^3
# Si number density = 21.888864 Si / 1000 Ang^3
#
#
#
# Elastic Constant Matrix: (Units=GPa)
#
#
# Indices 1 2 3 4 5 6 
#
# 1 88.6094 5.3730 12.5282 13.4220 19.5196 7.0511
# 2 5.3730 93.3245 52.2828 3.2338 2.6187 -2.4847
# 3 12.5282 52.2828 162.3971 7.2997 -5.7445 5.3132
# 4 13.4220 3.2338 7.2997 30.4035 8.3108 -7.0036
# 5 19.5196 2.6187 -5.7445 8.3108 35.8678 1.5563
# 6 7.0511 -2.4847 5.3132 -7.0036 1.5563 35.6967
#
#
#
# Elastic Compliance Matrix: (Units=1/GPa)
#
#
# Indices 1 2 3 4 5 6 
#
# 1 0.013833 0.000010 -0.000971 -0.004873 -0.006414 -0.003264
# 2 0.000010 0.013274 -0.004425 0.000573 -0.001893 0.001776
# 3 -0.000971 -0.004425 0.007910 -0.002160 0.002699 -0.001835
# 4 -0.004873 0.000573 -0.002160 0.039678 -0.007338 0.009429
# 5 -0.006414 -0.001893 0.002699 -0.007338 0.033736 -0.002177
# 6 -0.003264 0.001776 -0.001835 0.009429 -0.002177 0.031000
#
#
# Mechanical properties :
#
#
# Convention : Reuss Voigt Hill
#
# Bulk Modulus (GPa) = 41.24795 53.85545 47.55170
# Shear Modulus (GPa) = 31.58848 38.67006 35.12927
#
# Velocity S-wave (km/s) = 3.80298 4.20772 4.01046
# Velocity P-wave (km/s) = 6.17808 6.94723 6.57391
#
# Compressibility (1/GPa) = 0.02424363
#
# Stress axis : x y z
#
# Youngs Moduli (GPa) = 72.29136 75.33313 126.42360
#
# Poissons Ratio (x) = -0.00073 0.12280
# Poissons Ratio (y) = -0.00070 0.55944
# Poissons Ratio (z) = 0.07022 0.33336
#
# Static dielectric constant tensor:
#      x y z
#    x 1.826510 -0.007710 -0.003220 
#    y -0.007710 1.811670 -0.013350 
#    z -0.003220 -0.013350 1.767270 
# 
# From -- ./inp_files/306834.got.cif
#   From: 2010.05.17/outbox.cif.g08.bks.cpg/sg2_154_cif.got.tgz:306834.got - 2010.06.03 11:33:40.
