data_PCOD9021466
_publ_section_title
;
Structure prediction by ZEFSAII (Michael W. Deem and Ramdas Pophale) SiO2 
 PCOD9021466
Probable space group: P -1
;
_chemical_formula_sum "Si O2"
_cell_formula_units_Z 16
_cell_length_a 9.047609
_cell_length_b 10.770124
_cell_length_c 12.243198
_cell_angle_alpha 55.437152
_cell_angle_beta 95.178780
_cell_angle_gamma 132.456394
_cell_volume 635.201352
_symmetry_space_group_name_H-M "P -1"
_symmetry_group_IT_number 2
_symmetry_cell_setting 'triclinic'
loop_
_space_group_symop_operation_xyz
x,y,z
-x,-y,-z
loop_
_atom_site_type_symbol
_atom_site_label
_atom_site_fract_x
_atom_site_fract_y
_atom_site_fract_z
Si Si1 0.723777 0.508337 0.828910
Si Si2 0.552489 0.292171 0.631785
Si Si3 0.461913 0.421200 0.386660
Si Si4 0.002870 0.129949 0.841466
Si Si5 0.402358 0.256659 0.121078
Si Si6 0.251618 0.654819 0.784313
Si Si7 0.874911 0.194909 0.129772
Si Si8 0.090657 0.594420 0.278260
O O1 0.656005 0.610475 0.714290
O O2 0.782589 0.417087 0.796061
O O3 0.937295 0.714090 0.816567
O O4 0.522879 0.290309 0.000741
O O5 0.439704 0.242329 0.531466
O O6 0.621948 0.510206 0.571989
O O7 0.774011 0.358459 0.627732
O O8 0.331365 0.064849 0.798471
O O9 0.731856 0.640977 0.277082
O O10 0.899695 0.216856 0.813783
O O11 0.863798 0.961726 0.811320
O O12 0.000000 0.000000 0.000000
O O13 0.516065 0.257709 0.228971
O O14 0.500000 0.500000 0.000000
O O15 0.257101 0.786485 0.811823
O O16 0.171131 0.637338 0.666301
O O17 0.037645 0.388761 0.949901
#
# Coordination Sequence:
#
# PCOD9021466 Si02
#       8
#     2   2   2   2   2   2   2   2
#     4   9  20  39  59  89 123 159 200 246 297 370
#     4  10  22  40  63  85 121 168 205 249 290 366
#     4  10  23  41  58  90 123 158 213 246 298 359
#     4  12  24  38  62  93 121 158 199 258 315 351
#     4  11  22  35  57  89 127 154 190 250 315 358
#     4   9  19  34  54  89 122 148 198 246 296 362
#     4   9  18  33  60  86 115 158 197 246 296 348
#     4  10  22  38  62  87 122 159 201 247 300 361
#
# _framework density 25.188863999999999
#
# number of rings (size 3 to 8) (size 9 to 14) (size 15 to 20)
#    0.000    2.000    1.250    2.250    5.250    2.000 
#    0.000    0.000    0.000    3.750    0.000    0.000 
#    0.000    0.000    0.000    0.000    0.000    0.000 
#
# Total GULP energy -89199.435544 kJ/mol
# GULP energy per Si atom -5574.964722 kJ/mol
# Density = 2.513153 g / cm^3
# Si number density = 25.188864 Si / 1000 Ang^3
#
#
#
# Elastic Constant Matrix: (Units=GPa)
#
#
# Indices 1 2 3 4 5 6 
#
# 1 130.6786 33.7585 33.5007 13.0949 43.9567 11.2649
# 2 33.7585 78.9315 5.1165 11.8063 30.3015 23.1475
# 3 33.5007 5.1165 60.1762 17.7499 29.7019 14.4999
# 4 13.0949 11.8063 17.7499 29.1582 16.6049 17.9729
# 5 43.9567 30.3015 29.7019 16.6049 41.3866 12.2667
# 6 11.2649 23.1475 14.4999 17.9729 12.2667 54.9065
#
#
#
# Elastic Compliance Matrix: (Units=1/GPa)
#
#
# Indices 1 2 3 4 5 6 
#
# 1 0.012100 -0.000730 -0.001342 0.002739 -0.012474 0.000070
# 2 -0.000730 0.022784 0.010649 0.002112 -0.022012 -0.008041
# 3 -0.001342 0.010649 0.031923 -0.005386 -0.025590 -0.005164
# 4 0.002739 0.002112 -0.005386 0.054406 -0.018346 -0.013741
# 5 -0.012474 -0.022012 -0.025590 -0.018346 0.077064 0.007385
# 6 0.000070 -0.008041 -0.005164 -0.013741 0.007385 0.025800
#
#
# Mechanical properties :
#
#
# Convention : Reuss Voigt Hill
#
# Bulk Modulus (GPa) = 11.91034 46.05975 28.98505
# Shear Modulus (GPa) = 21.28464 38.25099 29.76781
#
# Velocity S-wave (km/s) = 2.91005 3.90111 3.44144
# Velocity P-wave (km/s) = 4.00373 6.21426 5.22718
#
# Compressibility (1/GPa) = 0.08396068
#
# Stress axis : x y z
#
# Youngs Moduli (GPa) = 82.64248 43.89095 31.32506
#
# Poissons Ratio (x) = 0.03203 0.04204
# Poissons Ratio (y) = 0.06031 -0.33357
# Poissons Ratio (z) = 0.11092 -0.46737
#
# Static dielectric constant tensor:
#      x y z
#    x 2.097560 -0.073260 0.016310 
#    y -0.073260 2.100510 0.114520 
#    z 0.016310 0.114520 2.138990 
# 
# From -- ./inp_files/269604.got.cif
#   From: 2010.05.17/outbox.cif.g08.bks.cpg/sg2_135_cif.got.tgz:269604.got - 2010.06.03 11:33:40.
