data_PCOD9021740
_publ_section_title
;
Structure prediction by ZEFSAII (Michael W. Deem and Ramdas Pophale) SiO2 
 PCOD9021740
Probable space group: P -1
;
_chemical_formula_sum "Si O2"
_cell_formula_units_Z 14
_cell_length_a 5.055525
_cell_length_b 8.018684
_cell_length_c 19.219102
_cell_angle_alpha 121.217831
_cell_angle_beta 132.482002
_cell_angle_gamma 70.475183
_cell_volume 491.236789
_symmetry_space_group_name_H-M "P -1"
_symmetry_group_IT_number 2
_symmetry_cell_setting 'triclinic'
loop_
_space_group_symop_operation_xyz
x,y,z
-x,-y,-z
loop_
_atom_site_type_symbol
_atom_site_label
_atom_site_fract_x
_atom_site_fract_y
_atom_site_fract_z
Si Si1 0.379742 0.251150 0.819620
Si Si2 0.432389 0.501624 0.380268
Si Si3 0.258061 0.762734 0.831241
Si Si4 0.272149 0.812532 0.693762
Si Si5 0.662000 0.147391 0.981991
Si Si6 0.529531 0.268007 0.699747
Si Si7 0.544587 0.114337 0.458579
O O1 0.444875 0.353338 0.779062
O O2 0.962940 0.261657 0.768756
O O3 0.453622 0.024372 0.764950
O O4 0.626202 0.284253 0.937924
O O5 0.718385 0.331890 0.401737
O O6 0.566688 0.618518 0.362110
O O7 0.325323 0.666208 0.450936
O O8 0.108533 0.356189 0.269836
O O9 0.425300 0.731342 0.777026
O O10 0.347025 0.732574 0.921993
O O11 0.312941 0.000458 0.891473
O O12 0.851040 0.846949 0.634000
O O13 0.000000 0.000000 0.000000
O O14 0.324368 0.057060 0.606291
O O15 0.500000 0.000000 0.500000
#
# Coordination Sequence:
#
# PCOD9021740 Si02
#       7
#     2   2   2   2   2   2   2
#     4  10  23  43  71  95 133 183 230 275 344 405
#     4  11  23  42  65  99 138 173 229 283 331 399
#     4  10  22  38  64  99 131 164 227 279 345 381
#     4  10  22  38  69  94 135 176 229 280 329 399
#     4  10  22  39  70  95 129 175 228 280 341 414
#     4  10  24  45  67  97 141 187 223 274 343 408
#     4   9  21  43  64  98 134 183 223 270 337 406
#
# _framework density 28.499493000000001
#
# number of rings (size 3 to 8) (size 9 to 14) (size 15 to 20)
#    0.000    2.000    0.000    2.143   16.000    0.571 
#    5.143    7.857    0.000    0.000    0.000    0.000 
#    0.000    0.000    0.000    0.000    0.000    0.000 
#
# Total GULP energy -78135.680378 kJ/mol
# GULP energy per Si atom -5581.120027 kJ/mol
# Density = 2.843463 g / cm^3
# Si number density = 28.499493 Si / 1000 Ang^3
#
#
#
# Elastic Constant Matrix: (Units=GPa)
#
#
# Indices 1 2 3 4 5 6 
#
# 1 118.1560 16.3366 39.1621 -12.0061 -26.7387 8.3635
# 2 16.3366 69.3847 21.9500 -14.4739 -15.2848 2.9653
# 3 39.1621 21.9500 152.0346 -2.5303 -41.3065 7.2315
# 4 -12.0061 -14.4739 -2.5303 62.3477 14.3642 -17.6203
# 5 -26.7387 -15.2848 -41.3065 14.3642 62.7927 0.9931
# 6 8.3635 2.9653 7.2315 -17.6203 0.9931 40.4846
#
#
#
# Elastic Compliance Matrix: (Units=1/GPa)
#
#
# Indices 1 2 3 4 5 6 
#
# 1 0.009930 -0.001045 -0.001547 0.000510 0.002865 -0.001547
# 2 -0.001045 0.016192 -0.001590 0.003307 0.001683 0.000712
# 3 -0.001547 -0.001590 0.008682 -0.002121 0.005185 -0.002165
# 4 0.000510 0.003307 -0.002121 0.020603 -0.005231 0.009127
# 5 0.002865 0.001683 0.005185 -0.005231 0.022233 -0.004463
# 6 -0.001547 0.000712 -0.002165 0.009127 -0.004463 0.029437
#
#
# Mechanical properties :
#
#
# Convention : Reuss Voigt Hill
#
# Bulk Modulus (GPa) = 37.82243 54.94142 46.38192
# Shear Modulus (GPa) = 40.24040 50.60011 45.42026
#
# Velocity S-wave (km/s) = 3.76169 4.21821 3.99648
# Velocity P-wave (km/s) = 5.67161 6.56081 6.13235
#
# Compressibility (1/GPa) = 0.02643934
#
# Stress axis : x y z
#
# Youngs Moduli (GPa) = 100.70442 61.76074 115.18381
#
# Poissons Ratio (x) = 0.06456 0.17814
# Poissons Ratio (y) = 0.10527 0.18315
# Poissons Ratio (z) = 0.15575 0.09821
#
# Static dielectric constant tensor:
#      x y z
#    x 2.431080 -0.034330 0.003550 
#    y -0.034330 2.361050 -0.048920 
#    z 0.003550 -0.048920 2.240110 
# 
# From -- ./inp_files/322310.got.cif
#   From: 2010.05.17/outbox.cif.g08.bks.cpg/sg2_162_cif.got.tgz:322310.got - 2010.06.03 11:33:40.
