data_PCOD9021787
_publ_section_title
;
Structure prediction by ZEFSAII (Michael W. Deem and Ramdas Pophale) SiO2 
 PCOD9021787
Probable space group: P -1
;
_chemical_formula_sum "Si O2"
_cell_formula_units_Z 12
_cell_length_a 5.714880
_cell_length_b 13.674265
_cell_length_c 6.999716
_cell_angle_alpha 81.283106
_cell_angle_beta 101.125857
_cell_angle_gamma 63.758110
_cell_volume 463.642444
_symmetry_space_group_name_H-M "P -1"
_symmetry_group_IT_number 2
_symmetry_cell_setting 'triclinic'
loop_
_space_group_symop_operation_xyz
x,y,z
-x,-y,-z
loop_
_atom_site_type_symbol
_atom_site_label
_atom_site_fract_x
_atom_site_fract_y
_atom_site_fract_z
Si Si1 0.201081 0.048915 0.656964
Si Si2 0.046926 0.245531 0.842963
Si Si3 0.658994 0.239906 0.509423
Si Si4 0.301495 0.167514 0.289917
Si Si5 0.608318 0.441139 0.242985
Si Si6 0.987363 0.476125 0.777120
O O1 0.236378 0.129573 0.794466
O O2 0.241998 0.092028 0.446911
O O3 0.872738 0.103798 0.598165
O O4 0.418103 0.918966 0.753092
O O5 0.745594 0.280359 0.703236
O O6 0.124912 0.343080 0.794317
O O7 0.076334 0.226017 0.077320
O O8 0.375457 0.249403 0.400867
O O9 0.729234 0.306588 0.336518
O O10 0.333577 0.481690 0.312437
O O11 0.843913 0.472548 0.316452
O O12 0.500000 0.500000 0.000000
O O13 0.000000 0.500000 0.000000
#
# Coordination Sequence:
#
# PCOD9021787 Si02
#       6
#     2   2   2   2   2   2
#     4   9  24  41  65 102 125 176 229 274 343 421
#     4  10  24  41  66 101 130 173 232 277 340 417
#     4  10  24  40  64  99 128 173 228 273 340 414
#     4  11  20  46  68  89 143 170 216 293 344 399
#     4  10  22  38  65  94 135 176 228 279 341 405
#     4  10  22  40  64  98 132 184 224 281 346 406
#
# _framework density 25.882014999999999
#
# number of rings (size 3 to 8) (size 9 to 14) (size 15 to 20)
#    1.000    1.000    0.000    3.000    7.000    2.667 
#    3.000    1.667    0.000    0.000    0.000    0.000 
#    0.000    0.000    0.000    0.000    0.000    0.000 
#
# Total GULP energy -66929.224270 kJ/mol
# GULP energy per Si atom -5577.435356 kJ/mol
# Density = 2.582311 g / cm^3
# Si number density = 25.882015 Si / 1000 Ang^3
#
#
#
# Elastic Constant Matrix: (Units=GPa)
#
#
# Indices 1 2 3 4 5 6 
#
# 1 126.8117 34.6538 41.6682 8.3209 12.7715 18.5965
# 2 34.6538 81.3151 25.0833 16.0001 20.5665 18.1865
# 3 41.6682 25.0833 190.1093 4.6100 17.0863 14.7076
# 4 8.3209 16.0001 4.6100 28.9830 8.2093 5.6771
# 5 12.7715 20.5665 17.0863 8.2093 30.2034 1.0126
# 6 18.5965 18.1865 14.7076 5.6771 1.0126 44.0463
#
#
#
# Elastic Compliance Matrix: (Units=1/GPa)
#
#
# Indices 1 2 3 4 5 6 
#
# 1 0.009600 -0.002768 -0.001440 -0.000185 -0.001230 -0.002377
# 2 -0.002768 0.018239 -0.000417 -0.005527 -0.009333 -0.005296
# 3 -0.001440 -0.000417 0.005945 0.000680 -0.002613 -0.001232
# 4 -0.000185 -0.005527 0.000680 0.040146 -0.007358 -0.002872
# 5 -0.001230 -0.009333 -0.002613 -0.007358 0.043288 0.005199
# 6 -0.002377 -0.005296 -0.001232 -0.002872 0.005199 0.026556
#
#
# Mechanical properties :
#
#
# Convention : Reuss Voigt Hill
#
# Bulk Modulus (GPa) = 40.76131 66.78296 53.77214
# Shear Modulus (GPa) = 31.01728 40.43525 35.72626
#
# Velocity S-wave (km/s) = 3.46556 3.95687 3.71934
# Velocity P-wave (km/s) = 5.63885 6.83627 6.26623
#
# Compressibility (1/GPa) = 0.02453307
#
# Stress axis : x y z
#
# Youngs Moduli (GPa) = 104.16839 54.82892 168.22231
#
# Poissons Ratio (x) = 0.15175 0.24223
# Poissons Ratio (y) = 0.28831 0.07019
# Poissons Ratio (z) = 0.15000 0.02288
#
# Static dielectric constant tensor:
#      x y z
#    x 2.046260 -0.128040 0.076060 
#    y -0.128040 2.217890 -0.045180 
#    z 0.076060 -0.045180 2.073130 
# 
# From -- ./inp_files/115702.got.cif
#   From: 2010.05.17/outbox.cif.g08.bks.cpg/sg2_58_cif.got.tgz:115702.got - 2010.06.03 11:33:40.
