data_PCOD9021578
_publ_section_title
;
Structure prediction by ZEFSAII (Michael W. Deem and Ramdas Pophale) SiO2 
 PCOD9021578
Probable space group: P -1
;
_chemical_formula_sum "Si O2"
_cell_formula_units_Z 16
_cell_length_a 8.823624
_cell_length_b 11.216614
_cell_length_c 8.551346
_cell_angle_alpha 105.660284
_cell_angle_beta 106.743495
_cell_angle_gamma 89.524503
_cell_volume 778.153017
_symmetry_space_group_name_H-M "P -1"
_symmetry_group_IT_number 2
_symmetry_cell_setting 'triclinic'
loop_
_space_group_symop_operation_xyz
x,y,z
-x,-y,-z
loop_
_atom_site_type_symbol
_atom_site_label
_atom_site_fract_x
_atom_site_fract_y
_atom_site_fract_z
Si Si1 0.897934 0.813162 0.798037
Si Si2 0.274524 0.025539 0.643103
Si Si3 0.865854 0.734827 0.419735
Si Si4 0.069868 0.368681 0.009181
Si Si5 0.417086 0.826349 0.214880
Si Si6 0.622741 0.617616 0.086924
Si Si7 0.151700 0.778420 0.347409
Si Si8 0.776691 0.021381 0.035482
O O1 0.827814 0.775849 0.596699
O O2 0.945543 0.684925 0.841715
O O3 0.050082 0.910379 0.855420
O O4 0.791371 0.887113 0.912103
O O5 0.192527 0.916227 0.475143
O O6 0.299617 0.988556 0.818571
O O7 0.165710 0.141358 0.645469
O O8 0.445249 0.075871 0.647240
O O9 0.742807 0.628856 0.275908
O O10 0.050811 0.710959 0.436798
O O11 0.253098 0.378188 0.016328
O O12 0.000000 0.500000 0.000000
O O13 0.971976 0.262312 0.841243
O O14 0.514400 0.732085 0.110729
O O15 0.317107 0.756544 0.300310
O O16 0.305060 0.896289 0.089103
O O17 0.500000 0.500000 0.000000
#
# Coordination Sequence:
#
# PCOD9021578 Si02
#       8
#     2   2   2   2   2   2   2   2
#     4  11  22  39  64  96 123 162 212 261 304 365
#     4  11  22  36  58  93 131 165 202 257 315 369
#     4  10  22  38  63  91 125 163 211 257 306 369
#     4  11  24  44  68  89 119 167 215 255 307 372
#     4  11  22  37  59  93 131 167 202 251 318 371
#     4  10  23  44  66  90 123 165 207 258 314 370
#     4  11  20  36  59  87 121 163 209 249 302 363
#     4  11  22  36  63  94 133 164 204 257 313 371
#
# _framework density 20.561509000000001
#
# number of rings (size 3 to 8) (size 9 to 14) (size 15 to 20)
#    0.000    1.250    2.500    4.875    3.500    1.000 
#    0.000    4.375    0.000    0.000    0.000    0.000 
#    0.000    0.000    0.000    0.000    0.000    0.000 
#
# Total GULP energy -89153.364575 kJ/mol
# GULP energy per Si atom -5572.085286 kJ/mol
# Density = 2.051471 g / cm^3
# Si number density = 20.561509 Si / 1000 Ang^3
#
#
#
# Elastic Constant Matrix: (Units=GPa)
#
#
# Indices 1 2 3 4 5 6 
#
# 1 83.1462 12.5217 15.6937 16.7240 0.9444 18.7034
# 2 12.5217 68.6664 31.8555 9.2085 -0.4378 -0.3162
# 3 15.6937 31.8555 85.3517 11.3796 12.3275 10.3305
# 4 16.7240 9.2085 11.3796 18.2547 10.3836 6.5292
# 5 0.9444 -0.4378 12.3275 10.3836 35.7093 13.5910
# 6 18.7034 -0.3162 10.3305 6.5292 13.5910 30.8360
#
#
#
# Elastic Compliance Matrix: (Units=1/GPa)
#
#
# Indices 1 2 3 4 5 6 
#
# 1 0.018035 -0.000673 -0.000770 -0.016798 0.008867 -0.011039
# 2 -0.000673 0.018929 -0.006785 -0.007887 0.003791 0.002874
# 3 -0.000770 -0.006785 0.015583 -0.002535 -0.003694 -0.002659
# 4 -0.016798 -0.007887 -0.002535 0.089303 -0.026096 0.003550
# 5 0.008867 0.003791 -0.003694 -0.026096 0.043421 -0.017714
# 6 -0.011039 0.002874 -0.002659 0.003550 -0.017714 0.047101
#
#
# Mechanical properties :
#
#
# Convention : Reuss Voigt Hill
#
# Bulk Modulus (GPa) = 27.70755 39.70067 33.70411
# Shear Modulus (GPa) = 19.16747 28.76622 23.96685
#
# Velocity S-wave (km/s) = 3.05651 3.74442 3.41782
# Velocity P-wave (km/s) = 5.09520 6.16802 5.65710
#
# Compressibility (1/GPa) = 0.03609125
#
# Stress axis : x y z
#
# Youngs Moduli (GPa) = 55.44771 52.83001 64.17155
#
# Poissons Ratio (x) = 0.03557 0.04939
# Poissons Ratio (y) = 0.03733 0.43539
# Poissons Ratio (z) = 0.04268 0.35844
#
# Static dielectric constant tensor:
#      x y z
#    x 1.805370 0.009470 -0.044110 
#    y 0.009470 1.737800 0.001280 
#    z -0.044110 0.001280 1.760150 
# 
# From -- ./inp_files/182729.got.cif
#   From: 2010.05.17/outbox.cif.g08.bks.cpg/sg2_92_cif.got.tgz:182729.got - 2010.06.03 11:33:40.
