data_PCOD9021032
_publ_section_title
;
Structure prediction by ZEFSAII (Michael W. Deem and Ramdas Pophale) SiO2 
 PCOD9021032
Probable space group: P -1
;
_chemical_formula_sum "Si O2"
_cell_formula_units_Z 16
_cell_length_a 18.013666
_cell_length_b 6.271708
_cell_length_c 17.925325
_cell_angle_alpha 131.989741
_cell_angle_beta 28.317653
_cell_angle_gamma 119.799006
_cell_volume 689.286965
_symmetry_space_group_name_H-M "P -1"
_symmetry_group_IT_number 2
_symmetry_cell_setting 'triclinic'
loop_
_space_group_symop_operation_xyz
x,y,z
-x,-y,-z
loop_
_atom_site_type_symbol
_atom_site_label
_atom_site_fract_x
_atom_site_fract_y
_atom_site_fract_z
Si Si1 0.165577 0.601201 0.366923
Si Si2 0.618747 0.265496 0.661042
Si Si3 0.824406 0.275645 0.348231
Si Si4 0.465977 0.182557 0.456523
Si Si5 0.748817 0.829413 0.210300
Si Si6 0.107256 0.853135 0.097596
Si Si7 0.708308 0.680407 0.955064
Si Si8 0.006656 0.224899 0.660984
O O1 0.253007 0.643732 0.376954
O O2 0.287144 0.381933 0.152058
O O3 0.000000 0.500000 0.500000
O O4 0.114429 0.936057 0.457567
O O5 0.659610 0.359149 0.563297
O O6 0.622735 0.919883 0.559175
O O7 0.446268 0.375162 0.879540
O O8 0.885619 0.566452 0.355776
O O9 0.818891 0.105754 0.235933
O O10 0.956721 0.037078 0.225000
O O11 0.500000 0.500000 0.500000
O O12 0.358292 0.186036 0.625773
O O13 0.633657 0.931470 0.265073
O O14 0.859305 0.498592 0.026942
O O15 0.068047 0.896009 0.229520
O O16 0.257272 0.998348 0.984335
O O17 0.867123 0.439347 0.787341
#
# Coordination Sequence:
#
# PCOD9021032 Si02
#       8
#     2   2   2   2   2   2   2   2
#     4  12  23  46  70  94 131 176 220 277 339 388
#     4  11  23  44  67  97 133 171 220 273 333 388
#     4  10  23  41  65  99 134 174 221 271 332 396
#     4  10  22  40  63  94 139 175 213 270 333 386
#     4  10  22  37  64  97 132 175 221 265 328 391
#     4  11  21  42  65  96 136 175 222 273 322 395
#     4  11  24  42  67  98 131 173 225 275 327 394
#     4  11  23  43  68  93 135 177 218 273 340 388
#
# _framework density 23.212394
#
# number of rings (size 3 to 8) (size 9 to 14) (size 15 to 20)
#    0.000    1.250    2.500    3.375    1.750    1.500 
#    4.500    1.250    0.000    0.000    0.000    0.000 
#    0.000    0.000    0.000    0.000    0.000    0.000 
#
# Total GULP energy -89380.978235 kJ/mol
# GULP energy per Si atom -5586.311140 kJ/mol
# Density = 2.315956 g / cm^3
# Si number density = 23.212394 Si / 1000 Ang^3
#
#
#
# Elastic Constant Matrix: (Units=GPa)
#
#
# Indices 1 2 3 4 5 6 
#
# 1 104.9989 21.3942 14.8145 2.3265 13.2799 29.6633
# 2 21.3942 106.1451 32.6961 7.3236 -4.7932 36.1480
# 3 14.8145 32.6961 81.7482 -2.7407 18.1603 16.8112
# 4 2.3265 7.3236 -2.7407 34.2629 2.1262 2.4597
# 5 13.2799 -4.7932 18.1603 2.1262 25.4612 3.9606
# 6 29.6633 36.1480 16.8112 2.4597 3.9606 40.1464
#
#
#
# Elastic Compliance Matrix: (Units=1/GPa)
#
#
# Indices 1 2 3 4 5 6 
#
# 1 0.012741 0.000027 0.000891 0.000228 -0.005856 -0.009247
# 2 0.000027 0.016452 -0.006231 -0.003697 0.009853 -0.012969
# 3 0.000891 -0.006231 0.018269 0.003754 -0.014753 -0.001473
# 4 0.000228 -0.003697 0.003754 0.030617 -0.006098 0.000314
# 5 -0.005856 0.009853 -0.014753 -0.006098 0.055760 -0.003495
# 6 -0.009247 -0.012969 -0.001473 0.000314 -0.003495 0.044361
#
#
# Mechanical properties :
#
#
# Convention : Reuss Voigt Hill
#
# Bulk Modulus (GPa) = 27.14813 47.85577 37.50195
# Shear Modulus (GPa) = 24.86262 34.90661 29.88462
#
# Velocity S-wave (km/s) = 3.27631 3.88208 3.59199
# Velocity P-wave (km/s) = 5.10227 6.38399 5.77877
#
# Compressibility (1/GPa) = 0.03683495
#
# Stress axis : x y z
#
# Youngs Moduli (GPa) = 78.48790 60.78385 54.73664
#
# Poissons Ratio (x) = -0.00162 -0.04875
# Poissons Ratio (y) = -0.00209 0.34105
# Poissons Ratio (z) = -0.06990 0.37873
#
# Static dielectric constant tensor:
#      x y z
#    x 1.913610 0.027970 -0.002730 
#    y 0.027970 1.870680 -0.012570 
#    z -0.002730 -0.012570 1.905260 
# 
# From -- ./inp_files/85002.got.cif
#   From: 2010.05.17/outbox.cif.g08.bks.cpg/sg2_43_cif.got.tgz:85002.got - 2010.06.03 11:33:40.
