data_PCOD9021708
_publ_section_title
;
Structure prediction by ZEFSAII (Michael W. Deem and Ramdas Pophale) SiO2 
 PCOD9021708
Probable space group: P -1
;
_chemical_formula_sum "Si O2"
_cell_formula_units_Z 15
_cell_length_a 25.830567
_cell_length_b 12.272789
_cell_length_c 14.105315
_cell_angle_alpha 143.384284
_cell_angle_beta 21.441621
_cell_angle_gamma 153.010319
_cell_volume 732.112446
_symmetry_space_group_name_H-M "P -1"
_symmetry_group_IT_number 2
_symmetry_cell_setting 'triclinic'
loop_
_space_group_symop_operation_xyz
x,y,z
-x,-y,-z
loop_
_atom_site_type_symbol
_atom_site_label
_atom_site_fract_x
_atom_site_fract_y
_atom_site_fract_z
Si Si1 0.317320 0.962217 0.011995
Si Si2 0.098537 0.987901 0.562541
Si Si3 0.798478 0.843043 0.285259
Si Si4 0.500000 0.500000 0.000000
Si Si5 0.312745 0.479882 0.439426
Si Si6 0.809049 0.249267 0.115533
Si Si7 0.692345 0.776011 0.078738
Si Si8 0.491708 0.719899 0.576281
O O1 0.203612 0.935340 0.278562
O O2 0.432295 0.226796 0.955414
O O3 0.181800 0.783149 0.033057
O O4 0.442597 0.890506 0.769911
O O5 0.161063 0.027505 0.592466
O O6 0.179169 0.254930 0.578336
O O7 0.872547 0.801644 0.804746
O O8 0.647166 0.820086 0.462509
O O9 0.696350 0.559537 0.277460
O O10 0.000000 0.000000 0.000000
O O11 0.278969 0.393258 0.330082
O O12 0.333674 0.706056 0.589062
O O13 0.530774 0.581010 0.140356
O O14 0.765829 0.031813 0.095115
O O15 0.000000 0.500000 0.000000
O O16 0.580213 0.712440 0.323174
#
# Coordination Sequence:
#
# PCOD9021708 Si02
#       8
#     2   2   2   1   2   2   2   2
#     4  11  24  43  64 102 143 174 221 272 331 405
#     4  11  24  40  65  97 133 169 218 281 338 391
#     4  11  23  45  73  97 123 171 233 286 339 395
#     4  10  22  38  64  94 136 184 206 268 324 392
#     4  11  21  40  61  92 134 170 227 267 326 396
#     4  12  23  37  65  94 134 181 227 265 322 399
#     4  12  21  38  66  93 127 177 217 269 323 394
#     4  11  24  42  73  96 127 176 228 278 335 394
#
# _framework density 20.488655999999999
#
# number of rings (size 3 to 8) (size 9 to 14) (size 15 to 20)
#    0.000    0.800    6.667    1.200    0.000    2.133 
#    0.000    3.333    0.000    0.000    0.000    0.000 
#    0.000    0.000    0.000    0.000    0.000    0.000 
#
# Total GULP energy -83574.684079 kJ/mol
# GULP energy per Si atom -5571.645605 kJ/mol
# Density = 2.044202 g / cm^3
# Si number density = 20.488656 Si / 1000 Ang^3
#
#
#
# Elastic Constant Matrix: (Units=GPa)
#
#
# Indices 1 2 3 4 5 6 
#
# 1 120.6181 43.1503 69.3049 4.1684 12.6234 8.0023
# 2 43.1503 90.8340 41.0119 4.1534 -7.9058 5.8137
# 3 69.3049 41.0119 122.5551 -2.3634 9.7940 -0.4568
# 4 4.1684 4.1534 -2.3634 38.0205 6.0660 -0.1263
# 5 12.6234 -7.9058 9.7940 6.0660 40.7165 -4.2201
# 6 8.0023 5.8137 -0.4568 -0.1263 -4.2201 25.4694
#
#
#
# Elastic Compliance Matrix: (Units=1/GPa)
#
#
# Indices 1 2 3 4 5 6 
#
# 1 0.014049 -0.003805 -0.006396 -0.000920 -0.003865 -0.004305
# 2 -0.003805 0.014942 -0.003301 -0.002232 0.005057 -0.001448
# 3 -0.006396 -0.003301 0.013081 0.002179 -0.001849 0.002702
# 4 -0.000920 -0.002232 0.002179 0.027541 -0.004756 0.000186
# 5 -0.003865 0.005057 -0.001849 -0.004756 0.028381 0.004706
# 6 -0.004305 -0.001448 0.002702 0.000186 0.004706 0.041775
#
#
# Mechanical properties :
#
#
# Convention : Reuss Voigt Hill
#
# Bulk Modulus (GPa) = 66.36762 71.21572 68.79167
# Shear Modulus (GPa) = 29.10418 32.87728 30.99073
#
# Velocity S-wave (km/s) = 3.77304 4.01016 3.89341
# Velocity P-wave (km/s) = 7.17244 7.50173 7.33893
#
# Compressibility (1/GPa) = 0.01506759
#
# Stress axis : x y z
#
# Youngs Moduli (GPa) = 71.18019 66.92607 76.44490
#
# Poissons Ratio (x) = 0.25463 0.48897
# Poissons Ratio (y) = 0.27081 0.25236
# Poissons Ratio (z) = 0.45529 0.22094
#
# Static dielectric constant tensor:
#      x y z
#    x 1.961630 0.091640 0.110380 
#    y 0.091640 1.770130 0.140470 
#    z 0.110380 0.140470 2.152360 
# 
# From -- ./inp_files/543973.got.cif
#   From: 2010.05.17/outbox.cif.g08.bks.cpg/sg2_272_cif.got.tgz:543973.got - 2010.06.03 11:33:40.
