data_PCOD9021398
_publ_section_title
;
Structure prediction by ZEFSAII (Michael W. Deem and Ramdas Pophale) SiO2 
 PCOD9021398
Probable space group: P -1
;
_chemical_formula_sum "Si O2"
_cell_formula_units_Z 16
_cell_length_a 13.964557
_cell_length_b 9.481251
_cell_length_c 10.603921
_cell_angle_alpha 58.484268
_cell_angle_beta 99.371561
_cell_angle_gamma 55.723242
_cell_volume 752.370018
_symmetry_space_group_name_H-M "P -1"
_symmetry_group_IT_number 2
_symmetry_cell_setting 'triclinic'
loop_
_space_group_symop_operation_xyz
x,y,z
-x,-y,-z
loop_
_atom_site_type_symbol
_atom_site_label
_atom_site_fract_x
_atom_site_fract_y
_atom_site_fract_z
Si Si1 0.119271 0.178581 0.079771
Si Si2 0.718645 0.139252 0.977231
Si Si3 0.453786 0.308220 0.254031
Si Si4 0.737483 0.091877 0.282678
Si Si5 0.589531 0.995141 0.690034
Si Si6 0.971893 0.695258 0.736445
Si Si7 0.828498 0.304044 0.309867
Si Si8 0.450536 0.233576 0.807119
O O1 0.265158 0.096606 0.187564
O O2 0.075939 0.151096 0.215414
O O3 0.166432 0.017177 0.042004
O O4 0.989677 0.479421 0.872549
O O5 0.661672 0.398948 0.866314
O O6 0.573756 0.213391 0.878400
O O7 0.780533 0.996838 0.192555
O O8 0.383204 0.234787 0.216610
O O9 0.575498 0.228323 0.221453
O O10 0.540054 0.137440 0.479887
O O11 0.854555 0.871229 0.515601
O O12 0.741645 0.284998 0.213969
O O13 0.463566 0.182714 0.684684
O O14 0.131455 0.566551 0.791447
O O15 0.715565 0.483485 0.318583
O O16 0.000000 0.000000 0.500000
O O17 0.500000 0.000000 0.000000
#
# Coordination Sequence:
#
# PCOD9021398 Si02
#       8
#     2   2   2   2   2   2   2   2
#     4  10  22  43  64  93 119 174 206 264 309 384
#     4  11  24  37  67  95 128 156 213 273 320 356
#     4  11  22  39  62  98 125 163 200 273 326 373
#     4  11  22  39  60  96 124 165 203 268 314 377
#     4  10  23  39  66  93 127 162 210 265 325 369
#     4  10  22  41  66  83 129 171 216 242 319 391
#     4  10  22  38  61  89 125 170 207 253 316 378
#     4  11  22  39  64  99 124 165 214 267 312 383
#
# _framework density 21.266131999999999
#
# number of rings (size 3 to 8) (size 9 to 14) (size 15 to 20)
#    0.000    1.500    2.500    2.625    3.500    4.500 
#    0.000    1.875    0.000    0.000    0.000    0.000 
#    0.000    0.000    0.000    0.000    0.000    0.000 
#
# Total GULP energy -89339.824682 kJ/mol
# GULP energy per Si atom -5583.739043 kJ/mol
# Density = 2.121773 g / cm^3
# Si number density = 21.266132 Si / 1000 Ang^3
#
#
#
# Elastic Constant Matrix: (Units=GPa)
#
#
# Indices 1 2 3 4 5 6 
#
# 1 41.2163 12.3078 -1.6852 8.7131 -7.7852 -4.4526
# 2 12.3078 128.2333 28.3944 18.4035 1.0336 -8.2949
# 3 -1.6852 28.3944 90.5239 10.4023 0.8104 1.2186
# 4 8.7131 18.4035 10.4023 33.6506 0.4572 -3.1113
# 5 -7.7852 1.0336 0.8104 0.4572 13.3069 -1.1139
# 6 -4.4526 -8.2949 1.2186 -3.1113 -1.1139 34.4277
#
#
#
# Elastic Compliance Matrix: (Units=1/GPa)
#
#
# Indices 1 2 3 4 5 6 
#
# 1 0.030335 -0.002237 0.001881 -0.007160 0.018326 0.003264
# 2 -0.002237 0.009194 -0.002532 -0.003492 -0.001611 0.001648
# 3 0.001881 -0.002532 0.012228 -0.002987 0.000567 -0.001051
# 4 -0.007160 -0.003492 -0.002987 0.034591 -0.004815 0.001309
# 5 0.018326 -0.001611 0.000567 -0.004815 0.086488 0.004325
# 6 0.003264 0.001648 -0.001051 0.001309 0.004325 0.030161
#
#
# Mechanical properties :
#
#
# Convention : Reuss Voigt Hill
#
# Bulk Modulus (GPa) = 21.74782 37.55639 29.65210
# Shear Modulus (GPa) = 22.31135 31.00748 26.65941
#
# Velocity S-wave (km/s) = 3.24257 3.82261 3.54448
# Velocity P-wave (km/s) = 4.92623 6.09768 5.54299
#
# Compressibility (1/GPa) = 0.04598163
#
# Stress axis : x y z
#
# Youngs Moduli (GPa) = 32.96538 108.76134 81.77669
#
# Poissons Ratio (x) = 0.24331 -0.15384
# Poissons Ratio (y) = 0.07375 0.20707
# Poissons Ratio (z) = -0.06201 0.27540
#
# Static dielectric constant tensor:
#      x y z
#    x 1.778560 -0.012470 -0.037430 
#    y -0.012470 1.772100 -0.000950 
#    z -0.037430 -0.000950 1.842830 
# 
# From -- ./inp_files/297920.got.cif
#   From: 2010.05.17/outbox.cif.g08.bks.cpg/sg2_149_cif.got.tgz:297920.got - 2010.06.03 11:33:40.
