data_PCOD9021110
_publ_section_title
;
Structure prediction by ZEFSAII (Michael W. Deem and Ramdas Pophale) SiO2 
 PCOD9021110
Probable space group: P -1
;
_chemical_formula_sum "Si O2"
_cell_formula_units_Z 16
_cell_length_a 10.897904
_cell_length_b 18.164937
_cell_length_c 12.322449
_cell_angle_alpha 37.715084
_cell_angle_beta 47.709169
_cell_angle_gamma 29.826914
_cell_volume 741.492784
_symmetry_space_group_name_H-M "P -1"
_symmetry_group_IT_number 2
_symmetry_cell_setting 'triclinic'
loop_
_space_group_symop_operation_xyz
x,y,z
-x,-y,-z
loop_
_atom_site_type_symbol
_atom_site_label
_atom_site_fract_x
_atom_site_fract_y
_atom_site_fract_z
Si Si1 0.276067 0.302732 0.538668
Si Si2 0.763852 0.377386 0.545333
Si Si3 0.692100 0.504847 0.859345
Si Si4 0.986786 0.340068 0.091385
Si Si5 0.272191 0.428984 0.828256
Si Si6 0.353668 0.971106 0.184293
Si Si7 0.024039 0.752400 0.208314
Si Si8 0.169404 0.912566 0.162950
O O1 0.387131 0.330419 0.348072
O O2 0.450172 0.205653 0.653023
O O3 0.217155 0.194041 0.674154
O O4 0.000000 0.500000 0.500000
O O5 0.500000 0.500000 0.500000
O O6 0.839224 0.460994 0.346752
O O7 0.927355 0.170812 0.663979
O O8 0.773063 0.382258 0.663501
O O9 0.816699 0.466901 0.943265
O O10 0.892291 0.340927 0.849224
O O11 0.500000 0.500000 0.000000
O O12 0.168945 0.351643 0.996776
O O13 0.814004 0.428805 0.196126
O O14 0.149194 0.140748 0.186807
O O15 0.564738 0.255368 0.853540
O O16 0.229749 0.950041 0.194749
O O17 0.500000 0.000000 0.000000
O O18 0.978866 0.916592 0.023401
#
# Coordination Sequence:
#
# PCOD9021110 Si02
#       8
#     2   2   2   2   2   2   2   2
#     4  10  22  37  67  98 123 166 221 268 314 389
#     4  10  24  38  62  91 127 167 218 261 322 383
#     4  11  25  39  62  95 139 171 210 272 335 383
#     4  11  22  43  64  93 133 172 212 262 332 385
#     4  10  23  40  66  93 128 172 213 265 323 390
#     4  12  20  40  69  98 128 163 228 269 316 383
#     4  11  21  42  66  95 123 171 226 270 314 389
#     4  11  22  39  67  94 124 169 212 274 313 382
#
# _framework density 21.578094
#
# number of rings (size 3 to 8) (size 9 to 14) (size 15 to 20)
#    0.000    1.250    3.750    1.875   10.500    0.000 
#    2.250    1.250    0.000    4.500    0.000    0.000 
#    0.000    0.000    0.000    0.000    0.000    0.000 
#
# Total GULP energy -89246.087716 kJ/mol
# GULP energy per Si atom -5577.880482 kJ/mol
# Density = 2.152898 g / cm^3
# Si number density = 21.578094 Si / 1000 Ang^3
#
#
#
# Elastic Constant Matrix: (Units=GPa)
#
#
# Indices 1 2 3 4 5 6 
#
# 1 50.2553 -2.4685 -7.7515 7.4438 13.6809 -0.0909
# 2 -2.4685 76.3782 10.9523 -2.5623 5.6728 11.7961
# 3 -7.7515 10.9523 101.6338 -11.7756 19.9787 -14.5663
# 4 7.4438 -2.5623 -11.7756 23.6284 -1.1219 -3.6068
# 5 13.6809 5.6728 19.9787 -1.1219 50.1799 -3.6111
# 6 -0.0909 11.7961 -14.5663 -3.6068 -3.6111 21.4462
#
#
#
# Elastic Compliance Matrix: (Units=1/GPa)
#
#
# Indices 1 2 3 4 5 6 
#
# 1 0.023347 0.000990 0.002193 -0.006725 -0.007599 -0.001367
# 2 0.000990 0.015340 -0.003081 -0.001959 -0.001622 -0.011128
# 3 0.002193 -0.003081 0.013772 0.007369 -0.004741 0.011499
# 4 -0.006725 -0.001959 0.007369 0.050209 0.001303 0.014718
# 5 -0.007599 -0.001622 -0.004741 0.001303 0.024240 0.001941
# 6 -0.001367 -0.011128 0.011499 0.014718 0.001941 0.063355
#
#
# Mechanical properties :
#
#
# Convention : Reuss Voigt Hill
#
# Bulk Modulus (GPa) = 18.98829 25.52575 22.25702
# Shear Modulus (GPa) = 24.08320 34.21990 29.15155
#
# Velocity S-wave (km/s) = 3.34442 3.98661 3.67955
# Velocity P-wave (km/s) = 4.87160 5.74856 5.32815
#
# Compressibility (1/GPa) = 0.05266403
#
# Stress axis : x y z
#
# Youngs Moduli (GPa) = 42.83117 65.18936 72.61033
#
# Poissons Ratio (x) = -0.06454 -0.15922
# Poissons Ratio (y) = -0.04240 0.22368
# Poissons Ratio (z) = -0.09392 0.20082
#
# Static dielectric constant tensor:
#      x y z
#    x 1.828640 -0.014490 -0.077370 
#    y -0.014490 1.583910 0.211830 
#    z -0.077370 0.211830 1.750380 
# 
# From -- ./inp_files/282623.got.cif
#   From: 2010.05.17/outbox.cif.g08.bks.cpg/sg2_142_cif.got.tgz:282623.got - 2010.06.03 11:33:40.
