data_PCOD9021855
_publ_section_title
;
Structure prediction by ZEFSAII (Michael W. Deem and Ramdas Pophale) SiO2 
 PCOD9021855
Probable space group: P -1
;
_chemical_formula_sum "Si O2"
_cell_formula_units_Z 14
_cell_length_a 7.703167
_cell_length_b 10.234851
_cell_length_c 16.558109
_cell_angle_alpha 135.919656
_cell_angle_beta 105.232593
_cell_angle_gamma 109.671317
_cell_volume 545.384154
_symmetry_space_group_name_H-M "P -1"
_symmetry_group_IT_number 2
_symmetry_cell_setting 'triclinic'
loop_
_space_group_symop_operation_xyz
x,y,z
-x,-y,-z
loop_
_atom_site_type_symbol
_atom_site_label
_atom_site_fract_x
_atom_site_fract_y
_atom_site_fract_z
Si Si1 0.164249 0.939890 0.247716
Si Si2 0.922987 0.292276 0.165307
Si Si3 0.103175 0.485369 0.104649
Si Si4 0.660336 0.262711 0.254233
Si Si5 0.280555 0.279248 0.539865
Si Si6 0.623707 0.655936 0.233172
Si Si7 0.209514 0.026730 0.842082
O O1 0.971355 0.968757 0.225719
O O2 0.158688 0.852313 0.116725
O O3 0.060189 0.665275 0.156469
O O4 0.392701 0.212884 0.460779
O O5 0.897092 0.447146 0.291281
O O6 0.939562 0.133894 0.159876
O O7 0.135756 0.496777 0.209313
O O8 0.627989 0.019005 0.956777
O O9 0.396563 0.633685 0.170597
O O10 0.673005 0.478796 0.386755
O O11 0.740347 0.141224 0.260722
O O12 0.410560 0.396989 0.698113
O O13 0.947157 0.962388 0.382119
O O14 0.510919 0.374030 0.052430
#
# Coordination Sequence:
#
# PCOD9021855 Si02
#       7
#     2   2   2   2   2   2   2
#     4  10  24  39  61  91 132 158 204 254 316 358
#     4   9  18  38  70  84 121 164 215 241 292 380
#     4  10  23  43  61  92 124 168 205 253 301 372
#     4   9  19  38  64  95 116 160 209 257 294 359
#     4  11  22  39  62  96 126 156 205 262 306 367
#     4  10  22  38  66  92 121 165 213 246 303 367
#     4   9  19  40  65  91 114 166 213 239 297 371
#
# _framework density 25.669979999999999
#
# number of rings (size 3 to 8) (size 9 to 14) (size 15 to 20)
#    0.857    1.429    1.429    0.000    6.000    5.714 
#    2.571    0.714    0.000    0.000    0.000    0.000 
#    0.000    0.000    0.000    0.000    0.000    0.000 
#
# Total GULP energy -78024.828420 kJ/mol
# GULP energy per Si atom -5573.202030 kJ/mol
# Density = 2.561155 g / cm^3
# Si number density = 25.669980 Si / 1000 Ang^3
#
#
#
# Elastic Constant Matrix: (Units=GPa)
#
#
# Indices 1 2 3 4 5 6 
#
# 1 75.1982 41.2301 20.0416 5.9606 -23.3892 -29.6668
# 2 41.2301 70.9982 10.3013 -4.5015 -5.8092 -33.1057
# 3 20.0416 10.3013 80.3823 9.5313 -38.4663 -19.8245
# 4 5.9606 -4.5015 9.5313 36.2024 -2.1489 -11.3695
# 5 -23.3892 -5.8092 -38.4663 -2.1489 49.7334 4.8109
# 6 -29.6668 -33.1057 -19.8245 -11.3695 4.8109 39.6072
#
#
#
# Elastic Compliance Matrix: (Units=1/GPa)
#
#
# Indices 1 2 3 4 5 6 
#
# 1 0.026249 -0.009527 0.004083 -0.002183 0.013181 0.011514
# 2 -0.009527 0.030926 0.002407 0.012111 -0.000755 0.023487
# 3 0.004083 0.002407 0.024080 -0.001016 0.019381 0.014477
# 4 -0.002183 0.012111 -0.001016 0.035443 -0.000629 0.018231
# 5 0.013181 -0.000755 0.019381 -0.000629 0.039835 0.013924
# 6 0.011514 0.023487 0.014477 0.018231 0.013924 0.064292
#
#
# Mechanical properties :
#
#
# Convention : Reuss Voigt Hill
#
# Bulk Modulus (GPa) = 13.30125 41.08051 27.19088
# Shear Modulus (GPa) = 19.84464 35.44233 27.64348
#
# Velocity S-wave (km/s) = 2.78343 3.71980 3.28514
# Velocity P-wave (km/s) = 3.93990 5.87259 5.00050
#
# Compressibility (1/GPa) = 0.07518092
#
# Stress axis : x y z
#
# Youngs Moduli (GPa) = 38.09706 32.33573 41.52855
#
# Poissons Ratio (x) = 0.30805 -0.16955
# Poissons Ratio (y) = 0.36293 -0.09997
# Poissons Ratio (z) = -0.15554 -0.07784
#
# Static dielectric constant tensor:
#      x y z
#    x 2.051440 0.043740 0.053090 
#    y 0.043740 2.049230 -0.041120 
#    z 0.053090 -0.041120 2.022970 
# 
# From -- ./inp_files/558691.got.cif
#   From: 2010.05.17/outbox.cif.g08.bks.cpg/sg2_280_cif.got.tgz:558691.got - 2010.06.03 11:33:40.
