data_PCOD9021553
_publ_section_title
;
Structure prediction by ZEFSAII (Michael W. Deem and Ramdas Pophale) SiO2 
 PCOD9021553
Probable space group: P -1
;
_chemical_formula_sum "Si O2"
_cell_formula_units_Z 16
_cell_length_a 17.973725
_cell_length_b 8.873222
_cell_length_c 13.832591
_cell_angle_alpha 73.933560
_cell_angle_beta 156.239199
_cell_angle_gamma 94.063330
_cell_volume 753.396387
_symmetry_space_group_name_H-M "P -1"
_symmetry_group_IT_number 2
_symmetry_cell_setting 'triclinic'
loop_
_space_group_symop_operation_xyz
x,y,z
-x,-y,-z
loop_
_atom_site_type_symbol
_atom_site_label
_atom_site_fract_x
_atom_site_fract_y
_atom_site_fract_z
Si Si1 0.185140 0.491028 0.445002
Si Si2 0.643328 0.376779 0.819335
Si Si3 0.699522 0.241168 0.388789
Si Si4 0.574116 0.834793 0.332206
Si Si5 0.898322 0.448763 0.247770
Si Si6 0.298146 0.240599 0.883731
Si Si7 0.729816 0.279031 0.635660
Si Si8 0.011507 0.132838 0.165350
O O1 0.261166 0.589852 0.595985
O O2 0.348720 0.289657 0.649776
O O3 0.166808 0.602626 0.306133
O O4 0.971566 0.507279 0.227482
O O5 0.520607 0.261551 0.695114
O O6 0.473935 0.583370 0.571891
O O7 0.740718 0.375438 0.041813
O O8 0.835910 0.289509 0.991491
O O9 0.666037 0.221493 0.469242
O O10 0.901093 0.054203 0.641008
O O11 0.502224 0.259394 0.092371
O O12 0.786931 0.837368 0.617996
O O13 0.397398 0.035288 0.067865
O O14 0.798703 0.616318 0.170438
O O15 0.112135 0.300083 0.575543
O O16 0.891620 0.133736 0.924983
#
# Coordination Sequence:
#
# PCOD9021553 Si02
#       8
#     2   2   2   2   2   2   2   2
#     4   9  20  37  58  85 118 152 188 244 285 341
#     4  11  22  39  59  87 124 151 194 241 287 345
#     4   9  20  40  56  86 116 152 192 243 283 343
#     4  10  22  39  58  90 118 148 198 242 282 350
#     4  11  21  40  59  86 117 157 193 240 296 342
#     4  10  22  38  63  82 116 157 193 242 294 344
#     4   9  20  39  61  81 123 154 189 240 292 336
#     4  11  21  38  62  89 116 158 194 235 290 346
#
# _framework density 21.237161
#
# number of rings (size 3 to 8) (size 9 to 14) (size 15 to 20)
#    0.750    1.250    2.500    0.750    1.750    3.500 
#    2.250    0.000    0.000    4.500    0.000    0.000 
#    0.000    0.000    0.000    0.000    0.000    0.000 
#
# Total GULP energy -89133.183172 kJ/mol
# GULP energy per Si atom -5570.823948 kJ/mol
# Density = 2.118882 g / cm^3
# Si number density = 21.237161 Si / 1000 Ang^3
#
#
#
# Elastic Constant Matrix: (Units=GPa)
#
#
# Indices 1 2 3 4 5 6 
#
# 1 33.7419 -5.9090 7.9795 -6.6327 11.6954 -7.1971
# 2 -5.9090 53.4276 23.3594 10.3462 1.9910 -3.1771
# 3 7.9795 23.3594 120.8033 -3.4847 5.8247 -1.9762
# 4 -6.6327 10.3462 -3.4847 26.0012 -5.2837 5.4454
# 5 11.6954 1.9910 5.8247 -5.2837 21.5311 1.0059
# 6 -7.1971 -3.1771 -1.9762 5.4454 1.0059 19.9030
#
#
#
# Elastic Compliance Matrix: (Units=1/GPa)
#
#
# Indices 1 2 3 4 5 6 
#
# 1 0.044372 0.008655 -0.003122 -0.001640 -0.025341 0.018846
# 2 0.008655 0.025395 -0.005229 -0.012698 -0.009246 0.010606
# 3 -0.003122 -0.005229 0.009531 0.003042 0.000435 -0.001871
# 4 -0.001640 -0.012698 0.003042 0.049896 0.014266 -0.016691
# 5 -0.025341 -0.009246 0.000435 0.014266 0.065279 -0.017799
# 6 0.018846 0.010606 -0.001871 -0.016691 -0.017799 0.064032
#
#
# Mechanical properties :
#
#
# Convention : Reuss Voigt Hill
#
# Bulk Modulus (GPa) = 12.51474 28.75918 20.63696
# Shear Modulus (GPa) = 17.57271 25.65657 21.61464
#
# Velocity S-wave (km/s) = 2.87967 3.47954 3.19372
# Velocity P-wave (km/s) = 4.11853 5.45108 4.83097
#
# Compressibility (1/GPa) = 0.07990580
#
# Stress axis : x y z
#
# Youngs Moduli (GPa) = 22.53691 39.37846 104.91592
#
# Poissons Ratio (x) = -0.34081 0.32751
# Poissons Ratio (y) = -0.19505 0.54862
# Poissons Ratio (z) = 0.07035 0.20592
#
# Static dielectric constant tensor:
#      x y z
#    x 1.794390 -0.025990 -0.002320 
#    y -0.025990 1.780300 0.011570 
#    z -0.002320 0.011570 1.766360 
# 
# From -- ./inp_files/540477.got.cif
#   From: 2010.05.17/outbox.cif.g08.bks.cpg/sg2_271_cif.got.tgz:540477.got - 2010.06.03 11:33:40.
