data_PCOD9021253
_publ_section_title
;
Structure prediction by ZEFSAII (Michael W. Deem and Ramdas Pophale) SiO2 
 PCOD9021253
Probable space group: P -1
;
_chemical_formula_sum "Si O2"
_cell_formula_units_Z 16
_cell_length_a 15.825874
_cell_length_b 13.906205
_cell_length_c 12.887275
_cell_angle_alpha 126.261965
_cell_angle_beta 26.641180
_cell_angle_gamma 144.389392
_cell_volume 633.495532
_symmetry_space_group_name_H-M "P -1"
_symmetry_group_IT_number 2
_symmetry_cell_setting 'triclinic'
loop_
_space_group_symop_operation_xyz
x,y,z
-x,-y,-z
loop_
_atom_site_type_symbol
_atom_site_label
_atom_site_fract_x
_atom_site_fract_y
_atom_site_fract_z
Si Si1 0.015667 0.572332 0.138015
Si Si2 0.384182 0.666123 0.070334
Si Si3 0.143107 0.946302 0.951589
Si Si4 0.199171 0.307937 0.647204
Si Si5 0.321071 0.103674 0.300309
Si Si6 0.732451 0.370085 0.523423
Si Si7 0.748902 0.660675 0.009885
Si Si8 0.112798 0.169894 0.232386
O O1 0.858109 0.621139 0.330064
O O2 0.868866 0.418400 0.289680
O O3 0.360485 0.768167 0.915402
O O4 0.000000 0.500000 0.000000
O O5 0.035958 0.537851 0.366975
O O6 0.603872 0.856940 0.879157
O O7 0.354147 0.520524 0.958943
O O8 0.562266 0.721842 0.015432
O O9 0.499322 0.148532 0.668016
O O10 0.066796 0.828635 0.060481
O O11 0.972986 0.820859 0.954310
O O12 0.993131 0.999381 0.185054
O O13 0.500000 0.500000 0.500000
O O14 0.239524 0.198054 0.483840
O O15 0.070010 0.900444 0.505620
O O16 0.524340 0.383569 0.742693
O O17 0.888450 0.723646 0.779860
#
# Coordination Sequence:
#
# PCOD9021253 Si02
#       8
#     2   2   2   2   2   2   2   2
#     4  11  22  33  59  89 122 159 199 245 307 357
#     4  11  23  41  63  90 119 163 204 245 302 362
#     4  10  23  39  63  91 123 162 197 253 308 351
#     4  11  20  37  59  86 124 159 195 242 301 363
#     4  10  22  38  59  87 118 159 199 251 296 358
#     4  10  23  40  58  90 125 157 200 254 299 362
#     4  11  23  40  63  88 122 159 200 248 307 355
#     4  10  22  41  64  87 121 163 203 247 302 359
#
# _framework density 25.256689999999999
#
# number of rings (size 3 to 8) (size 9 to 14) (size 15 to 20)
#    0.000    1.500    1.250    4.500    5.250    3.500 
#    0.000    2.500    0.000    9.000    0.000    0.000 
#    0.000    0.000    0.000    0.000    0.000    0.000 
#
# Total GULP energy -89483.819614 kJ/mol
# GULP energy per Si atom -5592.738726 kJ/mol
# Density = 2.519921 g / cm^3
# Si number density = 25.256690 Si / 1000 Ang^3
#
#
#
# Elastic Constant Matrix: (Units=GPa)
#
#
# Indices 1 2 3 4 5 6 
#
# 1 140.0015 18.8281 44.2324 -21.6016 20.0715 8.7796
# 2 18.8281 49.4312 22.9818 -13.9308 1.8983 6.2983
# 3 44.2324 22.9818 96.0508 -32.4868 7.4596 1.2008
# 4 -21.6016 -13.9308 -32.4868 40.4319 -14.3298 1.6562
# 5 20.0715 1.8983 7.4596 -14.3298 51.6024 -12.9286
# 6 8.7796 6.2983 1.2008 1.6562 -12.9286 34.5417
#
#
#
# Elastic Compliance Matrix: (Units=1/GPa)
#
#
# Indices 1 2 3 4 5 6 
#
# 1 0.009230 -0.001171 -0.003442 0.000573 -0.003754 -0.003445
# 2 -0.001171 0.024281 -0.003465 0.005306 0.000517 -0.004070
# 3 -0.003442 -0.003465 0.016297 0.010882 0.002469 0.001342
# 4 0.000573 0.005306 0.010882 0.038712 0.008740 -0.000076
# 5 -0.003754 0.000517 0.002469 0.008740 0.025357 0.009846
# 6 -0.003445 -0.004070 0.001342 -0.000076 0.009846 0.034211
#
#
# Mechanical properties :
#
#
# Convention : Reuss Voigt Hill
#
# Bulk Modulus (GPa) = 29.71494 50.84090 40.27792
# Shear Modulus (GPa) = 28.49622 38.61130 33.55376
#
# Velocity S-wave (km/s) = 3.36261 3.91417 3.64883
# Velocity P-wave (km/s) = 5.18333 6.37189 5.80809
#
# Compressibility (1/GPa) = 0.03365311
#
# Stress axis : x y z
#
# Youngs Moduli (GPa) = 108.33770 41.18398 61.35960
#
# Poissons Ratio (x) = 0.04822 0.21121
# Poissons Ratio (y) = 0.12684 0.21262
# Poissons Ratio (z) = 0.37291 0.14271
#
# Static dielectric constant tensor:
#      x y z
#    x 2.039970 -0.027260 0.034300 
#    y -0.027260 1.982840 -0.019800 
#    z 0.034300 -0.019800 2.083470 
# 
# From -- ./inp_files/455780.got.cif
#   From: 2010.05.17/outbox.cif.g08.bks.cpg/sg2_228_cif.got.tgz:455780.got - 2010.06.03 11:33:40.
