data_PCOD9021109
_publ_section_title
;
Structure prediction by ZEFSAII (Michael W. Deem and Ramdas Pophale) SiO2 
 PCOD9021109
Probable space group: P -1
;
_chemical_formula_sum "Si O2"
_cell_formula_units_Z 16
_cell_length_a 9.266506
_cell_length_b 16.616874
_cell_length_c 8.508730
_cell_angle_alpha 85.358236
_cell_angle_beta 65.984137
_cell_angle_gamma 137.668934
_cell_volume 631.879887
_symmetry_space_group_name_H-M "P -1"
_symmetry_group_IT_number 2
_symmetry_cell_setting 'triclinic'
loop_
_space_group_symop_operation_xyz
x,y,z
-x,-y,-z
loop_
_atom_site_type_symbol
_atom_site_label
_atom_site_fract_x
_atom_site_fract_y
_atom_site_fract_z
Si Si1 0.817786 0.538343 0.035773
Si Si2 0.643513 0.340461 0.665447
Si Si3 0.749141 0.679377 0.074271
Si Si4 0.125516 0.990629 0.268593
Si Si5 0.349314 0.977732 0.922343
Si Si6 0.693721 0.311454 0.994612
Si Si7 0.960490 0.103538 0.368234
Si Si8 0.367094 0.814142 0.515518
O O1 0.064249 0.670518 0.771407
O O2 0.680627 0.394531 0.061919
O O3 0.990221 0.587793 0.111943
O O4 0.625116 0.535022 0.144573
O O5 0.469866 0.350248 0.743235
O O6 0.592380 0.276553 0.866294
O O7 0.565509 0.247532 0.570959
O O8 0.000000 0.500000 0.500000
O O9 0.076237 0.812687 0.988774
O O10 0.832672 0.751986 0.855425
O O11 0.004384 0.028142 0.316738
O O12 0.971742 0.864389 0.481588
O O13 0.445657 0.142109 0.189019
O O14 0.162871 0.970202 0.085016
O O15 0.603119 0.119939 0.668395
O O16 0.500000 0.000000 0.000000
O O17 0.622370 0.967499 0.480959
#
# Coordination Sequence:
#
# PCOD9021109 Si02
#       8
#     2   2   2   2   2   2   2   2
#     4  11  25  42  68  96 136 181 225 279 327 403
#     4  12  24  45  70  95 130 182 229 277 335 402
#     4  11  25  44  66 103 137 172 228 282 339 396
#     4  11  20  39  63 100 129 174 222 266 340 403
#     4  11  24  38  66  98 144 172 212 286 345 397
#     4  11  22  44  68  92 137 184 225 271 334 402
#     4  10  22  37  67  97 131 169 217 284 330 404
#     4  11  22  39  66  95 131 178 225 265 343 404
#
# _framework density 25.321266000000001
#
# number of rings (size 3 to 8) (size 9 to 14) (size 15 to 20)
#    0.000    1.000    5.000    1.500    1.750    3.500 
#    0.000    0.625    0.000    0.000    0.000    0.000 
#    0.000    0.000    0.000    0.000    0.000    0.000 
#
# Total GULP energy -89370.820713 kJ/mol
# GULP energy per Si atom -5585.676295 kJ/mol
# Density = 2.526363 g / cm^3
# Si number density = 25.321266 Si / 1000 Ang^3
#
#
#
# Elastic Constant Matrix: (Units=GPa)
#
#
# Indices 1 2 3 4 5 6 
#
# 1 114.2434 21.8621 12.3316 11.2971 3.8401 -19.1317
# 2 21.8621 95.5210 2.4998 7.4868 -10.1628 -18.9546
# 3 12.3316 2.4998 52.6974 5.5343 -4.9731 -8.0158
# 4 11.2971 7.4868 5.5343 30.2073 -0.1600 -9.2394
# 5 3.8401 -10.1628 -4.9731 -0.1600 32.3158 2.5607
# 6 -19.1317 -18.9546 -8.0158 -9.2394 2.5607 45.7596
#
#
#
# Elastic Compliance Matrix: (Units=1/GPa)
#
#
# Indices 1 2 3 4 5 6 
#
# 1 0.010051 -0.001761 -0.001825 -0.002128 -0.002266 0.002850
# 2 -0.001761 0.012149 0.000941 -0.001285 0.003853 0.003986
# 3 -0.001825 0.000941 0.020323 -0.002494 0.003431 0.002491
# 4 -0.002128 -0.001285 -0.002494 0.036362 -0.000793 0.005527
# 5 -0.002266 0.003853 0.003431 -0.000793 0.033009 -0.000758
# 6 0.002850 0.003986 0.002491 0.005527 -0.000758 0.026291
#
#
# Mechanical properties :
#
#
# Convention : Reuss Voigt Hill
#
# Bulk Modulus (GPa) = 26.85896 37.31653 32.08775
# Shear Modulus (GPa) = 32.07424 36.70778 34.39101
#
# Velocity S-wave (km/s) = 3.56292 3.81160 3.68936
# Velocity P-wave (km/s) = 5.24940 5.84297 5.55412
#
# Compressibility (1/GPa) = 0.03723152
#
# Stress axis : x y z
#
# Youngs Moduli (GPa) = 99.49038 82.31198 49.20454
#
# Poissons Ratio (x) = 0.14498 0.08981
# Poissons Ratio (y) = 0.17524 -0.04628
# Poissons Ratio (z) = 0.18160 -0.07743
#
# Static dielectric constant tensor:
#      x y z
#    x 2.070430 -0.006760 -0.032090 
#    y -0.006760 1.977050 -0.071060 
#    z -0.032090 -0.071060 2.377840 
# 
# From -- ./inp_files/206875.got.cif
#   From: 2010.05.17/outbox.cif.g08.bks.cpg/sg2_104_cif.got.tgz:206875.got - 2010.06.03 11:33:40.
