data_PCOD9021143
_publ_section_title
;
Structure prediction by ZEFSAII (Michael W. Deem and Ramdas Pophale) SiO2 
 PCOD9021143
Probable space group: P -1
;
_chemical_formula_sum "Si O2"
_cell_formula_units_Z 16
_cell_length_a 9.756170
_cell_length_b 16.722709
_cell_length_c 26.685108
_cell_angle_alpha 24.748791
_cell_angle_beta 135.292101
_cell_angle_gamma 151.264588
_cell_volume 793.033377
_symmetry_space_group_name_H-M "P -1"
_symmetry_group_IT_number 2
_symmetry_cell_setting 'triclinic'
loop_
_space_group_symop_operation_xyz
x,y,z
-x,-y,-z
loop_
_atom_site_type_symbol
_atom_site_label
_atom_site_fract_x
_atom_site_fract_y
_atom_site_fract_z
Si Si1 0.495870 0.729047 0.901474
Si Si2 0.640051 0.261226 0.032402
Si Si3 0.202039 0.630070 0.228496
Si Si4 0.813065 0.366420 0.373477
Si Si5 0.036974 0.392034 0.618209
Si Si6 0.305725 0.330864 0.366506
Si Si7 0.917858 0.708276 0.037716
Si Si8 0.440944 0.404783 0.819120
O O1 0.505871 0.852381 0.885438
O O2 0.155504 0.446465 0.947133
O O3 0.614166 0.611065 0.016660
O O4 0.749642 0.021790 0.763339
O O5 0.492084 0.985341 0.116640
O O6 0.562421 0.395118 0.905888
O O7 0.000000 0.500000 0.000000
O O8 0.319760 0.544845 0.275381
O O9 0.031478 0.453136 0.337062
O O10 0.963374 0.574605 0.165072
O O11 0.947768 0.471151 0.404960
O O12 0.732583 0.529917 0.250192
O O13 0.500000 0.000000 0.500000
O O14 0.370956 0.538746 0.616688
O O15 0.000000 0.500000 0.500000
O O16 0.289214 0.343619 0.294800
O O17 0.000000 0.000000 0.500000
O O18 0.202269 0.075342 0.915113
#
# Coordination Sequence:
#
# PCOD9021143 Si02
#       8
#     2   2   2   2   2   2   2   2
#     4  11  22  42  63 101 130 168 219 270 329 392
#     4  11  25  39  65  96 136 167 211 276 335 383
#     4  11  23  41  67  96 128 170 215 271 333 387
#     4  11  22  43  67  91 124 173 223 260 321 393
#     4  11  25  46  68  95 132 175 223 271 317 393
#     4  11  25  44  68  95 131 174 225 269 320 392
#     4  10  22  37  71  90 128 167 215 267 331 390
#     4  10  22  45  64  94 129 173 219 264 325 400
#
# _framework density 20.175695000000001
#
# number of rings (size 3 to 8) (size 9 to 14) (size 15 to 20)
#    0.000    1.250    3.750    2.250    7.000    3.000 
#    2.250    0.625    0.000    0.000    0.000    0.000 
#    0.000    0.000    0.000    0.000    0.000    0.000 
#
# Total GULP energy -89283.340981 kJ/mol
# GULP energy per Si atom -5580.208811 kJ/mol
# Density = 2.012977 g / cm^3
# Si number density = 20.175695 Si / 1000 Ang^3
#
#
#
# Elastic Constant Matrix: (Units=GPa)
#
#
# Indices 1 2 3 4 5 6 
#
# 1 87.1122 18.2412 19.5228 10.6314 -10.6092 -6.1973
# 2 18.2412 122.6405 42.2306 14.3730 -5.9052 -11.9099
# 3 19.5228 42.2306 75.6485 10.8165 -10.3106 1.8882
# 4 10.6314 14.3730 10.8165 32.5790 -4.4140 -2.9612
# 5 -10.6092 -5.9052 -10.3106 -4.4140 32.2988 -7.7348
# 6 -6.1973 -11.9099 1.8882 -2.9612 -7.7348 23.6344
#
#
#
# Elastic Compliance Matrix: (Units=1/GPa)
#
#
# Indices 1 2 3 4 5 6 
#
# 1 0.013228 -0.000157 -0.002513 -0.002402 0.004312 0.004700
# 2 -0.000157 0.011098 -0.005821 -0.002176 0.001299 0.006169
# 3 -0.002513 -0.005821 0.017936 -0.002661 0.002375 -0.004581
# 4 -0.002402 -0.002176 -0.002661 0.034164 0.003575 0.003937
# 5 0.004312 0.001299 0.002375 0.003575 0.037272 0.014242
# 6 0.004700 0.006169 -0.004581 0.003937 0.014242 0.052173
#
#
# Mechanical properties :
#
#
# Convention : Reuss Voigt Hill
#
# Bulk Modulus (GPa) = 39.55458 49.48781 44.52120
# Shear Modulus (GPa) = 26.13992 31.39623 28.76807
#
# Velocity S-wave (km/s) = 3.60337 3.94907 3.78018
# Velocity P-wave (km/s) = 6.07947 6.73612 6.41620
#
# Compressibility (1/GPa) = 0.02528152
#
# Stress axis : x y z
#
# Youngs Moduli (GPa) = 75.59718 90.10386 55.75514
#
# Poissons Ratio (x) = 0.01412 0.14009
# Poissons Ratio (y) = 0.01185 0.32455
# Poissons Ratio (z) = 0.18994 0.52449
#
# Static dielectric constant tensor:
#      x y z
#    x 1.722030 -0.046570 -0.016000 
#    y -0.046570 1.692140 -0.035910 
#    z -0.016000 -0.035910 1.733320 
# 
# From -- ./inp_files/216651.got.cif
#   From: 2010.05.17/outbox.cif.g08.bks.cpg/sg2_109_cif.got.tgz:216651.got - 2010.06.03 11:33:40.
