data_PCOD9021707
_publ_section_title
;
Structure prediction by ZEFSAII (Michael W. Deem and Ramdas Pophale) SiO2 
 PCOD9021707
Probable space group: P -1
;
_chemical_formula_sum "Si O2"
_cell_formula_units_Z 14
_cell_length_a 6.260129
_cell_length_b 12.589039
_cell_length_c 15.364614
_cell_angle_alpha 44.020084
_cell_angle_beta 61.792442
_cell_angle_gamma 48.094737
_cell_volume 626.178594
_symmetry_space_group_name_H-M "P -1"
_symmetry_group_IT_number 2
_symmetry_cell_setting 'triclinic'
loop_
_space_group_symop_operation_xyz
x,y,z
-x,-y,-z
loop_
_atom_site_type_symbol
_atom_site_label
_atom_site_fract_x
_atom_site_fract_y
_atom_site_fract_z
Si Si1 0.015367 0.648482 0.292979
Si Si2 0.908543 0.906453 0.504340
Si Si3 0.148633 0.681072 0.909556
Si Si4 0.832654 0.369584 0.527359
Si Si5 0.370416 0.660039 0.060730
Si Si6 0.491576 0.964034 0.820517
Si Si7 0.475428 0.159549 0.301235
O O1 0.101726 0.673388 0.358521
O O2 0.249641 0.628512 0.190786
O O3 0.989600 0.473513 0.405942
O O4 0.703974 0.831951 0.226897
O O5 0.846826 0.772361 0.649835
O O6 0.090135 0.798098 0.450176
O O7 0.637090 0.073473 0.410701
O O8 0.000000 0.000000 0.500000
O O9 0.297176 0.493850 0.937108
O O10 0.393337 0.726779 0.819828
O O11 0.832047 0.842004 0.848435
O O12 0.169546 0.659330 0.022490
O O13 0.500000 0.500000 0.500000
O O14 0.359779 0.848016 0.949193
O O15 0.467892 0.969279 0.716440
#
# Coordination Sequence:
#
# PCOD9021707 Si02
#       7
#     2   2   2   2   2   2   2
#     4  11  25  45  67  96 146 175 226 277 346 409
#     4  11  23  40  66  96 129 178 231 279 335 394
#     4  10  22  40  66  99 136 175 225 277 340 403
#     4  11  27  43  68  97 137 183 226 278 345 405
#     4  10  23  42  65  99 137 175 223 281 336 412
#     4  11  22  40  70  99 134 178 222 280 338 411
#     4  10  22  38  64  94 132 167 227 275 336 390
#
# _framework density 22.357838999999998
#
# number of rings (size 3 to 8) (size 9 to 14) (size 15 to 20)
#    0.000    1.429    1.429    2.571    4.000    5.143 
#    0.000    0.000    0.000    0.000    0.000    0.000 
#    0.000    0.000    0.000    0.000    0.000    0.000 
#
# Total GULP energy -78070.800577 kJ/mol
# GULP energy per Si atom -5576.485756 kJ/mol
# Density = 2.230695 g / cm^3
# Si number density = 22.357839 Si / 1000 Ang^3
#
#
#
# Elastic Constant Matrix: (Units=GPa)
#
#
# Indices 1 2 3 4 5 6 
#
# 1 93.1041 49.3818 39.2171 10.9814 22.2080 2.1211
# 2 49.3818 86.0097 38.4712 11.3026 11.6522 16.7208
# 3 39.2171 38.4712 102.4006 31.9903 4.3324 3.9140
# 4 10.9814 11.3026 31.9903 36.9939 -8.3552 5.4095
# 5 22.2080 11.6522 4.3324 -8.3552 25.9628 -1.3218
# 6 2.1211 16.7208 3.9140 5.4095 -1.3218 29.6642
#
#
#
# Elastic Compliance Matrix: (Units=1/GPa)
#
#
# Indices 1 2 3 4 5 6 
#
# 1 0.020413 -0.008769 -0.002457 -0.005144 -0.014563 0.004096
# 2 -0.008769 0.020690 -0.004389 0.001390 -0.001153 -0.010761
# 3 -0.002457 -0.004389 0.016504 -0.013238 -0.002802 0.002761
# 4 -0.005144 0.001390 -0.013238 0.045010 0.020165 -0.005978
# 5 -0.014563 -0.001153 -0.002802 0.020165 0.058498 0.000990
# 6 0.004096 -0.010761 0.002761 -0.005978 0.000990 0.040253
#
#
# Mechanical properties :
#
#
# Convention : Reuss Voigt Hill
#
# Bulk Modulus (GPa) = 37.91059 59.51717 48.71388
# Shear Modulus (GPa) = 20.71329 28.82048 24.76688
#
# Velocity S-wave (km/s) = 3.04706 3.59424 3.33190
# Velocity P-wave (km/s) = 5.41964 6.62592 6.05290
#
# Compressibility (1/GPa) = 0.02637785
#
# Stress axis : x y z
#
# Youngs Moduli (GPa) = 48.98732 48.33303 60.59091
#
# Poissons Ratio (x) = 0.42382 0.14887
# Poissons Ratio (y) = 0.42956 0.26593
# Poissons Ratio (z) = 0.12036 0.21213
#
# Static dielectric constant tensor:
#      x y z
#    x 1.877970 -0.006210 -0.095630 
#    y -0.006210 1.856790 0.019240 
#    z -0.095630 0.019240 1.963620 
# 
# From -- ./inp_files/77477.got.cif
#   From: 2010.05.17/outbox.cif.g08.bks.cpg/sg2_39_cif.got.tgz:77477.got - 2010.06.03 11:33:40.
