data_PCOD9021007
_publ_section_title
;
Structure prediction by ZEFSAII (Michael W. Deem and Ramdas Pophale) SiO2 
 PCOD9021007
Probable space group: P -1
;
_chemical_formula_sum "Si O2"
_cell_formula_units_Z 14
_cell_length_a 12.224677
_cell_length_b 8.415908
_cell_length_c 9.560222
_cell_angle_alpha 82.435642
_cell_angle_beta 77.311344
_cell_angle_gamma 50.809361
_cell_volume 743.665021
_symmetry_space_group_name_H-M "P -1"
_symmetry_group_IT_number 2
_symmetry_cell_setting 'triclinic'
loop_
_space_group_symop_operation_xyz
x,y,z
-x,-y,-z
loop_
_atom_site_type_symbol
_atom_site_label
_atom_site_fract_x
_atom_site_fract_y
_atom_site_fract_z
Si Si1 0.068949 0.807886 0.903141
Si Si2 0.152602 0.453374 0.613669
Si Si3 0.659430 0.226539 0.617767
Si Si4 0.823474 0.751859 0.639799
Si Si5 0.969270 0.377772 0.817092
Si Si6 0.936232 0.096665 0.661129
Si Si7 0.330525 0.584376 0.680598
O O1 0.232771 0.700056 0.830052
O O2 0.051021 0.663922 0.014898
O O3 0.984229 0.907456 0.770650
O O4 0.000000 0.000000 0.000000
O O5 0.220938 0.304701 0.479550
O O6 0.251048 0.505619 0.637173
O O7 0.992616 0.649148 0.583830
O O8 0.110502 0.359056 0.752986
O O9 0.765904 0.248550 0.669395
O O10 0.494755 0.395678 0.684041
O O11 0.673955 0.264818 0.445829
O O12 0.723137 0.993981 0.654131
O O13 0.839997 0.609667 0.777100
O O14 0.977287 0.220073 0.723213
O O15 0.000000 0.000000 0.500000
#
# Coordination Sequence:
#
# PCOD9021007 Si02
#       7
#     2   2   2   2   2   2   2
#     4  10  22  37  64  88 116 151 196 247 291 340
#     4   9  19  35  61  86 115 153 194 249 279 345
#     4  11  23  36  59  88 117 155 196 243 290 344
#     4   9  19  34  59  88 115 149 195 242 288 337
#     4   9  20  37  58  91 115 145 196 248 290 331
#     4  11  19  36  67  87 111 153 207 240 278 341
#     4  11  23  38  56  87 122 151 195 244 293 348
#
# _framework density 18.825679999999998
#
# number of rings (size 3 to 8) (size 9 to 14) (size 15 to 20)
#    0.857    1.143    1.429    2.571    2.000    1.143 
#    0.000    3.571    0.000    0.000    0.000    0.000 
#    0.000    0.000    0.000    0.000    0.000    0.000 
#
# Total GULP energy -77974.601772 kJ/mol
# GULP energy per Si atom -5569.614412 kJ/mol
# Density = 1.878283 g / cm^3
# Si number density = 18.825680 Si / 1000 Ang^3
#
#
#
# Elastic Constant Matrix: (Units=GPa)
#
#
# Indices 1 2 3 4 5 6 
#
# 1 78.0108 37.6716 25.8870 6.6878 -1.7818 -12.2061
# 2 37.6716 104.3218 43.5856 -17.6275 -12.0047 -2.6843
# 3 25.8870 43.5856 117.7218 -20.9393 -16.9313 -0.5020
# 4 6.6878 -17.6275 -20.9393 37.5895 10.8515 -3.4583
# 5 -1.7818 -12.0047 -16.9313 10.8515 28.0572 3.7101
# 6 -12.2061 -2.6843 -0.5020 -3.4583 3.7101 34.6842
#
#
#
# Elastic Compliance Matrix: (Units=1/GPa)
#
#
# Indices 1 2 3 4 5 6 
#
# 1 0.018463 -0.006627 -0.003070 -0.007191 -0.001446 0.005378
# 2 -0.006627 0.014205 -0.002483 0.005784 0.002042 -0.000911
# 3 -0.003070 -0.002483 0.011469 0.004495 0.004070 -0.001094
# 4 -0.007191 0.005784 0.004495 0.036104 -0.009577 0.002606
# 5 -0.001446 0.002042 0.004070 -0.009577 0.043362 -0.005885
# 6 0.005378 -0.000911 -0.001094 0.002606 -0.005885 0.031527
#
#
# Mechanical properties :
#
#
# Convention : Reuss Voigt Hill
#
# Bulk Modulus (GPa) = 50.56794 57.14918 53.85856
# Shear Modulus (GPa) = 26.86949 32.92687 29.89818
#
# Velocity S-wave (km/s) = 3.78203 4.18669 3.98950
# Velocity P-wave (km/s) = 6.78168 7.33445 7.06347
#
# Compressibility (1/GPa) = 0.01977538
#
# Stress axis : x y z
#
# Youngs Moduli (GPa) = 54.16268 70.39559 87.18780
#
# Poissons Ratio (x) = 0.46654 0.26769
# Poissons Ratio (y) = 0.35896 0.21653
# Poissons Ratio (z) = 0.16630 0.17483
#
# Static dielectric constant tensor:
#      x y z
#    x 1.677350 0.045240 -0.011050 
#    y 0.045240 1.697260 -0.023770 
#    z -0.011050 -0.023770 1.700580 
# 
# From -- ./inp_files/243938.got.cif
#   From: 2010.05.17/outbox.cif.g08.bks.cpg/sg2_122_cif.got.tgz:243938.got - 2010.06.03 11:33:40.
