data_PCOD9021596
_publ_section_title
;
Structure prediction by ZEFSAII (Michael W. Deem and Ramdas Pophale) SiO2 
 PCOD9021596
Probable space group: P -1
;
_chemical_formula_sum "Si O2"
_cell_formula_units_Z 16
_cell_length_a 13.206812
_cell_length_b 9.033489
_cell_length_c 11.772386
_cell_angle_alpha 129.488032
_cell_angle_beta 128.775534
_cell_angle_gamma 81.143658
_cell_volume 772.239044
_symmetry_space_group_name_H-M "P -1"
_symmetry_group_IT_number 2
_symmetry_cell_setting 'triclinic'
loop_
_space_group_symop_operation_xyz
x,y,z
-x,-y,-z
loop_
_atom_site_type_symbol
_atom_site_label
_atom_site_fract_x
_atom_site_fract_y
_atom_site_fract_z
Si Si1 0.375070 0.598523 0.341392
Si Si2 0.336593 0.011776 0.503936
Si Si3 0.689269 0.667148 0.627319
Si Si4 0.628859 0.408262 0.912982
Si Si5 0.786659 0.849881 0.307248
Si Si6 0.786951 0.127017 0.901568
Si Si7 0.060599 0.343703 0.329561
Si Si8 0.946869 0.206349 0.430909
O O1 0.400530 0.840203 0.490982
O O2 0.523880 0.573900 0.433834
O O3 0.287364 0.468259 0.321469
O O4 0.305164 0.528220 0.135831
O O5 0.256561 0.935657 0.290810
O O6 0.469196 0.236667 0.698827
O O7 0.237767 0.023789 0.542102
O O8 0.790980 0.670068 0.597346
O O9 0.727681 0.902603 0.811302
O O10 0.713745 0.280854 0.965420
O O11 0.652465 0.627008 0.093013
O O12 0.916874 0.786180 0.398138
O O13 0.822863 0.997270 0.293093
O O14 0.952684 0.237892 0.098995
O O15 0.988564 0.221358 0.334642
O O16 0.081651 0.585241 0.469084
#
# Coordination Sequence:
#
# PCOD9021596 Si02
#       8
#     2   2   2   2   2   2   2   2
#     4  10  22  38  63  93 128 155 204 263 298 362
#     4  11  21  42  65  91 126 161 206 258 304 366
#     4  11  21  38  63  91 127 161 203 249 315 358
#     4  11  21  41  63  90 126 165 205 253 307 365
#     4  11  23  41  65  91 121 169 207 250 310 361
#     4  11  21  40  64  92 122 164 207 252 308 363
#     4  11  23  42  65  91 124 170 200 253 315 368
#     4  10  24  43  61  88 134 156 209 259 299 370
#
# _framework density 20.718973999999999
#
# number of rings (size 3 to 8) (size 9 to 14) (size 15 to 20)
#    0.000    1.250    3.750    3.000    1.750    0.000 
#    2.250    1.875    0.000    3.000    0.000    0.000 
#    0.000    0.000    0.000    0.000    0.000    0.000 
#
# Total GULP energy -89305.283178 kJ/mol
# GULP energy per Si atom -5581.580199 kJ/mol
# Density = 2.067182 g / cm^3
# Si number density = 20.718974 Si / 1000 Ang^3
#
#
#
# Elastic Constant Matrix: (Units=GPa)
#
#
# Indices 1 2 3 4 5 6 
#
# 1 69.6945 27.5503 16.1230 6.9771 -2.2087 4.0402
# 2 27.5503 117.6489 30.8692 13.6450 -3.3058 13.9869
# 3 16.1230 30.8692 74.7027 13.7042 -5.2219 5.9456
# 4 6.9771 13.6450 13.7042 13.8565 -2.3192 8.9606
# 5 -2.2087 -3.3058 -5.2219 -2.3192 19.0877 0.6304
# 6 4.0402 13.9869 5.9456 8.9606 0.6304 26.4433
#
#
#
# Elastic Compliance Matrix: (Units=1/GPa)
#
#
# Indices 1 2 3 4 5 6 
#
# 1 0.016278 -0.003013 -0.001539 -0.004201 0.000402 0.000866
# 2 -0.003013 0.010815 -0.002754 -0.004281 0.000357 -0.003199
# 3 -0.001539 -0.002754 0.017612 -0.015450 0.002190 0.002915
# 4 -0.004201 -0.004281 -0.015450 0.117127 0.009885 -0.033545
# 5 0.000402 0.000357 0.002190 0.009885 0.054476 -0.005390
# 6 0.000866 -0.003199 0.002915 -0.033545 -0.005390 0.050216
#
#
# Mechanical properties :
#
#
# Convention : Reuss Voigt Hill
#
# Bulk Modulus (GPa) = 33.22858 45.68125 39.45491
# Shear Modulus (GPa) = 17.17235 24.37775 20.77505
#
# Velocity S-wave (km/s) = 2.88205 3.43387 3.16999
# Velocity P-wave (km/s) = 5.21033 6.14962 5.69936
#
# Compressibility (1/GPa) = 0.03009457
#
# Stress axis : x y z
#
# Youngs Moduli (GPa) = 61.43156 92.46636 56.77993
#
# Poissons Ratio (x) = 0.27858 0.08736
# Poissons Ratio (y) = 0.18508 0.15637
# Poissons Ratio (z) = 0.09452 0.25464
#
# Static dielectric constant tensor:
#      x y z
#    x 1.738590 0.013890 0.002280 
#    y 0.013890 1.767110 -0.001620 
#    z 0.002280 -0.001620 1.743900 
# 
# From -- ./inp_files/199509.got.cif
#   From: 2010.05.17/outbox.cif.g08.bks.cpg/sg2_100_cif.got.tgz:199509.got - 2010.06.03 11:33:40.
