data_PCOD9021852
_publ_section_title
;
Structure prediction by ZEFSAII (Michael W. Deem and Ramdas Pophale) SiO2 
 PCOD9021852
Probable space group: P -1
;
_chemical_formula_sum "Si O2"
_cell_formula_units_Z 16
_cell_length_a 14.076416
_cell_length_b 16.862020
_cell_length_c 25.313823
_cell_angle_alpha 159.723476
_cell_angle_beta 159.288237
_cell_angle_gamma 30.878986
_cell_volume 727.364520
_symmetry_space_group_name_H-M "P -1"
_symmetry_group_IT_number 2
_symmetry_cell_setting 'triclinic'
loop_
_space_group_symop_operation_xyz
x,y,z
-x,-y,-z
loop_
_atom_site_type_symbol
_atom_site_label
_atom_site_fract_x
_atom_site_fract_y
_atom_site_fract_z
Si Si1 0.082096 0.797916 0.626988
Si Si2 0.445660 0.978762 0.521158
Si Si3 0.232147 0.611284 0.852123
Si Si4 0.870060 0.438496 0.650837
Si Si5 0.287522 0.493853 0.118682
Si Si6 0.637055 0.904734 0.822887
Si Si7 0.769780 0.437701 0.992610
Si Si8 0.383576 0.935252 0.973216
O O1 0.946321 0.536529 0.379226
O O2 0.381874 0.856162 0.793541
O O3 0.146353 0.869760 0.765968
O O4 0.855941 0.950619 0.583866
O O5 0.466174 0.714781 0.377428
O O6 0.500000 0.000000 0.500000
O O7 0.660401 0.168942 0.779958
O O8 0.539098 0.574156 0.979341
O O9 0.117519 0.483025 0.765934
O O10 0.253235 0.887345 0.029692
O O11 0.728763 0.662493 0.703565
O O12 0.687115 0.186939 0.395393
O O13 0.960119 0.475214 0.781121
O O14 0.229585 0.532350 0.050914
O O15 0.444768 0.277417 0.068663
O O16 0.000000 0.500000 0.000000
O O17 0.723883 0.000870 0.986261
#
# Coordination Sequence:
#
# PCOD9021852 Si02
#       8
#     2   2   2   2   2   2   2   2
#     4  10  22  38  66  91 128 168 204 256 335 373
#     4   9  20  37  57  87 127 159 202 252 308 381
#     4  11  22  46  65  96 129 166 217 266 314 382
#     4  11  25  45  66  91 129 173 214 270 310 375
#     4  11  21  39  61  96 130 160 210 264 315 387
#     4  11  25  43  66  90 131 165 221 264 318 375
#     4  10  23  41  65  92 126 171 210 260 325 373
#     4  11  22  40  63  93 127 169 203 269 320 376
#
# _framework density 21.997223000000002
#
# number of rings (size 3 to 8) (size 9 to 14) (size 15 to 20)
#    0.000    1.500    3.750    0.750    3.500    2.000 
#    2.250    0.000    0.000    0.000    0.000    0.000 
#    0.000    0.000    0.000    0.000    0.000    0.000 
#
# Total GULP energy -89239.650310 kJ/mol
# GULP energy per Si atom -5577.478144 kJ/mol
# Density = 2.194716 g / cm^3
# Si number density = 21.997223 Si / 1000 Ang^3
#
#
#
# Elastic Constant Matrix: (Units=GPa)
#
#
# Indices 1 2 3 4 5 6 
#
# 1 49.4329 3.0400 -9.5498 -4.6401 6.0572 -3.4050
# 2 3.0400 37.9497 33.8951 10.4988 5.6467 -2.4393
# 3 -9.5498 33.8951 100.4884 16.1702 -9.3095 21.4736
# 4 -4.6401 10.4988 16.1702 27.9086 2.7463 -3.2889
# 5 6.0572 5.6467 -9.3095 2.7463 29.8135 -4.9116
# 6 -3.4050 -2.4393 21.4736 -3.2889 -4.9116 27.0177
#
#
#
# Elastic Compliance Matrix: (Units=1/GPa)
#
#
# Indices 1 2 3 4 5 6 
#
# 1 0.021834 -0.004930 0.002772 0.004183 -0.003011 0.000065
# 2 -0.004930 0.050406 -0.022016 -0.003630 -0.011987 0.018807
# 3 0.002772 -0.022016 0.024137 -0.008478 0.008581 -0.020294
# 4 0.004183 -0.003630 -0.008478 0.044650 -0.005035 0.011458
# 5 -0.003011 -0.011987 0.008581 -0.005035 0.039278 -0.001755
# 6 0.000065 0.018807 -0.020294 0.011458 -0.001755 0.055924
#
#
# Mechanical properties :
#
#
# Convention : Reuss Voigt Hill
#
# Bulk Modulus (GPa) = 20.82053 26.96016 23.89035
# Shear Modulus (GPa) = 16.63415 27.64702 22.14058
#
# Velocity S-wave (km/s) = 2.75288 3.54904 3.17601
# Velocity P-wave (km/s) = 4.42607 5.39231 4.93291
#
# Compressibility (1/GPa) = 0.04802952
#
# Stress axis : x y z
#
# Youngs Moduli (GPa) = 45.79969 19.83895 41.43067
#
# Poissons Ratio (x) = 0.09780 -0.11483
# Poissons Ratio (y) = 0.22577 0.91213
# Poissons Ratio (z) = -0.12694 0.43677
#
# Static dielectric constant tensor:
#      x y z
#    x 1.837550 0.006820 0.028950 
#    y 0.006820 1.881070 -0.006340 
#    z 0.028950 -0.006340 1.896240 
# 
# From -- ./inp_files/284726.got.cif
#   From: 2010.05.17/outbox.cif.g08.bks.cpg/sg2_143_cif.got.tgz:284726.got - 2010.06.03 11:33:40.
