data_PCOD9021371
_publ_section_title
;
Structure prediction by ZEFSAII (Michael W. Deem and Ramdas Pophale) SiO2 
 PCOD9021371
Probable space group: P -1
;
_chemical_formula_sum "Si O2"
_cell_formula_units_Z 15
_cell_length_a 6.695229
_cell_length_b 9.165024
_cell_length_c 11.579657
_cell_angle_alpha 86.589745
_cell_angle_beta 97.896277
_cell_angle_gamma 70.901456
_cell_volume 660.920385
_symmetry_space_group_name_H-M "P -1"
_symmetry_group_IT_number 2
_symmetry_cell_setting 'triclinic'
loop_
_space_group_symop_operation_xyz
x,y,z
-x,-y,-z
loop_
_atom_site_type_symbol
_atom_site_label
_atom_site_fract_x
_atom_site_fract_y
_atom_site_fract_z
Si Si1 0.657331 0.141992 0.809807
Si Si2 0.819026 0.136076 0.411110
Si Si3 0.175902 0.717534 0.372464
Si Si4 0.345012 0.677638 0.965639
Si Si5 0.449731 0.158622 0.214641
Si Si6 0.500000 0.500000 0.500000
Si Si7 0.768777 0.635220 0.351687
Si Si8 0.009748 0.667730 0.761478
O O1 0.829331 0.152379 0.726543
O O2 0.431946 0.239583 0.729897
O O3 0.639681 0.973703 0.833003
O O4 0.691229 0.227373 0.922926
O O5 0.706884 0.264278 0.496941
O O6 0.634307 0.096408 0.330075
O O7 0.934062 0.215023 0.327653
O O8 0.000000 0.000000 0.500000
O O9 0.357227 0.556683 0.362270
O O10 0.947707 0.712829 0.387333
O O11 0.452336 0.765138 0.880883
O O12 0.124673 0.677684 0.890668
O O13 0.500000 0.500000 0.000000
O O14 0.241802 0.284088 0.246527
O O15 0.692937 0.561901 0.458666
O O16 0.879212 0.500813 0.275141
#
# Coordination Sequence:
#
# PCOD9021371 Si02
#       8
#     2   2   2   2   2   1   2   2
#     4  11  25  46  69 100 139 189 233 289 354 421
#     4  11  24  44  66 100 145 182 232 281 352 427
#     4  11  24  37  66  99 137 178 231 282 345 410
#     4  11  25  48  72 102 139 180 242 299 351 419
#     4  11  27  45  73 102 142 186 236 294 354 418
#     4  10  22  38  60  98 136 184 226 282 340 410
#     4  11  23  41  68 102 143 184 235 286 351 419
#     4  11  25  42  70 106 135 184 233 296 354 413
#
# _framework density 22.695623000000001
#
# number of rings (size 3 to 8) (size 9 to 14) (size 15 to 20)
#    0.000    1.067    2.667    2.400    3.733    6.400 
#    0.000    0.000    0.000    0.000    0.000    0.000 
#    0.000    0.000    0.000    0.000    0.000    0.000 
#
# Total GULP energy -83727.431021 kJ/mol
# GULP energy per Si atom -5581.828735 kJ/mol
# Density = 2.264397 g / cm^3
# Si number density = 22.695623 Si / 1000 Ang^3
#
#
#
# Elastic Constant Matrix: (Units=GPa)
#
#
# Indices 1 2 3 4 5 6 
#
# 1 109.7317 17.4987 30.4737 -2.2468 -4.1183 9.8199
# 2 17.4987 102.4455 33.0278 3.6276 0.9790 14.5629
# 3 30.4737 33.0278 107.3537 9.2962 7.3628 16.6581
# 4 -2.2468 3.6276 9.2962 36.7776 -2.0736 7.9137
# 5 -4.1183 0.9790 7.3628 -2.0736 30.6619 -3.1408
# 6 9.8199 14.5629 16.6581 7.9137 -3.1408 27.5550
#
#
#
# Elastic Compliance Matrix: (Units=1/GPa)
#
#
# Indices 1 2 3 4 5 6 
#
# 1 0.010262 -0.000688 -0.002694 0.001915 0.001973 -0.001990
# 2 -0.000688 0.011329 -0.002645 0.000419 -0.000230 -0.004290
# 3 -0.002694 -0.002645 0.012080 -0.002147 -0.003811 -0.004763
# 4 0.001915 0.000419 -0.002147 0.029617 0.001954 -0.007889
# 5 0.001973 -0.000230 -0.003811 0.001954 0.034455 0.005088
# 6 -0.001990 -0.004290 -0.004763 -0.007889 0.005088 0.044992
#
#
# Mechanical properties :
#
#
# Convention : Reuss Voigt Hill
#
# Bulk Modulus (GPa) = 46.25958 53.50350 49.88154
# Shear Modulus (GPa) = 30.86549 34.90095 32.88322
#
# Velocity S-wave (km/s) = 3.69178 3.92571 3.81054
# Velocity P-wave (km/s) = 6.21283 6.64634 6.43324
#
# Compressibility (1/GPa) = 0.02161714
#
# Stress axis : x y z
#
# Youngs Moduli (GPa) = 97.44386 88.27163 82.78377
#
# Poissons Ratio (x) = 0.06075 0.22299
# Poissons Ratio (y) = 0.06706 0.21895
# Poissons Ratio (z) = 0.26248 0.23346
#
# Static dielectric constant tensor:
#      x y z
#    x 1.718500 0.175390 0.039280 
#    y 0.175390 1.602090 -0.008450 
#    z 0.039280 -0.008450 1.818870 
# 
# From -- ./inp_files/262707.got.cif
#   From: 2010.05.17/outbox.cif.g08.bks.cpg/sg2_132_cif.got.tgz:262707.got - 2010.06.03 11:33:40.
