data_PCOD9021073
_publ_section_title
;
Structure prediction by ZEFSAII (Michael W. Deem and Ramdas Pophale) SiO2 
 PCOD9021073
Probable space group: P -1
;
_chemical_formula_sum "Si O2"
_cell_formula_units_Z 16
_cell_length_a 12.945658
_cell_length_b 12.513428
_cell_length_c 5.301933
_cell_angle_alpha 73.510041
_cell_angle_beta 104.819416
_cell_angle_gamma 116.343797
_cell_volume 729.558862
_symmetry_space_group_name_H-M "P -1"
_symmetry_group_IT_number 2
_symmetry_cell_setting 'triclinic'
loop_
_space_group_symop_operation_xyz
x,y,z
-x,-y,-z
loop_
_atom_site_type_symbol
_atom_site_label
_atom_site_fract_x
_atom_site_fract_y
_atom_site_fract_z
Si Si1 0.908580 0.924592 0.282116
Si Si2 0.711467 0.328264 0.016632
Si Si3 0.529692 0.885670 0.037174
Si Si4 0.914639 0.684133 0.294968
Si Si5 0.171175 0.714437 0.396013
Si Si6 0.758024 0.594141 0.759927
Si Si7 0.316535 0.202375 0.497502
Si Si8 0.231717 0.991257 0.201905
O O1 0.955465 0.828882 0.264325
O O2 0.776046 0.827371 0.315806
O O3 0.873296 0.019418 0.041947
O O4 0.000000 0.000000 0.500000
O O5 0.587140 0.219522 0.065066
O O6 0.775687 0.298819 0.833754
O O7 0.695925 0.450747 0.856170
O O8 0.785327 0.343383 0.307667
O O9 0.573202 0.824527 0.334938
O O10 0.642113 0.944312 0.891996
O O11 0.500000 0.000000 0.000000
O O12 0.837004 0.620493 0.536211
O O13 0.031297 0.660266 0.351102
O O14 0.841874 0.647376 0.016743
O O15 0.216463 0.859919 0.378782
O O16 0.670979 0.664504 0.662131
O O17 0.238819 0.092937 0.339903
#
# Coordination Sequence:
#
# PCOD9021073 Si02
#       8
#     2   2   2   2   2   2   2   2
#     4  10  22  37  66 105 140 178 221 280 350 415
#     4  12  28  47  68 101 135 188 240 281 336 404
#     4  11  24  45  70 100 138 179 224 296 349 398
#     4  11  24  44  71 102 143 183 221 286 347 402
#     4  12  27  42  71 105 136 180 236 279 347 414
#     4  11  25  48  70  98 143 183 232 281 335 414
#     4  10  23  41  67 101 135 181 227 278 350 408
#     4  11  23  41  70 102 139 175 228 285 351 416
#
# _framework density 21.931063000000002
#
# number of rings (size 3 to 8) (size 9 to 14) (size 15 to 20)
#    0.000    1.000    2.500    3.000    8.750    5.500 
#    0.000    0.625    0.000    0.000    0.000    0.000 
#    0.000    0.000    0.000    0.000    0.000    0.000 
#
# Total GULP energy -89282.341195 kJ/mol
# GULP energy per Si atom -5580.146325 kJ/mol
# Density = 2.188115 g / cm^3
# Si number density = 21.931063 Si / 1000 Ang^3
#
#
#
# Elastic Constant Matrix: (Units=GPa)
#
#
# Indices 1 2 3 4 5 6 
#
# 1 337.0655 48.0145 6.0302 3.8096 -44.7751 -42.2088
# 2 48.0145 84.3543 -9.3142 -28.3453 -2.3435 -19.6804
# 3 6.0302 -9.3142 85.8116 -8.0648 16.3961 -3.5916
# 4 3.8096 -28.3453 -8.0648 43.8679 -3.8118 4.0160
# 5 -44.7751 -2.3435 16.3961 -3.8118 55.6442 4.0481
# 6 -42.2088 -19.6804 -3.5916 4.0160 4.0481 29.0820
#
#
#
# Elastic Compliance Matrix: (Units=1/GPa)
#
#
# Indices 1 2 3 4 5 6 
#
# 1 0.004314 -0.002154 -0.001169 -0.002110 0.003253 0.004498
# 2 -0.002154 0.020042 0.004310 0.012892 -0.001964 0.009462
# 3 -0.001169 0.004310 0.013662 0.004726 -0.004672 0.002905
# 4 -0.002110 0.012892 0.004726 0.031961 -0.000496 0.001901
# 5 0.003253 -0.001964 -0.004672 -0.000496 0.021860 -0.000159
# 6 0.004498 0.009462 0.002905 0.001901 -0.000159 0.047435
#
#
# Mechanical properties :
#
#
# Convention : Reuss Voigt Hill
#
# Bulk Modulus (GPa) = 25.00500 66.29916 45.65208
# Shear Modulus (GPa) = 33.19411 56.55222 44.87316
#
# Velocity S-wave (km/s) = 3.89468 5.08354 4.52829
# Velocity P-wave (km/s) = 5.62593 8.04691 6.94276
#
# Compressibility (1/GPa) = 0.03999200
#
# Stress axis : x y z
#
# Youngs Moduli (GPa) = 231.82239 49.89586 73.19701
#
# Poissons Ratio (x) = 0.10746 0.08553
# Poissons Ratio (y) = 0.49929 -0.31546
# Poissons Ratio (z) = 0.27089 -0.21504
#
# Static dielectric constant tensor:
#      x y z
#    x 1.419570 0.094580 0.138830 
#    y 0.094580 1.763480 -0.089650 
#    z 0.138830 -0.089650 1.823570 
# 
# From -- ./inp_files/69378.got.cif
#   From: 2010.05.17/outbox.cif.g08.bks.cpg/sg2_35_cif.got.tgz:69378.got - 2010.06.03 11:33:40.
