data_PCOD9021375
_publ_section_title
;
Structure prediction by ZEFSAII (Michael W. Deem and Ramdas Pophale) SiO2 
 PCOD9021375
Probable space group: P -1
;
_chemical_formula_sum "Si O2"
_cell_formula_units_Z 12
_cell_length_a 16.121596
_cell_length_b 16.361471
_cell_length_c 10.704563
_cell_angle_alpha 31.585844
_cell_angle_beta 37.518221
_cell_angle_gamma 19.100933
_cell_volume 482.804016
_symmetry_space_group_name_H-M "P -1"
_symmetry_group_IT_number 2
_symmetry_cell_setting 'triclinic'
loop_
_space_group_symop_operation_xyz
x,y,z
-x,-y,-z
loop_
_atom_site_type_symbol
_atom_site_label
_atom_site_fract_x
_atom_site_fract_y
_atom_site_fract_z
Si Si1 0.748908 0.277743 0.678401
Si Si2 0.057221 0.207158 0.776081
Si Si3 0.784630 0.091151 0.542678
Si Si4 0.325544 0.116518 0.942615
Si Si5 0.639274 0.822160 0.439911
Si Si6 0.061628 0.244747 0.439727
O O1 0.450885 0.562278 0.635024
O O2 0.810990 0.376297 0.551012
O O3 0.931794 0.113524 0.551218
O O4 0.856108 0.036717 0.950270
O O5 0.137935 0.260886 0.709614
O O6 0.164104 0.124905 0.614146
O O7 0.761848 0.533311 0.682198
O O8 0.730524 0.013412 0.813421
O O9 0.774740 0.992246 0.556058
O O10 0.469156 0.032213 0.754721
O O11 0.058425 0.468539 0.809063
O O12 0.500000 0.000000 0.000000
O O13 0.500000 0.000000 0.500000
#
# Coordination Sequence:
#
# PCOD9021375 Si02
#       6
#     2   2   2   2   2   2
#     4  10  22  38  64  98 131 167 215 266 322 382
#     4  10  22  43  58  93 130 167 216 265 323 384
#     4  10  22  38  61 103 124 171 214 260 327 372
#     4  11  20  42  65  95 130 165 222 265 313 386
#     4  10  25  41  66  91 124 174 213 267 325 378
#     4   9  21  35  66  93 127 168 216 264 320 366
#
# _framework density 24.854804000000001
#
# number of rings (size 3 to 8) (size 9 to 14) (size 15 to 20)
#    1.000    1.000    1.667    1.000    4.667    0.667 
#    9.000    1.667    0.000    0.000    0.000    0.000 
#    0.000    0.000    0.000    0.000    0.000    0.000 
#
# Total GULP energy -66956.834595 kJ/mol
# GULP energy per Si atom -5579.736216 kJ/mol
# Density = 2.479823 g / cm^3
# Si number density = 24.854804 Si / 1000 Ang^3
#
#
#
# Elastic Constant Matrix: (Units=GPa)
#
#
# Indices 1 2 3 4 5 6 
#
# 1 51.9206 6.9787 -7.6526 -0.7972 22.7519 2.1181
# 2 6.9787 141.3709 62.0953 -19.1518 24.9018 18.6928
# 3 -7.6526 62.0953 163.1153 -17.4877 25.5612 8.7056
# 4 -0.7972 -19.1518 -17.4877 30.3875 5.2819 5.2739
# 5 22.7519 24.9018 25.5612 5.2819 44.1902 10.1270
# 6 2.1181 18.6928 8.7056 5.2739 10.1270 47.5231
#
#
#
# Elastic Compliance Matrix: (Units=1/GPa)
#
#
# Indices 1 2 3 4 5 6 
#
# 1 0.028050 0.000657 0.004666 0.006914 -0.018525 0.000817
# 2 0.000657 0.010196 -0.002209 0.006591 -0.004829 -0.003338
# 3 0.004666 -0.002209 0.008799 0.004990 -0.006832 -0.000049
# 4 0.006914 0.006591 0.004990 0.043541 -0.014070 -0.005648
# 5 -0.018525 -0.004829 -0.006832 -0.014070 0.041269 -0.003256
# 6 0.000817 -0.003338 -0.000049 -0.005648 -0.003256 0.023648
#
#
# Mechanical properties :
#
#
# Convention : Reuss Voigt Hill
#
# Bulk Modulus (GPa) = 18.77056 53.24996 36.01026
# Shear Modulus (GPa) = 29.93422 44.08584 37.01003
#
# Velocity S-wave (km/s) = 3.47416 4.21614 3.86301
# Velocity P-wave (km/s) = 4.86431 6.72102 5.86658
#
# Compressibility (1/GPa) = 0.05327492
#
# Stress axis : x y z
#
# Youngs Moduli (GPa) = 35.65010 98.07429 113.65169
#
# Poissons Ratio (x) = -0.06448 -0.53035
# Poissons Ratio (y) = -0.02344 0.25108
# Poissons Ratio (z) = -0.16636 0.21667
#
# Static dielectric constant tensor:
#      x y z
#    x 2.108830 -0.124490 0.033980 
#    y -0.124490 2.171850 0.033790 
#    z 0.033980 0.033790 1.953130 
# 
# From -- ./inp_files/71605.got.cif
#   From: 2010.05.17/outbox.cif.g08.bks.cpg/sg2_36_cif.got.tgz:71605.got - 2010.06.03 11:33:40.
