data_PCOD9021818
_publ_section_title
;
Structure prediction by ZEFSAII (Michael W. Deem and Ramdas Pophale) SiO2 
 PCOD9021818
Probable space group: P -1
;
_chemical_formula_sum "Si O2"
_cell_formula_units_Z 16
_cell_length_a 11.749683
_cell_length_b 10.803735
_cell_length_c 11.862810
_cell_angle_alpha 108.950297
_cell_angle_beta 62.434255
_cell_angle_gamma 150.513296
_cell_volume 646.474424
_symmetry_space_group_name_H-M "P -1"
_symmetry_group_IT_number 2
_symmetry_cell_setting 'triclinic'
loop_
_space_group_symop_operation_xyz
x,y,z
-x,-y,-z
loop_
_atom_site_type_symbol
_atom_site_label
_atom_site_fract_x
_atom_site_fract_y
_atom_site_fract_z
Si Si1 0.366170 0.523490 0.688433
Si Si2 0.949932 0.800765 0.735035
Si Si3 0.276235 0.414041 0.451161
Si Si4 0.449521 0.086468 0.617032
Si Si5 0.209259 0.673741 0.051104
Si Si6 0.672410 0.990016 0.788540
Si Si7 0.457697 0.730870 0.142328
Si Si8 0.926076 0.067161 0.889080
O O1 0.208699 0.369670 0.599926
O O2 0.524693 0.529249 0.628581
O O3 0.555949 0.812794 0.684038
O O4 0.181446 0.368117 0.834623
O O5 0.936861 0.805794 0.607048
O O6 0.676756 0.512580 0.814395
O O7 0.997275 0.977884 0.828772
O O8 0.160208 0.877702 0.685960
O O9 0.399137 0.658869 0.430373
O O10 0.533456 0.153363 0.728877
O O11 0.500000 0.000000 0.500000
O O12 0.283161 0.622008 0.086883
O O13 0.133873 0.723170 0.190855
O O14 0.445563 0.872704 0.914681
O O15 0.000000 0.500000 0.000000
O O16 0.754182 0.945797 0.822330
O O17 0.741792 0.951313 0.037832
#
# Coordination Sequence:
#
# PCOD9021818 Si02
#       8
#     2   2   2   2   2   2   2   2
#     4  11  22  41  71 105 146 187 237 305 362 423
#     4  11  23  46  71 100 147 188 243 300 359 434
#     4  10  24  43  67 105 141 191 249 295 358 427
#     4  11  26  49  70 100 142 195 251 296 356 438
#     4  10  22  44  65  99 143 182 233 285 358 434
#     4  10  22  38  65  99 140 178 232 290 350 433
#     4  10  26  44  72 109 140 190 239 298 367 438
#     4  11  22  42  70 108 142 184 236 301 374 428
#
# _framework density 24.749625000000002
#
# number of rings (size 3 to 8) (size 9 to 14) (size 15 to 20)
#    0.000    1.500    2.500    1.125    1.750    9.000 
#    4.500    0.000    0.000    0.000    0.000    0.000 
#    0.000    0.000    0.000    0.000    0.000    0.000 
#
# Total GULP energy -89293.772558 kJ/mol
# GULP energy per Si atom -5580.860785 kJ/mol
# Density = 2.469329 g / cm^3
# Si number density = 24.749625 Si / 1000 Ang^3
#
#
#
# Elastic Constant Matrix: (Units=GPa)
#
#
# Indices 1 2 3 4 5 6 
#
# 1 81.0741 17.7736 49.7500 16.6635 -9.1651 12.1488
# 2 17.7736 52.3984 50.1644 17.2719 -1.8577 -6.1982
# 3 49.7500 50.1644 133.9446 13.5845 -11.9181 -2.7062
# 4 16.6635 17.2719 13.5845 45.4675 7.8362 -2.7479
# 5 -9.1651 -1.8577 -11.9181 7.8362 44.0002 11.1923
# 6 12.1488 -6.1982 -2.7062 -2.7479 11.1923 37.7703
#
#
#
# Elastic Compliance Matrix: (Units=1/GPa)
#
#
# Indices 1 2 3 4 5 6 
#
# 1 0.019640 0.001305 -0.006706 -0.007237 0.005870 -0.008850
# 2 0.001305 0.033817 -0.012214 -0.009281 -0.000937 0.003857
# 3 -0.006706 -0.012214 0.014396 0.002640 0.001262 0.001002
# 4 -0.007237 -0.009281 0.002640 0.029041 -0.007729 0.005397
# 5 0.005870 -0.000937 0.001262 -0.007729 0.028409 -0.010932
# 6 -0.008850 0.003857 0.001002 0.005397 -0.010932 0.033659
#
#
# Mechanical properties :
#
#
# Convention : Reuss Voigt Hill
#
# Bulk Modulus (GPa) = 30.65337 55.86592 43.25965
# Shear Modulus (GPa) = 24.38215 35.42953 29.90584
#
# Velocity S-wave (km/s) = 3.14212 3.78765 3.47988
# Velocity P-wave (km/s) = 5.05729 6.46141 5.80198
#
# Compressibility (1/GPa) = 0.03262284
#
# Stress axis : x y z
#
# Youngs Moduli (GPa) = 50.91530 29.57058 69.46488
#
# Poissons Ratio (x) = -0.03858 0.46585
# Poissons Ratio (y) = -0.06644 0.84845
# Poissons Ratio (z) = 0.34145 0.36118
#
# Static dielectric constant tensor:
#      x y z
#    x 1.935940 -0.099780 0.001040 
#    y -0.099780 3.725510 0.296970 
#    z 0.001040 0.296970 2.000970 
# 
# From -- ./inp_files/428536.got.cif
#   From: 2010.05.17/outbox.cif.g08.bks.cpg/sg2_215_cif.got.tgz:428536.got - 2010.06.03 11:33:40.
