data_PCOD9021319
_publ_section_title
;
Structure prediction by ZEFSAII (Michael W. Deem and Ramdas Pophale) SiO2 
 PCOD9021319
Probable space group: P -1
;
_chemical_formula_sum "Si O2"
_cell_formula_units_Z 14
_cell_length_a 12.288326
_cell_length_b 7.052759
_cell_length_c 8.086076
_cell_angle_alpha 84.355767
_cell_angle_beta 88.702067
_cell_angle_gamma 50.984318
_cell_volume 541.158567
_symmetry_space_group_name_H-M "P -1"
_symmetry_group_IT_number 2
_symmetry_cell_setting 'triclinic'
loop_
_space_group_symop_operation_xyz
x,y,z
-x,-y,-z
loop_
_atom_site_type_symbol
_atom_site_label
_atom_site_fract_x
_atom_site_fract_y
_atom_site_fract_z
Si Si1 0.089505 0.861515 0.339980
Si Si2 0.488551 0.275899 0.906862
Si Si3 0.359947 0.265445 0.590228
Si Si4 0.090269 0.633680 0.746176
Si Si5 0.146233 0.355299 0.373928
Si Si6 0.270461 0.244191 0.030331
Si Si7 0.416633 0.515021 0.343023
O O1 0.099676 0.626726 0.327882
O O2 0.251545 0.750528 0.334946
O O3 0.000000 0.000000 0.500000
O O4 0.994636 0.094983 0.202424
O O5 0.465816 0.173197 0.746031
O O6 0.513499 0.460704 0.820426
O O7 0.624691 0.036748 0.009047
O O8 0.356204 0.351483 0.012809
O O9 0.232028 0.534701 0.651369
O O10 0.260352 0.205851 0.530971
O O11 0.419319 0.288462 0.415400
O O12 0.986139 0.635988 0.627589
O O13 0.142910 0.427141 0.897968
O O14 0.222501 0.231685 0.209959
O O15 0.500000 0.500000 0.500000
#
# Coordination Sequence:
#
# PCOD9021319 Si02
#       7
#     2   2   2   2   2   2   2
#     4  11  22  38  63  94 126 161 208 258 316 368
#     4   9  19  39  62  85 125 171 206 255 319 364
#     4   9  19  35  61  92 119 156 215 258 302 369
#     4  11  21  40  63  89 132 164 199 261 313 371
#     4  11  22  37  62  96 125 159 211 258 313 369
#     4  10  22  38  60  89 127 170 208 253 309 383
#     4   9  17  34  60  86 118 160 201 254 309 358
#
# _framework density 25.870421
#
# number of rings (size 3 to 8) (size 9 to 14) (size 15 to 20)
#    0.000    2.000    2.857    1.714    0.000    1.143 
#    0.000    5.714    6.286    0.000    0.000    0.000 
#    0.000    0.000    0.000    0.000    0.000    0.000 
#
# Total GULP energy -78045.716273 kJ/mol
# GULP energy per Si atom -5574.694020 kJ/mol
# Density = 2.581154 g / cm^3
# Si number density = 25.870421 Si / 1000 Ang^3
#
#
#
# Elastic Constant Matrix: (Units=GPa)
#
#
# Indices 1 2 3 4 5 6 
#
# 1 114.0212 17.5662 5.7618 -5.1374 -15.6166 -4.0948
# 2 17.5662 71.6034 -6.1056 -8.4363 10.3953 -11.6660
# 3 5.7618 -6.1056 71.4144 -16.6444 -12.4598 -7.8375
# 4 -5.1374 -8.4363 -16.6444 32.4850 -6.8585 -0.1667
# 5 -15.6166 10.3953 -12.4598 -6.8585 40.0225 -3.5663
# 6 -4.0948 -11.6660 -7.8375 -0.1667 -3.5663 37.7012
#
#
#
# Elastic Compliance Matrix: (Units=1/GPa)
#
#
# Indices 1 2 3 4 5 6 
#
# 1 0.010021 -0.002782 0.000474 0.002215 0.005234 0.000831
# 2 -0.002782 0.016748 0.002716 0.004623 -0.003339 0.005150
# 3 0.000474 0.002716 0.019083 0.012283 0.008031 0.005673
# 4 0.002215 0.004623 0.012283 0.040977 0.010995 0.005446
# 5 0.005234 -0.003339 0.008031 0.010995 0.032667 0.004344
# 6 0.000831 0.005150 0.005673 0.005446 0.004344 0.029822
#
#
# Mechanical properties :
#
#
# Convention : Reuss Voigt Hill
#
# Bulk Modulus (GPa) = 21.42655 32.38709 26.90682
# Shear Modulus (GPa) = 30.47709 38.02951 34.25330
#
# Velocity S-wave (km/s) = 3.43602 3.83822 3.64267
# Velocity P-wave (km/s) = 4.90325 5.67351 5.30239
#
# Compressibility (1/GPa) = 0.04667106
#
# Stress axis : x y z
#
# Youngs Moduli (GPa) = 99.78675 59.70784 52.40198
#
# Poissons Ratio (x) = 0.16608 -0.02485
# Poissons Ratio (y) = 0.27756 -0.14234
# Poissons Ratio (z) = -0.04733 -0.16219
#
# Static dielectric constant tensor:
#      x y z
#    x 2.095390 -0.039550 -0.022600 
#    y -0.039550 2.208290 0.010520 
#    z -0.022600 0.010520 2.176200 
# 
# From -- ./inp_files/187467.got.cif
#   From: 2010.05.17/outbox.cif.g08.bks.cpg/sg2_94_cif.got.tgz:187467.got - 2010.06.03 11:33:40.
