data_PCOD9021758
_publ_section_title
;
Structure prediction by ZEFSAII (Michael W. Deem and Ramdas Pophale) SiO2 
 PCOD9021758
Probable space group: P -1
;
_chemical_formula_sum "Si O2"
_cell_formula_units_Z 12
_cell_length_a 5.531187
_cell_length_b 11.624198
_cell_length_c 9.341682
_cell_angle_alpha 96.458758
_cell_angle_beta 123.132897
_cell_angle_gamma 87.983713
_cell_volume 499.527866
_symmetry_space_group_name_H-M "P -1"
_symmetry_group_IT_number 2
_symmetry_cell_setting 'triclinic'
loop_
_space_group_symop_operation_xyz
x,y,z
-x,-y,-z
loop_
_atom_site_type_symbol
_atom_site_label
_atom_site_fract_x
_atom_site_fract_y
_atom_site_fract_z
Si Si1 0.192724 0.608204 0.020564
Si Si2 0.333552 0.608893 0.521502
Si Si3 0.645161 0.893650 0.113786
Si Si4 0.237919 0.462924 0.740830
Si Si5 0.282025 0.212314 0.161253
Si Si6 0.689744 0.032270 0.708139
O O1 0.280197 0.554208 0.892352
O O2 0.007489 0.718921 0.950315
O O3 0.487378 0.615621 0.206173
O O4 0.000000 0.500000 0.000000
O O5 0.500000 0.500000 0.500000
O O6 0.214339 0.556689 0.622536
O O7 0.531105 0.716560 0.649240
O O8 0.043094 0.620477 0.337847
O O9 0.501034 0.896285 0.226476
O O10 0.586541 0.795169 0.958739
O O11 0.996664 0.912491 0.229845
O O12 0.500000 0.000000 0.000000
O O13 0.237421 0.085525 0.197660
O O14 0.500000 0.000000 0.500000
#
# Coordination Sequence:
#
# PCOD9021758 Si02
#       6
#     2   2   2   2   2   2
#     4  11  21  42  61  97 137 181 235 280 334 426
#     4  11  21  42  61  99 141 182 231 284 336 419
#     4  10  23  48  76 106 140 181 243 307 359 433
#     4  10  22  38  65  90 145 181 229 290 326 399
#     4  11  23  43  73  96 143 193 228 289 375 413
#     4  11  25  51  75 108 143 177 242 317 357 428
#
# _framework density 24.022683000000001
#
# number of rings (size 3 to 8) (size 9 to 14) (size 15 to 20)
#    0.000    1.333    3.333    2.500    0.000    4.000 
#    6.000    0.000    0.000    0.000    0.000    0.000 
#    0.000    0.000    0.000    0.000    0.000    0.000 
#
# Total GULP energy -66893.900719 kJ/mol
# GULP energy per Si atom -5574.491727 kJ/mol
# Density = 2.396801 g / cm^3
# Si number density = 24.022683 Si / 1000 Ang^3
#
#
#
# Elastic Constant Matrix: (Units=GPa)
#
#
# Indices 1 2 3 4 5 6 
#
# 1 119.7270 33.7660 25.1826 16.8780 18.5481 -16.0723
# 2 33.7660 101.4078 21.7789 11.3932 12.3129 -11.3467
# 3 25.1826 21.7789 72.1613 20.6015 10.0917 -6.0232
# 4 16.8780 11.3932 20.6015 40.8284 -1.2582 1.9392
# 5 18.5481 12.3129 10.0917 -1.2582 58.3858 -0.2084
# 6 -16.0723 -11.3467 -6.0232 1.9392 -0.2084 35.5332
#
#
#
# Elastic Compliance Matrix: (Units=1/GPa)
#
#
# Indices 1 2 3 4 5 6 
#
# 1 0.010696 -0.002081 -0.001398 -0.003416 -0.002776 0.004107
# 2 -0.002081 0.011603 -0.001907 -0.001581 -0.001481 0.002518
# 3 -0.001398 -0.001907 0.017724 -0.008010 -0.002382 0.002186
# 4 -0.003416 -0.001581 -0.008010 0.030735 0.003447 -0.005065
# 5 -0.002776 -0.001481 -0.002382 0.003447 0.018800 -0.002210
# 6 0.004107 0.002518 0.002186 -0.005065 -0.002210 0.031438
#
#
# Mechanical properties :
#
#
# Convention : Reuss Voigt Hill
#
# Bulk Modulus (GPa) = 34.18764 50.52789 42.35776
# Shear Modulus (GPa) = 35.33103 41.12073 38.22588
#
# Velocity S-wave (km/s) = 3.83918 4.14181 3.99336
# Velocity P-wave (km/s) = 5.82363 6.62962 6.23965
#
# Compressibility (1/GPa) = 0.02925034
#
# Stress axis : x y z
#
# Youngs Moduli (GPa) = 93.49026 86.18608 56.42114
#
# Poissons Ratio (x) = 0.17934 0.07890
# Poissons Ratio (y) = 0.19454 0.10760
# Poissons Ratio (z) = 0.13074 0.16436
#
# Static dielectric constant tensor:
#      x y z
#    x 2.026750 -0.042290 -0.040310 
#    y -0.042290 2.470880 0.715920 
#    z -0.040310 0.715920 2.704660 
# 
# From -- ./inp_files/130376.got.cif
#   From: 2010.05.17/outbox.cif.g08.bks.cpg/sg2_66_cif.got.tgz:130376.got - 2010.06.03 11:33:40.
