data_PCOD9021531
_publ_section_title
;
Structure prediction by ZEFSAII (Michael W. Deem and Ramdas Pophale) SiO2 
 PCOD9021531
Probable space group: P -1
;
_chemical_formula_sum "Si O2"
_cell_formula_units_Z 14
_cell_length_a 7.008813
_cell_length_b 11.007422
_cell_length_c 16.385382
_cell_angle_alpha 30.609929
_cell_angle_beta 81.844515
_cell_angle_gamma 73.900236
_cell_volume 606.201657
_symmetry_space_group_name_H-M "P -1"
_symmetry_group_IT_number 2
_symmetry_cell_setting 'triclinic'
loop_
_space_group_symop_operation_xyz
x,y,z
-x,-y,-z
loop_
_atom_site_type_symbol
_atom_site_label
_atom_site_fract_x
_atom_site_fract_y
_atom_site_fract_z
Si Si1 0.042163 0.740232 0.256822
Si Si2 0.070424 0.191107 0.586437
Si Si3 0.159014 0.506504 0.139039
Si Si4 0.188211 0.938859 0.461494
Si Si5 0.563857 0.528167 0.186133
Si Si6 0.778231 0.859965 0.053396
Si Si7 0.286167 0.647472 0.888968
O O1 0.119660 0.441471 0.413123
O O2 0.839947 0.843407 0.154181
O O3 0.991718 0.785860 0.328524
O O4 0.192647 0.890170 0.131690
O O5 0.890824 0.152744 0.563769
O O6 0.366415 0.713434 0.619745
O O7 0.255614 0.939754 0.709215
O O8 0.345087 0.563391 0.141237
O O9 0.966202 0.635409 0.131973
O O10 0.222694 0.207335 0.296229
O O11 0.131021 0.624754 0.981464
O O12 0.000000 0.000000 0.500000
O O13 0.714769 0.467619 0.133282
O O14 0.590009 0.769112 0.090896
O O15 0.500000 0.500000 0.000000
#
# Coordination Sequence:
#
# PCOD9021531 Si02
#       7
#     2   2   2   2   2   2   2
#     4  10  23  37  64  90 122 175 214 256 290 384
#     4  11  20  39  65  91 127 167 211 250 322 366
#     4  11  23  39  65  93 129 161 202 272 321 366
#     4  12  21  37  65  97 123 164 206 261 323 378
#     4  11  23  40  64  97 127 158 212 265 318 380
#     4  11  21  42  65  90 122 168 223 246 315 364
#     4  10  22  38  62  96 128 157 203 265 321 373
#
# _framework density 23.094626000000002
#
# number of rings (size 3 to 8) (size 9 to 14) (size 15 to 20)
#    0.000    1.143    5.714    0.429    2.000    1.143 
#    0.000    2.857    0.000    4.286    0.000    0.000 
#    0.000    0.000    0.000    0.000    0.000    0.000 
#
# Total GULP energy -78353.511735 kJ/mol
# GULP energy per Si atom -5596.679410 kJ/mol
# Density = 2.304206 g / cm^3
# Si number density = 23.094626 Si / 1000 Ang^3
#
#
#
# Elastic Constant Matrix: (Units=GPa)
#
#
# Indices 1 2 3 4 5 6 
#
# 1 55.0819 27.9734 17.0190 -5.6754 -5.0972 24.9496
# 2 27.9734 158.5462 58.4784 -0.9622 -6.4130 26.4958
# 3 17.0190 58.4784 182.0335 -23.8889 -3.2376 26.0541
# 4 -5.6754 -0.9622 -23.8889 47.3040 6.4062 -6.2258
# 5 -5.0972 -6.4130 -3.2376 6.4062 31.6401 -5.2319
# 6 24.9496 26.4958 26.0541 -6.2258 -5.2319 33.2129
#
#
#
# Elastic Compliance Matrix: (Units=1/GPa)
#
#
# Indices 1 2 3 4 5 6 
#
# 1 0.028077 -0.001952 0.001027 0.001118 0.000696 -0.020020
# 2 -0.001952 0.008035 -0.002111 -0.001712 0.000871 -0.003472
# 3 0.001027 -0.002111 0.007081 0.003226 -0.000882 -0.004176
# 4 0.001118 -0.001712 0.003226 0.023687 -0.004343 0.001751
# 5 0.000696 0.000871 -0.000882 -0.004343 0.033330 0.003911
# 6 -0.020020 -0.003472 -0.004176 0.001751 0.003911 0.052138
#
#
# Mechanical properties :
#
#
# Convention : Reuss Voigt Hill
#
# Bulk Modulus (GPa) = 26.93929 66.95594 46.94761
# Shear Modulus (GPa) = 29.27509 41.91080 35.59294
#
# Velocity S-wave (km/s) = 3.56422 4.26460 3.93004
# Velocity P-wave (km/s) = 5.35054 7.30096 6.40048
#
# Compressibility (1/GPa) = 0.03712051
#
# Stress axis : x y z
#
# Youngs Moduli (GPa) = 35.61679 124.44995 141.22109
#
# Poissons Ratio (x) = 0.24289 -0.14497
# Poissons Ratio (y) = 0.06951 0.29814
# Poissons Ratio (z) = -0.03656 0.26273
#
# Static dielectric constant tensor:
#      x y z
#    x 1.910300 -0.036640 0.003700 
#    y -0.036640 1.874800 -0.019580 
#    z 0.003700 -0.019580 1.883250 
# 
# From -- ./inp_files/607808.got.cif
#   From: 2010.05.17/outbox.cif.g08.bks.cpg/sg2_304_cif.got.tgz:607808.got - 2010.06.03 11:33:40.
