data_PCOD9021174
_publ_section_title
;
Structure prediction by ZEFSAII (Michael W. Deem and Ramdas Pophale) SiO2 
 PCOD9021174
Probable space group: P -1
;
_chemical_formula_sum "Si O2"
_cell_formula_units_Z 16
_cell_length_a 11.274065
_cell_length_b 14.200290
_cell_length_c 5.771560
_cell_angle_alpha 87.234940
_cell_angle_beta 68.998169
_cell_angle_gamma 117.442681
_cell_volume 739.714976
_symmetry_space_group_name_H-M "P -1"
_symmetry_group_IT_number 2
_symmetry_cell_setting 'triclinic'
loop_
_space_group_symop_operation_xyz
x,y,z
-x,-y,-z
loop_
_atom_site_type_symbol
_atom_site_label
_atom_site_fract_x
_atom_site_fract_y
_atom_site_fract_z
Si Si1 0.432748 0.539907 0.844444
Si Si2 0.356409 0.890228 0.213442
Si Si3 0.538722 0.246001 0.069699
Si Si4 0.963282 0.178031 0.758871
Si Si5 0.962748 0.076644 0.281188
Si Si6 0.729885 0.662208 0.320769
Si Si7 0.359828 0.049665 0.538121
Si Si8 0.268789 0.140214 0.968836
O O1 0.385278 0.627060 0.939125
O O2 0.576289 0.606804 0.573651
O O3 0.301469 0.430960 0.833047
O O4 0.500000 0.500000 0.000000
O O5 0.203107 0.851430 0.188072
O O6 0.352853 0.939294 0.464795
O O7 0.380119 0.788192 0.172132
O O8 0.500000 0.000000 0.000000
O O9 0.494943 0.159140 0.320254
O O10 0.377682 0.211443 0.086578
O O11 0.000497 0.142360 0.487556
O O12 0.114051 0.297013 0.668143
O O13 0.952006 0.132782 0.040343
O O14 0.799492 0.972681 0.439913
O O15 0.097935 0.056382 0.153209
O O16 0.737763 0.770721 0.199128
O O17 0.342982 0.076731 0.809276
#
# Coordination Sequence:
#
# PCOD9021174 Si02
#       8
#     2   2   2   2   2   2   2   2
#     4  11  21  39  64  94 124 160 210 275 341 380
#     4   9  22  43  61  89 129 179 218 255 307 384
#     4  11  22  39  61  89 128 164 222 258 321 382
#     4  10  22  44  63  95 129 177 216 265 316 384
#     4  10  23  37  64  93 134 168 211 260 328 388
#     4  10  22  38  64  93 126 162 211 274 336 381
#     4  10  22  38  56  89 129 171 206 258 309 388
#     4  11  21  35  61  95 126 167 204 269 323 395
#
# _framework density 21.629954000000001
#
# number of rings (size 3 to 8) (size 9 to 14) (size 15 to 20)
#    0.000    1.750    2.500    1.125    8.750    1.000 
#    6.750    0.625    0.000    0.750    0.000    0.000 
#    0.000    0.000    0.000    0.000    0.000    0.000 
#
# Total GULP energy -89087.180470 kJ/mol
# GULP energy per Si atom -5567.948779 kJ/mol
# Density = 2.158072 g / cm^3
# Si number density = 21.629954 Si / 1000 Ang^3
#
#
#
# Elastic Constant Matrix: (Units=GPa)
#
#
# Indices 1 2 3 4 5 6 
#
# 1 91.7552 46.0816 24.4187 12.7278 2.1413 10.9625
# 2 46.0816 174.2061 40.7337 36.4157 -0.5928 3.4632
# 3 24.4187 40.7337 55.9914 18.5008 -6.9750 -5.3740
# 4 12.7278 36.4157 18.5008 35.0658 -1.5709 -1.8437
# 5 2.1413 -0.5928 -6.9750 -1.5709 32.1647 9.0731
# 6 10.9625 3.4632 -5.3740 -1.8437 9.0731 46.4726
#
#
#
# Elastic Compliance Matrix: (Units=1/GPa)
#
#
# Indices 1 2 3 4 5 6 
#
# 1 0.013830 -0.002462 -0.004611 -0.000256 -0.001012 -0.003425
# 2 -0.002462 0.008441 -0.003107 -0.006285 -0.000504 -0.000559
# 3 -0.004611 -0.003107 0.025742 -0.008315 0.004558 0.003076
# 4 -0.000256 -0.006285 -0.008315 0.039575 -0.000307 0.001197
# 5 -0.001012 -0.000504 0.004558 -0.000307 0.033757 -0.005799
# 6 -0.003425 -0.000559 0.003076 0.001197 -0.005799 0.023903
#
#
# Mechanical properties :
#
#
# Convention : Reuss Voigt Hill
#
# Bulk Modulus (GPa) = 36.16128 60.49120 48.32624
# Shear Modulus (GPa) = 28.59991 36.78852 32.69421
#
# Velocity S-wave (km/s) = 3.64020 4.12857 3.89205
# Velocity P-wave (km/s) = 5.86707 7.12417 6.52596
#
# Compressibility (1/GPa) = 0.02765389
#
# Stress axis : x y z
#
# Youngs Moduli (GPa) = 72.30400 118.46414 38.84777
#
# Poissons Ratio (x) = 0.29169 0.17911
# Poissons Ratio (y) = 0.17803 0.12069
# Poissons Ratio (z) = 0.33337 0.36804
#
# Static dielectric constant tensor:
#      x y z
#    x 1.845310 -0.011390 -0.009190 
#    y -0.011390 1.907640 -0.045640 
#    z -0.009190 -0.045640 2.010830 
# 
# From -- ./inp_files/76088.got.cif
#   From: 2010.05.17/outbox.cif.g08.bks.cpg/sg2_39_cif.got.tgz:76088.got - 2010.06.03 11:33:40.
