data_PCOD9021107
_publ_section_title
;
Structure prediction by ZEFSAII (Michael W. Deem and Ramdas Pophale) SiO2 
 PCOD9021107
Probable space group: P -1
;
_chemical_formula_sum "Si O2"
_cell_formula_units_Z 16
_cell_length_a 6.148023
_cell_length_b 15.730573
_cell_length_c 18.910685
_cell_angle_alpha 152.991723
_cell_angle_beta 104.229931
_cell_angle_gamma 63.701053
_cell_volume 692.966051
_symmetry_space_group_name_H-M "P -1"
_symmetry_group_IT_number 2
_symmetry_cell_setting 'triclinic'
loop_
_space_group_symop_operation_xyz
x,y,z
-x,-y,-z
loop_
_atom_site_type_symbol
_atom_site_label
_atom_site_fract_x
_atom_site_fract_y
_atom_site_fract_z
Si Si1 0.747755 0.765708 0.831345
Si Si2 0.482705 0.013628 0.404315
Si Si3 0.501003 0.482884 0.597892
Si Si4 0.493344 0.460997 0.744299
Si Si5 0.932723 0.832870 0.407435
Si Si6 0.438683 0.970428 0.737341
Si Si7 0.013771 0.217301 0.999173
Si Si8 0.981212 0.807878 0.739778
O O1 0.677193 0.585852 0.669718
O O2 0.888176 0.816860 0.818705
O O3 0.903921 0.687187 0.858254
O O4 0.500000 0.000000 0.000000
O O5 0.478716 0.241537 0.580227
O O6 0.206151 0.070323 0.456742
O O7 0.540154 0.952943 0.282352
O O8 0.710817 0.838507 0.343675
O O9 0.424194 0.551713 0.725654
O O10 0.625672 0.224536 0.416548
O O11 0.255993 0.583898 0.599905
O O12 0.793834 0.386684 0.726314
O O13 0.297488 0.620437 0.906539
O O14 0.000000 0.000000 0.500000
O O15 0.730036 0.860052 0.711781
O O16 0.212013 0.155901 0.904767
O O17 0.050245 0.990116 0.861038
#
# Coordination Sequence:
#
# PCOD9021107 Si02
#       8
#     2   2   2   2   2   2   2   2
#     4  12  22  40  64  85 127 182 230 271 305 374
#     4   9  21  43  67  97 125 160 212 264 325 389
#     4  11  24  40  62  92 126 175 233 265 312 377
#     4  10  22  37  67  96 122 167 221 263 314 385
#     4   9  19  40  71  96 122 158 213 264 318 388
#     4  11  26  41  62  98 135 171 208 273 331 380
#     4  12  25  41  61  96 135 174 219 267 322 380
#     4  12  23  39  61  86 135 179 224 263 317 368
#
# _framework density 23.089151999999999
#
# number of rings (size 3 to 8) (size 9 to 14) (size 15 to 20)
#    0.000    1.250    3.750    1.500    1.750    6.000 
#    0.000    0.625    0.000    7.500    0.000    0.000 
#    0.000    0.000    0.000    0.000    0.000    0.000 
#
# Total GULP energy -89422.321391 kJ/mol
# GULP energy per Si atom -5588.895087 kJ/mol
# Density = 2.303660 g / cm^3
# Si number density = 23.089152 Si / 1000 Ang^3
#
#
#
# Elastic Constant Matrix: (Units=GPa)
#
#
# Indices 1 2 3 4 5 6 
#
# 1 123.9278 62.5339 41.8123 -15.0968 -32.3147 7.7921
# 2 62.5339 117.3595 37.7595 -20.0948 -27.2881 3.7003
# 3 41.8123 37.7595 57.7198 -21.5673 -16.7096 7.0581
# 4 -15.0968 -20.0948 -21.5673 25.8926 12.3040 -7.7444
# 5 -32.3147 -27.2881 -16.7096 12.3040 40.4616 4.7830
# 6 7.7921 3.7003 7.0581 -7.7444 4.7830 48.4012
#
#
#
# Elastic Compliance Matrix: (Units=1/GPa)
#
#
# Indices 1 2 3 4 5 6 
#
# 1 0.013990 -0.004382 -0.006755 -0.005053 0.007256 -0.002458
# 2 -0.004382 0.013205 -0.003305 0.003736 0.002847 0.000494
# 3 -0.006755 -0.003305 0.031759 0.020278 -0.000677 0.000020
# 4 -0.005053 0.003736 0.020278 0.064901 -0.013982 0.009337
# 5 0.007256 0.002847 -0.000677 -0.013982 0.037254 -0.007206
# 6 -0.002458 0.000494 0.000020 0.009337 -0.007206 0.023222
#
#
# Mechanical properties :
#
#
# Convention : Reuss Voigt Hill
#
# Bulk Modulus (GPa) = 33.25500 64.80206 49.02853
# Shear Modulus (GPa) = 22.39764 33.41119 27.90441
#
# Velocity S-wave (km/s) = 3.11794 3.80814 3.48019
# Velocity P-wave (km/s) = 5.23414 6.88933 6.11797
#
# Compressibility (1/GPa) = 0.03007067
#
# Stress axis : x y z
#
# Youngs Moduli (GPa) = 71.47774 75.72934 31.48709
#
# Poissons Ratio (x) = 0.33184 0.21270
# Poissons Ratio (y) = 0.31321 0.10406
# Poissons Ratio (z) = 0.48285 0.25026
#
# Static dielectric constant tensor:
#      x y z
#    x 1.972110 -0.035200 -0.010780 
#    y -0.035200 1.888570 -0.005970 
#    z -0.010780 -0.005970 1.860000 
# 
# From -- ./inp_files/550195.got.cif
#   From: 2010.05.17/outbox.cif.g08.bks.cpg/sg2_276_cif.got.tgz:550195.got - 2010.06.03 11:33:40.
