data_PCOD9021244
_publ_section_title
;
Structure prediction by ZEFSAII (Michael W. Deem and Ramdas Pophale) SiO2 
 PCOD9021244
Probable space group: P -1
;
_chemical_formula_sum "Si O2"
_cell_formula_units_Z 16
_cell_length_a 9.500472
_cell_length_b 8.882749
_cell_length_c 9.490663
_cell_angle_alpha 58.496989
_cell_angle_beta 82.250700
_cell_angle_gamma 87.009881
_cell_volume 676.479544
_symmetry_space_group_name_H-M "P -1"
_symmetry_group_IT_number 2
_symmetry_cell_setting 'triclinic'
loop_
_space_group_symop_operation_xyz
x,y,z
-x,-y,-z
loop_
_atom_site_type_symbol
_atom_site_label
_atom_site_fract_x
_atom_site_fract_y
_atom_site_fract_z
Si Si1 0.934155 0.275474 0.984330
Si Si2 0.613477 0.540228 0.259406
Si Si3 0.077592 0.470002 0.648972
Si Si4 0.226810 0.022527 0.708885
Si Si5 0.489965 0.882780 0.201984
Si Si6 0.077448 0.190525 0.419791
Si Si7 0.614267 0.136186 0.482075
Si Si8 0.211944 0.385204 0.072315
O O1 0.813154 0.419021 0.959737
O O2 0.993570 0.304223 0.808180
O O3 0.876469 0.085456 0.123004
O O4 0.069860 0.327562 0.035160
O O5 0.755566 0.548308 0.334762
O O6 0.498616 0.678119 0.257681
O O7 0.565561 0.336863 0.370906
O O8 0.663894 0.601387 0.065918
O O9 0.000000 0.500000 0.500000
O O10 0.031538 0.648427 0.653393
O O11 0.260970 0.896587 0.631119
O O12 0.366158 0.072427 0.752702
O O13 0.150057 0.183033 0.566611
O O14 0.371104 0.899040 0.334024
O O15 0.500000 0.000000 0.000000
O O16 0.205385 0.244762 0.268689
O O17 0.000000 0.000000 0.500000
O O18 0.500000 0.000000 0.500000
#
# Coordination Sequence:
#
# PCOD9021244 Si02
#       8
#     2   2   2   2   2   2   2   2
#     4   9  17  35  59  89 130 161 199 248 304 401
#     4  11  21  43  68  87 132 174 204 274 335 368
#     4  10  22  38  58  97 133 168 203 239 324 415
#     4  11  21  41  65  94 131 168 208 274 318 372
#     4  11  27  45  62  92 127 169 232 276 321 370
#     4  11  20  34  63  99 133 161 207 251 313 401
#     4  10  23  44  70  90 119 167 232 278 319 370
#     4   9  18  33  59  96 123 164 202 239 321 401
#
# _framework density 23.651859999999999
#
# number of rings (size 3 to 8) (size 9 to 14) (size 15 to 20)
#    0.000    1.750    2.500    2.625    1.750    1.000 
#    2.250    9.375    0.000    0.000    0.000    0.000 
#    0.000    0.000    0.000    0.000    0.000    0.000 
#
# Total GULP energy -89343.352111 kJ/mol
# GULP energy per Si atom -5583.959507 kJ/mol
# Density = 2.359803 g / cm^3
# Si number density = 23.651860 Si / 1000 Ang^3
#
#
#
# Elastic Constant Matrix: (Units=GPa)
#
#
# Indices 1 2 3 4 5 6 
#
# 1 30.1942 14.6117 18.9675 -1.7817 7.3507 0.1651
# 2 14.6117 99.3816 38.9874 -6.8952 -6.2090 -18.3894
# 3 18.9675 38.9874 172.4570 -9.9364 -0.7152 15.9748
# 4 -1.7817 -6.8952 -9.9364 34.3025 3.2103 4.3857
# 5 7.3507 -6.2090 -0.7152 3.2103 29.0622 -4.1356
# 6 0.1651 -18.3894 15.9748 4.3857 -4.1356 29.8084
#
#
#
# Elastic Compliance Matrix: (Units=1/GPa)
#
#
# Indices 1 2 3 4 5 6 
#
# 1 0.041188 -0.006689 -0.002489 0.001926 -0.012845 -0.005087
# 2 -0.006689 0.015273 -0.003891 -0.000640 0.006719 0.012571
# 3 -0.002489 -0.003891 0.007735 0.002351 -0.001275 -0.007055
# 4 0.001926 -0.000640 0.002351 0.031160 -0.004996 -0.006943
# 5 -0.012845 0.006719 -0.001275 -0.004996 0.041230 0.011355
# 6 -0.005087 0.012571 -0.007055 -0.006943 0.011355 0.047709
#
#
# Mechanical properties :
#
#
# Convention : Reuss Voigt Hill
#
# Bulk Modulus (GPa) = 26.27487 49.68513 37.98000
# Shear Modulus (GPa) = 22.40953 33.93237 28.17095
#
# Velocity S-wave (km/s) = 3.08145 3.79180 3.45493
# Velocity P-wave (km/s) = 4.87786 6.34214 5.65758
#
# Compressibility (1/GPa) = 0.03805918
#
# Stress axis : x y z
#
# Youngs Moduli (GPa) = 24.27891 65.47290 129.27445
#
# Poissons Ratio (x) = 0.43797 0.32175
# Poissons Ratio (y) = 0.16241 0.50296
# Poissons Ratio (z) = 0.06043 0.25473
#
# Static dielectric constant tensor:
#      x y z
#    x 1.922350 -0.050190 0.002660 
#    y -0.050190 1.945370 0.055040 
#    z 0.002660 0.055040 1.993580 
# 
# From -- ./inp_files/237117.got.cif
#   From: 2010.05.17/outbox.cif.g08.bks.cpg/sg2_119_cif.got.tgz:237117.got - 2010.06.03 11:33:40.
