data_PCOD9021880
_publ_section_title
;
Structure prediction by ZEFSAII (Michael W. Deem and Ramdas Pophale) SiO2 
 PCOD9021880
Probable space group: P -1
;
_chemical_formula_sum "Si O2"
_cell_formula_units_Z 16
_cell_length_a 9.642827
_cell_length_b 12.008558
_cell_length_c 8.966665
_cell_angle_alpha 75.527299
_cell_angle_beta 116.299661
_cell_angle_gamma 67.135159
_cell_volume 737.275377
_symmetry_space_group_name_H-M "P -1"
_symmetry_group_IT_number 2
_symmetry_cell_setting 'triclinic'
loop_
_space_group_symop_operation_xyz
x,y,z
-x,-y,-z
loop_
_atom_site_type_symbol
_atom_site_label
_atom_site_fract_x
_atom_site_fract_y
_atom_site_fract_z
Si Si1 0.520895 0.776540 0.524300
Si Si2 0.594238 0.742096 0.916128
Si Si3 0.687657 0.165259 0.997883
Si Si4 0.487904 0.041123 0.774993
Si Si5 0.560997 0.570956 0.391730
Si Si6 0.895680 0.049624 0.652431
Si Si7 0.872731 0.473842 0.341411
Si Si8 0.080915 0.158914 0.502065
O O1 0.583070 0.727990 0.738790
O O2 0.538960 0.895780 0.424938
O O3 0.626398 0.648557 0.502037
O O4 0.296325 0.846037 0.386540
O O5 0.608635 0.873868 0.894843
O O6 0.396575 0.792928 0.888020
O O7 0.755403 0.602916 0.126506
O O8 0.579709 0.103788 0.892139
O O9 0.615071 0.308264 0.829554
O O10 0.910311 0.054324 0.132566
O O11 0.274695 0.102355 0.701528
O O12 0.500000 0.500000 0.500000
O O13 0.723261 0.477235 0.381233
O O14 0.943581 0.137489 0.541241
O O15 0.866526 0.946204 0.575647
O O16 0.000000 0.500000 0.500000
O O17 0.987499 0.321612 0.369539
#
# Coordination Sequence:
#
# PCOD9021880 Si02
#       8
#     2   2   2   2   2   2   2   2
#     4  11  23  41  65  97 130 170 214 273 325 386
#     4  11  21  40  67  95 123 172 217 260 326 382
#     4  10  22  38  66  96 124 174 224 263 313 395
#     4  11  22  41  69  94 131 168 222 268 320 381
#     4  10  23  43  60  88 137 172 207 264 334 388
#     4  11  22  38  65 100 131 161 220 272 326 373
#     4  11  25  44  66  96 128 175 222 264 315 393
#     4  11  22  41  66  95 132 166 214 277 315 383
#
# _framework density 21.701523999999999
#
# number of rings (size 3 to 8) (size 9 to 14) (size 15 to 20)
#    0.000    1.250    2.500    4.500    1.750    3.000 
#    2.250    5.625    0.000    0.000    0.000    0.000 
#    0.000    0.000    0.000    0.000    0.000    0.000 
#
# Total GULP energy -89414.688822 kJ/mol
# GULP energy per Si atom -5588.418051 kJ/mol
# Density = 2.165213 g / cm^3
# Si number density = 21.701524 Si / 1000 Ang^3
#
#
#
# Elastic Constant Matrix: (Units=GPa)
#
#
# Indices 1 2 3 4 5 6 
#
# 1 61.8839 3.4401 30.5855 -3.4142 -2.0864 13.3690
# 2 3.4401 74.7643 30.2165 -17.2041 -0.5779 3.3968
# 3 30.5855 30.2165 133.3127 -13.0334 -10.9160 5.9683
# 4 -3.4142 -17.2041 -13.0334 36.4235 0.4942 -9.4934
# 5 -2.0864 -0.5779 -10.9160 0.4942 48.0891 -0.7318
# 6 13.3690 3.3968 5.9683 -9.4934 -0.7318 31.2232
#
#
#
# Elastic Compliance Matrix: (Units=1/GPa)
#
#
# Indices 1 2 3 4 5 6 
#
# 1 0.020089 0.000983 -0.004627 -0.001461 -0.000278 -0.008275
# 2 0.000983 0.016178 -0.003308 0.006680 -0.000575 0.000469
# 3 -0.004627 -0.003308 0.009588 0.001687 0.001935 0.001066
# 4 -0.001461 0.006680 0.001687 0.033630 0.000203 0.009806
# 5 -0.000278 -0.000575 0.001935 0.000203 0.021219 0.000371
# 6 -0.008275 0.000469 0.001066 0.009806 0.000371 0.038306
#
#
# Mechanical properties :
#
#
# Convention : Reuss Voigt Hill
#
# Bulk Modulus (GPa) = 31.29605 44.27168 37.78387
# Shear Modulus (GPa) = 30.56914 36.86172 33.71543
#
# Velocity S-wave (km/s) = 3.75723 4.12585 3.94585
# Velocity P-wave (km/s) = 5.76843 6.56821 6.18127
#
# Compressibility (1/GPa) = 0.03195291
#
# Stress axis : x y z
#
# Youngs Moduli (GPa) = 49.77804 61.81104 104.29738
#
# Poissons Ratio (x) = -0.06077 0.48258
# Poissons Ratio (y) = -0.04894 0.34497
# Poissons Ratio (z) = 0.23032 0.20444
#
# Static dielectric constant tensor:
#      x y z
#    x 1.784760 0.010360 -0.023370 
#    y 0.010360 1.790630 0.016000 
#    z -0.023370 0.016000 1.818380 
# 
# From -- ./inp_files/186063.got.cif
#   From: 2010.05.17/outbox.cif.g08.bks.cpg/sg2_94_cif.got.tgz:186063.got - 2010.06.03 11:33:40.
