data_PCOD9021926
_publ_section_title
;
Structure prediction by ZEFSAII (Michael W. Deem and Ramdas Pophale) SiO2 
 PCOD9021926
Probable space group: P -1
;
_chemical_formula_sum "Si O2"
_cell_formula_units_Z 16
_cell_length_a 16.259232
_cell_length_b 8.250470
_cell_length_c 19.082493
_cell_angle_alpha 147.980414
_cell_angle_beta 30.197015
_cell_angle_gamma 137.924064
_cell_volume 682.236270
_symmetry_space_group_name_H-M "P -1"
_symmetry_group_IT_number 2
_symmetry_cell_setting 'triclinic'
loop_
_space_group_symop_operation_xyz
x,y,z
-x,-y,-z
loop_
_atom_site_type_symbol
_atom_site_label
_atom_site_fract_x
_atom_site_fract_y
_atom_site_fract_z
Si Si1 0.718811 0.679117 0.238659
Si Si2 0.425404 0.581028 0.887606
Si Si3 0.366523 0.940189 0.837005
Si Si4 0.003728 0.136283 0.362188
Si Si5 0.878208 0.765768 0.541627
Si Si6 0.632168 0.056690 0.569379
Si Si7 0.970523 0.907138 0.826914
Si Si8 0.563922 0.069038 0.865965
O O1 0.663882 0.637696 0.183589
O O2 0.679842 0.375584 0.203107
O O3 0.634490 0.925532 0.441144
O O4 0.904048 0.813044 0.146941
O O5 0.442449 0.888629 0.942264
O O6 0.594738 0.414627 0.719506
O O7 0.363184 0.659039 0.039681
O O8 0.485755 0.915278 0.673360
O O9 0.472767 0.140468 0.888310
O O10 0.191025 0.079746 0.002938
O O11 0.000000 0.500000 0.500000
O O12 0.108112 0.091796 0.337901
O O13 0.081444 0.043189 0.197730
O O14 0.812635 0.017212 0.455903
O O15 0.939413 0.419283 0.360562
O O16 0.701435 0.822213 0.660292
O O17 0.000000 0.000000 0.500000
#
# Coordination Sequence:
#
# PCOD9021926 Si02
#       8
#     2   2   2   2   2   2   2   2
#     4  10  22  44  64  90 130 177 219 256 322 398
#     4  10  22  38  67  91 127 168 219 262 314 385
#     4  11  24  40  67 100 131 161 221 278 321 369
#     4   9  20  37  62  87 126 171 212 246 320 394
#     4  11  23  39  62  94 133 167 206 265 332 382
#     4  11  22  39  65  98 125 171 214 274 325 374
#     4  10  23  42  67  92 127 174 216 263 319 396
#     4  10  23  39  63  96 130 165 214 262 323 388
#
# _framework density 23.452287999999999
#
# number of rings (size 3 to 8) (size 9 to 14) (size 15 to 20)
#    0.000    1.750    0.000    4.125   10.500    1.500 
#    0.000    3.125    0.000    0.000    0.000    0.000 
#    0.000    0.000    0.000    0.000    0.000    0.000 
#
# Total GULP energy -89224.261434 kJ/mol
# GULP energy per Si atom -5576.516340 kJ/mol
# Density = 2.339891 g / cm^3
# Si number density = 23.452288 Si / 1000 Ang^3
#
#
#
# Elastic Constant Matrix: (Units=GPa)
#
#
# Indices 1 2 3 4 5 6 
#
# 1 79.7918 22.3686 14.6617 -2.8937 5.3814 19.3061
# 2 22.3686 102.6050 20.6731 -11.2658 -4.6719 3.4928
# 3 14.6617 20.6731 94.7139 -11.0682 -14.0789 10.3498
# 4 -2.8937 -11.2658 -11.0682 33.8892 4.5030 0.2158
# 5 5.3814 -4.6719 -14.0789 4.5030 22.3794 -1.8125
# 6 19.3061 3.4928 10.3498 0.2158 -1.8125 24.2176
#
#
#
# Elastic Compliance Matrix: (Units=1/GPa)
#
#
# Indices 1 2 3 4 5 6 
#
# 1 0.017466 -0.003275 -0.001471 0.000948 -0.007082 -0.013361
# 2 -0.003275 0.011080 -0.001536 0.002659 0.001743 0.001776
# 3 -0.001471 -0.001536 0.012912 0.002629 0.007335 -0.003599
# 4 0.000948 0.002659 0.002629 0.031973 -0.004687 -0.002899
# 5 -0.007082 0.001743 0.007335 -0.004687 0.052815 0.006254
# 6 -0.013361 0.001776 -0.003599 -0.002899 0.006254 0.053719
#
#
# Mechanical properties :
#
#
# Convention : Reuss Voigt Hill
#
# Bulk Modulus (GPa) = 34.60745 43.61305 39.11025
# Shear Modulus (GPa) = 24.73295 30.72439 27.72867
#
# Velocity S-wave (km/s) = 3.25099 3.62343 3.44225
# Velocity P-wave (km/s) = 5.37406 6.01187 5.70189
#
# Compressibility (1/GPa) = 0.02889552
#
# Stress axis : x y z
#
# Youngs Moduli (GPa) = 57.25500 90.24964 77.44841
#
# Poissons Ratio (x) = 0.29555 0.11390
# Poissons Ratio (y) = 0.18750 0.11894
# Poissons Ratio (z) = 0.08420 0.13860
#
# Static dielectric constant tensor:
#      x y z
#    x 1.929730 -0.007490 0.013740 
#    y -0.007490 1.865400 0.037530 
#    z 0.013740 0.037530 1.924090 
# 
# From -- ./inp_files/599794.got.cif
#   From: 2010.05.17/outbox.cif.g08.bks.cpg/sg2_300_cif.got.tgz:599794.got - 2010.06.03 11:33:40.
