data_PCOD9021329
_publ_section_title
;
Structure prediction by ZEFSAII (Michael W. Deem and Ramdas Pophale) SiO2 
 PCOD9021329
Probable space group: P -1
;
_chemical_formula_sum "Si O2"
_cell_formula_units_Z 16
_cell_length_a 11.371831
_cell_length_b 14.598234
_cell_length_c 20.808425
_cell_angle_alpha 149.364687
_cell_angle_beta 32.602254
_cell_angle_gamma 151.731200
_cell_volume 780.743215
_symmetry_space_group_name_H-M "P -1"
_symmetry_group_IT_number 2
_symmetry_cell_setting 'triclinic'
loop_
_space_group_symop_operation_xyz
x,y,z
-x,-y,-z
loop_
_atom_site_type_symbol
_atom_site_label
_atom_site_fract_x
_atom_site_fract_y
_atom_site_fract_z
Si Si1 0.409674 0.341676 0.041899
Si Si2 0.399536 0.261894 0.482956
Si Si3 0.059127 0.846254 0.469329
Si Si4 0.588031 0.438939 0.162874
Si Si5 0.121822 0.477354 0.164196
Si Si6 0.738254 0.724834 0.664754
Si Si7 0.620589 0.077524 0.183965
Si Si8 0.185879 0.838479 0.139871
O O1 0.485188 0.425255 0.130141
O O2 0.222047 0.397466 0.127822
O O3 0.679349 0.459144 0.947401
O O4 0.295751 0.085800 0.937533
O O5 0.198102 0.210239 0.486734
O O6 0.520101 0.507682 0.595603
O O7 0.605058 0.212707 0.330281
O O8 0.267632 0.095641 0.502844
O O9 0.995576 0.803788 0.548871
O O10 0.130212 0.686184 0.310195
O O11 0.346426 0.364638 0.277858
O O12 0.868298 0.669100 0.186350
O O13 0.682233 0.273689 0.021438
O O14 0.829330 0.268893 0.155675
O O15 0.734673 0.937876 0.793856
O O16 0.328325 0.916310 0.190784
#
# Coordination Sequence:
#
# PCOD9021329 Si02
#       8
#     2   2   2   2   2   2   2   2
#     4  10  24  43  62  88 123 161 209 256 291 355
#     4  11  22  35  59  96 127 153 191 262 314 355
#     4  11  22  35  58  92 128 152 198 250 309 364
#     4  10  24  40  58  87 127 167 202 244 298 364
#     4  11  22  40  66  90 118 161 208 253 305 353
#     4  12  21  36  58  90 123 162 198 241 309 371
#     4  11  20  38  63  96 121 152 200 257 311 354
#     4  10  22  38  60  90 125 163 197 248 304 362
#
# _framework density 20.493293000000001
#
# number of rings (size 3 to 8) (size 9 to 14) (size 15 to 20)
#    0.000    1.250    3.750    2.625    1.750    6.000 
#    0.000    0.625    0.000    1.500    0.000    0.000 
#    0.000    0.000    0.000    0.000    0.000    0.000 
#
# Total GULP energy -89224.078603 kJ/mol
# GULP energy per Si atom -5576.504913 kJ/mol
# Density = 2.044665 g / cm^3
# Si number density = 20.493293 Si / 1000 Ang^3
#
#
#
# Elastic Constant Matrix: (Units=GPa)
#
#
# Indices 1 2 3 4 5 6 
#
# 1 64.8675 30.3434 31.4534 -7.2263 5.6098 -11.0410
# 2 30.3434 122.7017 35.4981 13.9095 8.3987 -10.0051
# 3 31.4534 35.4981 84.6501 1.2674 8.3578 -4.8179
# 4 -7.2263 13.9095 1.2674 41.9347 -11.9920 7.3923
# 5 5.6098 8.3987 8.3578 -11.9920 23.1734 -1.0547
# 6 -11.0410 -10.0051 -4.8179 7.3923 -1.0547 20.6494
#
#
#
# Elastic Compliance Matrix: (Units=1/GPa)
#
#
# Indices 1 2 3 4 5 6 
#
# 1 0.021696 -0.003464 -0.006338 0.004040 0.000700 0.007033
# 2 -0.003464 0.011311 -0.002502 -0.006802 -0.005642 0.005191
# 3 -0.006338 -0.002502 0.015628 -0.001837 -0.004169 -0.000510
# 4 0.004040 -0.006802 -0.001837 0.034731 0.019531 -0.013000
# 5 0.000700 -0.005642 -0.004169 0.019531 0.056300 -0.007449
# 6 0.007033 0.005191 -0.000510 -0.013000 -0.007449 0.058858
#
#
# Mechanical properties :
#
#
# Convention : Reuss Voigt Hill
#
# Bulk Modulus (GPa) = 41.62048 51.86767 46.74407
# Shear Modulus (GPa) = 21.63181 28.81314 25.22248
#
# Velocity S-wave (km/s) = 3.25246 3.75371 3.51204
# Velocity P-wave (km/s) = 5.87010 6.64467 6.26936
#
# Compressibility (1/GPa) = 0.02402664
#
# Stress axis : x y z
#
# Youngs Moduli (GPa) = 46.09052 88.41167 63.98917
#
# Poissons Ratio (x) = 0.30626 0.40559
# Poissons Ratio (y) = 0.15966 0.16008
# Poissons Ratio (z) = 0.29214 0.22118
#
# Static dielectric constant tensor:
#      x y z
#    x 1.717490 -0.014420 0.008380 
#    y -0.014420 1.770780 -0.014500 
#    z 0.008380 -0.014500 1.748480 
# 
# From -- ./inp_files/438740.got.cif
#   From: 2010.05.17/outbox.cif.g08.bks.cpg/sg2_220_cif.got.tgz:438740.got - 2010.06.03 11:33:40.
