data_PCOD9021881
_publ_section_title
;
Structure prediction by ZEFSAII (Michael W. Deem and Ramdas Pophale) SiO2 
 PCOD9021881
Probable space group: P -1
;
_chemical_formula_sum "Si O2"
_cell_formula_units_Z 14
_cell_length_a 20.760565
_cell_length_b 9.869036
_cell_length_c 8.876032
_cell_angle_alpha 108.300870
_cell_angle_beta 66.616294
_cell_angle_gamma 158.969243
_cell_volume 590.170492
_symmetry_space_group_name_H-M "P -1"
_symmetry_group_IT_number 2
_symmetry_cell_setting 'triclinic'
loop_
_space_group_symop_operation_xyz
x,y,z
-x,-y,-z
loop_
_atom_site_type_symbol
_atom_site_label
_atom_site_fract_x
_atom_site_fract_y
_atom_site_fract_z
Si Si1 0.496987 0.085443 0.192683
Si Si2 0.000543 0.870346 0.345364
Si Si3 0.593955 0.013763 0.293152
Si Si4 0.405247 0.166211 0.502863
Si Si5 0.016599 0.605587 0.364179
Si Si6 0.115387 0.084781 0.982424
Si Si7 0.859967 0.333021 0.970385
O O1 0.496254 0.959293 0.276232
O O2 0.370380 0.980589 0.336070
O O3 0.690215 0.538784 0.153033
O O4 0.500000 0.000000 0.000000
O O5 0.790016 0.448874 0.328564
O O6 0.058453 0.848603 0.388479
O O7 0.000000 0.000000 0.500000
O O8 0.128901 0.120845 0.164130
O O9 0.495920 0.743916 0.426914
O O10 0.672475 0.043321 0.114385
O O11 0.500000 0.500000 0.500000
O O12 0.199630 0.815588 0.639985
O O13 0.000000 0.500000 0.500000
O O14 0.174610 0.824947 0.198321
O O15 0.000000 0.000000 0.000000
O O16 0.991455 0.713146 0.934622
O O17 0.000000 0.500000 0.000000
#
# Coordination Sequence:
#
# PCOD9021881 Si02
#       7
#     2   2   2   2   2   2   2
#     4  12  27  43  66  99 139 175 215 271 332 400
#     4  10  22  38  66  96 126 162 222 268 314 379
#     4  10  23  45  67  92 132 179 211 273 325 391
#     4  11  25  46  66  94 133 180 216 265 336 392
#     4  11  25  40  66  97 129 164 216 277 319 382
#     4  11  22  41  68  93 121 174 218 265 321 382
#     4  11  19  42  70  93 123 166 225 272 324 371
#
# _framework density 23.721957
#
# number of rings (size 3 to 8) (size 9 to 14) (size 15 to 20)
#    0.000    1.143    7.143    1.286    8.000    1.143 
#    2.571    0.714    0.000    0.000    0.000    0.000 
#    0.000    0.000    0.000    0.000    0.000    0.000 
#
# Total GULP energy -78083.875627 kJ/mol
# GULP energy per Si atom -5577.419688 kJ/mol
# Density = 2.366797 g / cm^3
# Si number density = 23.721957 Si / 1000 Ang^3
#
#
#
# Elastic Constant Matrix: (Units=GPa)
#
#
# Indices 1 2 3 4 5 6 
#
# 1 143.7099 26.5879 44.7124 6.2872 10.2328 -54.8848
# 2 26.5879 51.1394 8.6190 -2.7021 -3.1253 -29.0525
# 3 44.7124 8.6190 124.9317 11.5560 -19.0785 -28.7961
# 4 6.2872 -2.7021 11.5560 38.9655 -13.2625 -4.8573
# 5 10.2328 -3.1253 -19.0785 -13.2625 48.1214 -3.6973
# 6 -54.8848 -29.0525 -28.7961 -4.8573 -3.6973 48.9254
#
#
#
# Elastic Compliance Matrix: (Units=1/GPa)
#
#
# Indices 1 2 3 4 5 6 
#
# 1 0.012727 0.001339 -0.001790 -0.000534 -0.002417 0.013783
# 2 0.001339 0.032652 0.003218 0.006357 0.006702 0.023922
# 3 -0.001790 0.003218 0.010778 -0.000029 0.005365 0.006648
# 4 -0.000534 0.006357 -0.000029 0.030248 0.009379 0.006870
# 5 -0.002417 0.006702 0.005365 0.009379 0.027011 0.007398
# 6 0.013783 0.023922 0.006648 0.006870 0.007398 0.055261
#
#
# Mechanical properties :
#
#
# Convention : Reuss Voigt Hill
#
# Bulk Modulus (GPa) = 16.21029 53.29107 34.75068
# Shear Modulus (GPa) = 27.21732 43.19325 35.20529
#
# Velocity S-wave (km/s) = 3.39093 4.27173 3.85656
# Velocity P-wave (km/s) = 4.70951 6.84426 5.87466
#
# Compressibility (1/GPa) = 0.06168921
#
# Stress axis : x y z
#
# Youngs Moduli (GPa) = 78.57188 30.62620 92.78560
#
# Poissons Ratio (x) = -0.04101 0.16610
# Poissons Ratio (y) = -0.10521 -0.29854
# Poissons Ratio (z) = 0.14066 -0.09854
#
# Static dielectric constant tensor:
#      x y z
#    x 1.947810 0.062440 0.017350 
#    y 0.062440 1.887490 0.063770 
#    z 0.017350 0.063770 2.052220 
# 
# From -- ./inp_files/205049.got.cif
#   From: 2010.05.17/outbox.cif.g08.bks.cpg/sg2_103_cif.got.tgz:205049.got - 2010.06.03 11:33:40.
