data_PCOD9021292
_publ_section_title
;
Structure prediction by ZEFSAII (Michael W. Deem and Ramdas Pophale) SiO2 
 PCOD9021292
Probable space group: P -1
;
_chemical_formula_sum "Si O2"
_cell_formula_units_Z 11
_cell_length_a 11.685901
_cell_length_b 11.268373
_cell_length_c 5.716537
_cell_angle_alpha 100.970670
_cell_angle_beta 49.969696
_cell_angle_gamma 128.338309
_cell_volume 423.934796
_symmetry_space_group_name_H-M "P -1"
_symmetry_group_IT_number 2
_symmetry_cell_setting 'triclinic'
loop_
_space_group_symop_operation_xyz
x,y,z
-x,-y,-z
loop_
_atom_site_type_symbol
_atom_site_label
_atom_site_fract_x
_atom_site_fract_y
_atom_site_fract_z
Si Si1 0.954184 0.775465 0.350147
Si Si2 0.315281 0.352942 0.956081
Si Si3 0.523283 0.868320 0.444999
Si Si4 0.727708 0.472860 0.255157
Si Si5 0.000000 0.000000 0.000000
Si Si6 0.658063 0.977256 0.807791
O O1 0.914629 0.634363 0.197417
O O2 0.018523 0.928975 0.187799
O O3 0.743854 0.690753 0.715878
O O4 0.128152 0.853685 0.342115
O O5 0.526237 0.417570 0.619043
O O6 0.283199 0.475588 0.968598
O O7 0.153308 0.187525 0.969597
O O8 0.318705 0.692838 0.721055
O O9 0.666442 0.923354 0.512139
O O10 0.500000 0.000000 0.500000
O O11 0.584735 0.866360 0.095936
O O12 0.500000 0.000000 0.000000
#
# Coordination Sequence:
#
# PCOD9021292 Si02
#       6
#     2   2   2   2   1   2
#     4  11  23  40  68  98 141 182 228 286 352 417
#     4  10  22  39  63  99 141 178 227 276 356 419
#     4  10  23  46  71  97 132 186 237 290 343 405
#     4  10  23  40  64 100 140 177 228 284 352 413
#     4  10  22  38  60 100 132 178 228 268 344 424
#     4  10  24  45  71  96 133 182 241 286 341 407
#
# _framework density 25.947386000000002
#
# number of rings (size 3 to 8) (size 9 to 14) (size 15 to 20)
#    0.000    1.818    0.000    2.182   10.182    0.000 
#    3.273    7.273    0.000    0.000    0.000    0.000 
#    0.000    0.000    0.000    0.000    0.000    0.000 
#
# Total GULP energy -61244.804316 kJ/mol
# GULP energy per Si atom -5567.709483 kJ/mol
# Density = 2.588833 g / cm^3
# Si number density = 25.947386 Si / 1000 Ang^3
#
#
#
# Elastic Constant Matrix: (Units=GPa)
#
#
# Indices 1 2 3 4 5 6 
#
# 1 109.1906 56.5169 32.0645 -14.9040 22.5991 11.9705
# 2 56.5169 128.3023 19.8830 -30.1012 22.4330 -13.0230
# 3 32.0645 19.8830 118.5394 -8.4029 34.1875 -9.5363
# 4 -14.9040 -30.1012 -8.4029 43.2818 -1.1499 10.6846
# 5 22.5991 22.4330 34.1875 -1.1499 39.7458 -2.7219
# 6 11.9705 -13.0230 -9.5363 10.6846 -2.7219 46.7132
#
#
#
# Elastic Compliance Matrix: (Units=1/GPa)
#
#
# Indices 1 2 3 4 5 6 
#
# 1 0.014418 -0.005532 -0.002344 0.002153 -0.003435 -0.006408
# 2 -0.005532 0.012662 0.001502 0.006185 -0.004870 0.003556
# 3 -0.002344 0.001502 0.011883 0.001672 -0.009516 0.002508
# 4 0.002153 0.006185 0.001672 0.029706 -0.005678 -0.005611
# 5 -0.003435 -0.004870 -0.009516 -0.005678 0.037957 0.001091
# 6 -0.006408 0.003556 0.002508 -0.005611 0.001091 0.025900
#
#
# Mechanical properties :
#
#
# Convention : Reuss Voigt Hill
#
# Bulk Modulus (GPa) = 38.14888 63.66233 50.90561
# Shear Modulus (GPa) = 32.46481 42.45268 37.45875
#
# Velocity S-wave (km/s) = 3.54104 4.04927 3.80365
# Velocity P-wave (km/s) = 5.60829 6.81546 6.24113
#
# Compressibility (1/GPa) = 0.02621309
#
# Stress axis : x y z
#
# Youngs Moduli (GPa) = 69.35993 78.97687 84.15457
#
# Poissons Ratio (x) = 0.43693 0.19726
# Poissons Ratio (y) = 0.38372 -0.12638
# Poissons Ratio (z) = 0.16258 -0.11860
#
# Static dielectric constant tensor:
#      x y z
#    x 2.471810 0.057040 -0.346340 
#    y 0.057040 2.057860 -0.033560 
#    z -0.346340 -0.033560 2.292340 
# 
# From -- ./inp_files/22085.got.cif
#   From: 2010.05.17/outbox.cif.g08.bks.cpg/sg2_12_cif.got.tgz:22085.got - 2010.06.03 11:33:40.
