data_PCOD9021438
_publ_section_title
;
Structure prediction by ZEFSAII (Michael W. Deem and Ramdas Pophale) SiO2 
 PCOD9021438
Probable space group: P -1
;
_chemical_formula_sum "Si O2"
_cell_formula_units_Z 16
_cell_length_a 8.222600
_cell_length_b 8.726405
_cell_length_c 13.660478
_cell_angle_alpha 109.917294
_cell_angle_beta 88.145580
_cell_angle_gamma 51.273914
_cell_volume 677.492025
_symmetry_space_group_name_H-M "P -1"
_symmetry_group_IT_number 2
_symmetry_cell_setting 'triclinic'
loop_
_space_group_symop_operation_xyz
x,y,z
-x,-y,-z
loop_
_atom_site_type_symbol
_atom_site_label
_atom_site_fract_x
_atom_site_fract_y
_atom_site_fract_z
Si Si1 0.656846 0.520011 0.887728
Si Si2 0.178648 0.739985 0.464061
Si Si3 0.071744 0.700189 0.814472
Si Si4 0.361471 0.673355 0.661627
Si Si5 0.528952 0.690802 0.144327
Si Si6 0.382066 0.030643 0.749668
Si Si7 0.686395 0.995257 0.040509
Si Si8 0.988892 0.606736 0.304616
O O1 0.653037 0.327222 0.849845
O O2 0.433466 0.748623 0.896442
O O3 0.847096 0.459703 0.802819
O O4 0.641301 0.596293 0.014931
O O5 0.253949 0.696622 0.565345
O O6 0.421651 0.582346 0.372918
O O7 0.062868 0.655510 0.408299
O O8 0.000000 0.000000 0.500000
O O9 0.002372 0.592254 0.726835
O O10 0.161877 0.782994 0.764333
O O11 0.277237 0.489232 0.825274
O O12 0.883963 0.870544 0.932931
O O13 0.452059 0.796976 0.681451
O O14 0.459553 0.922620 0.220483
O O15 0.252316 0.105676 0.873569
O O16 0.242075 0.173758 0.688086
O O17 0.500000 0.000000 0.000000
#
# Coordination Sequence:
#
# PCOD9021438 Si02
#       8
#     2   2   2   2   2   2   2   2
#     4  11  22  39  62  99 135 191 222 280 333 409
#     4  11  24  50  75 101 130 179 231 297 357 405
#     4  11  24  42  63 104 137 182 224 283 336 419
#     4  11  26  46  76 100 137 178 233 289 349 408
#     4  10  22  38  61  93 141 175 231 266 335 409
#     4  11  22  41  65  99 137 187 222 284 338 408
#     4  12  22  38  62  99 145 184 229 270 331 412
#     4  11  22  41  71  93 139 181 230 285 350 399
#
# _framework density 23.616513999999999
#
# number of rings (size 3 to 8) (size 9 to 14) (size 15 to 20)
#    0.000    1.000    3.750    3.000    0.000    6.500 
#    2.250    0.625    5.500    0.000    0.000    0.000 
#    0.000    0.000    0.000    0.000    0.000    0.000 
#
# Total GULP energy -89418.284566 kJ/mol
# GULP energy per Si atom -5588.642785 kJ/mol
# Density = 2.356276 g / cm^3
# Si number density = 23.616514 Si / 1000 Ang^3
#
#
#
# Elastic Constant Matrix: (Units=GPa)
#
#
# Indices 1 2 3 4 5 6 
#
# 1 95.8939 33.4815 34.7630 8.8980 31.2056 20.8897
# 2 33.4815 91.9643 13.9605 13.0214 11.3068 -3.7582
# 3 34.7630 13.9605 40.9530 -10.7911 27.5558 -3.8846
# 4 8.8980 13.0214 -10.7911 28.4758 -6.9677 5.6000
# 5 31.2056 11.3068 27.5558 -6.9677 50.3636 4.2944
# 6 20.8897 -3.7582 -3.8846 5.6000 4.2944 35.3299
#
#
#
# Elastic Compliance Matrix: (Units=1/GPa)
#
#
# Indices 1 2 3 4 5 6 
#
# 1 0.026172 -0.004481 -0.023860 -0.012584 -0.002509 -0.016276
# 2 -0.004481 0.014064 -0.001788 -0.006915 -0.000798 0.005142
# 3 -0.023860 -0.001788 0.066976 0.024959 -0.019688 0.019719
# 4 -0.012584 -0.006915 0.024959 0.052203 0.002845 0.000829
# 5 -0.002509 -0.000798 -0.019688 0.002845 0.033203 -0.005253
# 6 -0.016276 0.005142 0.019719 0.000829 -0.005253 0.041150
#
#
# Mechanical properties :
#
#
# Convention : Reuss Voigt Hill
#
# Bulk Modulus (GPa) = 21.29777 43.69122 32.49450
# Shear Modulus (GPa) = 16.14574 32.60761 24.37667
#
# Velocity S-wave (km/s) = 2.61753 3.71982 3.21625
# Velocity P-wave (km/s) = 4.26299 6.08193 5.25181
#
# Compressibility (1/GPa) = 0.04695327
#
# Stress axis : x y z
#
# Youngs Moduli (GPa) = 38.20856 71.10362 14.93063
#
# Poissons Ratio (x) = 0.31863 0.35625
# Poissons Ratio (y) = 0.17122 0.02670
# Poissons Ratio (z) = 0.91167 0.12713
#
# Static dielectric constant tensor:
#      x y z
#    x 1.931330 0.011420 0.037140 
#    y 0.011420 1.918900 -0.003210 
#    z 0.037140 -0.003210 1.917230 
# 
# From -- ./inp_files/493403.got.cif
#   From: 2010.05.17/outbox.cif.g08.bks.cpg/sg2_247_cif.got.tgz:493403.got - 2010.06.03 11:33:40.
