data_PCOD9021288
_publ_section_title
;
Structure prediction by ZEFSAII (Michael W. Deem and Ramdas Pophale) SiO2 
 PCOD9021288
Probable space group: P -1
;
_chemical_formula_sum "Si O2"
_cell_formula_units_Z 16
_cell_length_a 18.858624
_cell_length_b 16.000265
_cell_length_c 8.765074
_cell_angle_alpha 132.182418
_cell_angle_beta 59.816909
_cell_angle_gamma 157.876071
_cell_volume 667.266923
_symmetry_space_group_name_H-M "P -1"
_symmetry_group_IT_number 2
_symmetry_cell_setting 'triclinic'
loop_
_space_group_symop_operation_xyz
x,y,z
-x,-y,-z
loop_
_atom_site_type_symbol
_atom_site_label
_atom_site_fract_x
_atom_site_fract_y
_atom_site_fract_z
Si Si1 0.089306 0.290581 0.493901
Si Si2 0.595681 0.269920 0.717995
Si Si3 0.776042 0.957327 0.211852
Si Si4 0.806406 0.835387 0.478404
Si Si5 0.833442 0.357118 0.605540
Si Si6 0.317683 0.418474 0.172875
Si Si7 0.810067 0.065928 0.951685
Si Si8 0.418453 0.676847 0.860931
O O1 0.227359 0.369698 0.356569
O O2 0.250718 0.520506 0.738099
O O3 0.987583 0.250720 0.437174
O O4 0.874623 0.973991 0.414416
O O5 0.713448 0.306333 0.586296
O O6 0.724424 0.543033 0.866349
O O7 0.361245 0.966850 0.532602
O O8 0.580078 0.256802 0.900127
O O9 0.564734 0.711596 0.236199
O O10 0.784163 0.832012 0.024999
O O11 0.766394 0.994590 0.095008
O O12 0.628398 0.516892 0.292115
O O13 0.797066 0.927020 0.717734
O O14 0.000000 0.000000 0.500000
O O15 0.000000 0.500000 0.500000
O O16 0.964829 0.590821 0.875233
O O17 0.656967 0.960873 0.904791
#
# Coordination Sequence:
#
# PCOD9021288 Si02
#       8
#     2   2   2   2   2   2   2   2
#     4  11  24  36  59  91 134 174 209 264 332 389
#     4  11  23  43  70  99 131 171 229 285 320 391
#     4  11  23  39  64  95 137 179 219 263 331 407
#     4  10  22  38  59  95 136 173 214 265 333 397
#     4  11  22  41  70 100 124 169 236 287 321 372
#     4  11  23  41  63  97 136 177 220 268 333 403
#     4  12  23  42  71  97 133 178 226 276 325 397
#     4  11  22  41  63  99 135 174 220 272 336 394
#
# _framework density 23.978408999999999
#
# number of rings (size 3 to 8) (size 9 to 14) (size 15 to 20)
#    0.000    1.000    2.500    5.250    3.500    1.000 
#    0.000    0.000    0.000   12.750    0.000    0.000 
#    0.000    0.000    0.000    0.000    0.000    0.000 
#
# Total GULP energy -89215.869553 kJ/mol
# GULP energy per Si atom -5575.991847 kJ/mol
# Density = 2.392383 g / cm^3
# Si number density = 23.978409 Si / 1000 Ang^3
#
#
#
# Elastic Constant Matrix: (Units=GPa)
#
#
# Indices 1 2 3 4 5 6 
#
# 1 64.8280 12.6331 21.6047 -1.2359 4.9784 25.2688
# 2 12.6331 100.8906 36.5750 -5.7664 3.8447 25.9173
# 3 21.6047 36.5750 100.2059 2.2778 5.5889 12.6695
# 4 -1.2359 -5.7664 2.2778 39.0277 5.4223 -3.4531
# 5 4.9784 3.8447 5.5889 5.4223 41.3192 -1.2463
# 6 25.2688 25.9173 12.6695 -3.4531 -1.2463 34.3474
#
#
#
# Elastic Compliance Matrix: (Units=1/GPa)
#
#
# Indices 1 2 3 4 5 6 
#
# 1 0.023490 0.003307 -0.003762 0.000265 -0.003221 -0.018480
# 2 0.003307 0.014180 -0.004391 0.001682 -0.001689 -0.011405
# 3 -0.003762 -0.004391 0.012278 -0.001279 -0.000589 0.001402
# 4 0.000265 0.001682 -0.001279 0.026572 -0.003456 0.001554
# 5 -0.003221 -0.001689 -0.000589 -0.003456 0.025414 0.004436
# 6 -0.018480 -0.011405 0.001402 0.001554 0.004436 0.051116
#
#
# Mechanical properties :
#
#
# Convention : Reuss Voigt Hill
#
# Bulk Modulus (GPa) = 24.84004 45.28332 35.06168
# Shear Modulus (GPa) = 28.38367 35.94630 32.16498
#
# Velocity S-wave (km/s) = 3.44425 3.87604 3.66651
# Velocity P-wave (km/s) = 5.11850 6.24160 5.70774
#
# Compressibility (1/GPa) = 0.04025758
#
# Stress axis : x y z
#
# Youngs Moduli (GPa) = 42.57139 70.52392 81.44836
#
# Poissons Ratio (x) = -0.23325 0.30637
# Poissons Ratio (y) = -0.14080 0.35761
# Poissons Ratio (z) = 0.16013 0.30964
#
# Static dielectric constant tensor:
#      x y z
#    x 2.051870 -0.094920 0.000030 
#    y -0.094920 2.103650 0.072530 
#    z 0.000030 0.072530 1.975950 
# 
# From -- ./inp_files/348586.got.cif
#   From: 2010.05.17/outbox.cif.g08.bks.cpg/sg2_175_cif.got.tgz:348586.got - 2010.06.03 11:33:40.
