data_PCOD9021488
_publ_section_title
;
Structure prediction by ZEFSAII (Michael W. Deem and Ramdas Pophale) SiO2 
 PCOD9021488
Probable space group: P -1
;
_chemical_formula_sum "Si O2"
_cell_formula_units_Z 16
_cell_length_a 11.494471
_cell_length_b 6.461555
_cell_length_c 24.279140
_cell_angle_alpha 124.261134
_cell_angle_beta 147.639858
_cell_angle_gamma 58.802949
_cell_volume 794.019907
_symmetry_space_group_name_H-M "P -1"
_symmetry_group_IT_number 2
_symmetry_cell_setting 'triclinic'
loop_
_space_group_symop_operation_xyz
x,y,z
-x,-y,-z
loop_
_atom_site_type_symbol
_atom_site_label
_atom_site_fract_x
_atom_site_fract_y
_atom_site_fract_z
Si Si1 0.470134 0.700726 0.606578
Si Si2 0.856576 0.842975 0.497535
Si Si3 0.676081 0.325366 0.334818
Si Si4 0.298768 0.208215 0.090536
Si Si5 0.284700 0.190603 0.439241
Si Si6 0.033169 0.438220 0.919861
Si Si7 0.274050 0.657127 0.949991
Si Si8 0.906476 0.897008 0.764487
O O1 0.467823 0.653920 0.664199
O O2 0.376584 0.458258 0.506375
O O3 0.705854 0.767181 0.691545
O O4 0.299900 0.931036 0.555079
O O5 0.775897 0.587794 0.402454
O O6 0.827600 0.816147 0.547529
O O7 0.111742 0.862210 0.593461
O O8 0.531019 0.252389 0.215543
O O9 0.117969 0.325643 0.079998
O O10 0.227723 0.362860 0.029972
O O11 0.300013 0.914814 0.032679
O O12 0.130340 0.119028 0.317686
O O13 0.500000 0.000000 0.500000
O O14 0.133104 0.496802 0.909907
O O15 0.904081 0.188304 0.826044
O O16 0.129897 0.750231 0.853385
O O17 0.500000 0.500000 0.000000
#
# Coordination Sequence:
#
# PCOD9021488 Si02
#       8
#     2   2   2   2   2   2   2   2
#     4  11  22  39  62  91 125 160 214 249 310 373
#     4  10  22  39  59  91 129 166 203 252 311 371
#     4  10  22  38  62  91 127 162 204 256 311 370
#     4  10  22  41  65  94 118 168 210 259 313 369
#     4  11  24  38  59  94 125 161 209 255 302 372
#     4  10  23  43  67  90 125 158 219 263 306 374
#     4  11  26  43  63  95 128 162 209 260 321 378
#     4  11  24  39  66  92 121 170 205 262 313 363
#
# _framework density 20.150628000000001
#
# number of rings (size 3 to 8) (size 9 to 14) (size 15 to 20)
#    0.000    1.500    1.250    2.625    3.500    8.000 
#    0.000    0.000    0.000    0.000    0.000    0.000 
#    0.000    0.000    0.000    0.000    0.000    0.000 
#
# Total GULP energy -89402.846052 kJ/mol
# GULP energy per Si atom -5587.677878 kJ/mol
# Density = 2.010476 g / cm^3
# Si number density = 20.150628 Si / 1000 Ang^3
#
#
#
# Elastic Constant Matrix: (Units=GPa)
#
#
# Indices 1 2 3 4 5 6 
#
# 1 60.1587 13.9851 14.1850 3.1107 -0.8331 -3.9514
# 2 13.9851 104.5498 41.8725 -8.2350 6.1748 -17.9159
# 3 14.1850 41.8725 144.1743 -4.4000 -17.7594 -5.5990
# 4 3.1107 -8.2350 -4.4000 23.9034 -4.9420 2.7163
# 5 -0.8331 6.1748 -17.7594 -4.9420 25.2977 -5.3238
# 6 -3.9514 -17.9159 -5.5990 2.7163 -5.3238 26.2843
#
#
#
# Elastic Compliance Matrix: (Units=1/GPa)
#
#
# Indices 1 2 3 4 5 6 
#
# 1 0.017618 -0.001859 -0.001268 -0.003372 -0.000217 0.001416
# 2 -0.001859 0.012859 -0.003703 0.002423 -0.003927 0.006651
# 3 -0.001268 -0.003703 0.009194 0.002138 0.007864 0.000616
# 4 -0.003372 0.002423 0.002138 0.045592 0.009453 -0.001197
# 5 -0.000217 -0.003927 0.007864 0.009453 0.049536 0.008022
# 6 0.001416 0.006651 0.000616 -0.001197 0.008022 0.044672
#
#
# Mechanical properties :
#
#
# Convention : Reuss Voigt Hill
#
# Bulk Modulus (GPa) = 38.44573 49.88533 44.16553
# Shear Modulus (GPa) = 24.77672 31.01979 27.89825
#
# Velocity S-wave (km/s) = 3.51033 3.92777 3.72490
# Velocity P-wave (km/s) = 5.96243 6.73645 6.36122
#
# Compressibility (1/GPa) = 0.02601069
#
# Stress axis : x y z
#
# Youngs Moduli (GPa) = 56.75933 77.76594 108.76496
#
# Poissons Ratio (x) = 0.14456 0.13794
# Poissons Ratio (y) = 0.10551 0.40278
# Poissons Ratio (z) = 0.07198 0.28798
#
# Static dielectric constant tensor:
#      x y z
#    x 1.613900 0.256230 -0.121720 
#    y 0.256230 1.126320 0.270390 
#    z -0.121720 0.270390 1.571260 
# 
# From -- ./inp_files/38032.got.cif
#   From: 2010.05.17/outbox.cif.g08.bks.cpg/sg2_20_cif.got.tgz:38032.got - 2010.06.03 11:33:40.
