data_PCOD9021044
_publ_section_title
;
Structure prediction by ZEFSAII (Michael W. Deem and Ramdas Pophale) SiO2 
 PCOD9021044
Probable space group: P -1
;
_chemical_formula_sum "Si O2"
_cell_formula_units_Z 12
_cell_length_a 8.416322
_cell_length_b 9.404909
_cell_length_c 9.198059
_cell_angle_alpha 79.836450
_cell_angle_beta 45.934202
_cell_angle_gamma 105.059323
_cell_volume 433.116803
_symmetry_space_group_name_H-M "P -1"
_symmetry_group_IT_number 2
_symmetry_cell_setting 'triclinic'
loop_
_space_group_symop_operation_xyz
x,y,z
-x,-y,-z
loop_
_atom_site_type_symbol
_atom_site_label
_atom_site_fract_x
_atom_site_fract_y
_atom_site_fract_z
Si Si1 0.751213 0.918655 0.361851
Si Si2 0.846178 0.736943 0.828541
Si Si3 0.316358 0.052405 0.941323
Si Si4 0.367430 0.555722 0.771709
Si Si5 0.854135 0.524915 0.374262
Si Si6 0.146766 0.764844 0.391382
O O1 0.692659 0.916279 0.229630
O O2 0.510326 0.760818 0.627417
O O3 0.873058 0.110711 0.309724
O O4 0.013555 0.908745 0.199728
O O5 0.897728 0.760008 0.619727
O O6 0.657890 0.793464 0.004029
O O7 0.742338 0.548756 0.990480
O O8 0.578922 0.054847 0.803130
O O9 0.596231 0.524513 0.584003
O O10 0.147478 0.467678 0.800137
O O11 0.824542 0.354008 0.487485
O O12 0.092095 0.671553 0.290472
#
# Coordination Sequence:
#
# PCOD9021044 Si02
#       6
#     2   2   2   2   2   2
#     4   9  19  39  65  92 125 172 203 257 325 370
#     4  10  22  37  71  92 124 168 210 261 319 367
#     4   9  18  40  59  89 128 166 197 260 312 372
#     4  11  19  43  67  92 125 171 210 259 314 383
#     4  10  22  37  65  91 132 166 209 261 316 376
#     4  11  21  41  62  99 125 166 214 258 321 376
#
# _framework density 27.706154999999999
#
# number of rings (size 3 to 8) (size 9 to 14) (size 15 to 20)
#    1.000    1.000    3.333    1.000    0.000    2.000 
#    0.000    3.333    0.000    2.000    0.000    0.000 
#    0.000    0.000    0.000    0.000    0.000    0.000 
#
# Total GULP energy -67061.974739 kJ/mol
# GULP energy per Si atom -5588.497895 kJ/mol
# Density = 2.764309 g / cm^3
# Si number density = 27.706155 Si / 1000 Ang^3
#
#
#
# Elastic Constant Matrix: (Units=GPa)
#
#
# Indices 1 2 3 4 5 6 
#
# 1 60.3180 30.4218 37.8891 -10.1452 4.0001 14.4331
# 2 30.4218 95.6395 54.6438 -11.8943 8.4968 20.9745
# 3 37.8891 54.6438 161.1634 -21.5807 18.5872 24.3006
# 4 -10.1452 -11.8943 -21.5807 43.5158 -8.5968 -0.5544
# 5 4.0001 8.4968 18.5872 -8.5968 39.3586 -7.4332
# 6 14.4331 20.9745 24.3006 -0.5544 -7.4332 50.2321
#
#
#
# Elastic Compliance Matrix: (Units=1/GPa)
#
#
# Indices 1 2 3 4 5 6 
#
# 1 0.021672 -0.004298 -0.002862 0.002427 0.000038 -0.003015
# 2 -0.004298 0.014665 -0.003065 0.001098 -0.001731 -0.003650
# 3 -0.002862 -0.003065 0.009016 0.002275 -0.003323 -0.002726
# 4 0.002427 0.001098 0.002275 0.025705 0.003790 -0.001412
# 5 0.000038 -0.001731 -0.003323 0.003790 0.029443 0.006718
# 6 -0.003015 -0.003650 -0.002726 -0.001412 0.006718 0.024595
#
#
# Mechanical properties :
#
#
# Convention : Reuss Voigt Hill
#
# Bulk Modulus (GPa) = 40.15777 62.55893 51.35835
# Shear Modulus (GPa) = 32.49959 39.56572 36.03266
#
# Velocity S-wave (km/s) = 3.42864 3.78305 3.61020
# Velocity P-wave (km/s) = 5.49543 6.45836 5.99626
#
# Compressibility (1/GPa) = 0.02490178
#
# Stress axis : x y z
#
# Youngs Moduli (GPa) = 46.14268 68.18934 110.91533
#
# Poissons Ratio (x) = 0.29311 0.31748
# Poissons Ratio (y) = 0.19834 0.33993
# Poissons Ratio (z) = 0.13208 0.20898
#
# Static dielectric constant tensor:
#      x y z
#    x 2.130340 -0.027080 -0.043800 
#    y -0.027080 2.155770 -0.011610 
#    z -0.043800 -0.011610 2.170090 
# 
# From -- ./inp_files/178639.got.cif
#   From: 2010.05.17/outbox.cif.g08.bks.cpg/sg2_90_cif.got.tgz:178639.got - 2010.06.03 11:33:40.
