data_PCOD9021179
_publ_section_title
;
Structure prediction by ZEFSAII (Michael W. Deem and Ramdas Pophale) SiO2 
 PCOD9021179
Probable space group: P -1
;
_chemical_formula_sum "Si O2"
_cell_formula_units_Z 16
_cell_length_a 21.681956
_cell_length_b 11.236631
_cell_length_c 13.255015
_cell_angle_alpha 147.038566
_cell_angle_beta 22.897448
_cell_angle_gamma 135.571777
_cell_volume 656.724216
_symmetry_space_group_name_H-M "P -1"
_symmetry_group_IT_number 2
_symmetry_cell_setting 'triclinic'
loop_
_space_group_symop_operation_xyz
x,y,z
-x,-y,-z
loop_
_atom_site_type_symbol
_atom_site_label
_atom_site_fract_x
_atom_site_fract_y
_atom_site_fract_z
Si Si1 0.273383 0.700341 0.489537
Si Si2 0.830153 0.960155 0.269354
Si Si3 0.487622 0.745324 0.819111
Si Si4 0.993516 0.537194 0.332001
Si Si5 0.243402 0.986905 0.201243
Si Si6 0.976235 0.006788 0.287808
Si Si7 0.384497 0.399051 0.279887
Si Si8 0.178996 0.605492 0.914138
O O1 0.305357 0.871063 0.476900
O O2 0.403726 0.549062 0.263506
O O3 0.176747 0.533841 0.464159
O O4 0.139988 0.862140 0.882438
O O5 0.837728 0.014922 0.415540
O O6 0.864437 0.690348 0.011799
O O7 0.000000 0.000000 0.000000
O O8 0.476553 0.635892 0.867631
O O9 0.665301 0.585173 0.405304
O O10 0.352198 0.784757 0.965538
O O11 0.500000 0.000000 0.000000
O O12 0.000530 0.750697 0.540930
O O13 0.027727 0.590540 0.201435
O O14 0.089550 0.090856 0.581972
O O15 0.345470 0.162045 0.145513
O O16 0.199548 0.856172 0.079515
O O17 0.218260 0.529020 0.686212
#
# Coordination Sequence:
#
# PCOD9021179 Si02
#       8
#     2   2   2   2   2   2   2   2
#     4  10  20  31  44  65  97 125 146 182 220 273
#     4   8  17  30  46  64  88 121 153 187 220 255
#     4   8  17  30  48  67  89 119 149 182 221 264
#     4   9  17  30  47  70  91 115 151 190 219 264
#     4  10  17  31  49  70  89 116 151 190 220 264
#     4   9  18  29  49  71  87 115 155 187 228 254
#     4   9  19  31  43  66  96 123 150 172 224 271
#     4   9  18  29  47  71  91 114 149 182 230 260
#
# _framework density 24.363350000000001
#
# number of rings (size 3 to 8) (size 9 to 14) (size 15 to 20)
#    0.750    2.500    0.000    1.875    0.000    7.500 
#    0.000    2.500    0.000    0.750    0.000    1.750 
#    0.000    0.000    0.000    0.000    0.000    0.000 
#
# Total GULP energy -89212.251460 kJ/mol
# GULP energy per Si atom -5575.765716 kJ/mol
# Density = 2.430790 g / cm^3
# Si number density = 24.363350 Si / 1000 Ang^3
#
#
#
# Elastic Constant Matrix: (Units=GPa)
#
#
# Indices 1 2 3 4 5 6 
#
# 1 106.2000 23.9283 30.5751 22.3555 -5.0369 -20.5698
# 2 23.9283 75.9848 23.6586 4.7023 22.6504 -15.9749
# 3 30.5751 23.6586 70.2224 10.3952 13.4784 -0.4323
# 4 22.3555 4.7023 10.3952 34.0722 1.8619 -3.7465
# 5 -5.0369 22.6504 13.4784 1.8619 45.4788 11.5974
# 6 -20.5698 -15.9749 -0.4323 -3.7465 11.5974 37.7600
#
#
#
# Elastic Compliance Matrix: (Units=1/GPa)
#
#
# Indices 1 2 3 4 5 6 
#
# 1 0.013888 -0.002390 -0.004796 -0.006964 0.003205 0.004824
# 2 -0.002390 0.021299 -0.003873 0.001805 -0.012801 0.011775
# 3 -0.004796 -0.003873 0.018543 -0.002163 -0.003173 -0.003279
# 4 -0.006964 0.001805 -0.002163 0.034615 -0.002759 0.001227
# 5 0.003205 -0.012801 -0.003173 -0.002759 0.033403 -0.014239
# 6 0.004824 0.011775 -0.003279 0.001227 -0.014239 0.038550
#
#
# Mechanical properties :
#
#
# Convention : Reuss Voigt Hill
#
# Bulk Modulus (GPa) = 31.63444 45.41459 38.52451
# Shear Modulus (GPa) = 25.91304 35.07854 30.49579
#
# Velocity S-wave (km/s) = 3.26484 3.79860 3.54179
# Velocity P-wave (km/s) = 5.21774 6.15793 5.70723
#
# Compressibility (1/GPa) = 0.03161112
#
# Stress axis : x y z
#
# Youngs Moduli (GPa) = 72.00554 46.95062 53.93011
#
# Poissons Ratio (x) = 0.11223 0.25865
# Poissons Ratio (y) = 0.17212 0.20885
# Poissons Ratio (z) = 0.34535 0.18182
#
# Static dielectric constant tensor:
#      x y z
#    x 2.008880 -0.061740 -0.128130 
#    y -0.061740 1.929850 -0.027840 
#    z -0.128130 -0.027840 2.075040 
# 
# From -- ./inp_files/543994.got.cif
#   From: 2010.05.17/outbox.cif.g08.bks.cpg/sg2_272_cif.got.tgz:543994.got - 2010.06.03 11:33:40.
