data_PCOD9021575
_publ_section_title
;
Structure prediction by ZEFSAII (Michael W. Deem and Ramdas Pophale) SiO2 
 PCOD9021575
Probable space group: P -1
;
_chemical_formula_sum "Si O2"
_cell_formula_units_Z 16
_cell_length_a 17.236434
_cell_length_b 23.790156
_cell_length_c 10.001481
_cell_angle_alpha 31.209321
_cell_angle_beta 149.463645
_cell_angle_gamma 157.330113
_cell_volume 763.809110
_symmetry_space_group_name_H-M "P -1"
_symmetry_group_IT_number 2
_symmetry_cell_setting 'triclinic'
loop_
_space_group_symop_operation_xyz
x,y,z
-x,-y,-z
loop_
_atom_site_type_symbol
_atom_site_label
_atom_site_fract_x
_atom_site_fract_y
_atom_site_fract_z
Si Si1 0.316822 0.200460 0.623781
Si Si2 0.900476 0.519387 0.482292
Si Si3 0.275968 0.362685 0.015712
Si Si4 0.882936 0.770752 0.225055
Si Si5 0.711447 0.919917 0.655609
Si Si6 0.203549 0.522133 0.279688
Si Si7 0.766110 0.245266 0.679457
Si Si8 0.880514 0.066498 0.319746
O O1 0.575824 0.326544 0.773154
O O2 0.130889 0.155780 0.535557
O O3 0.216346 0.041977 0.734160
O O4 0.301735 0.277312 0.324203
O O5 0.781721 0.558052 0.151008
O O6 0.795020 0.470800 0.570513
O O7 0.862081 0.385607 0.633233
O O8 0.143565 0.680621 0.485706
O O9 0.107977 0.248658 0.881278
O O10 0.500000 0.500000 0.000000
O O11 0.827319 0.622736 0.502978
O O12 0.722859 0.794976 0.950894
O O13 0.100932 0.926382 0.295167
O O14 0.487589 0.862639 0.477288
O O15 0.754316 0.965458 0.469954
O O16 0.000000 0.500000 0.000000
O O17 0.840289 0.170429 0.008849
#
# Coordination Sequence:
#
# PCOD9021575 Si02
#       8
#     2   2   2   2   2   2   2   2
#     4  11  22  39  66  89 119 157 209 251 302 360
#     4  10  22  38  63  91 116 155 210 245 303 361
#     4  11  17  39  67  83 110 158 208 252 291 357
#     4  10  23  40  64  85 120 165 208 241 309 368
#     4  11  23  41  59  90 130 164 196 248 317 361
#     4  11  25  42  63  90 123 162 205 253 302 361
#     4  11  23  38  64  92 124 156 203 259 300 362
#     4  11  24  38  64  94 123 159 205 254 306 360
#
# _framework density 20.947641999999998
#
# number of rings (size 3 to 8) (size 9 to 14) (size 15 to 20)
#    0.000    1.250    5.000    1.875    3.500    0.000 
#    4.500    3.125    0.000    0.000    0.000    0.000 
#    0.000    0.000    0.000    0.000    0.000    0.000 
#
# Total GULP energy -89092.128830 kJ/mol
# GULP energy per Si atom -5568.258052 kJ/mol
# Density = 2.089996 g / cm^3
# Si number density = 20.947642 Si / 1000 Ang^3
#
#
#
# Elastic Constant Matrix: (Units=GPa)
#
#
# Indices 1 2 3 4 5 6 
#
# 1 32.5133 22.6815 14.2913 -4.2116 25.1785 7.0506
# 2 22.6815 98.0449 37.6683 11.0975 26.0190 16.4942
# 3 14.2913 37.6683 116.7779 -2.8134 39.7510 -15.8854
# 4 -4.2116 11.0975 -2.8134 31.3019 -4.4828 14.0779
# 5 25.1785 26.0190 39.7510 -4.4828 35.9376 -1.9216
# 6 7.0506 16.4942 -15.8854 14.0779 -1.9216 34.4284
#
#
#
# Elastic Compliance Matrix: (Units=1/GPa)
#
#
# Indices 1 2 3 4 5 6 
#
# 1 0.093735 -0.004661 0.013742 0.013719 -0.076885 -0.020524
# 2 -0.004661 0.015640 -0.003976 -0.004043 -0.004537 -0.006973
# 3 0.013742 -0.003976 0.018117 -0.001978 -0.026673 0.006770
# 4 0.013719 -0.004043 -0.001978 0.043919 -0.000075 -0.019748
# 5 -0.076885 -0.004537 -0.026673 -0.000075 0.115117 0.012068
# 6 -0.020524 -0.006973 0.006770 -0.019748 0.012068 0.048462
#
#
# Mechanical properties :
#
#
# Convention : Reuss Voigt Hill
#
# Bulk Modulus (GPa) = 7.26201 44.06870 25.66536
# Shear Modulus (GPa) = 13.48869 31.84658 22.66764
#
# Velocity S-wave (km/s) = 2.54032 3.90332 3.29311
# Velocity P-wave (km/s) = 3.47542 6.43411 5.17090
#
# Compressibility (1/GPa) = 0.13770286
#
# Stress axis : x y z
#
# Youngs Moduli (GPa) = 10.66832 63.93881 55.19762
#
# Poissons Ratio (x) = 0.29800 -0.75853
# Poissons Ratio (y) = 0.04972 0.21946
# Poissons Ratio (z) = -0.14661 0.25422
#
# Static dielectric constant tensor:
#      x y z
#    x 1.827490 0.047340 0.022870 
#    y 0.047340 1.849440 0.021320 
#    z 0.022870 0.021320 1.812540 
# 
# From -- ./inp_files/467647.got.cif
#   From: 2010.05.17/outbox.cif.g08.bks.cpg/sg2_234_cif.got.tgz:467647.got - 2010.06.03 11:33:40.
