data_PCOD9021618
_publ_section_title
;
Structure prediction by ZEFSAII (Michael W. Deem and Ramdas Pophale) SiO2 
 PCOD9021618
Probable space group: P -1
;
_chemical_formula_sum "Si O2"
_cell_formula_units_Z 16
_cell_length_a 23.571179
_cell_length_b 5.277416
_cell_length_c 9.263934
_cell_angle_alpha 88.662446
_cell_angle_beta 49.464173
_cell_angle_gamma 59.272840
_cell_volume 663.485834
_symmetry_space_group_name_H-M "P -1"
_symmetry_group_IT_number 2
_symmetry_cell_setting 'triclinic'
loop_
_space_group_symop_operation_xyz
x,y,z
-x,-y,-z
loop_
_atom_site_type_symbol
_atom_site_label
_atom_site_fract_x
_atom_site_fract_y
_atom_site_fract_z
Si Si1 0.570788 0.659983 0.296473
Si Si2 0.756921 0.689707 0.400330
Si Si3 0.205245 0.850231 0.120583
Si Si4 0.420003 0.660643 0.437421
Si Si5 0.220023 0.963494 0.423788
Si Si6 0.866333 0.474402 0.923771
Si Si7 0.032902 0.178696 0.858838
Si Si8 0.410758 0.322251 0.223796
O O1 0.498448 0.710241 0.295463
O O2 0.592030 0.382635 0.376163
O O3 0.500000 0.000000 0.500000
O O4 0.680157 0.498542 0.075729
O O5 0.816812 0.497575 0.158524
O O6 0.670919 0.687449 0.580615
O O7 0.689338 0.069768 0.445474
O O8 0.802101 0.712916 0.470961
O O9 0.190502 0.971527 0.308585
O O10 0.144436 0.741566 0.163034
O O11 0.180616 0.160704 0.065462
O O12 0.461215 0.352030 0.273003
O O13 0.337994 0.658772 0.242665
O O14 0.149625 0.938466 0.639117
O O15 0.976139 0.298939 0.798380
O O16 0.000000 0.500000 0.000000
O O17 0.000000 0.000000 0.000000
O O18 0.500000 0.000000 0.000000
#
# Coordination Sequence:
#
# PCOD9021618 Si02
#       8
#     2   2   2   2   2   2   2   2
#     4  11  23  39  65  96 143 199 252 302 366 449
#     4  11  23  46  71 102 144 197 263 307 369 458
#     4  12  29  46  73 114 156 195 248 318 390 440
#     4  10  22  38  63  95 132 189 260 296 357 438
#     4  11  29  46  73 114 151 195 255 319 381 460
#     4  12  26  49  79 109 151 198 252 315 380 455
#     4  12  26  50  87 116 146 198 258 313 384 461
#     4  11  26  42  69 102 152 199 248 314 380 440
#
# _framework density 24.115061000000001
#
# number of rings (size 3 to 8) (size 9 to 14) (size 15 to 20)
#    0.000    0.750    2.500    3.750   10.500    2.000 
#    0.000    0.000    0.000    0.000    0.000    0.000 
#    0.000    0.000    0.000    0.000    0.000    0.000 
#
# Total GULP energy -89283.468464 kJ/mol
# GULP energy per Si atom -5580.216779 kJ/mol
# Density = 2.406017 g / cm^3
# Si number density = 24.115061 Si / 1000 Ang^3
#
#
#
# Elastic Constant Matrix: (Units=GPa)
#
#
# Indices 1 2 3 4 5 6 
#
# 1 187.3124 32.5455 43.8830 10.1125 14.5897 22.4023
# 2 32.5455 66.3948 21.4496 0.8118 3.1321 12.6292
# 3 43.8830 21.4496 90.5760 12.4976 -2.9090 -5.8054
# 4 10.1125 0.8118 12.4976 21.6030 -4.3711 -2.9546
# 5 14.5897 3.1321 -2.9090 -4.3711 41.6998 5.0414
# 6 22.4023 12.6292 -5.8054 -2.9546 5.0414 46.9388
#
#
#
# Elastic Compliance Matrix: (Units=1/GPa)
#
#
# Indices 1 2 3 4 5 6 
#
# 1 0.007025 -0.001757 -0.002928 -0.002444 -0.002407 -0.003137
# 2 -0.001757 0.018019 -0.003949 0.001774 -0.000302 -0.004354
# 3 -0.002928 -0.003949 0.014518 -0.006117 0.001241 0.003737
# 4 -0.002444 0.001774 -0.006117 0.052374 0.005466 0.002642
# 5 -0.002407 -0.000302 0.001241 0.005466 0.025629 -0.001025
# 6 -0.003137 -0.004354 0.003737 0.002642 -0.001025 0.024712
#
#
# Mechanical properties :
#
#
# Convention : Reuss Voigt Hill
#
# Bulk Modulus (GPa) = 44.85876 60.00437 52.43156
# Shear Modulus (GPa) = 29.94417 38.47534 34.20975
#
# Velocity S-wave (km/s) = 3.52763 3.99869 3.77052
# Velocity P-wave (km/s) = 5.93587 6.80117 6.38320
#
# Compressibility (1/GPa) = 0.02229219
#
# Stress axis : x y z
#
# Youngs Moduli (GPa) = 142.35484 55.49583 68.88016
#
# Poissons Ratio (x) = 0.09751 0.20171
# Poissons Ratio (y) = 0.25013 0.27204
# Poissons Ratio (z) = 0.41687 0.21918
#
# Static dielectric constant tensor:
#      x y z
#    x 2.028730 -0.229950 0.110060 
#    y -0.229950 2.652090 -0.265080 
#    z 0.110060 -0.265080 2.093010 
# 
# From -- ./inp_files/56978.got.cif
#   From: 2010.05.17/outbox.cif.g08.bks.cpg/sg2_29_cif.got.tgz:56978.got - 2010.06.03 11:33:40.
