data_PCOD9021504
_publ_section_title
;
Structure prediction by ZEFSAII (Michael W. Deem and Ramdas Pophale) SiO2 
 PCOD9021504
Probable space group: P -1
;
_chemical_formula_sum "Si O2"
_cell_formula_units_Z 16
_cell_length_a 8.131766
_cell_length_b 7.827103
_cell_length_c 20.020824
_cell_angle_alpha 54.100282
_cell_angle_beta 106.709284
_cell_angle_gamma 118.768268
_cell_volume 904.800555
_symmetry_space_group_name_H-M "P -1"
_symmetry_group_IT_number 2
_symmetry_cell_setting 'triclinic'
loop_
_space_group_symop_operation_xyz
x,y,z
-x,-y,-z
loop_
_atom_site_type_symbol
_atom_site_label
_atom_site_fract_x
_atom_site_fract_y
_atom_site_fract_z
Si Si1 0.715178 0.149740 0.502340
Si Si2 0.284821 0.441621 0.497632
Si Si3 0.718500 0.256577 0.901861
Si Si4 0.279545 0.039558 0.900176
Si Si5 0.995593 0.497314 0.361890
Si Si6 0.954655 0.279290 0.173953
Si Si7 0.045316 0.346517 0.826081
Si Si8 0.004396 0.087385 0.638079
O O1 0.734892 0.363654 0.502529
O O2 0.824531 0.268488 0.420801
O O3 0.821825 0.019959 0.585247
O O4 0.500000 0.000000 0.500000
O O5 0.500000 0.500000 0.500000
O O6 0.175455 0.206382 0.579160
O O7 0.178172 0.453963 0.414715
O O8 0.500075 0.185618 0.876370
O O9 0.840104 0.529296 0.867200
O O10 0.840049 0.209399 0.867191
O O11 0.728079 0.113116 0.000678
O O12 0.169455 0.201210 0.865412
O O13 0.169540 0.872336 0.865312
O O14 0.982480 0.554832 0.270795
O O15 0.994494 0.714431 0.355227
O O16 0.863334 0.439485 0.161423
O O17 0.982520 0.115290 0.270835
#
# Coordination Sequence:
#
# PCOD9021504 Si02
#       8
#     2   2   2   2   2   2   2   2
#     4   9  19  33  54  78 111 156 193 234 296 343
#     4   9  19  33  54  78 111 156 193 234 296 343
#     4   9  24  40  63  96 115 161 210 232 317 379
#     4  11  20  46  63  84 135 153 188 276 293 347
#     4   9  18  37  54  77 119 155 188 246 296 339
#     4  10  22  38  62  93 117 159 206 241 305 366
#     4  10  22  38  62  93 117 159 206 241 305 366
#     4   9  18  37  54  77 119 155 188 246 296 339
#
# _framework density 17.683456
#
# number of rings (size 3 to 8) (size 9 to 14) (size 15 to 20)
#    0.750    1.750    1.250    2.250    0.000    4.000 
#    2.250    6.250    0.000    0.000    0.000    0.000 
#    0.000    0.000    0.000    0.000    0.000    0.000 
#
# Total GULP energy -89116.839317 kJ/mol
# GULP energy per Si atom -5569.802457 kJ/mol
# Density = 1.764321 g / cm^3
# Si number density = 17.683456 Si / 1000 Ang^3
#
#
#
# Elastic Constant Matrix: (Units=GPa)
#
#
# Indices 1 2 3 4 5 6 
#
# 1 134.9310 61.7640 65.1207 4.4682 7.7441 20.8449
# 2 61.7640 109.2876 53.3414 4.2587 5.1329 14.5663
# 3 65.1207 53.3414 122.7834 -2.0026 -1.7744 16.6590
# 4 4.4682 4.2587 -2.0026 12.4584 -3.9880 2.2138
# 5 7.7441 5.1329 -1.7744 -3.9880 9.4616 3.0904
# 6 20.8449 14.5663 16.6590 2.2138 3.0904 37.7069
#
#
#
# Elastic Compliance Matrix: (Units=1/GPa)
#
#
# Indices 1 2 3 4 5 6 
#
# 1 0.012864 -0.003525 -0.005336 -0.007863 -0.012304 -0.001922
# 2 -0.003525 0.013989 -0.004376 -0.006777 -0.008235 -0.000449
# 3 -0.005336 -0.004376 0.013721 0.011015 0.015036 -0.003300
# 4 -0.007863 -0.006777 0.011015 0.108294 0.060843 -0.009246
# 5 -0.012304 -0.008235 0.015036 0.060843 0.152860 -0.012760
# 6 -0.001922 -0.000449 -0.003300 -0.009246 -0.012760 0.030803
#
#
# Mechanical properties :
#
#
# Convention : Reuss Voigt Hill
#
# Bulk Modulus (GPa) = 70.93301 80.82824 75.88063
# Shear Modulus (GPa) = 13.74742 24.37710 19.06226
#
# Velocity S-wave (km/s) = 2.79125 3.71688 3.28681
# Velocity P-wave (km/s) = 7.11251 8.01423 7.57680
#
# Compressibility (1/GPa) = 0.01409781
#
# Stress axis : x y z
#
# Youngs Moduli (GPa) = 77.73877 71.48468 72.88239
#
# Poissons Ratio (x) = 0.25197 0.38894
# Poissons Ratio (y) = 0.27401 0.31897
# Poissons Ratio (z) = 0.41485 0.31285
#
# Static dielectric constant tensor:
#      x y z
#    x 1.635160 0.003260 -0.003610 
#    y 0.003260 1.632920 -0.001950 
#    z -0.003610 -0.001950 1.578620 
# 
# From -- ./inp_files/212717.got.cif
#   From: 2010.05.17/outbox.cif.g08.bks.cpg/sg2_107_cif.got.tgz:212717.got - 2010.06.03 11:33:40.
