data_PCOD9021999
_publ_section_title
;
Structure prediction by ZEFSAII (Michael W. Deem and Ramdas Pophale) SiO2 
 PCOD9021999
Probable space group: P -1
;
_chemical_formula_sum "Si O2"
_cell_formula_units_Z 16
_cell_length_a 15.028766
_cell_length_b 10.717512
_cell_length_c 7.680303
_cell_angle_alpha 115.102832
_cell_angle_beta 111.824774
_cell_angle_gamma 121.131015
_cell_volume 620.311346
_symmetry_space_group_name_H-M "P -1"
_symmetry_group_IT_number 2
_symmetry_cell_setting 'triclinic'
loop_
_space_group_symop_operation_xyz
x,y,z
-x,-y,-z
loop_
_atom_site_type_symbol
_atom_site_label
_atom_site_fract_x
_atom_site_fract_y
_atom_site_fract_z
Si Si1 0.751790 0.194896 0.758982
Si Si2 0.593829 0.295901 0.687891
Si Si3 0.916303 0.419060 0.630780
Si Si4 0.717621 0.651715 0.549036
Si Si5 0.582407 0.584054 0.922050
Si Si6 0.087969 0.890757 0.570634
Si Si7 0.371617 0.733244 0.713453
Si Si8 0.987233 0.914780 0.180531
O O1 0.696168 0.285175 0.826795
O O2 0.823685 0.284647 0.669163
O O3 0.587835 0.921965 0.499312
O O4 0.903825 0.321129 0.054674
O O5 0.657750 0.519931 0.914190
O O6 0.592569 0.268744 0.462588
O O7 0.928210 0.281764 0.475058
O O8 0.799524 0.394267 0.448533
O O9 0.561317 0.564118 0.408739
O O10 0.635447 0.417659 0.275247
O O11 0.837253 0.733549 0.834335
O O12 0.840813 0.885345 0.668369
O O13 0.500000 0.500000 0.000000
O O14 0.723870 0.856740 0.165364
O O15 0.999840 0.811589 0.273764
O O16 0.022547 0.941561 0.666064
O O17 0.500000 0.000000 0.000000
#
# Coordination Sequence:
#
# PCOD9021999 Si02
#       8
#     2   2   2   2   2   2   2   2
#     4   9  21  39  63  95 124 165 220 269 319 378
#     4  10  23  41  64  94 132 170 219 276 326 383
#     4  10  22  38  68  93 125 172 217 270 316 397
#     4  11  25  45  65  95 138 174 217 272 346 392
#     4  12  24  41  69  98 127 177 224 273 329 401
#     4  11  23  41  68 100 130 169 234 270 323 393
#     4  11  25  44  64  93 136 178 214 268 338 398
#     4  10  25  42  66  97 133 176 212 288 329 388
#
# _framework density 25.793498
#
# number of rings (size 3 to 8) (size 9 to 14) (size 15 to 20)
#    0.000    1.500    1.250    2.250    8.750    7.000 
#    0.000    1.250    0.000    0.000    0.000    0.000 
#    0.000    0.000    0.000    0.000    0.000    0.000 
#
# Total GULP energy -89575.888907 kJ/mol
# GULP energy per Si atom -5598.493057 kJ/mol
# Density = 2.573479 g / cm^3
# Si number density = 25.793498 Si / 1000 Ang^3
#
#
#
# Elastic Constant Matrix: (Units=GPa)
#
#
# Indices 1 2 3 4 5 6 
#
# 1 94.0240 10.7969 18.7204 -8.1625 7.9798 -3.3653
# 2 10.7969 48.3517 17.8259 10.0298 3.5182 8.3569
# 3 18.7204 17.8259 98.0273 8.7065 29.1539 15.2964
# 4 -8.1625 10.0298 8.7065 24.7237 -2.2733 6.6913
# 5 7.9798 3.5182 29.1539 -2.2733 55.2769 10.2399
# 6 -3.3653 8.3569 15.2964 6.6913 10.2399 41.1784
#
#
#
# Elastic Compliance Matrix: (Units=1/GPa)
#
#
# Indices 1 2 3 4 5 6 
#
# 1 0.012064 -0.003259 -0.002369 0.005645 -0.000368 0.001701
# 2 -0.003259 0.024829 -0.002760 -0.009350 0.000495 -0.002884
# 3 -0.002369 -0.002760 0.013878 -0.004492 -0.006536 -0.002433
# 4 0.005645 -0.009350 -0.004492 0.049601 0.005175 -0.005319
# 5 -0.000368 0.000495 -0.006536 0.005175 0.022541 -0.004149
# 6 0.001701 -0.002884 -0.002433 -0.005319 -0.004149 0.027809
#
#
# Mechanical properties :
#
#
# Convention : Reuss Voigt Hill
#
# Bulk Modulus (GPa) = 29.41473 37.23214 33.32344
# Shear Modulus (GPa) = 27.96002 37.10646 32.53324
#
# Velocity S-wave (km/s) = 3.29598 3.79700 3.55533
# Velocity P-wave (km/s) = 5.09051 5.80422 5.45904
#
# Compressibility (1/GPa) = 0.03399657
#
# Stress axis : x y z
#
# Youngs Moduli (GPa) = 82.89465 40.27575 72.05729
#
# Poissons Ratio (x) = 0.13125 0.17067
# Poissons Ratio (y) = 0.27013 0.19884
# Poissons Ratio (z) = 0.19634 0.11114
#
# Static dielectric constant tensor:
#      x y z
#    x 1.986760 0.047480 -0.033730 
#    y 0.047480 2.042060 -0.065470 
#    z -0.033730 -0.065470 2.049090 
# 
# From -- ./inp_files/308342.got.cif
#   From: 2010.05.17/outbox.cif.g08.bks.cpg/sg2_155_cif.got.tgz:308342.got - 2010.06.03 11:33:40.
