data_PCOD9021766
_publ_section_title
;
Structure prediction by ZEFSAII (Michael W. Deem and Ramdas Pophale) SiO2 
 PCOD9021766
Probable space group: P -1
;
_chemical_formula_sum "Si O2"
_cell_formula_units_Z 12
_cell_length_a 5.012599
_cell_length_b 28.416274
_cell_length_c 9.554365
_cell_angle_alpha 27.291940
_cell_angle_beta 76.682897
_cell_angle_gamma 73.759646
_cell_volume 598.602247
_symmetry_space_group_name_H-M "P -1"
_symmetry_group_IT_number 2
_symmetry_cell_setting 'triclinic'
loop_
_space_group_symop_operation_xyz
x,y,z
-x,-y,-z
loop_
_atom_site_type_symbol
_atom_site_label
_atom_site_fract_x
_atom_site_fract_y
_atom_site_fract_z
Si Si1 0.275419 0.632018 0.298526
Si Si2 0.198739 0.411447 0.859010
Si Si3 0.564240 0.381467 0.362460
Si Si4 0.555422 0.877107 0.335775
Si Si5 0.970242 0.227465 0.255619
Si Si6 0.816183 0.705385 0.559485
O O1 0.112943 0.534770 0.551631
O O2 0.543386 0.614645 0.209244
O O3 0.387361 0.625334 0.459600
O O4 0.087247 0.738760 0.987494
O O5 0.284604 0.371102 0.110338
O O6 0.975267 0.340062 0.030076
O O7 0.324040 0.320731 0.498295
O O8 0.854740 0.325323 0.410460
O O9 0.500000 0.500000 0.000000
O O10 0.272712 0.830727 0.508189
O O11 0.719208 0.818853 0.337198
O O12 0.743775 0.840442 0.546463
O O13 0.500000 0.000000 0.000000
#
# Coordination Sequence:
#
# PCOD9021766 Si02
#       6
#     2   2   2   2   2   2
#     4  11  23  38  62  95 137 180 206 257 314 394
#     4  10  22  38  65  92 134 172 224 250 311 383
#     4  12  26  40  60  95 143 179 206 245 326 394
#     4  11  24  44  73  96 120 162 228 292 326 359
#     4  11  21  40  63  99 123 159 219 273 318 376
#     4  11  23  43  63  93 131 169 221 266 310 390
#
# _framework density 20.046699
#
# number of rings (size 3 to 8) (size 9 to 14) (size 15 to 20)
#    0.000    1.000    5.000    3.500    2.333    0.000 
#    0.000    0.000    0.000    6.000    0.000    0.000 
#    0.000    0.000    0.000    0.000    0.000    0.000 
#
# Total GULP energy -67053.957040 kJ/mol
# GULP energy per Si atom -5587.829753 kJ/mol
# Density = 2.000107 g / cm^3
# Si number density = 20.046699 Si / 1000 Ang^3
#
#
#
# Elastic Constant Matrix: (Units=GPa)
#
#
# Indices 1 2 3 4 5 6 
#
# 1 109.2404 10.9533 39.3943 -12.1242 1.0749 12.2656
# 2 10.9533 51.2854 37.9904 -0.4548 9.1678 7.8430
# 3 39.3943 37.9904 117.8038 -17.8436 8.8022 15.9785
# 4 -12.1242 -0.4548 -17.8436 39.8028 4.4256 7.9444
# 5 1.0749 9.1678 8.8022 4.4256 36.7419 9.2057
# 6 12.2656 7.8430 15.9785 7.9444 9.2057 30.1421
#
#
#
# Elastic Compliance Matrix: (Units=1/GPa)
#
#
# Indices 1 2 3 4 5 6 
#
# 1 0.010898 0.000234 -0.002832 0.002746 0.000977 -0.004016
# 2 0.000234 0.026733 -0.008811 -0.003051 -0.004119 -0.000319
# 3 -0.002832 -0.008811 0.014053 0.006502 -0.000472 -0.005574
# 4 0.002746 -0.003051 0.006502 0.031330 -0.001772 -0.011486
# 5 0.000977 -0.004119 -0.000472 -0.001772 0.030530 -0.007933
# 6 -0.004016 -0.000319 -0.005574 -0.011486 -0.007933 0.043298
#
#
# Mechanical properties :
#
#
# Convention : Reuss Voigt Hill
#
# Bulk Modulus (GPa) = 34.64116 50.55620 42.59868
# Shear Modulus (GPa) = 26.41551 34.00347 30.20949
#
# Velocity S-wave (km/s) = 3.63395 4.12298 3.88616
# Velocity P-wave (km/s) = 5.90976 6.92382 6.43679
#
# Compressibility (1/GPa) = 0.02886739
#
# Stress axis : x y z
#
# Youngs Moduli (GPa) = 91.75931 37.40638 71.15729
#
# Poissons Ratio (x) = -0.00877 0.20154
# Poissons Ratio (y) = -0.02152 0.62696
# Poissons Ratio (z) = 0.25990 0.32958
#
# Static dielectric constant tensor:
#      x y z
#    x 1.774390 0.023020 0.028370 
#    y 0.023020 1.737020 0.031910 
#    z 0.028370 0.031910 1.712230 
# 
# From -- ./inp_files/142801.got.cif
#   From: 2010.05.17/outbox.cif.g08.bks.cpg/sg2_72_cif.got.tgz:142801.got - 2010.06.03 11:33:40.
