data_PCOD9021029
_publ_section_title
;
Structure prediction by ZEFSAII (Michael W. Deem and Ramdas Pophale) SiO2 
 PCOD9021029
Probable space group: P -1
;
_chemical_formula_sum "Si O2"
_cell_formula_units_Z 16
_cell_length_a 9.678751
_cell_length_b 11.014916
_cell_length_c 9.764006
_cell_angle_alpha 58.204140
_cell_angle_beta 58.625353
_cell_angle_gamma 63.498769
_cell_volume 733.868135
_symmetry_space_group_name_H-M "P -1"
_symmetry_group_IT_number 2
_symmetry_cell_setting 'triclinic'
loop_
_space_group_symop_operation_xyz
x,y,z
-x,-y,-z
loop_
_atom_site_type_symbol
_atom_site_label
_atom_site_fract_x
_atom_site_fract_y
_atom_site_fract_z
Si Si1 0.660420 0.197482 0.973960
Si Si2 0.540646 0.253399 0.571253
Si Si3 0.696480 0.765157 0.795061
Si Si4 0.930289 0.160423 0.074102
Si Si5 0.145835 0.997854 0.536112
Si Si6 0.823746 0.484308 0.039851
Si Si7 0.538824 0.460394 0.689712
Si Si8 0.697446 0.887701 0.033634
O O1 0.629882 0.357395 0.826077
O O2 0.499922 0.206395 0.149052
O O3 0.831606 0.150057 0.993806
O O4 0.654764 0.065472 0.949876
O O5 0.694406 0.132890 0.505311
O O6 0.600700 0.362519 0.582267
O O7 0.446946 0.372653 0.436664
O O8 0.425025 0.171647 0.767082
O O9 0.793187 0.852886 0.596990
O O10 0.780180 0.593627 0.868356
O O11 0.707645 0.827285 0.908921
O O12 0.916095 0.035213 0.263755
O O13 0.840297 0.316715 0.092897
O O14 0.121112 0.163658 0.963028
O O15 0.000000 0.000000 0.500000
O O16 0.659390 0.530801 0.192305
O O17 0.000000 0.500000 0.000000
#
# Coordination Sequence:
#
# PCOD9021029 Si02
#       8
#     2   2   2   2   2   2   2   2
#     4  11  24  42  63  95 130 169 210 256 327 381
#     4  11  21  40  67  94 124 162 220 262 303 378
#     4  11  22  38  69  92 123 167 215 258 314 369
#     4  12  26  41  65  94 133 167 206 268 322 374
#     4  12  23  40  64  98 127 163 215 268 309 370
#     4  11  19  40  62  93 125 161 215 256 309 373
#     4  10  22  37  64  97 123 167 207 263 314 369
#     4  12  21  44  66  93 124 173 215 259 308 382
#
# _framework density 21.802281000000001
#
# number of rings (size 3 to 8) (size 9 to 14) (size 15 to 20)
#    0.000    0.750    7.500    1.500    0.000    2.500 
#    0.000    0.625    0.000    0.000    0.000    0.000 
#    0.000    0.000    0.000    0.000    0.000    0.000 
#
# Total GULP energy -89433.516281 kJ/mol
# GULP energy per Si atom -5589.594768 kJ/mol
# Density = 2.175266 g / cm^3
# Si number density = 21.802281 Si / 1000 Ang^3
#
#
#
# Elastic Constant Matrix: (Units=GPa)
#
#
# Indices 1 2 3 4 5 6 
#
# 1 83.7968 3.6433 34.1704 -0.6337 2.7632 -22.7337
# 2 3.6433 42.5002 26.9616 -14.2443 3.5509 -12.4376
# 3 34.1704 26.9616 134.5829 -26.3583 1.2692 -9.4978
# 4 -0.6337 -14.2443 -26.3583 32.8959 -6.3263 2.0391
# 5 2.7632 3.5509 1.2692 -6.3263 17.5290 -2.0814
# 6 -22.7337 -12.4376 -9.4978 2.0391 -2.0814 29.7297
#
#
#
# Elastic Compliance Matrix: (Units=1/GPa)
#
#
# Indices 1 2 3 4 5 6 
#
# 1 0.017639 0.005036 -0.005049 -0.002937 -0.002835 0.013985
# 2 0.005036 0.034333 -0.005176 0.009435 -0.002097 0.015767
# 3 -0.005049 -0.005176 0.010939 0.007240 0.003334 -0.002795
# 4 -0.002937 0.009435 0.007240 0.042736 0.013694 0.002042
# 5 -0.002835 -0.002097 0.003334 0.013694 0.062796 0.001478
# 6 0.013985 0.015767 -0.002795 0.002042 0.001478 0.049997
#
#
# Mechanical properties :
#
#
# Convention : Reuss Voigt Hill
#
# Bulk Modulus (GPa) = 19.03600 43.38116 31.20858
# Shear Modulus (GPa) = 20.29804 29.10456 24.70130
#
# Velocity S-wave (km/s) = 3.05455 3.65764 3.36961
# Velocity P-wave (km/s) = 4.60331 6.14642 5.42996
#
# Compressibility (1/GPa) = 0.05253204
#
# Stress axis : x y z
#
# Youngs Moduli (GPa) = 56.69320 29.12646 91.41906
#
# Poissons Ratio (x) = -0.14668 0.46157
# Poissons Ratio (y) = -0.28551 0.47321
# Poissons Ratio (z) = 0.28624 0.15077
#
# Static dielectric constant tensor:
#      x y z
#    x 1.826330 0.014700 0.033850 
#    y 0.014700 1.834950 -0.014020 
#    z 0.033850 -0.014020 1.816040 
# 
# From -- ./inp_files/307255.got.cif
#   From: 2010.05.17/outbox.cif.g08.bks.cpg/sg2_154_cif.got.tgz:307255.got - 2010.06.03 11:33:40.
