data_PCOD9021771
_publ_section_title
;
Structure prediction by ZEFSAII (Michael W. Deem and Ramdas Pophale) SiO2 
 PCOD9021771
Probable space group: P -1
;
_chemical_formula_sum "Si O2"
_cell_formula_units_Z 14
_cell_length_a 22.493788
_cell_length_b 5.198915
_cell_length_c 5.027698
_cell_angle_alpha 85.015965
_cell_angle_beta 65.030994
_cell_angle_gamma 90.330244
_cell_volume 530.401158
_symmetry_space_group_name_H-M "P -1"
_symmetry_group_IT_number 2
_symmetry_cell_setting 'triclinic'
loop_
_space_group_symop_operation_xyz
x,y,z
-x,-y,-z
loop_
_atom_site_type_symbol
_atom_site_label
_atom_site_fract_x
_atom_site_fract_y
_atom_site_fract_z
Si Si1 0.155237 0.349728 0.749931
Si Si2 0.489202 0.311344 0.788157
Si Si3 0.132432 0.041661 0.312057
Si Si4 0.372820 0.807534 0.448068
Si Si5 0.648435 0.570838 0.977029
Si Si6 0.041130 0.608967 0.660698
Si Si7 0.262455 0.145862 0.840817
O O1 0.115142 0.544154 0.633370
O O2 0.229341 0.373201 0.714467
O O3 0.153340 0.117668 0.562672
O O4 0.119571 0.271603 0.102494
O O5 0.500000 0.500000 0.500000
O O6 0.548488 0.116476 0.697583
O O7 0.500000 0.500000 0.000000
O O8 0.412001 0.235139 0.938043
O O9 0.063219 0.894142 0.496889
O O10 0.199368 0.950607 0.048291
O O11 0.355931 0.625849 0.243121
O O12 0.321718 0.027825 0.579999
O O13 0.363160 0.617526 0.733559
O O14 0.711548 0.739928 0.939687
O O15 0.000000 0.500000 0.500000
O O16 0.000000 0.500000 0.000000
#
# Coordination Sequence:
#
# PCOD9021771 Si02
#       7
#     2   2   2   2   2   2   2
#     4  10  25  45  66 100 141 174 221 289 340 406
#     4   8  16  35  56  91 128 171 229 291 336 388
#     4  10  25  45  66 100 141 174 221 289 340 406
#     4  10  22  38  65  93 134 181 231 286 343 404
#     4  10  22  38  65  93 134 181 231 286 343 404
#     4  12  26  46  76 102 128 181 228 269 350 412
#     4  10  26  43  66  98 140 182 230 278 354 408
#
# _framework density 26.395118
#
# number of rings (size 3 to 8) (size 9 to 14) (size 15 to 20)
#    0.857    1.143    0.000    1.714    4.000    6.286 
#    0.000    0.000    0.000   10.286    0.000    0.000 
#    0.000    0.000    0.000    0.000    0.000    0.571 
#
# Total GULP energy -78035.973894 kJ/mol
# GULP energy per Si atom -5573.998135 kJ/mol
# Density = 2.633504 g / cm^3
# Si number density = 26.395118 Si / 1000 Ang^3
#
#
#
# Elastic Constant Matrix: (Units=GPa)
#
#
# Indices 1 2 3 4 5 6 
#
# 1 186.2620 51.4319 63.2841 6.3085 5.8143 -23.5124
# 2 51.4319 47.4281 16.5584 14.1895 -5.7373 -21.9387
# 3 63.2841 16.5584 134.9722 7.1524 27.2541 10.9622
# 4 6.3085 14.1895 7.1524 34.4987 -5.7967 -5.6469
# 5 5.8143 -5.7373 27.2541 -5.7967 69.0244 -5.4420
# 6 -23.5124 -21.9387 10.9622 -5.6469 -5.4420 44.8054
#
#
#
# Elastic Compliance Matrix: (Units=1/GPa)
#
#
# Indices 1 2 3 4 5 6 
#
# 1 0.009078 -0.008592 -0.003576 0.002973 0.000329 0.001847
# 2 -0.008592 0.043647 -0.003271 -0.011936 0.005972 0.016884
# 3 -0.003576 -0.003271 0.011238 -0.002370 -0.005171 -0.007155
# 4 0.002973 -0.011936 -0.002370 0.034448 0.002662 0.000961
# 5 0.000329 0.005972 -0.005171 0.002662 0.017762 0.006855
# 6 0.001847 0.016884 -0.007155 0.000961 0.006855 0.034259
#
#
# Mechanical properties :
#
#
# Convention : Reuss Voigt Hill
#
# Bulk Modulus (GPa) = 30.22498 70.13458 50.17978
# Shear Modulus (GPa) = 25.99578 45.49156 35.74367
#
# Velocity S-wave (km/s) = 3.14167 4.15599 3.68391
# Velocity P-wave (km/s) = 4.96346 7.04687 6.09485
#
# Compressibility (1/GPa) = 0.03308522
#
# Stress axis : x y z
#
# Youngs Moduli (GPa) = 110.15086 22.91125 88.98408
#
# Poissons Ratio (x) = 0.19684 0.31825
# Poissons Ratio (y) = 0.94636 0.29106
# Poissons Ratio (z) = 0.39395 0.07494
#
# Static dielectric constant tensor:
#      x y z
#    x 2.305480 0.009310 -0.141570 
#    y 0.009310 2.242630 -0.063170 
#    z -0.141570 -0.063170 2.104520 
# 
# From -- ./inp_files/121121.got.cif
#   From: 2010.05.17/outbox.cif.g08.bks.cpg/sg2_61_cif.got.tgz:121121.got - 2010.06.03 11:33:40.
