data_PCOD9021947
_publ_section_title
;
Structure prediction by ZEFSAII (Michael W. Deem and Ramdas Pophale) SiO2 
 PCOD9021947
Probable space group: P -1
;
_chemical_formula_sum "Si O2"
_cell_formula_units_Z 14
_cell_length_a 7.384229
_cell_length_b 14.379579
_cell_length_c 14.480736
_cell_angle_alpha 148.913710
_cell_angle_beta 73.434529
_cell_angle_gamma 125.405783
_cell_volume 559.834183
_symmetry_space_group_name_H-M "P -1"
_symmetry_group_IT_number 2
_symmetry_cell_setting 'triclinic'
loop_
_space_group_symop_operation_xyz
x,y,z
-x,-y,-z
loop_
_atom_site_type_symbol
_atom_site_label
_atom_site_fract_x
_atom_site_fract_y
_atom_site_fract_z
Si Si1 0.745458 0.526907 0.860260
Si Si2 0.944792 0.166203 0.236526
Si Si3 0.271307 0.617027 0.453737
Si Si4 0.465268 0.692016 0.959836
Si Si5 0.033104 0.862869 0.454168
Si Si6 0.153640 0.059359 0.276813
Si Si7 0.716686 0.267831 0.806193
O O1 0.723776 0.374597 0.650029
O O2 0.641708 0.381435 0.846336
O O3 0.591369 0.601126 0.913322
O O4 0.036485 0.784320 0.048538
O O5 0.871570 0.301800 0.416532
O O6 0.102114 0.333829 0.268063
O O7 0.109699 0.144733 0.262333
O O8 0.668890 0.893993 0.027567
O O9 0.554934 0.766702 0.582025
O O10 0.443198 0.829658 0.159808
O O11 0.193289 0.433390 0.751052
O O12 0.022321 0.958315 0.634092
O O13 0.252660 0.885877 0.393195
O O14 0.000000 0.000000 0.500000
O O15 0.000000 0.500000 0.000000
#
# Coordination Sequence:
#
# PCOD9021947 Si02
#       7
#     2   2   2   2   2   2   2
#     4  11  23  43  69 102 132 180 228 270 348 402
#     4  10  25  45  67 102 132 181 234 273 343 402
#     4  11  24  47  70  97 140 177 229 287 330 402
#     4  10  22  41  66  97 137 173 221 281 329 403
#     4  11  23  40  64 101 133 177 223 272 339 407
#     4  11  23  43  69 100 138 176 227 282 334 404
#     4  10  22  38  67  96 136 174 220 278 337 404
#
# _framework density 25.007404999999999
#
# number of rings (size 3 to 8) (size 9 to 14) (size 15 to 20)
#    0.000    1.429    1.429    3.429    6.000    3.429 
#    2.571    5.714    0.000    0.000    0.000    0.000 
#    0.000    0.000    0.000    0.000    0.000    0.000 
#
# Total GULP energy -78340.750581 kJ/mol
# GULP energy per Si atom -5595.767899 kJ/mol
# Density = 2.495049 g / cm^3
# Si number density = 25.007405 Si / 1000 Ang^3
#
#
#
# Elastic Constant Matrix: (Units=GPa)
#
#
# Indices 1 2 3 4 5 6 
#
# 1 68.9838 7.4755 23.7197 -0.5938 -6.2283 7.9951
# 2 7.4755 77.0348 20.3265 14.8942 14.0221 -4.9187
# 3 23.7197 20.3265 102.9363 12.7125 15.1369 10.1380
# 4 -0.5938 14.8942 12.7125 43.5782 6.1878 -5.0260
# 5 -6.2283 14.0221 15.1369 6.1878 41.5233 6.2612
# 6 7.9951 -4.9187 10.1380 -5.0260 6.2612 33.2398
#
#
#
# Elastic Compliance Matrix: (Units=1/GPa)
#
#
# Indices 1 2 3 4 5 6 
#
# 1 0.017022 -0.001956 -0.004007 0.000878 0.005147 -0.003998
# 2 -0.001956 0.015477 -0.001796 -0.003677 -0.004870 0.003670
# 3 -0.004007 -0.001796 0.012136 -0.002788 -0.003588 -0.002749
# 4 0.000878 -0.003677 -0.002788 0.025839 -0.002124 0.004402
# 5 0.005147 -0.004870 -0.003588 -0.002124 0.029130 -0.006673
# 6 -0.003998 0.003670 -0.002749 0.004402 -0.006673 0.034350
#
#
# Mechanical properties :
#
#
# Convention : Reuss Voigt Hill
#
# Bulk Modulus (GPa) = 34.34782 39.11091 36.72936
# Shear Modulus (GPa) = 31.41125 36.83046 34.12085
#
# Velocity S-wave (km/s) = 3.54796 3.84185 3.69783
# Velocity P-wave (km/s) = 5.52711 5.94587 5.74031
#
# Compressibility (1/GPa) = 0.02911393
#
# Stress axis : x y z
#
# Youngs Moduli (GPa) = 58.74850 64.61256 82.40144
#
# Poissons Ratio (x) = 0.12639 0.33022
# Poissons Ratio (y) = 0.11492 0.14803
# Poissons Ratio (z) = 0.23543 0.11608
#
# Static dielectric constant tensor:
#      x y z
#    x 2.004420 0.037070 0.039030 
#    y 0.037070 1.919280 0.033020 
#    z 0.039030 0.033020 2.056230 
# 
# From -- ./inp_files/356377.got.cif
#   From: 2010.05.17/outbox.cif.g08.bks.cpg/sg2_179_cif.got.tgz:356377.got - 2010.06.03 11:33:40.
