data_PCOD9021332
_publ_section_title
;
Structure prediction by ZEFSAII (Michael W. Deem and Ramdas Pophale) SiO2 
 PCOD9021332
Probable space group: P -1
;
_chemical_formula_sum "Si O2"
_cell_formula_units_Z 16
_cell_length_a 11.291735
_cell_length_b 14.382068
_cell_length_c 10.919099
_cell_angle_alpha 64.936214
_cell_angle_beta 141.945657
_cell_angle_gamma 85.323314
_cell_volume 662.200635
_symmetry_space_group_name_H-M "P -1"
_symmetry_group_IT_number 2
_symmetry_cell_setting 'triclinic'
loop_
_space_group_symop_operation_xyz
x,y,z
-x,-y,-z
loop_
_atom_site_type_symbol
_atom_site_label
_atom_site_fract_x
_atom_site_fract_y
_atom_site_fract_z
Si Si1 0.593217 0.075969 0.072036
Si Si2 0.274171 0.148067 0.001231
Si Si3 0.355314 0.379025 0.625664
Si Si4 0.386021 0.522438 0.762262
Si Si5 0.568207 0.307838 0.417938
Si Si6 0.815177 0.718630 0.892878
Si Si7 0.996431 0.064659 0.714028
Si Si8 0.871856 0.218060 0.961839
O O1 0.912916 0.959649 0.340348
O O2 0.513543 0.105382 0.133766
O O3 0.406135 0.237756 0.760179
O O4 0.500000 0.000000 0.000000
O O5 0.319677 0.163028 0.170133
O O6 0.229293 0.044702 0.989314
O O7 0.956879 0.317988 0.611021
O O8 0.420852 0.397209 0.803758
O O9 0.582366 0.335124 0.739251
O O10 0.055929 0.547084 0.244079
O O11 0.559806 0.531089 0.808858
O O12 0.500000 0.500000 0.000000
O O13 0.799627 0.243220 0.744878
O O14 0.701272 0.221491 0.443965
O O15 0.393910 0.280508 0.338850
O O16 0.942634 0.753303 0.886794
O O17 0.005069 0.941981 0.820022
#
# Coordination Sequence:
#
# PCOD9021332 Si02
#       8
#     2   2   2   2   2   2   2   2
#     4   9  19  36  65  86 115 161 211 247 303 372
#     4   9  19  38  60  89 121 162 209 249 315 362
#     4  10  22  40  64  88 126 168 197 261 318 352
#     4  10  22  38  60  90 128 163 202 257 310 369
#     4  11  23  38  61  93 122 164 211 252 309 365
#     4  11  23  36  61  93 122 162 206 255 305 377
#     4   9  19  40  62  84 122 167 202 262 308 352
#     4  11  21  43  63  85 131 163 207 256 307 364
#
# _framework density 24.161860000000001
#
# number of rings (size 3 to 8) (size 9 to 14) (size 15 to 20)
#    0.000    2.000    3.750    0.750    3.500    2.000 
#    0.000    0.625   11.000    0.000    0.000    0.000 
#    0.000    0.000    0.000    0.000    0.000    0.000 
#
# Total GULP energy -89295.112033 kJ/mol
# GULP energy per Si atom -5580.944502 kJ/mol
# Density = 2.410687 g / cm^3
# Si number density = 24.161860 Si / 1000 Ang^3
#
#
#
# Elastic Constant Matrix: (Units=GPa)
#
#
# Indices 1 2 3 4 5 6 
#
# 1 106.3476 29.7549 8.3484 -7.3948 -2.8808 19.3434
# 2 29.7549 110.6753 22.4694 -12.4910 5.6018 25.8622
# 3 8.3484 22.4694 27.1242 -5.0075 0.4308 3.8657
# 4 -7.3948 -12.4910 -5.0075 22.6302 3.4685 -0.4920
# 5 -2.8808 5.6018 0.4308 3.4685 16.3847 -2.4227
# 6 19.3434 25.8622 3.8657 -0.4920 -2.4227 57.1769
#
#
#
# Elastic Compliance Matrix: (Units=1/GPa)
#
#
# Indices 1 2 3 4 5 6 
#
# 1 0.010671 -0.001948 -0.000989 0.001862 0.001794 -0.002570
# 2 -0.001948 0.013511 -0.008685 0.005818 -0.006719 -0.005100
# 3 -0.000989 -0.008685 0.045048 0.004757 0.000795 0.001292
# 4 0.001862 0.005818 0.004757 0.050993 -0.013129 -0.003701
# 5 0.001794 -0.006719 0.000795 -0.013129 0.067159 0.005111
# 6 -0.002570 -0.005100 0.001292 -0.003701 0.005111 0.020763
#
#
# Mechanical properties :
#
#
# Convention : Reuss Voigt Hill
#
# Bulk Modulus (GPa) = 21.74596 40.58806 31.16701
# Shear Modulus (GPa) = 20.26599 31.47665 25.87132
#
# Velocity S-wave (km/s) = 2.89928 3.61327 3.27578
# Velocity P-wave (km/s) = 4.49749 5.85171 5.21871
#
# Compressibility (1/GPa) = 0.04598556
#
# Stress axis : x y z
#
# Youngs Moduli (GPa) = 93.70818 74.01465 22.19859
#
# Poissons Ratio (x) = 0.14420 0.02195
# Poissons Ratio (y) = 0.18257 0.19279
# Poissons Ratio (z) = 0.09268 0.64282
#
# Static dielectric constant tensor:
#      x y z
#    x 1.997900 -0.009730 0.048370 
#    y -0.009730 1.933030 -0.013810 
#    z 0.048370 -0.013810 1.946800 
# 
# From -- ./inp_files/433853.got.cif
#   From: 2010.05.17/outbox.cif.g08.bks.cpg/sg2_217_cif.got.tgz:433853.got - 2010.06.03 11:33:40.
