data_PCOD9021526
_publ_section_title
;
Structure prediction by ZEFSAII (Michael W. Deem and Ramdas Pophale) SiO2 
 PCOD9021526
Probable space group: P -1
;
_chemical_formula_sum "Si O2"
_cell_formula_units_Z 16
_cell_length_a 13.013346
_cell_length_b 11.683434
_cell_length_c 13.576465
_cell_angle_alpha 42.651392
_cell_angle_beta 112.725655
_cell_angle_gamma 78.637711
_cell_volume 823.196947
_symmetry_space_group_name_H-M "P -1"
_symmetry_group_IT_number 2
_symmetry_cell_setting 'triclinic'
loop_
_space_group_symop_operation_xyz
x,y,z
-x,-y,-z
loop_
_atom_site_type_symbol
_atom_site_label
_atom_site_fract_x
_atom_site_fract_y
_atom_site_fract_z
Si Si1 0.710803 0.585181 0.717155
Si Si2 0.564606 0.930577 0.955012
Si Si3 0.437004 0.731655 0.392646
Si Si4 0.877994 0.921946 0.449803
Si Si5 0.449722 0.879561 0.760561
Si Si6 0.035197 0.140528 0.975712
Si Si7 0.187752 0.614771 0.897905
Si Si8 0.034350 0.484558 0.636065
O O1 0.561404 0.629073 0.596069
O O2 0.630510 0.862016 0.486582
O O3 0.763970 0.508141 0.898837
O O4 0.885256 0.344214 0.871749
O O5 0.472458 0.901839 0.869586
O O6 0.540207 0.137030 0.757606
O O7 0.771711 0.665516 0.191615
O O8 0.500000 0.000000 0.000000
O O9 0.500000 0.500000 0.500000
O O10 0.235258 0.929926 0.220262
O O11 0.030454 0.710160 0.719870
O O12 0.911352 0.755444 0.477894
O O13 0.691426 0.101433 0.314305
O O14 0.874508 0.118241 0.288338
O O15 0.636858 0.612865 0.956221
O O16 0.018799 0.317219 0.783411
O O17 0.000000 0.000000 0.000000
O O18 0.000000 0.500000 0.500000
#
# Coordination Sequence:
#
# PCOD9021526 Si02
#       8
#     2   2   2   2   2   2   2   2
#     4  11  24  41  66  93 129 172 216 267 322 384
#     4  10  22  38  62  95 127 162 212 263 324 385
#     4  10  22  39  61  92 131 165 208 264 319 385
#     4  11  24  45  65  93 133 167 216 269 321 385
#     4  11  22  44  67  90 127 169 219 270 318 382
#     4  11  23  41  63  97 136 165 210 268 324 387
#     4  11  26  44  64  95 129 171 220 267 317 387
#     4  11  23  40  67  95 129 170 210 265 327 383
#
# _framework density 19.436418
#
# number of rings (size 3 to 8) (size 9 to 14) (size 15 to 20)
#    0.000    1.250    3.750    1.500    3.500    2.500 
#    0.000    0.000    0.000    0.000    0.000    0.000 
#    0.000    0.000    0.000    0.000    0.000    0.000 
#
# Total GULP energy -89329.217629 kJ/mol
# GULP energy per Si atom -5583.076102 kJ/mol
# Density = 1.939218 g / cm^3
# Si number density = 19.436418 Si / 1000 Ang^3
#
#
#
# Elastic Constant Matrix: (Units=GPa)
#
#
# Indices 1 2 3 4 5 6 
#
# 1 84.7810 30.9123 23.4757 8.2341 31.6771 -8.8992
# 2 30.9123 95.7760 48.9193 14.2125 8.0410 -12.0877
# 3 23.4757 48.9193 85.0656 15.9686 20.4856 -10.3297
# 4 8.2341 14.2125 15.9686 40.4493 -0.2520 -0.6222
# 5 31.6771 8.0410 20.4856 -0.2520 29.7197 -8.1958
# 6 -8.8992 -12.0877 -10.3297 -0.6222 -8.1958 26.7898
#
#
#
# Elastic Compliance Matrix: (Units=1/GPa)
#
#
# Indices 1 2 3 4 5 6 
#
# 1 0.023377 -0.007366 0.004800 -0.004264 -0.026823 -0.002012
# 2 -0.007366 0.017826 -0.010261 -0.000562 0.011517 0.005150
# 3 0.004800 -0.010261 0.021618 -0.006016 -0.017331 -0.000142
# 4 -0.004264 -0.000562 -0.006016 0.028209 0.008915 -0.000607
# 5 -0.026823 0.011517 -0.017331 0.008915 0.074630 0.012642
# 6 -0.002012 0.005150 -0.000142 -0.000607 0.012642 0.042782
#
#
# Mechanical properties :
#
#
# Convention : Reuss Voigt Hill
#
# Bulk Modulus (GPa) = 26.90572 52.47080 39.68826
# Shear Modulus (GPa) = 20.28535 30.21277 25.24906
#
# Velocity S-wave (km/s) = 3.23410 3.94692 3.60816
# Velocity P-wave (km/s) = 5.27436 6.91561 6.14998
#
# Compressibility (1/GPa) = 0.03716682
#
# Stress axis : x y z
#
# Youngs Moduli (GPa) = 42.77784 56.09792 46.25851
#
# Poissons Ratio (x) = 0.41323 -0.22206
# Poissons Ratio (y) = 0.31511 0.47466
# Poissons Ratio (z) = -0.20535 0.57562
#
# Static dielectric constant tensor:
#      x y z
#    x 1.695610 0.020270 0.031670 
#    y 0.020270 1.680850 0.008220 
#    z 0.031670 0.008220 1.700760 
# 
# From -- ./inp_files/272796.got.cif
#   From: 2010.05.17/outbox.cif.g08.bks.cpg/sg2_137_cif.got.tgz:272796.got - 2010.06.03 11:33:40.
