data_PCOD9021391
_publ_section_title
;
Structure prediction by ZEFSAII (Michael W. Deem and Ramdas Pophale) SiO2 
 PCOD9021391
Probable space group: P -1
;
_chemical_formula_sum "Si O2"
_cell_formula_units_Z 16
_cell_length_a 10.024227
_cell_length_b 13.841682
_cell_length_c 11.875091
_cell_angle_alpha 148.577693
_cell_angle_beta 95.706797
_cell_angle_gamma 96.687659
_cell_volume 787.769342
_symmetry_space_group_name_H-M "P -1"
_symmetry_group_IT_number 2
_symmetry_cell_setting 'triclinic'
loop_
_space_group_symop_operation_xyz
x,y,z
-x,-y,-z
loop_
_atom_site_type_symbol
_atom_site_label
_atom_site_fract_x
_atom_site_fract_y
_atom_site_fract_z
Si Si1 0.365800 0.890713 0.793574
Si Si2 0.085356 0.352750 0.878384
Si Si3 0.004618 0.953656 0.610757
Si Si4 0.884751 0.960941 0.051604
Si Si5 0.386782 0.467611 0.357816
Si Si6 0.510733 0.441635 0.101857
Si Si7 0.674329 0.995639 0.346348
Si Si8 0.377724 0.677964 0.203762
O O1 0.345165 0.661094 0.546803
O O2 0.389172 0.984830 0.762596
O O3 0.500000 0.000000 0.000000
O O4 0.219213 0.914482 0.847158
O O5 0.011994 0.164445 0.769159
O O6 0.239857 0.512250 0.089622
O O7 0.107653 0.237565 0.653712
O O8 0.000000 0.500000 0.000000
O O9 0.153390 0.922945 0.564108
O O10 0.013288 0.969889 0.760848
O O11 0.759746 0.735335 0.840100
O O12 0.000000 0.000000 0.000000
O O13 0.500000 0.500000 0.500000
O O14 0.483255 0.468283 0.256412
O O15 0.509012 0.634533 0.227998
O O16 0.374347 0.235601 0.859448
O O17 0.629577 0.375660 0.982744
O O18 0.624681 0.112719 0.552050
#
# Coordination Sequence:
#
# PCOD9021391 Si02
#       8
#     2   2   2   2   2   2   2   2
#     4  11  22  41  68  95 124 172 218 263 325 389
#     4  11  21  38  62  86 124 165 206 247 310 381
#     4  10  22  38  61  88 124 165 203 250 316 378
#     4  11  25  44  68  97 130 166 218 276 326 384
#     4  12  22  41  70  90 127 173 214 264 323 383
#     4  11  22  38  58  93 123 159 204 255 308 372
#     4  11  19  38  62  89 125 160 207 253 313 374
#     4  11  22  35  60  91 123 158 207 250 304 373
#
# _framework density 20.310514999999999
#
# number of rings (size 3 to 8) (size 9 to 14) (size 15 to 20)
#    0.000    1.000    7.500    0.375    0.000    1.500 
#    0.000    2.500    0.000    0.000    0.000    0.000 
#    0.000    0.000    0.000    0.000    0.000    0.000 
#
# Total GULP energy -89089.993479 kJ/mol
# GULP energy per Si atom -5568.124592 kJ/mol
# Density = 2.026429 g / cm^3
# Si number density = 20.310515 Si / 1000 Ang^3
#
#
#
# Elastic Constant Matrix: (Units=GPa)
#
#
# Indices 1 2 3 4 5 6 
#
# 1 60.7695 48.6137 27.9254 -10.6479 -32.4832 -3.6167
# 2 48.6137 110.0664 46.4882 -27.3237 -24.3999 2.9640
# 3 27.9254 46.4882 98.5989 -13.5335 -32.4010 -3.2302
# 4 -10.6479 -27.3237 -13.5335 33.3755 -2.6128 -8.9588
# 5 -32.4832 -24.3999 -32.4010 -2.6128 46.6747 -1.1583
# 6 -3.6167 2.9640 -3.2302 -8.9588 -1.1583 35.0373
#
#
#
# Elastic Compliance Matrix: (Units=1/GPa)
#
#
# Indices 1 2 3 4 5 6 
#
# 1 0.039029 -0.011480 0.003929 0.008836 0.024593 0.008434
# 2 -0.011480 0.018017 -0.004421 0.008973 -0.001158 -0.000861
# 3 0.003929 -0.004421 0.016060 0.006229 0.012026 0.004250
# 4 0.008836 0.008973 0.006229 0.047706 0.018171 0.013526
# 5 0.024593 -0.001158 0.012026 0.018171 0.047548 0.009963
# 6 0.008434 -0.000861 0.004250 0.013526 0.009963 0.033664
#
#
# Mechanical properties :
#
#
# Convention : Reuss Voigt Hill
#
# Bulk Modulus (GPa) = 20.34018 57.27659 38.80838
# Shear Modulus (GPa) = 20.63099 32.77799 26.70449
#
# Velocity S-wave (km/s) = 3.19059 4.02162 3.62997
# Velocity P-wave (km/s) = 4.85896 7.05877 6.05953
#
# Compressibility (1/GPa) = 0.04916377
#
# Stress axis : x y z
#
# Youngs Moduli (GPa) = 25.62185 55.50385 62.26738
#
# Poissons Ratio (x) = 0.63716 -0.24466
# Poissons Ratio (y) = 0.29413 0.27526
# Poissons Ratio (z) = -0.10067 0.24536
#
# Static dielectric constant tensor:
#      x y z
#    x 1.822730 0.021500 0.018330 
#    y 0.021500 1.777980 -0.023980 
#    z 0.018330 -0.023980 1.751050 
# 
# From -- ./inp_files/400050.got.cif
#   From: 2010.05.17/outbox.cif.g08.bks.cpg/sg2_201_cif.got.tgz:400050.got - 2010.06.03 11:33:40.
