data_PCOD9021565
_publ_section_title
;
Structure prediction by ZEFSAII (Michael W. Deem and Ramdas Pophale) SiO2 
 PCOD9021565
Probable space group: P -1
;
_chemical_formula_sum "Si O2"
_cell_formula_units_Z 14
_cell_length_a 9.138387
_cell_length_b 13.649594
_cell_length_c 15.860536
_cell_angle_alpha 150.566057
_cell_angle_beta 132.645069
_cell_angle_gamma 66.230458
_cell_volume 612.049017
_symmetry_space_group_name_H-M "P -1"
_symmetry_group_IT_number 2
_symmetry_cell_setting 'triclinic'
loop_
_space_group_symop_operation_xyz
x,y,z
-x,-y,-z
loop_
_atom_site_type_symbol
_atom_site_label
_atom_site_fract_x
_atom_site_fract_y
_atom_site_fract_z
Si Si1 0.435349 0.373838 0.596822
Si Si2 0.458015 0.655070 0.031478
Si Si3 0.740822 0.814616 0.784308
Si Si4 0.971571 0.725941 0.513604
Si Si5 0.355759 0.884463 0.441522
Si Si6 0.605490 0.322096 0.320044
Si Si7 0.092465 0.116709 0.715886
O O1 0.401931 0.227421 0.388303
O O2 0.197822 0.263311 0.475003
O O3 0.615051 0.329551 0.682636
O O4 0.470255 0.610841 0.746274
O O5 0.638095 0.705447 0.063744
O O6 0.527696 0.898852 0.284498
O O7 0.500000 0.500000 0.000000
O O8 0.201093 0.508643 0.782814
O O9 0.720401 0.564679 0.600499
O O10 0.617722 0.855174 0.845216
O O11 0.000000 0.000000 0.000000
O O12 0.190399 0.730847 0.644578
O O13 0.059717 0.930016 0.632733
O O14 0.086924 0.804710 0.269151
O O15 0.500000 0.000000 0.500000
O O16 0.000000 0.000000 0.500000
#
# Coordination Sequence:
#
# PCOD9021565 Si02
#       7
#     2   2   2   2   2   2   2
#     4  10  22  41  62  91 128 156 201 261 303 350
#     4  11  23  40  64  92 118 170 207 240 313 370
#     4   9  21  41  61  90 120 160 204 244 307 359
#     4  12  22  42  63  91 128 160 205 252 302 371
#     4  11  21  41  65  89 128 159 200 263 303 355
#     4   9  23  39  64  90 121 165 199 251 306 358
#     4  10  22  38  63  88 126 161 202 252 308 352
#
# _framework density 22.873985000000001
#
# number of rings (size 3 to 8) (size 9 to 14) (size 15 to 20)
#    0.857    0.857    4.286    0.429    6.000    0.000 
#    2.571    5.000    0.000    0.000    0.000    0.000 
#    0.000    0.000    0.000    0.000    0.000    0.000 
#
# Total GULP energy -78130.655685 kJ/mol
# GULP energy per Si atom -5580.761120 kJ/mol
# Density = 2.282192 g / cm^3
# Si number density = 22.873985 Si / 1000 Ang^3
#
#
#
# Elastic Constant Matrix: (Units=GPa)
#
#
# Indices 1 2 3 4 5 6 
#
# 1 141.5195 65.5737 52.6357 10.5695 28.1869 -2.8895
# 2 65.5737 133.6376 41.3477 4.8988 11.6029 -10.3602
# 3 52.6357 41.3477 93.6516 4.0207 12.9487 -3.8951
# 4 10.5695 4.8988 4.0207 16.1161 4.4225 5.2645
# 5 28.1869 11.6029 12.9487 4.4225 47.9947 3.4733
# 6 -2.8895 -10.3602 -3.8951 5.2645 3.4733 46.0237
#
#
#
# Elastic Compliance Matrix: (Units=1/GPa)
#
#
# Indices 1 2 3 4 5 6 
#
# 1 0.011540 -0.003867 -0.003971 -0.004307 -0.004399 0.000342
# 2 -0.003867 0.010232 -0.002280 -0.000727 0.000340 0.001925
# 3 -0.003971 -0.002280 0.014073 -0.000124 -0.000939 0.000514
# 4 -0.004307 -0.000727 -0.000124 0.068583 -0.002998 -0.008063
# 5 -0.004399 0.000340 -0.000939 -0.002998 0.023993 -0.001747
# 6 0.000342 0.001925 0.000514 -0.008063 -0.001747 0.023280
#
#
# Mechanical properties :
#
#
# Convention : Reuss Voigt Hill
#
# Bulk Modulus (GPa) = 64.06717 76.43587 70.25152
# Shear Modulus (GPa) = 28.22625 35.97701 32.10163
#
# Velocity S-wave (km/s) = 3.51663 3.97020 3.75028
# Velocity P-wave (km/s) = 6.67521 7.38277 7.03789
#
# Compressibility (1/GPa) = 0.01560862
#
# Stress axis : x y z
#
# Youngs Moduli (GPa) = 86.65596 97.72947 71.05916
#
# Poissons Ratio (x) = 0.37796 0.28218
# Poissons Ratio (y) = 0.33514 0.16200
# Poissons Ratio (z) = 0.34411 0.22280
#
# Static dielectric constant tensor:
#      x y z
#    x 1.864420 0.028030 -0.073550 
#    y 0.028030 1.841330 -0.005780 
#    z -0.073550 -0.005780 2.023860 
# 
# From -- ./inp_files/560607.got.cif
#   From: 2010.05.17/outbox.cif.g08.bks.cpg/sg2_281_cif.got.tgz:560607.got - 2010.06.03 11:33:40.
