data_PCOD9021832
_publ_section_title
;
Structure prediction by ZEFSAII (Michael W. Deem and Ramdas Pophale) SiO2 
 PCOD9021832
Probable space group: P -1
;
_chemical_formula_sum "Si O2"
_cell_formula_units_Z 16
_cell_length_a 10.806149
_cell_length_b 10.300148
_cell_length_c 11.109712
_cell_angle_alpha 106.737714
_cell_angle_beta 99.090459
_cell_angle_gamma 140.367883
_cell_volume 591.582603
_symmetry_space_group_name_H-M "P -1"
_symmetry_group_IT_number 2
_symmetry_cell_setting 'triclinic'
loop_
_space_group_symop_operation_xyz
x,y,z
-x,-y,-z
loop_
_atom_site_type_symbol
_atom_site_label
_atom_site_fract_x
_atom_site_fract_y
_atom_site_fract_z
Si Si1 0.707271 0.469594 0.220766
Si Si2 0.925537 0.064012 0.786301
Si Si3 0.235098 0.753543 0.520064
Si Si4 0.444834 0.231435 0.717397
Si Si5 0.622691 0.019289 0.842825
Si Si6 0.254666 0.270492 0.539132
Si Si7 0.767076 0.891765 0.089517
Si Si8 0.941624 0.576624 0.825933
O O1 0.932491 0.711841 0.231610
O O2 0.726758 0.555371 0.379079
O O3 0.601438 0.222374 0.163839
O O4 0.482545 0.336814 0.085599
O O5 0.758776 0.007478 0.821873
O O6 0.106307 0.136099 0.908928
O O7 0.772904 0.808730 0.619900
O O8 0.181263 0.628651 0.352829
O O9 0.000000 0.500000 0.500000
O O10 0.276204 0.952387 0.563913
O O11 0.481589 0.941095 0.682711
O O12 0.454286 0.361651 0.658823
O O13 0.717007 0.424927 0.831355
O O14 0.314864 0.160368 0.799381
O O15 0.847939 0.298009 0.025648
O O16 0.000000 0.000000 0.500000
O O17 0.929743 0.173024 0.150644
#
# Coordination Sequence:
#
# PCOD9021832 Si02
#       8
#     2   2   2   2   2   2   2   2
#     4  10  23  40  67 103 143 181 225 286 350 417
#     4  11  23  40  69 102 147 182 226 283 350 426
#     4  12  28  51  77  98 141 191 239 295 349 418
#     4  12  24  47  73 100 146 186 233 294 350 410
#     4  11  28  47  70 111 139 185 238 290 352 418
#     4  10  22  38  66 102 137 183 227 277 349 415
#     4  11  23  41  68 108 141 184 227 280 359 418
#     4  11  27  47  73 107 140 185 240 293 350 418
#
# _framework density 27.046095999999999
#
# number of rings (size 3 to 8) (size 9 to 14) (size 15 to 20)
#    0.000    1.000    3.750    2.250    8.750    2.500 
#    0.000    0.000    0.000    0.000    0.000    0.000 
#    0.000    0.000    0.000    0.000    0.000    0.000 
#
# Total GULP energy -89695.916632 kJ/mol
# GULP energy per Si atom -5605.994790 kJ/mol
# Density = 2.698454 g / cm^3
# Si number density = 27.046096 Si / 1000 Ang^3
#
#
#
# Elastic Constant Matrix: (Units=GPa)
#
#
# Indices 1 2 3 4 5 6 
#
# 1 108.2082 23.5500 60.3240 -6.3358 -3.5696 18.2325
# 2 23.5500 133.7927 17.1193 8.3047 -5.4716 1.6724
# 3 60.3240 17.1193 161.5070 -9.8588 13.4751 2.2023
# 4 -6.3358 8.3047 -9.8588 40.1325 -1.8779 -1.8247
# 5 -3.5696 -5.4716 13.4751 -1.8779 54.6387 -2.4915
# 6 18.2325 1.6724 2.2023 -1.8247 -2.4915 31.9194
#
#
#
# Elastic Compliance Matrix: (Units=1/GPa)
#
#
# Indices 1 2 3 4 5 6 
#
# 1 0.013669 -0.001687 -0.004901 0.001053 0.001641 -0.007193
# 2 -0.001687 0.007968 -0.000403 -0.001956 0.000744 0.000520
# 3 -0.004901 -0.000403 0.008307 0.001342 -0.002265 0.002147
# 4 0.001053 -0.001956 0.001342 0.025882 0.000474 0.000925
# 5 0.001641 0.000744 -0.002265 0.000474 0.019090 0.000697
# 6 -0.007193 0.000520 0.002147 0.000925 0.000697 0.035369
#
#
# Mechanical properties :
#
#
# Convention : Reuss Voigt Hill
#
# Bulk Modulus (GPa) = 62.65289 67.27715 64.96502
# Shear Modulus (GPa) = 38.58391 45.50576 42.04484
#
# Velocity S-wave (km/s) = 3.78113 4.10631 3.94707
# Velocity P-wave (km/s) = 6.50216 6.88559 6.69662
#
# Compressibility (1/GPa) = 0.01596096
#
# Stress axis : x y z
#
# Youngs Moduli (GPa) = 73.16057 125.50077 120.38654
#
# Poissons Ratio (x) = 0.21174 0.59002
# Poissons Ratio (y) = 0.12343 0.04851
# Poissons Ratio (z) = 0.35856 0.05057
#
# Static dielectric constant tensor:
#      x y z
#    x 2.072160 -0.035870 0.020240 
#    y -0.035870 2.103210 0.035510 
#    z 0.020240 0.035510 2.191010 
# 
# From -- ./inp_files/428566.got.cif
#   From: 2010.05.17/outbox.cif.g08.bks.cpg/sg2_215_cif.got.tgz:428566.got - 2010.06.03 11:33:40.
