data_PCOD9021417
_publ_section_title
;
Structure prediction by ZEFSAII (Michael W. Deem and Ramdas Pophale) SiO2 
 PCOD9021417
Probable space group: P -1
;
_chemical_formula_sum "Si O2"
_cell_formula_units_Z 16
_cell_length_a 16.836172
_cell_length_b 7.825038
_cell_length_c 14.182128
_cell_angle_alpha 72.671554
_cell_angle_beta 153.529058
_cell_angle_gamma 121.865299
_cell_volume 627.469436
_symmetry_space_group_name_H-M "P -1"
_symmetry_group_IT_number 2
_symmetry_cell_setting 'triclinic'
loop_
_space_group_symop_operation_xyz
x,y,z
-x,-y,-z
loop_
_atom_site_type_symbol
_atom_site_label
_atom_site_fract_x
_atom_site_fract_y
_atom_site_fract_z
Si Si1 0.380475 0.958412 0.604764
Si Si2 0.317942 0.281417 0.282989
Si Si3 0.639566 0.442597 0.260534
Si Si4 0.118963 0.727929 0.653057
Si Si5 0.466864 0.245086 0.897870
Si Si6 0.854063 0.240974 0.005665
Si Si7 0.714554 0.277578 0.642728
Si Si8 0.997229 0.951475 0.164580
O O1 0.368012 0.752334 0.665434
O O2 0.323541 0.900855 0.443192
O O3 0.176232 0.959140 0.418577
O O4 0.638918 0.179505 0.844715
O O5 0.500000 0.500000 0.500000
O O6 0.479130 0.233031 0.414319
O O7 0.138588 0.131504 0.200068
O O8 0.180053 0.274169 0.048237
O O9 0.538351 0.558186 0.182040
O O10 0.902898 0.658414 0.492469
O O11 0.518317 0.322514 0.050868
O O12 0.000000 0.500000 0.500000
O O13 0.249432 0.980021 0.706490
O O14 0.323318 0.744908 0.915449
O O15 0.802887 0.260199 0.839063
O O16 0.095618 0.477482 0.240581
O O17 0.875979 0.040763 0.073364
#
# Coordination Sequence:
#
# PCOD9021417 Si02
#       8
#     2   2   2   2   2   2   2   2
#     4  12  25  39  55  90 125 156 199 253 308 360
#     4  11  20  36  62  83 105 152 212 258 303 358
#     4  10  22  38  61  91 126 162 198 249 303 363
#     4   9  18  37  67  96 118 152 199 245 294 363
#     4   9  19  40  67  92 119 160 204 241 296 370
#     4  11  23  40  59  83 116 162 205 255 302 361
#     4  11  22  39  60  82 116 159 212 256 304 361
#     4  11  23  36  58  82 111 152 199 257 303 354
#
# _framework density 25.49925
#
# number of rings (size 3 to 8) (size 9 to 14) (size 15 to 20)
#    0.000    1.500    3.750    2.250    1.750    2.000 
#    0.000    3.750    0.000    0.000    0.000    0.000 
#    0.000    0.000    0.000    0.000    0.000    0.000 
#
# Total GULP energy -89365.266686 kJ/mol
# GULP energy per Si atom -5585.329168 kJ/mol
# Density = 2.544121 g / cm^3
# Si number density = 25.499250 Si / 1000 Ang^3
#
#
#
# Elastic Constant Matrix: (Units=GPa)
#
#
# Indices 1 2 3 4 5 6 
#
# 1 47.8418 0.9178 30.0277 -1.2069 -13.7357 -8.8990
# 2 0.9178 101.4394 55.8094 4.2444 -15.9398 -4.2746
# 3 30.0277 55.8094 103.3929 9.5407 19.6474 8.2714
# 4 -1.2069 4.2444 9.5407 59.1120 -11.0919 3.4221
# 5 -13.7357 -15.9398 19.6474 -11.0919 6.6416 -12.0634
# 6 -8.8990 -4.2746 8.2714 3.4221 -12.0634 24.9987
#
#
#
# Elastic Compliance Matrix: (Units=1/GPa)
#
#
# Indices 1 2 3 4 5 6 
#
# 1 0.011619 -0.005493 0.004062 -0.003201 -0.019065 -0.006909
# 2 -0.005493 0.007365 0.000765 -0.002721 -0.012459 -0.006589
# 3 0.004062 0.000765 0.003940 0.002147 0.017245 0.008301
# 4 -0.003201 -0.002721 0.002147 0.016340 -0.003904 -0.006436
# 5 -0.019065 -0.012459 0.017245 -0.003904 -0.015288 -0.021466
# 6 -0.006909 -0.006589 0.008301 -0.006436 -0.021466 0.024192
#
#
# Mechanical properties :
#
#
# Convention : Reuss Voigt Hill
#
# Bulk Modulus (GPa) = 46.31327 47.35377 46.83352
# Shear Modulus (GPa) = 88.18864 29.21175 58.70019
#
# Velocity S-wave (km/s) = 5.88726 3.38833 4.80316
# Velocity P-wave (km/s) = 8.02591 5.82398 7.01191
#
# Compressibility (1/GPa) = 0.02159208
#
# Stress axis : x y z
#
# Youngs Moduli (GPa) = 86.06931 135.77324 253.80964
#
# Poissons Ratio (x) = 0.74578 -1.03090
# Poissons Ratio (y) = 0.47276 -0.19424
# Poissons Ratio (z) = -0.34959 -0.10391
#
# Static dielectric constant tensor:
#      x y z
#    x 2.117710 -0.064330 0.008730 
#    y -0.064330 2.125880 -0.056730 
#    z 0.008730 -0.056730 2.126770 
# 
# From -- ./inp_files/577323.got.cif
#   From: 2010.05.17/outbox.cif.g08.bks.cpg/sg2_289_cif.got.tgz:577323.got - 2010.06.03 11:33:40.
