data_PCOD9021428
_publ_section_title
;
Structure prediction by ZEFSAII (Michael W. Deem and Ramdas Pophale) SiO2 
 PCOD9021428
Probable space group: P -1
;
_chemical_formula_sum "Si O2"
_cell_formula_units_Z 15
_cell_length_a 7.577613
_cell_length_b 15.050692
_cell_length_c 9.445053
_cell_angle_alpha 100.808400
_cell_angle_beta 121.831431
_cell_angle_gamma 118.296374
_cell_volume 653.621692
_symmetry_space_group_name_H-M "P -1"
_symmetry_group_IT_number 2
_symmetry_cell_setting 'triclinic'
loop_
_space_group_symop_operation_xyz
x,y,z
-x,-y,-z
loop_
_atom_site_type_symbol
_atom_site_label
_atom_site_fract_x
_atom_site_fract_y
_atom_site_fract_z
Si Si1 0.794483 0.090164 0.468568
Si Si2 0.000000 0.500000 0.500000
Si Si3 0.072556 0.910803 0.904056
Si Si4 0.227742 0.018792 0.297444
Si Si5 0.752549 0.545686 0.957333
Si Si6 0.893455 0.644868 0.354452
Si Si7 0.834215 0.380912 0.085334
Si Si8 0.531073 0.123199 0.969636
O O1 0.552034 0.083936 0.431318
O O2 0.027209 0.227767 0.545552
O O3 0.883392 0.050830 0.621408
O O4 0.644841 0.983756 0.256046
O O5 0.919804 0.371515 0.486528
O O6 0.027901 0.541485 0.689352
O O7 0.817183 0.887527 0.713784
O O8 0.350936 0.052178 0.013047
O O9 0.163293 0.836954 0.881225
O O10 0.056180 0.918676 0.067367
O O11 0.429737 0.481570 0.776711
O O12 0.945497 0.606413 0.918742
O O13 0.889608 0.635406 0.178484
O O14 0.730226 0.435082 0.966131
O O15 0.580837 0.239236 0.979642
#
# Coordination Sequence:
#
# PCOD9021428 Si02
#       8
#     2   1   2   2   2   2   2   2
#     4  10  22  38  62  93 127 157 203 253 308 370
#     4  10  24  42  64  88 122 164 210 260 308 344
#     4   9  20  38  55  90 127 162 199 235 320 364
#     4   9  20  38  57  90 124 163 201 237 311 371
#     4   9  22  44  65  88 120 168 215 245 312 362
#     4  10  22  43  64  93 122 164 208 260 300 379
#     4  10  22  43  65  90 122 163 211 261 305 374
#     4  10  22  38  61  92 128 160 194 258 315 367
#
# _framework density 22.949054
#
# number of rings (size 3 to 8) (size 9 to 14) (size 15 to 20)
#    0.000    2.400    0.000    0.000   13.067    1.067 
#    2.400    0.000    0.000    0.000    0.000    0.000 
#    0.000    0.000    0.000    0.000    0.000    0.000 
#
# Total GULP energy -83524.774585 kJ/mol
# GULP energy per Si atom -5568.318306 kJ/mol
# Density = 2.289682 g / cm^3
# Si number density = 22.949054 Si / 1000 Ang^3
#
#
#
# Elastic Constant Matrix: (Units=GPa)
#
#
# Indices 1 2 3 4 5 6 
#
# 1 56.6932 -25.0714 12.0735 -4.5950 -6.3614 5.6674
# 2 -25.0714 72.0416 34.8178 -12.5297 -6.9547 6.5648
# 3 12.0735 34.8178 65.1662 -14.7636 -13.1705 8.0607
# 4 -4.5950 -12.5297 -14.7636 29.9323 0.5975 -6.6406
# 5 -6.3614 -6.9547 -13.1705 0.5975 23.2577 -8.7051
# 6 5.6674 6.5648 8.0607 -6.6406 -8.7051 20.6275
#
#
#
# Elastic Compliance Matrix: (Units=1/GPa)
#
#
# Indices 1 2 3 4 5 6 
#
# 1 0.029812 0.018223 -0.012666 0.004584 0.004135 -0.005821
# 2 0.018223 0.030180 -0.017092 0.005824 0.002272 -0.005099
# 3 -0.012666 -0.017092 0.029676 0.006059 0.009266 0.003184
# 4 0.004584 0.005824 0.006059 0.042059 0.009931 0.012250
# 5 0.004135 0.002272 0.009266 0.009931 0.058126 0.022247
# 6 -0.005821 -0.005099 0.003184 0.012250 0.022247 0.063789
#
#
# Mechanical properties :
#
#
# Convention : Reuss Voigt Hill
#
# Bulk Modulus (GPa) = 15.01520 26.39342 20.70431
# Shear Modulus (GPa) = 16.72740 26.23557 21.48148
#
# Velocity S-wave (km/s) = 2.70273 3.38481 3.06281
# Velocity P-wave (km/s) = 4.03692 5.17704 4.64211
#
# Compressibility (1/GPa) = 0.06659919
#
# Stress axis : x y z
#
# Youngs Moduli (GPa) = 33.54318 33.13422 33.69764
#
# Poissons Ratio (x) = -0.60381 0.42681
# Poissons Ratio (y) = -0.61127 0.57596
# Poissons Ratio (z) = 0.42485 0.56633
#
# Static dielectric constant tensor:
#      x y z
#    x 1.929840 -0.033030 0.056490 
#    y -0.033030 1.822710 -0.013610 
#    z 0.056490 -0.013610 1.878620 
# 
# From -- ./inp_files/207979.got.cif
#   From: 2010.05.17/outbox.cif.g08.bks.cpg/sg2_104_cif.got.tgz:207979.got - 2010.06.03 11:33:40.
