data_PCOD9021223
_publ_section_title
;
Structure prediction by ZEFSAII (Michael W. Deem and Ramdas Pophale) SiO2 
 PCOD9021223
Probable space group: P -1
;
_chemical_formula_sum "Si O2"
_cell_formula_units_Z 10
_cell_length_a 7.364121
_cell_length_b 11.881700
_cell_length_c 8.603714
_cell_angle_alpha 37.796841
_cell_angle_beta 127.103029
_cell_angle_gamma 119.584667
_cell_volume 367.743122
_symmetry_space_group_name_H-M "P -1"
_symmetry_group_IT_number 2
_symmetry_cell_setting 'triclinic'
loop_
_space_group_symop_operation_xyz
x,y,z
-x,-y,-z
loop_
_atom_site_type_symbol
_atom_site_label
_atom_site_fract_x
_atom_site_fract_y
_atom_site_fract_z
Si Si1 0.655678 0.349976 0.171272
Si Si2 0.261937 0.004054 0.190924
Si Si3 0.445399 0.754363 0.121295
Si Si4 0.873839 0.741231 0.562050
Si Si5 0.044316 0.172580 0.147393
O O1 0.931492 0.383261 0.271641
O O2 0.654691 0.167742 0.481101
O O3 0.500000 0.500000 0.000000
O O4 0.607311 0.332882 0.979405
O O5 0.230261 0.176491 0.103772
O O6 0.443830 0.050163 0.099365
O O7 0.000000 0.000000 0.000000
O O8 0.645948 0.693215 0.402504
O O9 0.206551 0.752955 0.088407
O O10 0.853412 0.743808 0.733603
O O11 0.978394 0.952476 0.367961
#
# Coordination Sequence:
#
# PCOD9021223 Si02
#       5
#     2   2   2   2   2
#     4  10  22  38  58  88 123 154 194 241 293 354
#     4  11  21  38  61  95 113 147 208 242 280 354
#     4  11  20  37  65  86 114 160 194 241 300 329
#     4   9  18  34  55  86 113 151 193 234 288 345
#     4   9  19  34  57  90 122 143 192 257 282 338
#
# _framework density 27.192895
#
# number of rings (size 3 to 8) (size 9 to 14) (size 15 to 20)
#    0.000    2.000    4.000    2.400    0.000    0.800 
#    0.000    0.000    0.000   24.000    0.000    0.000 
#    0.000    0.000    0.000    0.000    0.000    0.000 
#
# Total GULP energy -55900.803917 kJ/mol
# GULP energy per Si atom -5590.080392 kJ/mol
# Density = 2.713100 g / cm^3
# Si number density = 27.192895 Si / 1000 Ang^3
#
#
#
# Elastic Constant Matrix: (Units=GPa)
#
#
# Indices 1 2 3 4 5 6 
#
# 1 130.8362 17.9186 63.6347 2.4588 36.3882 -8.5979
# 2 17.9186 105.6353 74.5131 26.0362 30.3099 11.5301
# 3 63.6347 74.5131 167.2113 28.4235 43.7368 5.5515
# 4 2.4588 26.0362 28.4235 52.0882 8.8550 6.1454
# 5 36.3882 30.3099 43.7368 8.8550 65.0991 -4.5317
# 6 -8.5979 11.5301 5.5515 6.1454 -4.5317 37.2859
#
#
#
# Elastic Compliance Matrix: (Units=1/GPa)
#
#
# Indices 1 2 3 4 5 6 
#
# 1 0.010579 0.001661 -0.003989 0.001324 -0.004061 0.001808
# 2 0.001661 0.015771 -0.005852 -0.003658 -0.004086 -0.003516
# 3 -0.003989 -0.005852 0.011137 -0.002511 -0.002230 -0.000626
# 4 0.001324 -0.003658 -0.002511 0.022667 -0.000572 -0.001995
# 5 -0.004061 -0.004086 -0.002230 -0.000572 0.021343 0.003348
# 6 0.001808 -0.003516 -0.000626 -0.001995 0.003348 0.029153
#
#
# Mechanical properties :
#
#
# Convention : Reuss Voigt Hill
#
# Bulk Modulus (GPa) = 47.33493 79.53507 63.43500
# Shear Modulus (GPa) = 37.29837 47.40240 42.35038
#
# Velocity S-wave (km/s) = 3.70756 4.17968 3.95068
# Velocity P-wave (km/s) = 5.98104 7.25293 6.64748
#
# Compressibility (1/GPa) = 0.02112605
#
# Stress axis : x y z
#
# Youngs Moduli (GPa) = 94.52503 63.40737 89.78714
#
# Poissons Ratio (x) = -0.10530 0.35817
# Poissons Ratio (y) = -0.15698 0.52548
# Poissons Ratio (z) = 0.37707 0.37109
#
# Static dielectric constant tensor:
#      x y z
#    x 2.198350 0.084060 -0.081020 
#    y 0.084060 2.279410 -0.043790 
#    z -0.081020 -0.043790 2.159000 
# 
# From -- ./inp_files/146999.got.cif
#   From: 2010.05.17/outbox.cif.g08.bks.cpg/sg2_74_cif.got.tgz:146999.got - 2010.06.03 11:33:40.
