data_PCOD9021567
_publ_section_title
;
Structure prediction by ZEFSAII (Michael W. Deem and Ramdas Pophale) SiO2 
 PCOD9021567
Probable space group: P -1
;
_chemical_formula_sum "Si O2"
_cell_formula_units_Z 16
_cell_length_a 13.974910
_cell_length_b 14.329749
_cell_length_c 7.634364
_cell_angle_alpha 90.116225
_cell_angle_beta 67.459193
_cell_angle_gamma 36.557817
_cell_volume 694.864116
_symmetry_space_group_name_H-M "P -1"
_symmetry_group_IT_number 2
_symmetry_cell_setting 'triclinic'
loop_
_space_group_symop_operation_xyz
x,y,z
-x,-y,-z
loop_
_atom_site_type_symbol
_atom_site_label
_atom_site_fract_x
_atom_site_fract_y
_atom_site_fract_z
Si Si1 0.123421 0.005485 0.561346
Si Si2 0.143158 0.517929 0.124375
Si Si3 0.556849 0.716437 0.369837
Si Si4 0.717668 0.779695 0.388315
Si Si5 0.236843 0.598768 0.303048
Si Si6 0.387825 0.180757 0.149663
Si Si7 0.980487 0.108258 0.283037
Si Si8 0.597748 0.203131 0.143377
O O1 0.887939 0.232892 0.739632
O O2 0.141465 0.893068 0.646708
O O3 0.318226 0.919176 0.469105
O O4 0.133127 0.976489 0.346620
O O5 0.133159 0.582945 0.313600
O O6 0.233034 0.346590 0.116153
O O7 0.917413 0.683928 0.196858
O O8 0.310975 0.436070 0.877389
O O9 0.696175 0.698229 0.308071
O O10 0.516184 0.706668 0.588530
O O11 0.727849 0.754043 0.588867
O O12 0.500000 0.000000 0.500000
O O13 0.482372 0.380701 0.128773
O O14 0.166422 0.693860 0.542393
O O15 0.541416 0.147892 0.090894
O O16 0.500000 0.000000 0.000000
O O17 0.150778 0.991039 0.014181
#
# Coordination Sequence:
#
# PCOD9021567 Si02
#       8
#     2   2   2   2   2   2   2   2
#     4   9  19  40  65  90 117 158 209 251 303 365
#     4  11  22  40  63  89 124 165 209 246 300 378
#     4  11  23  40  56  89 130 157 198 254 307 362
#     4  11  23  39  59  90 125 160 202 255 313 360
#     4   9  20  39  63  91 116 156 209 254 295 363
#     4  10  22  38  63  89 119 165 206 254 296 363
#     4   9  20  40  67  89 117 161 210 251 304 361
#     4  10  22  40  59  91 129 158 200 257 306 361
#
# _framework density 23.026085999999999
#
# number of rings (size 3 to 8) (size 9 to 14) (size 15 to 20)
#    0.750    1.250    0.000    3.750    1.750    1.000 
#    9.000    0.625    0.000    0.000    0.000    0.000 
#    0.000    0.000    0.000    0.000    0.000    0.000 
#
# Total GULP energy -89120.149016 kJ/mol
# GULP energy per Si atom -5570.009314 kJ/mol
# Density = 2.297368 g / cm^3
# Si number density = 23.026086 Si / 1000 Ang^3
#
#
#
# Elastic Constant Matrix: (Units=GPa)
#
#
# Indices 1 2 3 4 5 6 
#
# 1 51.7863 15.5116 27.6944 9.2279 15.5022 4.3535
# 2 15.5116 48.5166 30.7079 19.5949 15.5569 3.9337
# 3 27.6944 30.7079 99.2402 13.7461 12.7371 15.8883
# 4 9.2279 19.5949 13.7461 35.1315 2.7214 8.3125
# 5 15.5022 15.5569 12.7371 2.7214 26.2445 2.6147
# 6 4.3535 3.9337 15.8883 8.3125 2.6147 25.3636
#
#
#
# Elastic Compliance Matrix: (Units=1/GPa)
#
#
# Indices 1 2 3 4 5 6 
#
# 1 0.026736 0.001167 -0.005721 -0.004818 -0.013385 0.001772
# 2 0.001167 0.038336 -0.008417 -0.018676 -0.018101 0.007113
# 3 -0.005721 -0.008417 0.015060 0.002069 0.001641 -0.007994
# 4 -0.004818 -0.018676 0.002069 0.041456 0.009826 -0.012172
# 5 -0.013385 -0.018101 0.001641 0.009826 0.055407 -0.004856
# 6 0.001772 0.007113 -0.007994 -0.012172 -0.004856 0.047517
#
#
# Mechanical properties :
#
#
# Convention : Reuss Voigt Hill
#
# Bulk Modulus (GPa) = 18.45329 38.59676 28.52503
# Shear Modulus (GPa) = 18.62080 25.72320 22.17200
#
# Velocity S-wave (km/s) = 2.84682 3.34598 3.10644
# Velocity P-wave (km/s) = 4.34020 5.63259 5.02809
#
# Compressibility (1/GPa) = 0.05419087
#
# Stress axis : x y z
#
# Youngs Moduli (GPa) = 37.40241 26.08522 66.40113
#
# Poissons Ratio (x) = -0.03043 0.37986
# Poissons Ratio (y) = -0.04364 0.55887
# Poissons Ratio (z) = 0.21397 0.21955
#
# Static dielectric constant tensor:
#      x y z
#    x 1.929840 -0.028280 0.021750 
#    y -0.028280 1.906450 -0.043480 
#    z 0.021750 -0.043480 2.001530 
# 
# From -- ./inp_files/315407.got.cif
#   From: 2010.05.17/outbox.cif.g08.bks.cpg/sg2_158_cif.got.tgz:315407.got - 2010.06.03 11:33:40.
