data_PCOD9021759
_publ_section_title
;
Structure prediction by ZEFSAII (Michael W. Deem and Ramdas Pophale) SiO2 
 PCOD9021759
Probable space group: P -1
;
_chemical_formula_sum "Si O2"
_cell_formula_units_Z 14
_cell_length_a 24.341288
_cell_length_b 11.384046
_cell_length_c 5.268546
_cell_angle_alpha 105.775552
_cell_angle_beta 119.221201
_cell_angle_gamma 34.361697
_cell_volume 693.197483
_symmetry_space_group_name_H-M "P -1"
_symmetry_group_IT_number 2
_symmetry_cell_setting 'triclinic'
loop_
_space_group_symop_operation_xyz
x,y,z
-x,-y,-z
loop_
_atom_site_type_symbol
_atom_site_label
_atom_site_fract_x
_atom_site_fract_y
_atom_site_fract_z
Si Si1 0.539473 0.532109 0.814635
Si Si2 0.271571 0.337700 0.535045
Si Si3 0.765441 0.257231 0.678840
Si Si4 0.690371 0.142886 0.230581
Si Si5 0.129126 0.800814 0.608809
Si Si6 0.303597 0.137394 0.001003
Si Si7 0.559667 0.726565 0.237787
O O1 0.500000 0.500000 0.500000
O O2 0.433697 0.692786 0.858541
O O3 0.658208 0.287656 0.020454
O O4 0.552313 0.657406 0.920608
O O5 0.180380 0.585543 0.541457
O O6 0.281666 0.232151 0.734068
O O7 0.384362 0.234996 0.679649
O O8 0.250834 0.297005 0.205981
O O9 0.750495 0.134390 0.561698
O O10 0.846608 0.164372 0.575362
O O11 0.646726 0.510710 0.483327
O O12 0.809288 0.239375 0.031677
O O13 0.737515 0.937381 0.137460
O O14 0.000000 0.000000 0.500000
O O15 0.438593 0.927934 0.208583
#
# Coordination Sequence:
#
# PCOD9021759 Si02
#       7
#     2   2   2   2   2   2   2
#     4   9  18  32  53  78 118 162 204 238 261 325
#     4  11  23  38  56  85 115 161 199 233 289 356
#     4  10  22  38  65  91 114 149 202 247 287 348
#     4   9  21  34  51  87 116 161 194 234 283 334
#     4  11  24  44  67  87 109 143 198 266 310 334
#     4  11  23  36  56  85 132 164 184 223 278 363
#     4   9  20  36  53  88 121 163 194 233 273 339
#
# _framework density 20.196263999999999
#
# number of rings (size 3 to 8) (size 9 to 14) (size 15 to 20)
#    0.000    2.000    0.000    3.857   10.000    2.286 
#    2.571    0.000    0.000    5.143    0.000    0.000 
#    0.000    0.000    0.000    0.000    0.000    0.000 
#
# Total GULP energy -78044.509521 kJ/mol
# GULP energy per Si atom -5574.607823 kJ/mol
# Density = 2.015030 g / cm^3
# Si number density = 20.196264 Si / 1000 Ang^3
#
#
#
# Elastic Constant Matrix: (Units=GPa)
#
#
# Indices 1 2 3 4 5 6 
#
# 1 67.6666 36.3783 23.2065 15.1002 1.3568 0.3930
# 2 36.3783 83.4972 41.0905 24.1853 11.6024 -3.4238
# 3 23.2065 41.0905 93.6953 34.0366 -12.6454 4.5598
# 4 15.1002 24.1853 34.0366 36.5464 -3.6176 12.8084
# 5 1.3568 11.6024 -12.6454 -3.6176 19.0304 8.4670
# 6 0.3930 -3.4238 4.5598 12.8084 8.4670 36.3326
#
#
#
# Elastic Compliance Matrix: (Units=1/GPa)
#
#
# Indices 1 2 3 4 5 6 
#
# 1 0.019800 -0.009211 0.000371 -0.001286 0.005028 -0.001847
# 2 -0.009211 0.034223 -0.012590 -0.018642 -0.041530 0.021155
# 3 0.000371 -0.012590 0.022656 -0.008146 0.024179 -0.006797
# 4 -0.001286 -0.018642 -0.008146 0.061192 0.030787 -0.029467
# 5 0.005028 -0.041530 0.024179 0.030787 0.119794 -0.045773
# 6 -0.001847 0.021155 -0.006797 -0.029467 -0.045773 0.051445
#
#
# Mechanical properties :
#
#
# Convention : Reuss Voigt Hill
#
# Bulk Modulus (GPa) = 29.56932 49.57888 39.57410
# Shear Modulus (GPa) = 13.76491 27.99412 20.87952
#
# Velocity S-wave (km/s) = 2.61350 3.72708 3.21881
# Velocity P-wave (km/s) = 4.87647 6.56684 5.78374
#
# Compressibility (1/GPa) = 0.03381883
#
# Stress axis : x y z
#
# Youngs Moduli (GPa) = 50.50524 29.21976 44.13904
#
# Poissons Ratio (x) = 0.26915 -0.01638
# Poissons Ratio (y) = 0.46521 0.55571
# Poissons Ratio (z) = -0.01875 0.36788
#
# Static dielectric constant tensor:
#      x y z
#    x 1.832710 0.052080 0.012370 
#    y 0.052080 1.730310 0.045720 
#    z 0.012370 0.045720 1.811490 
# 
# From -- ./inp_files/126909.got.cif
#   From: 2010.05.17/outbox.cif.g08.bks.cpg/sg2_64_cif.got.tgz:126909.got - 2010.06.03 11:33:40.
