data_PCOD9021311
_publ_section_title
;
Structure prediction by ZEFSAII (Michael W. Deem and Ramdas Pophale) SiO2 
 PCOD9021311
Probable space group: P -1
;
_chemical_formula_sum "Si O2"
_cell_formula_units_Z 14
_cell_length_a 8.997122
_cell_length_b 14.179319
_cell_length_c 7.594158
_cell_angle_alpha 72.019662
_cell_angle_beta 132.488917
_cell_angle_gamma 77.362684
_cell_volume 538.874263
_symmetry_space_group_name_H-M "P -1"
_symmetry_group_IT_number 2
_symmetry_cell_setting 'triclinic'
loop_
_space_group_symop_operation_xyz
x,y,z
-x,-y,-z
loop_
_atom_site_type_symbol
_atom_site_label
_atom_site_fract_x
_atom_site_fract_y
_atom_site_fract_z
Si Si1 0.268004 0.990394 0.331479
Si Si2 0.861294 0.894598 0.472421
Si Si3 0.491607 0.829519 0.140080
Si Si4 0.903718 0.440375 0.836061
Si Si5 0.324454 0.255743 0.019410
Si Si6 0.652869 0.321298 0.703414
Si Si7 0.946503 0.188649 0.683423
O O1 0.500000 0.000000 0.500000
O O2 0.108297 0.075647 0.323175
O O3 0.426367 0.845938 0.604937
O O4 0.091230 0.055819 0.979697
O O5 0.698929 0.842041 0.379824
O O6 0.079998 0.815039 0.546020
O O7 0.702357 0.033046 0.178393
O O8 0.596852 0.733228 0.116578
O O9 0.385409 0.782164 0.217471
O O10 0.868405 0.335967 0.933662
O O11 0.610787 0.555501 0.506106
O O12 0.112296 0.377914 0.885214
O O13 0.000000 0.500000 0.000000
O O14 0.173517 0.200898 0.878172
O O15 0.719452 0.298978 0.559678
#
# Coordination Sequence:
#
# PCOD9021311 Si02
#       7
#     2   2   2   2   2   2   2
#     4   9  16  30  57  86 116 156 197 236 294 366
#     4   9  18  33  56  90 125 161 193 230 307 379
#     4   9  17  33  56  84 120 154 193 247 299 361
#     4  10  22  41  60  81 114 160 211 258 305 355
#     4   8  17  34  56  81 115 155 195 250 306 350
#     4  10  22  38  60  88 117 157 208 255 299 356
#     4   9  18  34  55  85 126 157 191 249 302 357
#
# _framework density 25.980086
#
# number of rings (size 3 to 8) (size 9 to 14) (size 15 to 20)
#    0.000    2.857    0.000    2.571    0.000    5.714 
#    0.000    5.000    0.000    0.000    0.000    0.000 
#    0.000    0.000    0.000    0.000    0.000    0.000 
#
# Total GULP energy -78111.744844 kJ/mol
# GULP energy per Si atom -5579.410346 kJ/mol
# Density = 2.592095 g / cm^3
# Si number density = 25.980086 Si / 1000 Ang^3
#
#
#
# Elastic Constant Matrix: (Units=GPa)
#
#
# Indices 1 2 3 4 5 6 
#
# 1 157.0567 63.3338 32.0878 11.5810 -0.3923 -27.4021
# 2 63.3338 143.7307 21.0045 12.1433 1.9070 -15.9498
# 3 32.0878 21.0045 68.4000 -3.3632 13.4504 -21.3127
# 4 11.5810 12.1433 -3.3632 32.1037 -7.5325 4.8276
# 5 -0.3923 1.9070 13.4504 -7.5325 26.2476 -5.1995
# 6 -27.4021 -15.9498 -21.3127 4.8276 -5.1995 74.4772
#
#
#
# Elastic Compliance Matrix: (Units=1/GPa)
#
#
# Indices 1 2 3 4 5 6 
#
# 1 0.008701 -0.003015 -0.002973 -0.002224 0.001623 0.001962
# 2 -0.003015 0.008735 -0.001067 -0.002593 -0.000764 0.000570
# 3 -0.002973 -0.001067 0.019221 0.000882 -0.008870 0.003502
# 4 -0.002224 -0.002593 0.000882 0.035643 0.009382 -0.002776
# 5 0.001623 -0.000764 -0.008870 0.009382 0.045508 0.000464
# 6 0.001962 0.000570 0.003502 -0.002776 0.000464 0.015485
#
#
# Mechanical properties :
#
#
# Convention : Reuss Voigt Hill
#
# Bulk Modulus (GPa) = 44.35496 66.89329 55.62412
# Shear Modulus (GPa) = 32.27481 43.41644 37.84563
#
# Velocity S-wave (km/s) = 3.52844 4.09240 3.82084
# Velocity P-wave (km/s) = 5.80599 6.93787 6.39702
#
# Compressibility (1/GPa) = 0.02254539
#
# Stress axis : x y z
#
# Youngs Moduli (GPa) = 114.93086 114.48656 52.02690
#
# Poissons Ratio (x) = 0.34523 0.15467
# Poissons Ratio (y) = 0.34657 0.05552
# Poissons Ratio (z) = 0.34167 0.12218
#
# Static dielectric constant tensor:
#      x y z
#    x 2.097310 0.050710 -0.021070 
#    y 0.050710 2.105750 -0.009710 
#    z -0.021070 -0.009710 2.180570 
# 
# From -- ./inp_files/201026.got.cif
#   From: 2010.05.17/outbox.cif.g08.bks.cpg/sg2_101_cif.got.tgz:201026.got - 2010.06.03 11:33:40.
