data_PCOD9021837
_publ_section_title
;
Structure prediction by ZEFSAII (Michael W. Deem and Ramdas Pophale) SiO2 
 PCOD9021837
Probable space group: P -1
;
_chemical_formula_sum "Si O2"
_cell_formula_units_Z 11
_cell_length_a 7.594725
_cell_length_b 13.376796
_cell_length_c 9.648842
_cell_angle_alpha 133.735751
_cell_angle_beta 60.365409
_cell_angle_gamma 142.660528
_cell_volume 426.172236
_symmetry_space_group_name_H-M "P -1"
_symmetry_group_IT_number 2
_symmetry_cell_setting 'triclinic'
loop_
_space_group_symop_operation_xyz
x,y,z
-x,-y,-z
loop_
_atom_site_type_symbol
_atom_site_label
_atom_site_fract_x
_atom_site_fract_y
_atom_site_fract_z
Si Si1 0.896788 0.359391 0.533932
Si Si2 0.000000 0.000000 0.500000
Si Si3 0.749241 0.512392 0.903168
Si Si4 0.993150 0.674880 0.254048
Si Si5 0.351941 0.059790 0.839314
Si Si6 0.902381 0.063441 0.898514
O O1 0.645633 0.335034 0.676244
O O2 0.088248 0.435273 0.672825
O O3 0.000000 0.500000 0.500000
O O4 0.824039 0.169065 0.338096
O O5 0.147898 0.003419 0.303969
O O6 0.938842 0.811866 0.404992
O O7 0.500000 0.500000 0.000000
O O8 0.007629 0.730067 0.942029
O O9 0.832708 0.529312 0.045765
O O10 0.338742 0.823792 0.236735
O O11 0.174278 0.100300 0.880044
O O12 0.344880 0.078879 0.025872
#
# Coordination Sequence:
#
# PCOD9021837 Si02
#       6
#     2   1   2   2   2   2
#     4  12  24  45  68 107 144 182 229 295 359 410
#     4  10  22  38  66 104 132 176 244 278 328 408
#     4  11  25  44  69 100 145 183 231 292 362 410
#     4  11  25  44  72 103 136 195 233 288 345 426
#     4  11  23  44  74  99 141 185 243 280 343 429
#     4  10  22  43  68 102 138 185 233 286 346 418
#
# _framework density 25.811159
#
# number of rings (size 3 to 8) (size 9 to 14) (size 15 to 20)
#    0.000    1.091    3.636    2.182    5.091    2.909 
#    0.000    0.909    0.000    0.000    0.000    0.000 
#    0.000    0.000    0.000    0.000    0.000    0.000 
#
# Total GULP energy -61285.930054 kJ/mol
# GULP energy per Si atom -5571.448187 kJ/mol
# Density = 2.575241 g / cm^3
# Si number density = 25.811159 Si / 1000 Ang^3
#
#
#
# Elastic Constant Matrix: (Units=GPa)
#
#
# Indices 1 2 3 4 5 6 
#
# 1 124.9790 36.8443 23.6466 -4.7465 5.7774 -38.3230
# 2 36.8443 78.4606 39.5418 -7.6184 19.2277 -42.6668
# 3 23.6466 39.5418 164.2036 -20.0983 1.8603 -27.5797
# 4 -4.7465 -7.6184 -20.0983 41.8353 -18.8671 -0.6984
# 5 5.7774 19.2277 1.8603 -18.8671 49.8338 -5.5558
# 6 -38.3230 -42.6668 -27.5797 -0.6984 -5.5558 52.0300
#
#
#
# Elastic Compliance Matrix: (Units=1/GPa)
#
#
# Indices 1 2 3 4 5 6 
#
# 1 0.010468 -0.001272 0.000102 0.001366 0.000548 0.006798
# 2 -0.001272 0.027101 -0.003104 -0.000048 -0.008118 0.018775
# 3 0.000102 -0.003104 0.007659 0.004416 0.002789 0.001946
# 4 0.001366 -0.000048 0.004416 0.031801 0.012298 0.005047
# 5 0.000548 -0.008118 0.002789 0.012298 0.027501 -0.001674
# 6 0.006798 0.018775 0.001946 0.005047 -0.001674 0.040544
#
#
# Mechanical properties :
#
#
# Convention : Reuss Voigt Hill
#
# Bulk Modulus (GPa) = 27.26286 63.07873 45.17080
# Shear Modulus (GPa) = 30.14813 46.58052 38.36432
#
# Velocity S-wave (km/s) = 3.42135 4.25274 3.85950
# Velocity P-wave (km/s) = 5.11790 6.97180 6.11551
#
# Compressibility (1/GPa) = 0.03667994
#
# Stress axis : x y z
#
# Youngs Moduli (GPa) = 95.52807 36.89895 130.57321
#
# Poissons Ratio (x) = 0.04693 -0.01326
# Poissons Ratio (y) = 0.12150 0.40524
# Poissons Ratio (z) = -0.00970 0.11452
#
# Static dielectric constant tensor:
#      x y z
#    x 2.275470 0.043670 -0.046690 
#    y 0.043670 2.192890 0.054460 
#    z -0.046690 0.054460 2.070800 
# 
# From -- ./inp_files/146550.got.cif
#   From: 2010.05.17/outbox.cif.g08.bks.cpg/sg2_74_cif.got.tgz:146550.got - 2010.06.03 11:33:40.
