data_PCOD9021714
_publ_section_title
;
Structure prediction by ZEFSAII (Michael W. Deem and Ramdas Pophale) SiO2 
 PCOD9021714
Probable space group: P -1
;
_chemical_formula_sum "Si O2"
_cell_formula_units_Z 14
_cell_length_a 13.463021
_cell_length_b 13.159016
_cell_length_c 5.663531
_cell_angle_alpha 113.309938
_cell_angle_beta 71.021315
_cell_angle_gamma 142.587873
_cell_volume 559.717902
_symmetry_space_group_name_H-M "P -1"
_symmetry_group_IT_number 2
_symmetry_cell_setting 'triclinic'
loop_
_space_group_symop_operation_xyz
x,y,z
-x,-y,-z
loop_
_atom_site_type_symbol
_atom_site_label
_atom_site_fract_x
_atom_site_fract_y
_atom_site_fract_z
Si Si1 0.483093 0.863987 0.275330
Si Si2 0.025006 0.242106 0.227652
Si Si3 0.621218 0.492094 0.910928
Si Si4 0.757231 0.147396 0.011052
Si Si5 0.837805 0.425540 0.460168
Si Si6 0.246012 0.024752 0.515482
Si Si7 0.496173 0.364709 0.388020
O O1 0.298725 0.683976 0.326254
O O2 0.612271 0.888136 0.327960
O O3 0.500000 0.000000 0.500000
O O4 0.573139 0.957633 0.042816
O O5 0.186212 0.323926 0.053301
O O6 0.098965 0.400570 0.477112
O O7 0.894271 0.195330 0.109949
O O8 0.917888 0.073226 0.313624
O O9 0.594598 0.419941 0.602662
O O10 0.500000 0.500000 0.000000
O O11 0.570775 0.389854 0.101046
O O12 0.774931 0.292370 0.180617
O O13 0.786108 0.121206 0.709103
O O14 0.000000 0.500000 0.500000
O O15 0.319135 0.168674 0.400159
O O16 0.500000 0.500000 0.500000
#
# Coordination Sequence:
#
# PCOD9021714 Si02
#       7
#     2   2   2   2   2   2   2
#     4   9  19  37  58  86 131 173 224 272 330 398
#     4  10  22  38  64  95 135 175 225 282 341 403
#     4  10  23  46  72 100 132 175 231 286 351 414
#     4   9  21  37  59  93 132 178 225 278 331 406
#     4   9  18  36  57  88 132 174 220 277 326 402
#     4  11  23  38  65  97 131 179 232 280 343 411
#     4  10  24  45  71  97 132 175 228 286 348 411
#
# _framework density 25.012599000000002
#
# number of rings (size 3 to 8) (size 9 to 14) (size 15 to 20)
#    0.000    2.286    0.000    1.714    8.000    2.857 
#    0.000    5.714    0.000    0.000    0.000    0.000 
#    0.000    0.000    0.000    0.000    0.000    0.000 
#
# Total GULP energy -78043.268643 kJ/mol
# GULP energy per Si atom -5574.519189 kJ/mol
# Density = 2.495567 g / cm^3
# Si number density = 25.012599 Si / 1000 Ang^3
#
#
#
# Elastic Constant Matrix: (Units=GPa)
#
#
# Indices 1 2 3 4 5 6 
#
# 1 67.0365 58.8522 14.3042 -20.0681 0.7043 12.2743
# 2 58.8522 198.7067 51.6157 -48.5577 -2.3022 27.1203
# 3 14.3042 51.6157 124.4859 -11.9381 13.1176 16.8193
# 4 -20.0681 -48.5577 -11.9381 51.6838 2.6593 -9.0396
# 5 0.7043 -2.3022 13.1176 2.6593 30.2862 -6.3610
# 6 12.2743 27.1203 16.8193 -9.0396 -6.3610 39.3879
#
#
#
# Elastic Compliance Matrix: (Units=1/GPa)
#
#
# Indices 1 2 3 4 5 6 
#
# 1 0.020799 -0.005266 0.000661 0.002896 -0.002012 -0.002799
# 2 -0.005266 0.008776 -0.002350 0.005253 0.000917 -0.002044
# 3 0.000661 -0.002350 0.009990 -0.000021 -0.005299 -0.003714
# 4 0.002896 0.005253 -0.000021 0.025684 -0.001680 0.001113
# 5 -0.002012 0.000917 -0.005299 -0.001680 0.037234 0.007886
# 6 -0.002799 -0.002044 -0.003714 0.001113 0.007886 0.030783
#
#
# Mechanical properties :
#
#
# Convention : Reuss Voigt Hill
#
# Bulk Modulus (GPa) = 38.97812 71.08590 55.03201
# Shear Modulus (GPa) = 32.10723 41.96873 37.03798
#
# Velocity S-wave (km/s) = 3.58668 4.10067 3.85226
# Velocity P-wave (km/s) = 5.72447 7.13459 6.46807
#
# Compressibility (1/GPa) = 0.02565542
#
# Stress axis : x y z
#
# Youngs Moduli (GPa) = 48.07809 113.94765 100.10233
#
# Poissons Ratio (x) = 0.60003 -0.06619
# Poissons Ratio (y) = 0.25317 0.23528
# Poissons Ratio (z) = -0.03179 0.26782
#
# Static dielectric constant tensor:
#      x y z
#    x -0.839020 0.536810 1.466160 
#    y 0.536810 1.987660 -0.294120 
#    z 1.466160 -0.294120 1.263220 
# 
# From -- ./inp_files/98407.got.cif
#   From: 2010.05.17/outbox.cif.g08.bks.cpg/sg2_50_cif.got.tgz:98407.got - 2010.06.03 11:33:40.
