data_PCOD9021546
_publ_section_title
;
Structure prediction by ZEFSAII (Michael W. Deem and Ramdas Pophale) SiO2 
 PCOD9021546
Probable space group: P -1
;
_chemical_formula_sum "Si O2"
_cell_formula_units_Z 12
_cell_length_a 17.111191
_cell_length_b 11.792695
_cell_length_c 19.867938
_cell_angle_alpha 21.740159
_cell_angle_beta 20.074799
_cell_angle_gamma 30.169494
_cell_volume 508.723050
_symmetry_space_group_name_H-M "P -1"
_symmetry_group_IT_number 2
_symmetry_cell_setting 'triclinic'
loop_
_space_group_symop_operation_xyz
x,y,z
-x,-y,-z
loop_
_atom_site_type_symbol
_atom_site_label
_atom_site_fract_x
_atom_site_fract_y
_atom_site_fract_z
Si Si1 0.732698 0.409125 0.829392
Si Si2 0.826735 0.309321 0.390417
Si Si3 0.631393 0.637606 0.640268
Si Si4 0.864702 0.178471 0.067254
Si Si5 0.109355 0.835130 0.359146
Si Si6 0.698659 0.791768 0.125411
O O1 0.743666 0.551369 0.667385
O O2 0.926301 0.567370 0.631613
O O3 0.500000 0.500000 0.000000
O O4 0.729482 0.046277 0.019513
O O5 0.776885 0.475873 0.267019
O O6 0.568590 0.224657 0.669405
O O7 0.986215 0.025365 0.410078
O O8 0.962754 0.559217 0.187782
O O9 0.367946 0.677883 0.847730
O O10 0.665821 0.361115 0.711305
O O11 0.758484 0.943388 0.339286
O O12 0.000000 0.000000 0.000000
O O13 0.160966 0.077483 0.123663
#
# Coordination Sequence:
#
# PCOD9021546 Si02
#       6
#     2   2   2   2   2   2
#     4  11  21  40  70  97 128 167 209 266 321 379
#     4  11  23  39  62  97 129 167 210 263 326 373
#     4  10  25  43  66  96 123 175 220 254 323 381
#     4  11  26  45  66  89 131 177 216 263 311 388
#     4  11  22  40  66  94 131 159 213 274 314 378
#     4  10  22  38  63 100 128 164 209 263 329 375
#
# _framework density 23.588471999999999
#
# number of rings (size 3 to 8) (size 9 to 14) (size 15 to 20)
#    0.000    1.333    1.667    4.500    4.667    3.333 
#    0.000    5.833    0.000    0.000    0.000    0.000 
#    0.000    0.000    0.000    0.000    0.000    0.000 
#
# Total GULP energy -67124.453267 kJ/mol
# GULP energy per Si atom -5593.704439 kJ/mol
# Density = 2.353478 g / cm^3
# Si number density = 23.588472 Si / 1000 Ang^3
#
#
#
# Elastic Constant Matrix: (Units=GPa)
#
#
# Indices 1 2 3 4 5 6 
#
# 1 39.2303 34.8998 22.8951 -0.6141 -16.4137 5.9340
# 2 34.8998 183.5456 44.1839 19.1119 -29.5936 11.5148
# 3 22.8951 44.1839 116.3009 13.5654 -23.2362 12.9828
# 4 -0.6141 19.1119 13.5654 38.8274 -3.4658 2.0740
# 5 -16.4137 -29.5936 -23.2362 -3.4658 38.6048 -5.1278
# 6 5.9340 11.5148 12.9828 2.0740 -5.1278 31.4378
#
#
#
# Elastic Compliance Matrix: (Units=1/GPa)
#
#
# Indices 1 2 3 4 5 6 
#
# 1 0.036511 -0.004881 -0.003755 0.005280 0.009688 -0.002322
# 2 -0.004881 0.007392 -0.000857 -0.003134 0.002690 -0.000787
# 3 -0.003755 -0.000857 0.011076 -0.003024 0.003779 -0.002736
# 4 0.005280 -0.003134 -0.003024 0.028506 0.000529 -0.000394
# 5 0.009688 0.002690 0.003779 0.000529 0.034570 0.001229
# 6 -0.002322 -0.000787 -0.002736 -0.000394 0.001229 0.033892
#
#
# Mechanical properties :
#
#
# Convention : Reuss Voigt Hill
#
# Bulk Modulus (GPa) = 27.78152 60.33716 44.05934
# Shear Modulus (GPa) = 27.33317 37.58052 32.45685
#
# Velocity S-wave (km/s) = 3.40774 3.99579 3.71342
# Velocity P-wave (km/s) = 5.22367 6.85004 6.09138
#
# Compressibility (1/GPa) = 0.03599515
#
# Stress axis : x y z
#
# Youngs Moduli (GPa) = 27.38923 135.28370 90.28497
#
# Poissons Ratio (x) = 0.66027 0.33898
# Poissons Ratio (y) = 0.13368 0.07734
# Poissons Ratio (z) = 0.10283 0.11588
#
# Static dielectric constant tensor:
#      x y z
#    x 1.931330 -0.053650 0.029960 
#    y -0.053650 1.980700 0.016130 
#    z 0.029960 0.016130 1.873390 
# 
# From -- ./inp_files/175954.got.cif
#   From: 2010.05.17/outbox.cif.g08.bks.cpg/sg2_88_cif.got.tgz:175954.got - 2010.06.03 11:33:40.
