data_PCOD9021871
_publ_section_title
;
Structure prediction by ZEFSAII (Michael W. Deem and Ramdas Pophale) SiO2 
 PCOD9021871
Probable space group: P -1
;
_chemical_formula_sum "Si O2"
_cell_formula_units_Z 14
_cell_length_a 12.032120
_cell_length_b 11.847845
_cell_length_c 9.753744
_cell_angle_alpha 132.999926
_cell_angle_beta 132.440716
_cell_angle_gamma 77.511565
_cell_volume 669.393419
_symmetry_space_group_name_H-M "P -1"
_symmetry_group_IT_number 2
_symmetry_cell_setting 'triclinic'
loop_
_space_group_symop_operation_xyz
x,y,z
-x,-y,-z
loop_
_atom_site_type_symbol
_atom_site_label
_atom_site_fract_x
_atom_site_fract_y
_atom_site_fract_z
Si Si1 0.551951 0.646416 0.779254
Si Si2 0.927371 0.806400 0.651889
Si Si3 0.123062 0.998790 0.720790
Si Si4 0.360072 0.491158 0.983931
Si Si5 0.661418 0.183782 0.311604
Si Si6 0.756516 0.022487 0.788757
Si Si7 0.600932 0.163055 0.558647
O O1 0.500000 0.500000 0.500000
O O2 0.390543 0.683760 0.698690
O O3 0.708559 0.819890 0.996413
O O4 0.611377 0.593782 0.924320
O O5 0.818492 0.631748 0.335667
O O6 0.803729 0.865174 0.678234
O O7 0.024510 0.958105 0.747507
O O8 0.075864 0.817685 0.883438
O O9 0.179805 0.846597 0.621964
O O10 0.000000 0.000000 0.500000
O O11 0.500000 0.500000 0.000000
O O12 0.376270 0.676396 0.194235
O O13 0.666523 0.220807 0.508761
O O14 0.500000 0.000000 0.000000
O O15 0.599168 0.965724 0.713849
O O16 0.694319 0.065188 0.629464
#
# Coordination Sequence:
#
# PCOD9021871 Si02
#       7
#     2   2   2   2   2   2   2
#     4  11  23  42  66  95 131 176 217 270 321 386
#     4  11  23  43  63  96 128 173 212 270 333 383
#     4  11  22  40  66  93 129 169 217 265 321 387
#     4  12  25  41  66  96 134 169 216 274 332 388
#     4  10  22  38  66  94 126 172 222 259 317 392
#     4  10  23  39  68  92 130 169 216 268 322 394
#     4  11  22  42  65  98 127 170 223 265 321 397
#
# _framework density 20.914456000000001
#
# number of rings (size 3 to 8) (size 9 to 14) (size 15 to 20)
#    0.000    1.143    4.286    2.571    2.000    1.714 
#    0.000    4.286    0.000    0.000    0.000    0.000 
#    0.000    0.000    0.000    0.000    0.000    0.000 
#
# Total GULP energy -78243.979140 kJ/mol
# GULP energy per Si atom -5588.855653 kJ/mol
# Density = 2.086685 g / cm^3
# Si number density = 20.914456 Si / 1000 Ang^3
#
#
#
# Elastic Constant Matrix: (Units=GPa)
#
#
# Indices 1 2 3 4 5 6 
#
# 1 59.4698 0.9037 27.1489 -4.5062 5.2502 -9.6418
# 2 0.9037 30.0740 11.4854 -3.4777 14.1227 -22.5244
# 3 27.1489 11.4854 124.6737 -1.7974 4.8539 -19.8409
# 4 -4.5062 -3.4777 -1.7974 31.9371 -7.3963 1.8989
# 5 5.2502 14.1227 4.8539 -7.3963 31.6001 -3.2001
# 6 -9.6418 -22.5244 -19.8409 1.8989 -3.2001 39.2415
#
#
#
# Elastic Compliance Matrix: (Units=1/GPa)
#
#
# Indices 1 2 3 4 5 6 
#
# 1 0.020420 0.010140 -0.003791 0.001873 -0.006059 0.008336
# 2 0.010140 0.086270 -0.001051 -0.000282 -0.035221 0.048620
# 3 -0.003791 -0.001051 0.009461 -0.000334 -0.000102 0.003257
# 4 0.001873 -0.000282 -0.000334 0.033333 0.007581 -0.000866
# 5 -0.006059 -0.035221 -0.000102 0.007581 0.048342 -0.018182
# 6 0.008336 0.048620 0.003257 -0.000866 -0.018182 0.055645
#
#
# Mechanical properties :
#
#
# Convention : Reuss Voigt Hill
#
# Bulk Modulus (GPa) = 7.88978 32.58815 20.23897
# Shear Modulus (GPa) = 17.53617 32.20105 24.86861
#
# Velocity S-wave (km/s) = 2.89878 3.92810 3.45202
# Velocity P-wave (km/s) = 3.87098 6.01571 5.05832
#
# Compressibility (1/GPa) = 0.12674621
#
# Stress axis : x y z
#
# Youngs Moduli (GPa) = 48.97084 11.59150 105.69973
#
# Poissons Ratio (x) = -0.11753 0.40074
# Poissons Ratio (y) = -0.49655 0.11107
# Poissons Ratio (z) = 0.18566 0.01218
#
# Static dielectric constant tensor:
#      x y z
#    x 1.745430 -0.018970 0.006820 
#    y -0.018970 1.737580 -0.006570 
#    z 0.006820 -0.006570 1.760460 
# 
# From -- ./inp_files/168537.got.cif
#   From: 2010.05.17/outbox.cif.g08.bks.cpg/sg2_85_cif.got.tgz:168537.got - 2010.06.03 11:33:40.
