data_PCOD9021994
_publ_section_title
;
Structure prediction by ZEFSAII (Michael W. Deem and Ramdas Pophale) SiO2 
 PCOD9021994
Probable space group: P -1
;
_chemical_formula_sum "Si O2"
_cell_formula_units_Z 16
_cell_length_a 9.773389
_cell_length_b 12.120279
_cell_length_c 12.120463
_cell_angle_alpha 38.438398
_cell_angle_beta 104.258014
_cell_angle_gamma 104.257613
_cell_volume 861.668679
_symmetry_space_group_name_H-M "P -1"
_symmetry_group_IT_number 2
_symmetry_cell_setting 'triclinic'
loop_
_space_group_symop_operation_xyz
x,y,z
-x,-y,-z
loop_
_atom_site_type_symbol
_atom_site_label
_atom_site_fract_x
_atom_site_fract_y
_atom_site_fract_z
Si Si1 0.333421 0.474920 0.974856
Si Si2 0.894380 0.048287 0.165043
Si Si3 0.800446 0.448478 0.333317
Si Si4 0.894366 0.665120 0.548252
Si Si5 0.199563 0.166727 0.051487
Si Si6 0.646161 0.538589 0.433580
Si Si7 0.867489 0.441744 0.941713
Si Si8 0.646147 0.933553 0.038594
O O1 0.276779 0.586586 0.772613
O O2 0.500000 0.500000 0.000000
O O3 0.276744 0.272673 0.086541
O O4 0.267137 0.531410 0.031301
O O5 0.054116 0.059249 0.141142
O O6 0.872494 0.874854 0.374774
O O7 0.778069 0.021049 0.066786
O O8 0.875752 0.237528 0.068835
O O9 0.694144 0.413688 0.441991
O O10 0.945902 0.358826 0.440746
O O11 0.842318 0.663853 0.163885
O O12 0.778060 0.566824 0.521056
O O13 0.875719 0.568967 0.737459
O O14 0.305907 0.058075 0.086289
O O15 0.500000 0.500000 0.500000
O O16 0.629143 0.725509 0.225531
O O17 0.000000 0.500000 0.000000
O O18 0.500000 0.000000 0.000000
#
# Coordination Sequence:
#
# PCOD9021994 Si02
#       8
#     2   2   2   2   2   2   2   2
#     4  10  22  38  68  92 120 170 214 250 310 384
#     4  11  23  39  64  94 123 163 212 260 308 373
#     4   9  19  40  60  87 120 164 209 250 312 369
#     4  11  23  39  64  94 123 163 212 260 308 373
#     4   9  19  40  60  87 120 164 209 250 312 369
#     4  10  23  37  59  92 125 165 208 259 319 369
#     4  12  22  44  66  94 124 168 214 250 320 370
#     4  10  23  37  59  92 125 165 208 259 319 369
#
# _framework density 18.568622000000001
#
# number of rings (size 3 to 8) (size 9 to 14) (size 15 to 20)
#    0.750    1.000    3.750    0.750    5.250    1.500 
#    0.000    0.000    0.000    1.500    0.000    0.000 
#    0.000    0.000    0.000    0.000    0.000    0.000 
#
# Total GULP energy -89154.652496 kJ/mol
# GULP energy per Si atom -5572.165781 kJ/mol
# Density = 1.852636 g / cm^3
# Si number density = 18.568622 Si / 1000 Ang^3
#
#
#
# Elastic Constant Matrix: (Units=GPa)
#
#
# Indices 1 2 3 4 5 6 
#
# 1 160.6688 49.3559 19.9833 12.6343 -6.0078 -16.1807
# 2 49.3559 73.3956 37.5944 -5.9876 -9.9957 -25.5554
# 3 19.9833 37.5944 66.9958 8.7963 -2.4914 -8.0320
# 4 12.6343 -5.9876 8.7963 18.5806 -2.3254 -7.8590
# 5 -6.0078 -9.9957 -2.4914 -2.3254 26.3003 3.8381
# 6 -16.1807 -25.5554 -8.0320 -7.8590 3.8381 35.2210
#
#
#
# Elastic Compliance Matrix: (Units=1/GPa)
#
#
# Indices 1 2 3 4 5 6 
#
# 1 0.011072 -0.017179 0.007820 -0.021450 -0.003699 -0.009978
# 2 -0.017179 0.070308 -0.037614 0.075345 0.018698 0.049319
# 3 0.007820 -0.037614 0.036470 -0.046338 -0.009550 -0.024681
# 4 -0.021450 0.075345 -0.046338 0.144550 0.022784 0.064018
# 5 -0.003699 0.018698 -0.009550 0.022784 0.043936 0.009986
# 6 -0.009978 0.049319 -0.024681 0.064018 0.009986 0.067161
#
#
# Mechanical properties :
#
#
# Convention : Reuss Voigt Hill
#
# Bulk Modulus (GPa) = 41.83100 57.21416 49.52258
# Shear Modulus (GPa) = 10.51720 28.96217 19.73969
#
# Velocity S-wave (km/s) = 2.38249 3.95364 3.26401
# Velocity P-wave (km/s) = 5.49045 7.19172 6.39788
#
# Compressibility (1/GPa) = 0.02390572
#
# Stress axis : x y z
#
# Youngs Moduli (GPa) = 90.31726 14.22307 27.41945
#
# Poissons Ratio (x) = 0.24433 -0.21441
# Poissons Ratio (y) = 1.55153 1.03134
# Poissons Ratio (z) = -0.70625 0.53498
#
# Static dielectric constant tensor:
#      x y z
#    x 1.743630 -0.079060 -0.028840 
#    y -0.079060 1.724240 0.000060 
#    z -0.028840 0.000060 1.722540 
# 
# From -- ./inp_files/388863.got.cif
#   From: 2010.05.17/outbox.cif.g08.bks.cpg/sg2_195_cif.got.tgz:388863.got - 2010.06.03 11:33:40.
