data_PCOD9021213
_publ_section_title
;
Structure prediction by ZEFSAII (Michael W. Deem and Ramdas Pophale) SiO2 
 PCOD9021213
Probable space group: P -1
;
_chemical_formula_sum "Si O2"
_cell_formula_units_Z 14
_cell_length_a 10.730998
_cell_length_b 4.956092
_cell_length_c 22.637043
_cell_angle_alpha 105.204338
_cell_angle_beta 36.551400
_cell_angle_gamma 118.321732
_cell_volume 614.730562
_symmetry_space_group_name_H-M "P -1"
_symmetry_group_IT_number 2
_symmetry_cell_setting 'triclinic'
loop_
_space_group_symop_operation_xyz
x,y,z
-x,-y,-z
loop_
_atom_site_type_symbol
_atom_site_label
_atom_site_fract_x
_atom_site_fract_y
_atom_site_fract_z
Si Si1 0.369160 0.806415 0.275223
Si Si2 0.874605 0.782323 0.442628
Si Si3 0.458174 0.860195 0.073756
Si Si4 0.171332 0.861415 0.949149
Si Si5 0.644303 0.204007 0.582595
Si Si6 0.288021 0.772302 0.610092
Si Si7 0.217377 0.277225 0.206598
O O1 0.330700 0.512644 0.231711
O O2 0.145661 0.868104 0.352144
O O3 0.620145 0.072792 0.173136
O O4 0.364717 0.742529 0.342225
O O5 0.834340 0.084293 0.484437
O O6 0.780719 0.579882 0.406264
O O7 0.720217 0.526228 0.536527
O O8 0.693284 0.001296 0.032411
O O9 0.283224 0.996016 0.171780
O O10 0.500000 0.000000 0.000000
O O11 0.329445 0.489014 0.116893
O O12 0.000000 0.500000 0.000000
O O13 0.000000 0.000000 0.000000
O O14 0.400973 0.906591 0.637970
O O15 0.055741 0.814547 0.694271
O O16 0.500000 0.000000 0.500000
#
# Coordination Sequence:
#
# PCOD9021213 Si02
#       7
#     2   2   2   2   2   2   2
#     4  10  23  40  62  86 121 160 200 248 303 367
#     4  10  22  38  58  86 122 159 200 245 297 360
#     4  11  24  44  69  92 120 162 211 256 308 375
#     4  11  25  43  63  91 124 159 201 259 317 360
#     4  11  22  36  60  91 119 159 203 244 298 360
#     4   9  21  38  59  88 126 160 198 250 298 351
#     4  10  23  41  63  92 123 161 202 250 309 365
#
# _framework density 22.774204000000001
#
# number of rings (size 3 to 8) (size 9 to 14) (size 15 to 20)
#    0.000    1.714    0.000    3.429    0.000   19.429 
#    0.000    0.000    0.000    0.000    0.000    0.000 
#    0.000    0.000    0.000    0.000    0.000    0.000 
#
# Total GULP energy -78326.056406 kJ/mol
# GULP energy per Si atom -5594.718315 kJ/mol
# Density = 2.272237 g / cm^3
# Si number density = 22.774204 Si / 1000 Ang^3
#
#
#
# Elastic Constant Matrix: (Units=GPa)
#
#
# Indices 1 2 3 4 5 6 
#
# 1 125.3453 29.6220 52.6027 -11.5218 6.2972 1.8614
# 2 29.6220 58.7919 22.9425 -15.5662 -4.7851 -19.8763
# 3 52.6027 22.9425 98.5300 -24.9563 -7.7937 12.7553
# 4 -11.5218 -15.5662 -24.9563 37.4246 1.4784 -3.9625
# 5 6.2972 -4.7851 -7.7937 1.4784 43.7202 2.1843
# 6 1.8614 -19.8763 12.7553 -3.9625 2.1843 34.2670
#
#
#
# Elastic Compliance Matrix: (Units=1/GPa)
#
#
# Indices 1 2 3 4 5 6 
#
# 1 0.011459 -0.004945 -0.005597 -0.002298 -0.003038 -0.001480
# 2 -0.004945 0.031514 -0.004603 0.010704 0.001911 0.021377
# 3 -0.005597 -0.004603 0.017302 0.006887 0.003565 -0.008237
# 4 -0.002298 0.010704 0.006887 0.035843 0.001126 0.007843
# 5 -0.003038 0.001911 0.003565 0.001126 0.024190 -0.001465
# 6 -0.001480 0.021377 -0.008237 0.007843 -0.001465 0.045729
#
#
# Mechanical properties :
#
#
# Convention : Reuss Voigt Hill
#
# Bulk Modulus (GPa) = 33.35097 54.77795 44.06446
# Shear Modulus (GPa) = 24.23400 34.91569 29.57485
#
# Velocity S-wave (km/s) = 3.26559 3.91976 3.60753
# Velocity P-wave (km/s) = 5.37538 6.67764 6.06159
#
# Compressibility (1/GPa) = 0.02998414
#
# Stress axis : x y z
#
# Youngs Moduli (GPa) = 87.26916 31.73215 57.79784
#
# Poissons Ratio (x) = 0.15693 0.32349
# Poissons Ratio (y) = 0.43158 0.26604
# Poissons Ratio (z) = 0.48843 0.14606
#
# Static dielectric constant tensor:
#      x y z
#    x 1.890890 0.022630 0.033320 
#    y 0.022630 1.841640 -0.010440 
#    z 0.033320 -0.010440 1.860670 
# 
# From -- ./inp_files/609203.got.cif
#   From: 2010.05.17/outbox.cif.g08.bks.cpg/sg2_305_cif.got.tgz:609203.got - 2010.06.03 11:33:40.
