data_PCOD9021970
_publ_section_title
;
Structure prediction by ZEFSAII (Michael W. Deem and Ramdas Pophale) SiO2 
 PCOD9021970
Probable space group: P -1
;
_chemical_formula_sum "Si O2"
_cell_formula_units_Z 14
_cell_length_a 11.286245
_cell_length_b 10.504733
_cell_length_c 11.052915
_cell_angle_alpha 89.471058
_cell_angle_beta 119.832086
_cell_angle_gamma 140.385384
_cell_volume 534.041597
_symmetry_space_group_name_H-M "P -1"
_symmetry_group_IT_number 2
_symmetry_cell_setting 'triclinic'
loop_
_space_group_symop_operation_xyz
x,y,z
-x,-y,-z
loop_
_atom_site_type_symbol
_atom_site_label
_atom_site_fract_x
_atom_site_fract_y
_atom_site_fract_z
Si Si1 0.986041 0.846863 0.758815
Si Si2 0.137182 0.572539 0.867617
Si Si3 0.740637 0.143757 0.263329
Si Si4 0.670992 0.551095 0.991806
Si Si5 0.454775 0.967845 0.335648
Si Si6 0.717479 0.896027 0.835663
Si Si7 0.429554 0.390555 0.624779
O O1 0.693745 0.554330 0.677202
O O2 0.853478 0.846288 0.601725
O O3 0.121881 0.859056 0.737041
O O4 0.200377 0.041050 0.980536
O O5 0.102629 0.606321 0.717902
O O6 0.235759 0.507681 0.906972
O O7 0.865298 0.356604 0.820311
O O8 0.399136 0.867106 0.057641
O O9 0.706909 0.104483 0.389222
O O10 0.500000 0.500000 0.000000
O O11 0.456022 0.350603 0.769908
O O12 0.973581 0.851648 0.082635
O O13 0.500000 0.000000 0.500000
O O14 0.430742 0.092298 0.272678
O O15 0.522986 0.615422 0.699402
#
# Coordination Sequence:
#
# PCOD9021970 Si02
#       7
#     2   2   2   2   2   2   2
#     4  10  22  42  70 103 130 184 239 277 349 417
#     4  10  24  44  69 102 140 178 236 284 352 417
#     4  11  24  44  75  98 136 193 223 288 362 417
#     4  10  22  38  68 102 139 180 229 288 344 421
#     4  11  26  45  67 108 139 177 235 292 351 423
#     4  10  22  44  69  95 143 186 224 294 360 403
#     4  10  23  42  71 101 139 185 233 291 348 417
#
# _framework density 26.215184000000001
#
# number of rings (size 3 to 8) (size 9 to 14) (size 15 to 20)
#    0.000    1.714    0.000    3.857    8.000    5.143 
#    2.571    0.714    0.000    0.000    0.000    0.000 
#    0.000    0.000    0.000    0.000    0.000    0.000 
#
# Total GULP energy -78327.195350 kJ/mol
# GULP energy per Si atom -5594.799668 kJ/mol
# Density = 2.615552 g / cm^3
# Si number density = 26.215184 Si / 1000 Ang^3
#
#
#
# Elastic Constant Matrix: (Units=GPa)
#
#
# Indices 1 2 3 4 5 6 
#
# 1 143.7410 69.0942 30.7576 -20.1486 -17.9623 46.9249
# 2 69.0942 122.6703 17.6785 -3.1947 -0.0233 19.1067
# 3 30.7576 17.6785 128.7217 -19.2489 -22.1207 12.0721
# 4 -20.1486 -3.1947 -19.2489 40.5505 -0.8730 -6.9207
# 5 -17.9623 -0.0233 -22.1207 -0.8730 26.9338 -8.3136
# 6 46.9249 19.1067 12.0721 -6.9207 -8.3136 49.6216
#
#
#
# Elastic Compliance Matrix: (Units=1/GPa)
#
#
# Indices 1 2 3 4 5 6 
#
# 1 0.015073 -0.006898 0.000398 0.005654 0.007582 -0.009636
# 2 -0.006898 0.012041 -0.001541 -0.003185 -0.005692 0.000864
# 3 0.000398 -0.001541 0.010153 0.005070 0.008742 -0.000081
# 4 0.005654 -0.003185 0.005070 0.029874 0.008999 0.000321
# 5 0.007582 -0.005692 0.008742 0.008999 0.050455 0.002603
# 6 -0.009636 0.000864 -0.000081 0.000321 0.002603 0.029433
#
#
# Mechanical properties :
#
#
# Convention : Reuss Voigt Hill
#
# Bulk Modulus (GPa) = 47.20252 70.02152 58.61202
# Shear Modulus (GPa) = 29.38193 41.92804 35.65499
#
# Velocity S-wave (km/s) = 3.35146 4.00356 3.69194
# Velocity P-wave (km/s) = 5.74642 6.93827 6.37028
#
# Compressibility (1/GPa) = 0.02118531
#
# Stress axis : x y z
#
# Youngs Moduli (GPa) = 66.34320 83.05240 98.48863
#
# Poissons Ratio (x) = 0.57287 -0.03917
# Poissons Ratio (y) = 0.45762 0.15176
# Poissons Ratio (z) = -0.02639 0.12798
#
# Static dielectric constant tensor:
#      x y z
#    x 2.057650 0.002280 -0.041710 
#    y 0.002280 2.099040 0.037780 
#    z -0.041710 0.037780 2.225650 
# 
# From -- ./inp_files/426013.got.cif
#   From: 2010.05.17/outbox.cif.g08.bks.cpg/sg2_214_cif.got.tgz:426013.got - 2010.06.03 11:33:40.
