data_PCOD9021564
_publ_section_title
;
Structure prediction by ZEFSAII (Michael W. Deem and Ramdas Pophale) SiO2 
 PCOD9021564
Probable space group: P -1
;
_chemical_formula_sum "Si O2"
_cell_formula_units_Z 14
_cell_length_a 15.710886
_cell_length_b 7.161996
_cell_length_c 6.926201
_cell_angle_alpha 87.905643
_cell_angle_beta 57.629461
_cell_angle_gamma 56.528595
_cell_volume 510.709760
_symmetry_space_group_name_H-M "P -1"
_symmetry_group_IT_number 2
_symmetry_cell_setting 'triclinic'
loop_
_space_group_symop_operation_xyz
x,y,z
-x,-y,-z
loop_
_atom_site_type_symbol
_atom_site_label
_atom_site_fract_x
_atom_site_fract_y
_atom_site_fract_z
Si Si1 0.243880 0.010303 0.305710
Si Si2 0.369868 0.608175 0.900188
Si Si3 0.533714 0.897441 0.179883
Si Si4 0.208411 0.791552 0.723528
Si Si5 0.090262 0.810278 0.237330
Si Si6 0.259021 0.305844 0.577917
Si Si7 0.828302 0.679020 0.930922
O O1 0.243919 0.213262 0.400980
O O2 0.370594 0.778845 0.043392
O O3 0.205255 0.923054 0.533959
O O4 0.237922 0.663811 0.136343
O O5 0.097133 0.908653 0.019465
O O6 0.331792 0.696175 0.719998
O O7 0.151450 0.163139 0.228551
O O8 0.413175 0.119291 0.436435
O O9 0.528310 0.677549 0.207671
O O10 0.322629 0.206634 0.928696
O O11 0.500000 0.000000 0.000000
O O12 0.079793 0.601758 0.218666
O O13 0.221598 0.564526 0.637314
O O14 0.000000 0.000000 0.500000
O O15 0.174934 0.290691 0.837903
#
# Coordination Sequence:
#
# PCOD9021564 Si02
#       7
#     2   2   2   2   2   2   2
#     4  12  22  39  61  93 125 157 202 253 299 352
#     4   9  22  39  60  87 126 155 199 252 298 347
#     4  11  19  38  61  89 118 167 209 244 289 359
#     4   9  22  40  63  86 122 161 198 247 300 361
#     4   8  18  43  69  85 116 163 198 243 310 364
#     4  11  22  38  64  83 125 169 201 242 301 358
#     4  10  22  38  63  88 121 162 202 249 301 353
#
# _framework density 27.41283
#
# number of rings (size 3 to 8) (size 9 to 14) (size 15 to 20)
#    0.857    1.143    2.857    2.143    2.000    0.571 
#    2.571    3.571    0.000    0.000    0.000    0.000 
#    0.000    0.000    0.000    0.000    0.000    0.000 
#
# Total GULP energy -78198.883004 kJ/mol
# GULP energy per Si atom -5585.634500 kJ/mol
# Density = 2.735044 g / cm^3
# Si number density = 27.412830 Si / 1000 Ang^3
#
#
#
# Elastic Constant Matrix: (Units=GPa)
#
#
# Indices 1 2 3 4 5 6 
#
# 1 58.7981 19.9771 23.1491 3.3543 15.7735 9.3641
# 2 19.9771 124.9974 113.5191 -17.3325 1.1667 19.6562
# 3 23.1491 113.5191 210.8636 -11.8310 4.8593 29.7368
# 4 3.3543 -17.3325 -11.8310 57.5520 3.6448 4.1497
# 5 15.7735 1.1667 4.8593 3.6448 51.0485 5.7110
# 6 9.3641 19.6562 29.7368 4.1497 5.7110 32.1390
#
#
#
# Elastic Compliance Matrix: (Units=1/GPa)
#
#
# Indices 1 2 3 4 5 6 
#
# 1 0.020082 -0.002589 -0.000379 -0.001471 -0.005701 -0.002714
# 2 -0.002589 0.016756 -0.008195 0.003622 0.001229 -0.002597
# 3 -0.000379 -0.008195 0.009731 -0.000158 -0.000182 -0.003828
# 4 -0.001471 0.003622 -0.000158 0.018839 -0.000513 -0.003982
# 5 -0.005701 0.001229 -0.000182 -0.000513 0.021680 -0.002708
# 6 -0.002714 -0.002597 -0.003828 -0.003982 -0.002708 0.038031
#
#
# Mechanical properties :
#
#
# Convention : Reuss Voigt Hill
#
# Bulk Modulus (GPa) = 41.25135 78.66107 59.95621
# Shear Modulus (GPa) = 32.14889 44.01548 38.08218
#
# Velocity S-wave (km/s) = 3.42829 4.01141 3.73125
# Velocity P-wave (km/s) = 5.54542 7.08607 6.36255
#
# Compressibility (1/GPa) = 0.02424163
#
# Stress axis : x y z
#
# Youngs Moduli (GPa) = 49.79607 59.68144 102.76303
#
# Poissons Ratio (x) = 0.15453 0.03897
# Poissons Ratio (y) = 0.12893 0.84215
# Poissons Ratio (z) = 0.01888 0.48910
#
# Static dielectric constant tensor:
#      x y z
#    x 2.317840 0.034180 -0.007600 
#    y 0.034180 2.189600 0.020300 
#    z -0.007600 0.020300 2.114430 
# 
# From -- ./inp_files/105588.got.cif
#   From: 2010.05.17/outbox.cif.g08.bks.cpg/sg2_53_cif.got.tgz:105588.got - 2010.06.03 11:33:40.
