data_PCOD9021901
_publ_section_title
;
Structure prediction by ZEFSAII (Michael W. Deem and Ramdas Pophale) SiO2 
 PCOD9021901
Probable space group: P -1
;
_chemical_formula_sum "Si O2"
_cell_formula_units_Z 16
_cell_length_a 12.465243
_cell_length_b 9.820432
_cell_length_c 9.356907
_cell_angle_alpha 50.320729
_cell_angle_beta 49.227067
_cell_angle_gamma 70.684501
_cell_volume 660.257258
_symmetry_space_group_name_H-M "P -1"
_symmetry_group_IT_number 2
_symmetry_cell_setting 'triclinic'
loop_
_space_group_symop_operation_xyz
x,y,z
-x,-y,-z
loop_
_atom_site_type_symbol
_atom_site_label
_atom_site_fract_x
_atom_site_fract_y
_atom_site_fract_z
Si Si1 0.958662 0.221193 0.243165
Si Si2 0.458101 0.209799 0.960269
Si Si3 0.013476 0.192224 0.529790
Si Si4 0.565286 0.396959 0.163435
Si Si5 0.259347 0.421912 0.338698
Si Si6 0.702591 0.018339 0.965681
Si Si7 0.780208 0.665943 0.248872
Si Si8 0.351821 0.667946 0.560467
O O1 0.026963 0.269441 0.306573
O O2 0.803032 0.273474 0.342836
O O3 0.950752 0.009175 0.371690
O O4 0.062280 0.312147 0.969499
O O5 0.432517 0.396188 0.924351
O O6 0.554159 0.245676 0.709467
O O7 0.558876 0.108253 0.042451
O O8 0.318537 0.085440 0.101438
O O9 0.122521 0.307454 0.462934
O O10 0.845619 0.162758 0.738327
O O11 0.407221 0.335397 0.280342
O O12 0.587309 0.297691 0.357244
O O13 0.687165 0.412701 0.925376
O O14 0.225886 0.434413 0.527249
O O15 0.732146 0.863060 0.154515
O O16 0.675729 0.541695 0.316676
#
# Coordination Sequence:
#
# PCOD9021901 Si02
#       8
#     2   2   2   2   2   2   2   2
#     4  10  23  39  69  99 123 170 223 274 316 379
#     4  11  21  39  67  99 128 162 220 273 321 373
#     4  10  22  44  65  95 136 170 214 268 331 384
#     4  11  24  43  64  98 130 177 215 269 321 385
#     4  11  25  43  66  91 140 180 205 263 338 390
#     4  10  22  38  67 100 127 164 217 273 323 371
#     4  11  22  42  65 100 130 171 215 272 325 380
#     4  12  21  42  71  99 125 167 229 271 317 381
#
# _framework density 24.232979
#
# number of rings (size 3 to 8) (size 9 to 14) (size 15 to 20)
#    0.000    1.250    3.750    2.250    3.500    2.000 
#    0.000   10.625    0.000    0.000    0.000    0.000 
#    0.000    0.000    0.000    0.000    0.000    0.000 
#
# Total GULP energy -89505.835996 kJ/mol
# GULP energy per Si atom -5594.114750 kJ/mol
# Density = 2.417782 g / cm^3
# Si number density = 24.232979 Si / 1000 Ang^3
#
#
#
# Elastic Constant Matrix: (Units=GPa)
#
#
# Indices 1 2 3 4 5 6 
#
# 1 142.5083 22.8931 36.4424 8.5015 -10.1462 25.3216
# 2 22.8931 48.9083 19.7860 5.8282 1.3012 -12.2078
# 3 36.4424 19.7860 155.1541 30.2506 1.3568 2.8908
# 4 8.5015 5.8282 30.2506 31.4245 5.8727 5.0461
# 5 -10.1462 1.3012 1.3568 5.8727 46.2011 -5.2078
# 6 25.3216 -12.2078 2.8908 5.0461 -5.2078 24.8071
#
#
#
# Elastic Compliance Matrix: (Units=1/GPa)
#
#
# Indices 1 2 3 4 5 6 
#
# 1 0.011909 -0.009447 -0.001852 0.002931 0.000641 -0.017051
# 2 -0.009447 0.033069 -0.001132 -0.007137 0.001059 0.027723
# 3 -0.001852 -0.001132 0.008531 -0.007952 0.000621 0.002087
# 4 0.002931 -0.007137 -0.007952 0.043712 -0.006257 -0.015782
# 5 0.000641 0.001059 0.000621 -0.006257 0.023202 0.005938
# 6 -0.017051 0.027723 0.002087 -0.015782 0.005938 0.075572
#
#
# Mechanical properties :
#
#
# Convention : Reuss Voigt Hill
#
# Bulk Modulus (GPa) = 34.91008 56.09041 45.50024
# Shear Modulus (GPa) = 21.70090 38.31649 30.00870
#
# Velocity S-wave (km/s) = 2.99576 3.98071 3.52282
# Velocity P-wave (km/s) = 5.13842 6.65767 5.94676
#
# Compressibility (1/GPa) = 0.02864502
#
# Stress axis : x y z
#
# Youngs Moduli (GPa) = 83.97157 30.23997 117.22407
#
# Poissons Ratio (x) = 0.28569 0.21707
# Poissons Ratio (y) = 0.79332 0.13275
# Poissons Ratio (z) = 0.15549 0.03424
#
# Static dielectric constant tensor:
#      x y z
#    x 1.930550 -0.006810 -0.004730 
#    y -0.006810 1.989430 -0.015110 
#    z -0.004730 -0.015110 1.961870 
# 
# From -- ./inp_files/256269.got.cif
#   From: 2010.05.17/outbox.cif.g08.bks.cpg/sg2_129_cif.got.tgz:256269.got - 2010.06.03 11:33:40.
