data_PCOD9021609
_publ_section_title
;
Structure prediction by ZEFSAII (Michael W. Deem and Ramdas Pophale) SiO2 
 PCOD9021609
Probable space group: P -1
;
_chemical_formula_sum "Si O2"
_cell_formula_units_Z 14
_cell_length_a 7.183474
_cell_length_b 24.188542
_cell_length_c 10.852756
_cell_angle_alpha 28.795126
_cell_angle_beta 46.826073
_cell_angle_gamma 34.457544
_cell_volume 508.807132
_symmetry_space_group_name_H-M "P -1"
_symmetry_group_IT_number 2
_symmetry_cell_setting 'triclinic'
loop_
_space_group_symop_operation_xyz
x,y,z
-x,-y,-z
loop_
_atom_site_type_symbol
_atom_site_label
_atom_site_fract_x
_atom_site_fract_y
_atom_site_fract_z
Si Si1 0.893791 0.456049 0.877562
Si Si2 0.536171 0.120696 0.281677
Si Si3 0.904643 0.135863 0.861728
Si Si4 0.584588 0.190629 0.383427
Si Si5 0.789828 0.402114 0.287784
Si Si6 0.730466 0.770339 0.331796
Si Si7 0.130213 0.664405 0.121898
O O1 0.677024 0.481224 0.049743
O O2 0.197840 0.289314 0.108563
O O3 0.884720 0.596653 0.606140
O O4 0.913752 0.421808 0.789471
O O5 0.662293 0.091923 0.421627
O O6 0.500000 0.000000 0.500000
O O7 0.709068 0.137258 0.059895
O O8 0.759822 0.272894 0.564194
O O9 0.140988 0.157031 0.788879
O O10 0.000000 0.000000 0.000000
O O11 0.615303 0.146629 0.599111
O O12 0.174849 0.326455 0.288717
O O13 0.805996 0.237279 0.171431
O O14 0.509731 0.530091 0.261113
O O15 0.831921 0.768677 0.148905
#
# Coordination Sequence:
#
# PCOD9021609 Si02
#       7
#     2   2   2   2   2   2   2
#     4  11  24  39  63  98 131 170 209 258 328 375
#     4  11  23  44  67  90 129 164 218 271 313 379
#     4  11  23  40  67  97 121 166 222 267 317 371
#     4  10  22  38  63  94 124 167 217 259 308 367
#     4  10  22  38  65  94 133 164 219 261 313 371
#     4  11  23  38  65  95 132 162 220 259 314 379
#     4  12  22  40  62  96 137 170 203 265 322 377
#
# _framework density 27.515338
#
# number of rings (size 3 to 8) (size 9 to 14) (size 15 to 20)
#    0.000    1.143    2.857    4.714    6.000    2.857 
#    0.000    0.714    0.000    2.571    0.000    0.000 
#    0.000    0.000    0.000    0.000    0.000    0.000 
#
# Total GULP energy -77958.774730 kJ/mol
# GULP energy per Si atom -5568.483909 kJ/mol
# Density = 2.745271 g / cm^3
# Si number density = 27.515338 Si / 1000 Ang^3
#
#
#
# Elastic Constant Matrix: (Units=GPa)
#
#
# Indices 1 2 3 4 5 6 
#
# 1 -28.6180 -7.0698 -7.8079 4.4368 22.2256 143.5837
# 2 -7.0698 160.6521 41.4738 36.3970 -9.2542 97.5848
# 3 -7.8079 41.4738 144.1367 18.0543 -28.4058 30.2661
# 4 4.4368 36.3970 18.0543 70.6500 -1.8855 -10.8739
# 5 22.2256 -9.2542 -28.4058 -1.8855 35.4954 -36.3205
# 6 143.5837 97.5848 30.2661 -10.8739 -36.3205 -65.0616
#
#
#
# Elastic Compliance Matrix: (Units=1/GPa)
#
#
# Indices 1 2 3 4 5 6 
#
# 1 0.007780 -0.005115 0.000263 0.003344 0.002199 0.007834
# 2 -0.005115 0.007945 -0.001319 -0.003517 0.002958 -0.001049
# 3 0.000263 -0.001319 0.008792 -0.001488 0.006019 -0.000420
# 4 0.003344 -0.003517 -0.001488 0.016115 -0.002963 0.000373
# 5 0.002199 0.002958 0.006019 -0.002963 0.028706 -0.003441
# 6 0.007834 -0.001049 -0.000420 0.000373 -0.003441 0.002008
#
#
# Mechanical properties :
#
#
# Convention : Reuss Voigt Hill
#
# Bulk Modulus (GPa) = 82.14052 36.59589 59.36821
# Shear Modulus (GPa) = 56.98214 24.85507 40.91861
#
# Velocity S-wave (km/s) = 4.55568 3.00878 3.86050
# Velocity P-wave (km/s) = 7.58879 5.03978 6.44163
#
# Compressibility (1/GPa) = 0.01217426
#
# Stress axis : x y z
#
# Youngs Moduli (GPa) = 128.53168 125.87090 113.73382
#
# Poissons Ratio (x) = 0.64382 -0.02988
# Poissons Ratio (y) = 0.65743 0.15005
# Poissons Ratio (z) = -0.03377 0.16606
#
# Static dielectric constant tensor:
#      x y z
#    x 2.428190 -0.050450 0.131050 
#    y -0.050450 2.201180 0.137910 
#    z 0.131050 0.137910 2.109760 
# 
# From -- ./inp_files/405794.got.cif
#   From: 2010.05.17/outbox.cif.g08.bks.cpg/sg2_203_cif.got.tgz:405794.got - 2010.06.03 11:33:40.
