data_PCOD9021899
_publ_section_title
;
Structure prediction by ZEFSAII (Michael W. Deem and Ramdas Pophale) SiO2 
 PCOD9021899
Probable space group: P -1
;
_chemical_formula_sum "Si O2"
_cell_formula_units_Z 11
_cell_length_a 9.307538
_cell_length_b 12.056887
_cell_length_c 14.189949
_cell_angle_alpha 159.485734
_cell_angle_beta 110.960457
_cell_angle_gamma 71.752936
_cell_volume 519.942328
_symmetry_space_group_name_H-M "P -1"
_symmetry_group_IT_number 2
_symmetry_cell_setting 'triclinic'
loop_
_space_group_symop_operation_xyz
x,y,z
-x,-y,-z
loop_
_atom_site_type_symbol
_atom_site_label
_atom_site_fract_x
_atom_site_fract_y
_atom_site_fract_z
Si Si1 0.666516 0.156203 0.054897
Si Si2 0.449389 0.854116 0.272909
Si Si3 0.146393 0.323425 0.192031
Si Si4 0.152619 0.884805 0.122380
Si Si5 0.534344 0.307431 0.482491
Si Si6 0.000000 0.500000 0.500000
O O1 0.569575 0.417312 0.286506
O O2 0.750662 0.243044 0.045503
O O3 0.797200 0.035189 0.059955
O O4 0.546781 0.863287 0.763093
O O5 0.266035 0.866660 0.221844
O O6 0.500000 0.000000 0.500000
O O7 0.527885 0.052971 0.362934
O O8 0.500000 0.500000 0.000000
O O9 0.294596 0.547758 0.380768
O O10 0.073114 0.421365 0.350358
O O11 0.014263 0.300873 0.064590
O O12 0.114351 0.240077 0.368748
#
# Coordination Sequence:
#
# PCOD9021899 Si02
#       6
#     2   2   2   2   2   1
#     4  10  22  39  64  98 140 177 209 260 339 410
#     4  11  25  47  71  90 126 181 235 277 324 386
#     4  11  24  37  65 102 140 175 213 271 334 404
#     4  10  24  39  69  95 135 175 223 265 339 399
#     4  11  24  42  66  98 134 176 226 272 324 392
#     4  10  22  38  66  98 144 166 204 258 352 402
#
# _framework density 21.156192000000001
#
# number of rings (size 3 to 8) (size 9 to 14) (size 15 to 20)
#    0.000    1.455    0.000    5.455   20.364    0.000 
#    0.000    1.818    0.000    0.000    0.000    0.000 
#    0.000    0.000    0.000    0.000    0.000    0.000 
#
# Total GULP energy -61366.943468 kJ/mol
# GULP energy per Si atom -5578.813043 kJ/mol
# Density = 2.110804 g / cm^3
# Si number density = 21.156192 Si / 1000 Ang^3
#
#
#
# Elastic Constant Matrix: (Units=GPa)
#
#
# Indices 1 2 3 4 5 6 
#
# 1 140.4663 54.6711 60.9559 5.2587 10.3158 -28.5049
# 2 54.6711 150.5905 59.0094 -9.7435 -0.7323 -39.8537
# 3 60.9559 59.0094 127.5443 -2.5802 -32.0411 -15.5558
# 4 5.2587 -9.7435 -2.5802 25.5927 -10.1369 14.9094
# 5 10.3158 -0.7323 -32.0411 -10.1369 42.9537 -6.6921
# 6 -28.5049 -39.8537 -15.5558 14.9094 -6.6921 40.3780
#
#
#
# Elastic Compliance Matrix: (Units=1/GPa)
#
#
# Indices 1 2 3 4 5 6 
#
# 1 0.014550 -0.000076 -0.009020 -0.014610 -0.012096 0.010112
# 2 -0.000076 0.010700 -0.004378 -0.002754 -0.002240 0.009466
# 3 -0.009020 -0.004378 0.018248 0.012069 0.017745 -0.005174
# 4 -0.014610 -0.002754 0.012069 0.069256 0.024142 -0.029954
# 5 -0.012096 -0.002240 0.017745 0.024142 0.044226 -0.005499
# 6 0.010112 0.009466 -0.005174 -0.029954 -0.005499 0.049403
#
#
# Mechanical properties :
#
#
# Convention : Reuss Voigt Hill
#
# Bulk Modulus (GPa) = 60.42234 85.31931 72.87083
# Shear Modulus (GPa) = 20.93393 38.04919 29.49156
#
# Velocity S-wave (km/s) = 3.14904 4.24546 3.73767
# Velocity P-wave (km/s) = 6.46870 8.02794 7.29012
#
# Compressibility (1/GPa) = 0.01655017
#
# Stress axis : x y z
#
# Youngs Moduli (GPa) = 68.72787 93.45982 54.80163
#
# Poissons Ratio (x) = 0.00711 0.49429
# Poissons Ratio (y) = 0.00523 0.23992
# Poissons Ratio (z) = 0.61991 0.40916
#
# Static dielectric constant tensor:
#      x y z
#    x 1.674370 -0.006310 -0.101570 
#    y -0.006310 1.730670 0.034880 
#    z -0.101570 0.034880 1.545700 
# 
# From -- ./inp_files/18865.got.cif
#   From: 2010.05.17/outbox.cif.g08.bks.cpg/sg2_10_cif.got.tgz:18865.got - 2010.06.03 11:33:40.
