data_PCOD9021681
_publ_section_title
;
Structure prediction by ZEFSAII (Michael W. Deem and Ramdas Pophale) SiO2 
 PCOD9021681
Probable space group: P -1
;
_chemical_formula_sum "Si O2"
_cell_formula_units_Z 16
_cell_length_a 5.094387
_cell_length_b 22.550771
_cell_length_c 9.210886
_cell_angle_alpha 41.237500
_cell_angle_beta 77.448555
_cell_angle_gamma 70.466417
_cell_volume 656.387618
_symmetry_space_group_name_H-M "P -1"
_symmetry_group_IT_number 2
_symmetry_cell_setting 'triclinic'
loop_
_space_group_symop_operation_xyz
x,y,z
-x,-y,-z
loop_
_atom_site_type_symbol
_atom_site_label
_atom_site_fract_x
_atom_site_fract_y
_atom_site_fract_z
Si Si1 0.011938 0.705672 0.671068
Si Si2 0.014630 0.094920 0.244941
Si Si3 0.216015 0.265902 0.911170
Si Si4 0.738781 0.188343 0.363333
Si Si5 0.285560 0.518229 0.125609
Si Si6 0.375629 0.310833 0.500719
Si Si7 0.421173 0.644670 0.095925
Si Si8 0.214571 0.992614 0.119416
O O1 0.988159 0.787120 0.642913
O O2 0.305182 0.699863 0.563063
O O3 0.782291 0.728406 0.533678
O O4 0.047712 0.607725 0.932211
O O5 0.752381 0.158232 0.248337
O O6 0.065688 0.069377 0.117348
O O7 0.230682 0.156656 0.142909
O O8 0.000000 0.000000 0.500000
O O9 0.347835 0.262894 0.742570
O O10 0.356917 0.332564 0.865042
O O11 0.885223 0.318159 0.862571
O O12 0.558863 0.294103 0.164152
O O13 0.706241 0.105297 0.620770
O O14 0.214928 0.420612 0.333991
O O15 0.500000 0.500000 0.000000
O O16 0.422946 0.546016 0.204722
O O17 0.500000 0.000000 0.000000
O O18 0.000000 0.000000 0.000000
#
# Coordination Sequence:
#
# PCOD9021681 Si02
#       8
#     2   2   2   2   2   2   2   2
#     4  10  22  38  64  92 126 171 219 258 317 386
#     4   9  22  45  65  92 130 172 215 259 324 395
#     4  11  24  40  64  93 128 167 215 266 326 379
#     4   9  22  43  68  91 128 175 217 261 320 393
#     4   9  21  40  62  91 126 167 216 264 320 381
#     4  11  23  38  62  95 132 166 210 277 321 372
#     4  10  23  42  64  92 124 171 219 257 315 397
#     4  11  26  42  66  99 130 164 209 274 328 380
#
# _framework density 24.375838000000002
#
# number of rings (size 3 to 8) (size 9 to 14) (size 15 to 20)
#    0.000    2.000    0.000    1.125    3.500   17.000 
#    0.000    6.250    0.000    0.000    0.000    0.000 
#    0.000    0.000    0.000    0.000    0.000    0.000 
#
# Total GULP energy -89175.662257 kJ/mol
# GULP energy per Si atom -5573.478891 kJ/mol
# Density = 2.432036 g / cm^3
# Si number density = 24.375838 Si / 1000 Ang^3
#
#
#
# Elastic Constant Matrix: (Units=GPa)
#
#
# Indices 1 2 3 4 5 6 
#
# 1 115.9185 34.5275 21.6497 19.1261 -12.9312 17.0260
# 2 34.5275 150.3243 29.0757 22.3751 -8.2940 18.3196
# 3 21.6497 29.0757 95.2789 18.7182 -16.2100 1.0985
# 4 19.1261 22.3751 18.7182 45.9382 -0.2217 4.2181
# 5 -12.9312 -8.2940 -16.2100 -0.2217 16.0293 1.6018
# 6 17.0260 18.3196 1.0985 4.2181 1.6018 38.4493
#
#
#
# Elastic Compliance Matrix: (Units=1/GPa)
#
#
# Indices 1 2 3 4 5 6 
#
# 1 0.011180 -0.000987 0.000077 -0.003754 0.008979 -0.004445
# 2 -0.000987 0.008039 -0.001262 -0.002689 0.002366 -0.003161
# 3 0.000077 -0.001262 0.014202 -0.005153 0.013684 0.000156
# 4 -0.003754 -0.002689 -0.005153 0.026645 -0.009317 0.000556
# 5 0.008979 0.002366 0.013684 -0.009317 0.085365 -0.008028
# 6 -0.004445 -0.003161 0.000156 0.000556 -0.008028 0.029752
#
#
# Mechanical properties :
#
#
# Convention : Reuss Voigt Hill
#
# Bulk Modulus (GPa) = 34.39067 59.11417 46.75242
# Shear Modulus (GPa) = 26.42457 38.50128 32.46293
#
# Velocity S-wave (km/s) = 3.29606 3.97859 3.65330
# Velocity P-wave (km/s) = 5.35019 6.73864 6.08415
#
# Compressibility (1/GPa) = 0.02907766
#
# Stress axis : x y z
#
# Youngs Moduli (GPa) = 89.44343 124.39377 70.41485
#
# Poissons Ratio (x) = 0.12278 -0.00543
# Poissons Ratio (y) = 0.08828 0.08884
# Poissons Ratio (z) = -0.00690 0.15695
#
# Static dielectric constant tensor:
#      x y z
#    x 1.683240 0.090800 0.880160 
#    y 0.090800 2.032820 -0.349380 
#    z 0.880160 -0.349380 0.001000 
# 
# From -- ./inp_files/140498.got.cif
#   From: 2010.05.17/outbox.cif.g08.bks.cpg/sg2_71_cif.got.tgz:140498.got - 2010.06.03 11:33:40.
