data_PCOD9021561
_publ_section_title
;
Structure prediction by ZEFSAII (Michael W. Deem and Ramdas Pophale) SiO2 
 PCOD9021561
Probable space group: P -1
;
_chemical_formula_sum "Si O2"
_cell_formula_units_Z 13
_cell_length_a 5.473149
_cell_length_b 20.038467
_cell_length_c 5.054800
_cell_angle_alpha 106.755249
_cell_angle_beta 93.448373
_cell_angle_gamma 82.205367
_cell_volume 525.807376
_symmetry_space_group_name_H-M "P -1"
_symmetry_group_IT_number 2
_symmetry_cell_setting 'triclinic'
loop_
_space_group_symop_operation_xyz
x,y,z
-x,-y,-z
loop_
_atom_site_type_symbol
_atom_site_label
_atom_site_fract_x
_atom_site_fract_y
_atom_site_fract_z
Si Si1 0.509614 0.782392 0.315923
Si Si2 0.663582 0.580385 0.474245
Si Si3 0.935014 0.678944 0.288719
Si Si4 0.316060 0.712732 0.739039
Si Si5 0.314680 0.941376 0.444662
Si Si6 0.122423 0.551244 0.866455
Si Si7 0.000000 0.000000 0.000000
O O1 0.447836 0.756888 0.576842
O O2 0.472443 0.865452 0.389697
O O3 0.781526 0.744850 0.214595
O O4 0.329749 0.751326 0.060000
O O5 0.453118 0.632645 0.660843
O O6 0.643613 0.501244 0.284032
O O7 0.731403 0.627684 0.285951
O O8 0.914386 0.570760 0.652428
O O9 0.050182 0.706966 0.592110
O O10 0.142251 0.624367 0.098325
O O11 0.153928 0.956491 0.716137
O O12 0.500000 0.000000 0.500000
O O13 0.150227 0.948799 0.178258
O O14 0.000000 0.500000 0.000000
#
# Coordination Sequence:
#
# PCOD9021561 Si02
#       7
#     2   2   2   2   2   2   1
#     4  11  25  43  63  99 133 168 221 279 329 407
#     4   9  19  37  57  87 129 163 225 281 324 388
#     4  10  22  38  63  87 127 175 221 266 340 400
#     4  11  24  40  65  93 131 176 221 276 335 399
#     4  11  24  46  75 103 143 184 224 283 352 409
#     4   9  17  35  59  85 124 169 214 285 326 385
#     4  10  24  44  70 110 138 170 232 278 326 428
#
# _framework density 24.723880999999999
#
# number of rings (size 3 to 8) (size 9 to 14) (size 15 to 20)
#    0.000    1.846    1.538    1.385    2.154    4.308 
#    0.000    8.462    0.000    0.000    0.000    0.000 
#    0.000    0.000    0.000    0.000    0.000    0.000 
#
# Total GULP energy -72447.579550 kJ/mol
# GULP energy per Si atom -5572.890735 kJ/mol
# Density = 2.466761 g / cm^3
# Si number density = 24.723881 Si / 1000 Ang^3
#
#
#
# Elastic Constant Matrix: (Units=GPa)
#
#
# Indices 1 2 3 4 5 6 
#
# 1 54.3203 40.8049 24.8658 1.6732 -6.1910 -11.2319
# 2 40.8049 227.0015 48.9609 24.6381 -5.1243 -18.4856
# 3 24.8658 48.9609 123.8421 -19.0128 -14.3206 -4.6742
# 4 1.6732 24.6381 -19.0128 33.2874 3.0271 1.5975
# 5 -6.1910 -5.1243 -14.3206 3.0271 42.3747 -2.1190
# 6 -11.2319 -18.4856 -4.6742 1.5975 -2.1190 32.6180
#
#
#
# Elastic Compliance Matrix: (Units=1/GPa)
#
#
# Indices 1 2 3 4 5 6 
#
# 1 0.023680 -0.002787 -0.003378 -0.001579 0.002410 0.006324
# 2 -0.002787 0.006426 -0.002863 -0.006374 -0.000013 0.002583
# 3 -0.003378 -0.002863 0.011433 0.008676 0.002333 -0.001421
# 4 -0.001579 -0.006374 0.008676 0.040140 -0.001185 -0.004956
# 5 0.002410 -0.000013 0.002333 -0.001185 0.024965 0.002837
# 6 0.006324 0.002583 -0.001421 -0.004956 0.002837 0.034523
#
#
# Mechanical properties :
#
#
# Convention : Reuss Voigt Hill
#
# Bulk Modulus (GPa) = 42.58532 70.49190 56.53861
# Shear Modulus (GPa) = 29.93099 41.02483 35.47791
#
# Velocity S-wave (km/s) = 3.48316 4.07789 3.79220
# Velocity P-wave (km/s) = 5.78258 7.12361 6.48784
#
# Compressibility (1/GPa) = 0.02348227
#
# Stress axis : x y z
#
# Youngs Moduli (GPa) = 42.22902 155.62332 87.46492
#
# Poissons Ratio (x) = 0.43377 0.29544
# Poissons Ratio (y) = 0.11771 0.25045
# Poissons Ratio (z) = 0.14264 0.44562
#
# Static dielectric constant tensor:
#      x y z
#    x 2.039850 0.016370 -0.081800 
#    y 0.016370 1.932230 -0.015770 
#    z -0.081800 -0.015770 2.023150 
# 
# From -- ./inp_files/6768.got.cif
#   From: 2010.05.17/outbox.cif.g08.bks.cpg/sg2_4_cif.got.tgz:6768.got - 2010.06.03 11:33:40.
