data_PCOD9021013
_publ_section_title
;
Structure prediction by ZEFSAII (Michael W. Deem and Ramdas Pophale) SiO2 
 PCOD9021013
Probable space group: P -1
;
_chemical_formula_sum "Si O2"
_cell_formula_units_Z 16
_cell_length_a 26.839506
_cell_length_b 5.272929
_cell_length_c 11.950754
_cell_angle_alpha 50.976288
_cell_angle_beta 31.952939
_cell_angle_gamma 57.548086
_cell_volume 695.360402
_symmetry_space_group_name_H-M "P -1"
_symmetry_group_IT_number 2
_symmetry_cell_setting 'triclinic'
loop_
_space_group_symop_operation_xyz
x,y,z
-x,-y,-z
loop_
_atom_site_type_symbol
_atom_site_label
_atom_site_fract_x
_atom_site_fract_y
_atom_site_fract_z
Si Si1 0.438744 0.382440 0.753896
Si Si2 0.051650 0.167530 0.458042
Si Si3 0.154795 0.899599 0.771086
Si Si4 0.349469 0.138749 0.399957
Si Si5 0.593726 0.334689 0.026874
Si Si6 0.684577 0.582057 0.374507
Si Si7 0.023351 0.874978 0.827666
Si Si8 0.270218 0.152212 0.018784
O O1 0.500000 0.500000 0.500000
O O2 0.448926 0.571031 0.797985
O O3 0.630661 0.245658 0.543196
O O4 0.329844 0.400114 0.913726
O O5 0.160897 0.222918 0.207897
O O6 0.000000 0.500000 0.500000
O O7 0.046318 0.932510 0.640355
O O8 0.000000 0.000000 0.500000
O O9 0.237817 0.147276 0.576411
O O10 0.209096 0.552775 0.767198
O O11 0.109926 0.967991 0.717122
O O12 0.068462 0.920566 0.015558
O O13 0.548396 0.010384 0.149940
O O14 0.354383 0.258596 0.483942
O O15 0.402869 0.367689 0.147566
O O16 0.698999 0.198884 0.893306
O O17 0.688234 0.805022 0.196785
O O18 0.000000 0.500000 0.000000
#
# Coordination Sequence:
#
# PCOD9021013 Si02
#       8
#     2   2   2   2   2   2   2   2
#     4  10  23  43  72 102 132 165 216 273 331 395
#     4  12  31  43  62  94 142 173 222 275 325 378
#     4   9  23  35  65  80 125 161 232 253 328 368
#     4  10  22  37  64  91 126 163 213 266 314 387
#     4  10  23  39  71 101 126 163 223 265 325 384
#     4  10  22  38  61  88 128 165 214 255 329 381
#     4  11  24  40  61  85 119 173 225 273 319 377
#     4  10  27  40  71  93 133 175 221 267 331 388
#
# _framework density 23.009653
#
# number of rings (size 3 to 8) (size 9 to 14) (size 15 to 20)
#    1.500    0.250    0.000    2.625   15.750    0.000 
#    0.000    0.000    0.000    4.500    0.000    0.000 
#    0.000    0.000    0.000    0.000    0.000    0.000 
#
# Total GULP energy -89462.173235 kJ/mol
# GULP energy per Si atom -5591.385827 kJ/mol
# Density = 2.295728 g / cm^3
# Si number density = 23.009653 Si / 1000 Ang^3
#
#
#
# Elastic Constant Matrix: (Units=GPa)
#
#
# Indices 1 2 3 4 5 6 
#
# 1 121.9047 38.2914 50.4846 -4.8348 15.0927 20.8463
# 2 38.2914 99.3875 34.1932 2.0486 -0.5543 9.9415
# 3 50.4846 34.1932 78.4967 -2.6845 -2.7423 -5.5721
# 4 -4.8348 2.0486 -2.6845 41.6170 -16.2547 1.3567
# 5 15.0927 -0.5543 -2.7423 -16.2547 45.6781 -2.6965
# 6 20.8463 9.9415 -5.5721 1.3567 -2.6965 43.6498
#
#
#
# Elastic Compliance Matrix: (Units=1/GPa)
#
#
# Indices 1 2 3 4 5 6 
#
# 1 0.014927 -0.001564 -0.009774 -0.001048 -0.006406 -0.008384
# 2 -0.001564 0.012574 -0.004705 -0.001077 -0.000155 -0.002693
# 3 -0.009774 -0.004705 0.021995 0.002538 0.005917 0.008834
# 4 -0.001048 -0.001077 0.002538 0.028229 0.010581 0.000846
# 5 -0.006406 -0.000155 0.005917 0.010581 0.028439 0.005278
# 6 -0.008384 -0.002693 0.008834 0.000846 0.005278 0.028954
#
#
# Mechanical properties :
#
#
# Convention : Reuss Voigt Hill
#
# Bulk Modulus (GPa) = 57.43433 60.63636 59.03534
# Shear Modulus (GPa) = 28.90068 37.97694 33.43881
#
# Velocity S-wave (km/s) = 3.54789 4.06702 3.81629
# Velocity P-wave (km/s) = 6.46518 6.96160 6.71798
#
# Compressibility (1/GPa) = 0.01741119
#
# Stress axis : x y z
#
# Youngs Moduli (GPa) = 66.99203 79.53227 45.46447
#
# Poissons Ratio (x) = 0.12439 0.44436
# Poissons Ratio (y) = 0.10478 0.21389
# Poissons Ratio (z) = 0.65476 0.37417
#
# Static dielectric constant tensor:
#      x y z
#    x 1.853860 -0.025470 -0.070770 
#    y -0.025470 1.851520 0.017090 
#    z -0.070770 0.017090 1.849260 
# 
# From -- ./inp_files/473350.got.cif
#   From: 2010.05.17/outbox.cif.g08.bks.cpg/sg2_237_cif.got.tgz:473350.got - 2010.06.03 11:33:40.
