data_PCOD9021310
_publ_section_title
;
Structure prediction by ZEFSAII (Michael W. Deem and Ramdas Pophale) SiO2 
 PCOD9021310
Probable space group: P -1
;
_chemical_formula_sum "Si O2"
_cell_formula_units_Z 14
_cell_length_a 9.994492
_cell_length_b 8.311978
_cell_length_c 11.654835
_cell_angle_alpha 117.031101
_cell_angle_beta 104.080383
_cell_angle_gamma 42.365812
_cell_volume 574.225816
_symmetry_space_group_name_H-M "P -1"
_symmetry_group_IT_number 2
_symmetry_cell_setting 'triclinic'
loop_
_space_group_symop_operation_xyz
x,y,z
-x,-y,-z
loop_
_atom_site_type_symbol
_atom_site_label
_atom_site_fract_x
_atom_site_fract_y
_atom_site_fract_z
Si Si1 0.472712 0.830902 0.552840
Si Si2 0.769539 0.255105 0.411649
Si Si3 0.199843 0.693278 0.922006
Si Si4 0.586006 0.500739 0.855349
Si Si5 0.911512 0.944058 0.748775
Si Si6 0.775812 0.526196 0.695071
Si Si7 0.859801 0.593594 0.325352
O O1 0.609664 0.554667 0.424095
O O2 0.341848 0.819008 0.600995
O O3 0.625517 0.775075 0.657856
O O4 0.311621 0.120579 0.561437
O O5 0.832113 0.298241 0.555021
O O6 0.948868 0.058356 0.298222
O O7 0.353053 0.693848 0.897206
O O8 0.242109 0.457408 0.793083
O O9 0.972064 0.925019 0.889526
O O10 0.288166 0.570654 0.027159
O O11 0.651893 0.574875 0.794000
O O12 0.687478 0.207649 0.758053
O O13 0.998652 0.664604 0.647703
O O14 0.979099 0.443479 0.725662
#
# Coordination Sequence:
#
# PCOD9021310 Si02
#       7
#     2   2   2   2   2   2   2
#     4   9  20  39  56  87 121 152 191 241 273 364
#     4   9  20  39  60  86 119 154 200 223 294 339
#     4   9  24  40  59  91 108 160 192 247 284 343
#     4  11  21  41  67  78 118 153 207 228 290 344
#     4  10  22  38  60  88 116 154 188 249 278 354
#     4  10  22  38  60  90 112 158 190 240 283 352
#     4  10  23  36  59  87 125 145 195 236 307 317
#
# _framework density 24.380654
#
# number of rings (size 3 to 8) (size 9 to 14) (size 15 to 20)
#    1.714    0.571    0.000    2.143    2.000    4.000 
#    0.000    0.714    0.000    0.000    0.000    0.000 
#    0.000    0.000    0.000    0.000    0.000    0.000 
#
# Total GULP energy -77988.345850 kJ/mol
# GULP energy per Si atom -5570.596132 kJ/mol
# Density = 2.432516 g / cm^3
# Si number density = 24.380654 Si / 1000 Ang^3
#
#
#
# Elastic Constant Matrix: (Units=GPa)
#
#
# Indices 1 2 3 4 5 6 
#
# 1 103.8450 26.2961 37.7069 7.9864 -17.6841 -28.1710
# 2 26.2961 141.3132 40.2684 29.8647 -1.5582 -12.1145
# 3 37.7069 40.2684 107.0139 22.9800 -13.5126 -14.2476
# 4 7.9864 29.8647 22.9800 78.3518 -1.0062 -4.8432
# 5 -17.6841 -1.5582 -13.5126 -1.0062 38.3049 9.3402
# 6 -28.1710 -12.1145 -14.2476 -4.8432 9.3402 25.8478
#
#
#
# Elastic Compliance Matrix: (Units=1/GPa)
#
#
# Indices 1 2 3 4 5 6 
#
# 1 0.014965 -0.000878 -0.002943 0.000537 0.002570 0.013449
# 2 -0.000878 0.008549 -0.002326 -0.002392 -0.001385 0.001819
# 3 -0.002943 -0.002326 0.012215 -0.002296 0.002529 0.001091
# 4 0.000537 -0.002392 -0.002296 0.014353 -0.000547 0.001086
# 5 0.002570 -0.001385 0.002529 -0.000547 0.029910 -0.007364
# 6 0.013449 0.001819 0.001091 0.001086 -0.007364 0.057664
#
#
# Mechanical properties :
#
#
# Convention : Reuss Voigt Hill
#
# Bulk Modulus (GPa) = 42.67357 62.30166 52.48762
# Shear Modulus (GPa) = 31.69305 45.02760 38.36032
#
# Velocity S-wave (km/s) = 3.60936 4.30217 3.97090
# Velocity P-wave (km/s) = 5.90855 7.09136 6.52681
#
# Compressibility (1/GPa) = 0.02343371
#
# Stress axis : x y z
#
# Youngs Moduli (GPa) = 66.82064 116.97132 81.86968
#
# Poissons Ratio (x) = 0.10275 0.24093
# Poissons Ratio (y) = 0.05870 0.19046
# Poissons Ratio (z) = 0.19664 0.27212
#
# Static dielectric constant tensor:
#      x y z
#    x 1.917580 0.020530 -0.006830 
#    y 0.020530 2.102290 0.115910 
#    z -0.006830 0.115910 2.118470 
# 
# From -- ./inp_files/495452.got.cif
#   From: 2010.05.17/outbox.cif.g08.bks.cpg/sg2_248_cif.got.tgz:495452.got - 2010.06.03 11:33:40.
