data_PCOD9021114
_publ_section_title
;
Structure prediction by ZEFSAII (Michael W. Deem and Ramdas Pophale) SiO2 
 PCOD9021114
Probable space group: P -1
;
_chemical_formula_sum "Si O2"
_cell_formula_units_Z 16
_cell_length_a 21.674341
_cell_length_b 9.350503
_cell_length_c 9.109151
_cell_angle_alpha 33.557085
_cell_angle_beta 130.524027
_cell_angle_gamma 125.761155
_cell_volume 771.635300
_symmetry_space_group_name_H-M "P -1"
_symmetry_group_IT_number 2
_symmetry_cell_setting 'triclinic'
loop_
_space_group_symop_operation_xyz
x,y,z
-x,-y,-z
loop_
_atom_site_type_symbol
_atom_site_label
_atom_site_fract_x
_atom_site_fract_y
_atom_site_fract_z
Si Si1 0.699410 0.097057 0.852221
Si Si2 0.376325 0.417428 0.989556
Si Si3 0.810260 0.203397 0.209153
Si Si4 0.082420 0.431384 0.608510
Si Si5 0.755392 0.224452 0.519067
Si Si6 0.200447 0.226964 0.185460
Si Si7 0.464728 0.739458 0.584874
Si Si8 0.991574 0.287205 0.298758
O O1 0.747442 0.250448 0.660622
O O2 0.614108 0.203347 0.679081
O O3 0.757494 0.094698 0.082082
O O4 0.671528 0.828919 0.954646
O O5 0.313573 0.605646 0.793108
O O6 0.422544 0.561352 0.799772
O O7 0.452178 0.362166 0.258539
O O8 0.902316 0.291016 0.227150
O O9 0.812597 0.966758 0.530298
O O10 0.778525 0.474169 0.986363
O O11 0.155828 0.658368 0.499736
O O12 0.056738 0.334850 0.489692
O O13 0.000000 0.500000 0.500000
O O14 0.122514 0.239216 0.946675
O O15 0.739686 0.929294 0.688469
O O16 0.500000 0.000000 0.500000
O O17 0.000000 0.000000 0.500000
O O18 0.000000 0.500000 0.000000
#
# Coordination Sequence:
#
# PCOD9021114 Si02
#       8
#     2   2   2   2   2   2   2   2
#     4  10  22  37  68 100 136 171 223 284 335 395
#     4   9  18  35  63 102 130 169 220 276 333 395
#     4  12  27  45  64  96 137 176 225 273 348 401
#     4  12  26  47  68  92 132 182 232 271 339 399
#     4  11  23  40  68  99 128 177 232 284 327 394
#     4  12  26  47  64  92 131 185 223 270 333 409
#     4   8  16  34  60  99 135 169 209 273 336 401
#     4  12  28  44  67  97 130 167 222 292 341 389
#
# _framework density 20.735185000000001
#
# number of rings (size 3 to 8) (size 9 to 14) (size 15 to 20)
#    0.000    1.250    2.500    2.250    8.750    1.000 
#    0.000    0.000    0.000    1.500    0.000    0.000 
#    0.000    0.000    0.000    0.000    0.000    0.000 
#
# Total GULP energy -89182.072332 kJ/mol
# GULP energy per Si atom -5573.879521 kJ/mol
# Density = 2.068799 g / cm^3
# Si number density = 20.735185 Si / 1000 Ang^3
#
#
#
# Elastic Constant Matrix: (Units=GPa)
#
#
# Indices 1 2 3 4 5 6 
#
# 1 88.5984 46.3813 53.4481 -2.2291 1.2440 0.7574
# 2 46.3813 55.9486 37.7948 -6.3813 -9.8083 0.5967
# 3 53.4481 37.7948 138.5022 -4.0004 -10.3809 -4.7796
# 4 -2.2291 -6.3813 -4.0004 39.1071 -10.5845 3.8983
# 5 1.2440 -9.8083 -10.3809 -10.5845 48.7410 -2.9020
# 6 0.7574 0.5967 -4.7796 3.8983 -2.9020 30.6990
#
#
#
# Elastic Compliance Matrix: (Units=1/GPa)
#
#
# Indices 1 2 3 4 5 6 
#
# 1 0.023412 -0.017595 -0.004824 -0.003544 -0.006001 -0.001104
# 2 -0.017595 0.036373 -0.002295 0.007147 0.008790 -0.000707
# 3 -0.004824 -0.002295 0.009945 0.000742 0.002048 0.001811
# 4 -0.003544 0.007147 0.000742 0.029013 0.007816 -0.002882
# 5 -0.006001 0.008790 0.002048 0.007816 0.024669 0.001636
# 6 -0.001104 -0.000707 0.001811 -0.002882 0.001636 0.033418
#
#
# Mechanical properties :
#
#
# Convention : Reuss Voigt Hill
#
# Bulk Modulus (GPa) = 49.25098 62.03307 55.64202
# Shear Modulus (GPa) = 23.47125 33.40441 28.43783
#
# Velocity S-wave (km/s) = 3.36810 4.01808 3.70736
# Velocity P-wave (km/s) = 6.23934 7.17694 6.72450
#
# Compressibility (1/GPa) = 0.02030416
#
# Stress axis : x y z
#
# Youngs Moduli (GPa) = 42.71284 27.49259 100.54954
#
# Poissons Ratio (x) = 0.48372 0.48503
# Poissons Ratio (y) = 0.75151 0.23077
# Poissons Ratio (z) = 0.20604 0.06310
#
# Static dielectric constant tensor:
#      x y z
#    x 1.923680 0.038450 -0.081140 
#    y 0.038450 1.740610 -0.050240 
#    z -0.081140 -0.050240 1.896420 
# 
# From -- ./inp_files/342393.got.cif
#   From: 2010.05.17/outbox.cif.g08.bks.cpg/sg2_172_cif.got.tgz:342393.got - 2010.06.03 11:33:40.
