data_PCOD9021191
_publ_section_title
;
Structure prediction by ZEFSAII (Michael W. Deem and Ramdas Pophale) SiO2 
 PCOD9021191
Probable space group: P -1
;
_chemical_formula_sum "Si O2"
_cell_formula_units_Z 16
_cell_length_a 16.450712
_cell_length_b 12.806179
_cell_length_c 8.694067
_cell_angle_alpha 106.120524
_cell_angle_beta 80.266957
_cell_angle_gamma 154.034941
_cell_volume 756.111219
_symmetry_space_group_name_H-M "P -1"
_symmetry_group_IT_number 2
_symmetry_cell_setting 'triclinic'
loop_
_space_group_symop_operation_xyz
x,y,z
-x,-y,-z
loop_
_atom_site_type_symbol
_atom_site_label
_atom_site_fract_x
_atom_site_fract_y
_atom_site_fract_z
Si Si1 0.658142 0.337620 0.497067
Si Si2 0.736410 0.184358 0.419689
Si Si3 0.347685 0.112216 0.890759
Si Si4 0.498235 0.174295 0.167458
Si Si5 0.127833 0.483373 0.924472
Si Si6 0.746432 0.619424 0.813672
Si Si7 0.885746 0.368486 0.778777
Si Si8 0.072439 0.944813 0.071687
O O1 0.739784 0.315040 0.423185
O O2 0.604138 0.335530 0.356090
O O3 0.774831 0.556260 0.656950
O O4 0.471371 0.086451 0.552349
O O5 0.867271 0.329098 0.588114
O O6 0.748338 0.106493 0.252295
O O7 0.528239 0.361444 0.832711
O O8 0.428764 0.171771 0.055642
O O9 0.204602 0.039603 0.944405
O O10 0.654969 0.283958 0.082443
O O11 0.310793 0.897485 0.183504
O O12 0.044493 0.480709 0.847425
O O13 0.996309 0.221631 0.845230
O O14 0.098490 0.489183 0.111453
O O15 0.813985 0.815731 0.809632
O O16 0.879638 0.753790 0.972273
#
# Coordination Sequence:
#
# PCOD9021191 Si02
#       8
#     2   2   2   2   2   2   2   2
#     4   9  20  37  59  89 118 156 191 240 295 348
#     4   9  20  35  61  88 121 150 191 244 294 348
#     4  11  22  38  63  90 116 155 197 241 295 350
#     4  11  22  36  61  84 120 155 190 238 298 349
#     4  11  22  36  59  87 118 158 194 239 290 349
#     4  10  22  42  63  84 118 155 201 244 287 340
#     4  10  22  38  57  87 122 153 193 239 294 353
#     4  11  22  39  64  86 116 158 200 243 284 346
#
# _framework density 21.160909
#
# number of rings (size 3 to 8) (size 9 to 14) (size 15 to 20)
#    0.000    1.750    2.500    1.500    7.000    1.000 
#    0.000    3.125    2.750    0.000    0.000    0.000 
#    0.000    0.000    0.000    0.000    0.000    0.000 
#
# Total GULP energy -89342.749798 kJ/mol
# GULP energy per Si atom -5583.921862 kJ/mol
# Density = 2.111275 g / cm^3
# Si number density = 21.160909 Si / 1000 Ang^3
#
#
#
# Elastic Constant Matrix: (Units=GPa)
#
#
# Indices 1 2 3 4 5 6 
#
# 1 58.0207 26.3824 6.0599 3.7282 -13.1339 3.7404
# 2 26.3824 91.2689 20.1310 -3.4585 -17.0713 4.7954
# 3 6.0599 20.1310 71.7322 7.5100 -8.8741 -12.4012
# 4 3.7282 -3.4585 7.5100 34.6083 2.6841 -10.8139
# 5 -13.1339 -17.0713 -8.8741 2.6841 31.7192 -0.2868
# 6 3.7404 4.7954 -12.4012 -10.8139 -0.2868 43.5548
#
#
#
# Elastic Compliance Matrix: (Units=1/GPa)
#
#
# Indices 1 2 3 4 5 6 
#
# 1 0.021393 -0.005110 0.000505 -0.004092 0.006577 -0.002104
# 2 -0.005110 0.014175 -0.003483 0.001879 0.004365 -0.001618
# 3 0.000505 -0.003483 0.016309 -0.002845 0.003177 0.004298
# 4 -0.004092 0.001879 -0.002845 0.032793 -0.004187 0.007449
# 5 0.006577 0.004365 0.003177 -0.004187 0.037834 -0.000931
# 6 -0.002104 -0.001618 0.004298 0.007449 -0.000931 0.026386
#
#
# Mechanical properties :
#
#
# Convention : Reuss Voigt Hill
#
# Bulk Modulus (GPa) = 28.00928 36.24093 32.12511
# Shear Modulus (GPa) = 28.25413 33.20637 30.73025
#
# Velocity S-wave (km/s) = 3.65801 3.96565 3.81493
# Velocity P-wave (km/s) = 5.57731 6.17512 5.88381
#
# Compressibility (1/GPa) = 0.03570245
#
# Stress axis : x y z
#
# Youngs Moduli (GPa) = 46.74378 70.54912 61.31403
#
# Poissons Ratio (x) = 0.36049 -0.03097
# Poissons Ratio (y) = 0.23885 0.21354
# Poissons Ratio (z) = -0.02361 0.24570
#
# Static dielectric constant tensor:
#      x y z
#    x 1.765060 0.003990 -0.003090 
#    y 0.003990 1.817240 -0.007050 
#    z -0.003090 -0.007050 1.777840 
# 
# From -- ./inp_files/278257.got.cif
#   From: 2010.05.17/outbox.cif.g08.bks.cpg/sg2_140_cif.got.tgz:278257.got - 2010.06.03 11:33:40.
