data_PCOD9021513
_publ_section_title
;
Structure prediction by ZEFSAII (Michael W. Deem and Ramdas Pophale) SiO2 
 PCOD9021513
Probable space group: P -1
;
_chemical_formula_sum "Si O2"
_cell_formula_units_Z 16
_cell_length_a 10.257491
_cell_length_b 7.309799
_cell_length_c 17.261864
_cell_angle_alpha 100.739048
_cell_angle_beta 125.065787
_cell_angle_gamma 120.062494
_cell_volume 681.210107
_symmetry_space_group_name_H-M "P -1"
_symmetry_group_IT_number 2
_symmetry_cell_setting 'triclinic'
loop_
_space_group_symop_operation_xyz
x,y,z
-x,-y,-z
loop_
_atom_site_type_symbol
_atom_site_label
_atom_site_fract_x
_atom_site_fract_y
_atom_site_fract_z
Si Si1 0.747027 0.345157 0.865209
Si Si2 0.509156 0.283238 0.063343
Si Si3 0.584622 0.767779 0.137749
Si Si4 0.622022 0.495713 0.613188
Si Si5 0.930379 0.583078 0.604462
Si Si6 0.751436 0.709075 0.427407
Si Si7 0.654605 0.298749 0.274445
Si Si8 0.042832 0.144688 0.110231
O O1 0.615063 0.378245 0.877008
O O2 0.832487 0.543026 0.837643
O O3 0.541739 0.000288 0.769141
O O4 0.000000 0.500000 0.000000
O O5 0.636179 0.596729 0.131389
O O6 0.603800 0.241531 0.161138
O O7 0.526880 0.238997 0.977783
O O8 0.226065 0.065787 0.966127
O O9 0.833728 0.083258 0.270924
O O10 0.500000 0.500000 0.500000
O O11 0.393812 0.261062 0.574209
O O12 0.798390 0.775298 0.752642
O O13 0.766035 0.455604 0.615958
O O14 0.061533 0.513468 0.611263
O O15 0.793813 0.572427 0.488966
O O16 0.610051 0.475891 0.293069
O O17 0.000000 0.000000 0.500000
O O18 0.000000 0.000000 0.000000
#
# Coordination Sequence:
#
# PCOD9021513 Si02
#       8
#     2   2   2   2   2   2   2   2
#     4  11  24  38  61  99 138 172 215 276 344 393
#     4  11  21  38  64  93 132 172 217 264 332 400
#     4  10  22  38  62  93 129 173 218 263 327 400
#     4  10  24  44  68  93 132 180 225 276 332 405
#     4  10  22  43  64  90 134 174 211 277 333 396
#     4  11  24  43  71  93 124 173 232 270 327 403
#     4  11  24  41  67  99 135 171 220 280 344 396
#     4  12  22  40  69  99 134 176 231 278 330 399
#
# _framework density 23.487611999999999
#
# number of rings (size 3 to 8) (size 9 to 14) (size 15 to 20)
#    0.000    1.250    3.750    1.875    3.500    3.000 
#    0.000    0.625    5.500    0.000    0.000    0.000 
#    0.000    0.000    0.000    0.000    0.000    0.000 
#
# Total GULP energy -89163.179949 kJ/mol
# GULP energy per Si atom -5572.698747 kJ/mol
# Density = 2.343415 g / cm^3
# Si number density = 23.487612 Si / 1000 Ang^3
#
#
#
# Elastic Constant Matrix: (Units=GPa)
#
#
# Indices 1 2 3 4 5 6 
#
# 1 103.0005 16.2306 7.7038 15.0520 4.5590 18.5197
# 2 16.2306 83.2463 16.9892 11.9152 -6.1828 9.3398
# 3 7.7038 16.9892 79.3131 -19.3872 2.7052 -4.8799
# 4 15.0520 11.9152 -19.3872 36.5812 1.5336 9.5099
# 5 4.5590 -6.1828 2.7052 1.5336 41.1754 6.5289
# 6 18.5197 9.3398 -4.8799 9.5099 6.5289 28.5710
#
#
#
# Elastic Compliance Matrix: (Units=1/GPa)
#
#
# Indices 1 2 3 4 5 6 
#
# 1 0.011763 -0.000436 -0.002509 -0.004348 -0.000017 -0.006460
# 2 -0.000436 0.014758 -0.005051 -0.006392 0.003480 -0.004073
# 3 -0.002509 -0.005051 0.016879 0.010923 -0.002487 0.003093
# 4 -0.004348 -0.006392 0.010923 0.038540 -0.001734 -0.005659
# 5 -0.000017 0.003480 -0.002487 -0.001734 0.026140 -0.006948
# 6 -0.006460 -0.004073 0.003093 -0.005659 -0.006948 0.044518
#
#
# Mechanical properties :
#
#
# Convention : Reuss Voigt Hill
#
# Bulk Modulus (GPa) = 36.48327 38.60078 37.54203
# Shear Modulus (GPa) = 28.13327 36.24126 32.18726
#
# Velocity S-wave (km/s) = 3.46467 3.93236 3.70590
# Velocity P-wave (km/s) = 5.61889 6.09000 5.85918
#
# Compressibility (1/GPa) = 0.02740982
#
# Stress axis : x y z
#
# Youngs Moduli (GPa) = 85.01592 67.75760 59.24535
#
# Poissons Ratio (x) = 0.02951 0.14864
# Poissons Ratio (y) = 0.03703 0.29923
# Poissons Ratio (z) = 0.21329 0.34222
#
# Static dielectric constant tensor:
#      x y z
#    x 1.826010 0.026390 -0.057740 
#    y 0.026390 1.894270 -0.064980 
#    z -0.057740 -0.064980 1.965240 
# 
# From -- ./inp_files/566027.got.cif
#   From: 2010.05.17/outbox.cif.g08.bks.cpg/sg2_284_cif.got.tgz:566027.got - 2010.06.03 11:33:40.
