data_PCOD9021347
_publ_section_title
;
Structure prediction by ZEFSAII (Michael W. Deem and Ramdas Pophale) SiO2 
 PCOD9021347
Probable space group: P -1
;
_chemical_formula_sum "Si O2"
_cell_formula_units_Z 14
_cell_length_a 16.770728
_cell_length_b 25.085010
_cell_length_c 10.846864
_cell_angle_alpha 156.059392
_cell_angle_beta 147.386611
_cell_angle_gamma 19.628193
_cell_volume 616.239637
_symmetry_space_group_name_H-M "P -1"
_symmetry_group_IT_number 2
_symmetry_cell_setting 'triclinic'
loop_
_space_group_symop_operation_xyz
x,y,z
-x,-y,-z
loop_
_atom_site_type_symbol
_atom_site_label
_atom_site_fract_x
_atom_site_fract_y
_atom_site_fract_z
Si Si1 0.776648 0.212712 0.788168
Si Si2 0.666088 0.459477 0.404265
Si Si3 0.475804 0.207394 0.252426
Si Si4 0.005926 0.567156 0.780394
Si Si5 0.641283 0.878909 0.609684
Si Si6 0.887711 0.724882 0.345585
Si Si7 0.822502 0.271591 0.705078
O O1 0.598234 0.216600 0.531799
O O2 0.762538 0.317496 0.871502
O O3 0.736958 0.317618 0.082795
O O4 0.032193 0.964782 0.609567
O O5 0.595944 0.648018 0.648892
O O6 0.414561 0.575527 0.363692
O O7 0.893070 0.329354 0.510065
O O8 0.235253 0.308461 0.202243
O O9 0.657912 0.970759 0.937437
O O10 0.000000 0.500000 0.500000
O O11 0.245852 0.339975 0.674008
O O12 0.029737 0.705593 0.092967
O O13 0.798406 0.810255 0.550579
O O14 0.358192 0.079059 0.633718
O O15 0.000000 0.500000 0.000000
#
# Coordination Sequence:
#
# PCOD9021347 Si02
#       7
#     2   2   2   2   2   2   2
#     4  10  22  38  60  93 129 172 209 259 320 377
#     4  11  21  38  64  91 125 164 214 269 312 375
#     4  11  22  39  64  97 132 166 217 258 318 385
#     4  12  23  39  62  97 139 172 205 261 321 389
#     4  11  24  40  68  95 128 169 217 270 320 366
#     4  11  23  43  68  96 122 165 229 272 307 375
#     4  10  23  36  58  91 133 162 209 254 317 379
#
# _framework density 22.718434999999999
#
# number of rings (size 3 to 8) (size 9 to 14) (size 15 to 20)
#    0.000    1.143    2.857    4.286    6.000    3.429 
#    0.000    0.714    0.000    4.286    0.000    0.000 
#    0.000    0.000    0.000    0.000    0.000    0.000 
#
# Total GULP energy -78250.376430 kJ/mol
# GULP energy per Si atom -5589.312602 kJ/mol
# Density = 2.266673 g / cm^3
# Si number density = 22.718435 Si / 1000 Ang^3
#
#
#
# Elastic Constant Matrix: (Units=GPa)
#
#
# Indices 1 2 3 4 5 6 
#
# 1 43.2548 11.2651 18.8189 0.1815 10.4268 -18.7361
# 2 11.2651 130.0464 15.1446 -6.8354 3.7990 -17.1431
# 3 18.8189 15.1446 72.5827 8.0689 -7.7931 -7.1694
# 4 0.1815 -6.8354 8.0689 32.9812 -14.5475 5.7067
# 5 10.4268 3.7990 -7.7931 -14.5475 32.1271 -0.8630
# 6 -18.7361 -17.1431 -7.1694 5.7067 -0.8630 26.7882
#
#
#
# Elastic Compliance Matrix: (Units=1/GPa)
#
#
# Indices 1 2 3 4 5 6 
#
# 1 0.047343 0.001473 -0.010277 -0.013473 -0.023235 0.033426
# 2 0.001473 0.008625 -0.001823 0.000523 -0.001545 0.005900
# 3 -0.010277 -0.001823 0.017368 -0.000765 0.007328 -0.003307
# 4 -0.013473 0.000523 -0.000765 0.044239 0.023675 -0.017955
# 5 -0.023235 -0.001545 0.007328 0.023675 0.050846 -0.018684
# 6 0.033426 0.005900 -0.003307 -0.017955 -0.018684 0.066823
#
#
# Mechanical properties :
#
#
# Convention : Reuss Voigt Hill
#
# Bulk Modulus (GPa) = 19.20092 37.37122 28.28607
# Shear Modulus (GPa) = 18.25765 31.75632 25.00699
#
# Velocity S-wave (km/s) = 2.83795 3.74280 3.32133
# Velocity P-wave (km/s) = 4.38276 5.92988 5.21403
#
# Compressibility (1/GPa) = 0.05208082
#
# Stress axis : x y z
#
# Youngs Moduli (GPa) = 21.12250 115.94649 57.57854
#
# Poissons Ratio (x) = -0.17076 0.59175
# Poissons Ratio (y) = -0.03111 0.10494
# Poissons Ratio (z) = 0.21708 0.21132
#
# Static dielectric constant tensor:
#      x y z
#    x 1.880030 -0.001400 -0.012520 
#    y -0.001400 1.922950 -0.004950 
#    z -0.012520 -0.004950 1.819490 
# 
# From -- ./inp_files/467630.got.cif
#   From: 2010.05.17/outbox.cif.g08.bks.cpg/sg2_234_cif.got.tgz:467630.got - 2010.06.03 11:33:40.
