data_PCOD9021774
_publ_section_title
;
Structure prediction by ZEFSAII (Michael W. Deem and Ramdas Pophale) SiO2 
 PCOD9021774
Probable space group: P -1
;
_chemical_formula_sum "Si O2"
_cell_formula_units_Z 16
_cell_length_a 11.788722
_cell_length_b 13.772704
_cell_length_c 5.124297
_cell_angle_alpha 88.956540
_cell_angle_beta 66.536173
_cell_angle_gamma 102.711683
_cell_volume 739.266910
_symmetry_space_group_name_H-M "P -1"
_symmetry_group_IT_number 2
_symmetry_cell_setting 'triclinic'
loop_
_space_group_symop_operation_xyz
x,y,z
-x,-y,-z
loop_
_atom_site_type_symbol
_atom_site_label
_atom_site_fract_x
_atom_site_fract_y
_atom_site_fract_z
Si Si1 0.257315 0.876409 0.990617
Si Si2 0.169520 0.235949 0.267351
Si Si3 0.958021 0.093584 0.196906
Si Si4 0.634194 0.891311 0.101723
Si Si5 0.809457 0.893662 0.370143
Si Si6 0.625562 0.432987 0.652571
Si Si7 0.344524 0.785200 0.401925
Si Si8 0.336031 0.437138 0.879427
O O1 0.126910 0.880048 0.960495
O O2 0.325785 0.827500 0.702185
O O3 0.335438 0.990258 0.973103
O O4 0.254944 0.816541 0.263899
O O5 0.167350 0.214863 0.578160
O O6 0.026803 0.187749 0.307092
O O7 0.270939 0.163664 0.138810
O O8 0.231950 0.341341 0.082702
O O9 0.870483 0.001073 0.448670
O O10 0.089947 0.074422 0.965619
O O11 0.671744 0.882353 0.372535
O O12 0.489932 0.836054 0.181704
O O13 0.672445 0.333482 0.573140
O O14 0.472572 0.408579 0.745384
O O15 0.685735 0.518500 0.382644
O O16 0.649183 0.476536 0.919720
#
# Coordination Sequence:
#
# PCOD9021774 Si02
#       8
#     2   2   2   2   2   2   2   2
#     4  11  26  39  62  87 130 175 207 237 297 375
#     4  11  21  35  69  91 127 159 200 272 314 362
#     4   9  21  39  54  93 122 168 212 247 301 366
#     4  10  23  37  57  98 125 158 210 248 311 371
#     4   9  20  35  62  87 128 160 203 265 308 357
#     4  10  22  41  61  90 125 151 207 256 319 368
#     4  12  24  42  63  87 127 174 202 253 298 377
#     4  10  22  38  65  94 118 154 196 270 321 363
#
# _framework density 21.643062
#
# number of rings (size 3 to 8) (size 9 to 14) (size 15 to 20)
#    0.000    1.750    1.250    2.625   10.500    1.000 
#    0.000    0.000    0.000    4.500    0.000    0.000 
#    0.000    0.000    0.000    0.000    0.000    0.000 
#
# Total GULP energy -89179.747805 kJ/mol
# GULP energy per Si atom -5573.734238 kJ/mol
# Density = 2.159380 g / cm^3
# Si number density = 21.643062 Si / 1000 Ang^3
#
#
#
# Elastic Constant Matrix: (Units=GPa)
#
#
# Indices 1 2 3 4 5 6 
#
# 1 79.5382 22.5376 14.8086 -13.6389 -7.3218 1.7924
# 2 22.5376 96.5054 45.4978 -7.2845 -13.7439 -7.6754
# 3 14.8086 45.4978 138.9356 10.6392 -22.8870 19.1989
# 4 -13.6389 -7.2845 10.6392 43.9452 -11.1743 1.2260
# 5 -7.3218 -13.7439 -22.8870 -11.1743 35.8957 -10.2824
# 6 1.7924 -7.6754 19.1989 1.2260 -10.2824 24.2639
#
#
#
# Elastic Compliance Matrix: (Units=1/GPa)
#
#
# Indices 1 2 3 4 5 6 
#
# 1 0.014508 -0.002250 -0.000646 0.005112 0.003231 -0.000161
# 2 -0.002250 0.016105 -0.006008 0.004861 0.007043 0.012754
# 3 -0.000646 -0.006008 0.010996 -0.003420 0.000615 -0.010120
# 4 0.005112 0.004861 -0.003420 0.028770 0.011803 0.007414
# 5 0.003231 0.007043 0.000615 0.011803 0.040450 0.018048
# 6 -0.000161 0.012754 -0.010120 0.007414 0.018048 0.060541
#
#
# Mechanical properties :
#
#
# Convention : Reuss Voigt Hill
#
# Bulk Modulus (GPa) = 42.01999 53.40749 47.71374
# Shear Modulus (GPa) = 25.36615 36.29666 30.83140
#
# Velocity S-wave (km/s) = 3.42719 4.09963 3.77840
# Velocity P-wave (km/s) = 5.92605 6.86581 6.41317
#
# Compressibility (1/GPa) = 0.02379820
#
# Stress axis : x y z
#
# Youngs Moduli (GPa) = 68.92636 62.09417 90.94464
#
# Poissons Ratio (x) = 0.13973 0.05879
# Poissons Ratio (y) = 0.15510 0.54643
# Poissons Ratio (z) = 0.04456 0.37309
#
# Static dielectric constant tensor:
#      x y z
#    x 1.132830 0.053080 -1.415070 
#    y 0.053080 1.941910 0.110790 
#    z -1.415070 0.110790 -1.427780 
# 
# From -- ./inp_files/70345.got.cif
#   From: 2010.05.17/outbox.cif.g08.bks.cpg/sg2_36_cif.got.tgz:70345.got - 2010.06.03 11:33:40.
