data_PCOD9021679
_publ_section_title
;
Structure prediction by ZEFSAII (Michael W. Deem and Ramdas Pophale) SiO2 
 PCOD9021679
Probable space group: P -1
;
_chemical_formula_sum "Si O2"
_cell_formula_units_Z 12
_cell_length_a 5.418282
_cell_length_b 22.266684
_cell_length_c 4.938043
_cell_angle_alpha 114.548510
_cell_angle_beta 91.811206
_cell_angle_gamma 115.298486
_cell_volume 473.828084
_symmetry_space_group_name_H-M "P -1"
_symmetry_group_IT_number 2
_symmetry_cell_setting 'triclinic'
loop_
_space_group_symop_operation_xyz
x,y,z
-x,-y,-z
loop_
_atom_site_type_symbol
_atom_site_label
_atom_site_fract_x
_atom_site_fract_y
_atom_site_fract_z
Si Si1 0.088705 0.600032 0.221372
Si Si2 0.530404 0.564381 0.418436
Si Si3 0.418447 0.679025 0.861147
Si Si4 0.378390 0.889089 0.967152
Si Si5 0.891921 0.044998 0.264306
Si Si6 0.435894 0.161461 0.647795
O O1 0.233482 0.551074 0.252244
O O2 0.185147 0.622456 0.960544
O O3 0.766735 0.575249 0.230362
O O4 0.264831 0.673394 0.560224
O O5 0.500000 0.500000 0.500000
O O6 0.616462 0.641929 0.731705
O O7 0.557300 0.760588 0.148018
O O8 0.131164 0.892820 0.804078
O O9 0.503813 0.854552 0.684292
O O10 0.339677 0.844883 0.158896
O O11 0.587239 0.977903 0.209369
O O12 0.127837 0.091645 0.580614
O O13 0.000000 0.000000 0.000000
#
# Coordination Sequence:
#
# PCOD9021679 Si02
#       6
#     2   2   2   2   2   2
#     4  10  24  43  69  99 139 177 232 279 345 407
#     4  10  24  45  73 103 137 181 230 285 340 407
#     4  10  25  42  65  99 139 182 226 283 342 415
#     4  10  22  38  64  92 122 173 222 282 336 406
#     4   9  21  39  63  91 127 164 225 279 339 398
#     4  11  22  42  60  92 131 175 223 275 346 404
#
# _framework density 25.32564
#
# number of rings (size 3 to 8) (size 9 to 14) (size 15 to 20)
#    1.000    1.000    0.000    2.000    2.333   11.333 
#    3.000    0.000    0.000    0.000    0.000    0.000 
#    0.000    0.000    0.000    0.000    0.000    0.000 
#
# Total GULP energy -67073.685099 kJ/mol
# GULP energy per Si atom -5589.473758 kJ/mol
# Density = 2.526800 g / cm^3
# Si number density = 25.325640 Si / 1000 Ang^3
#
#
#
# Elastic Constant Matrix: (Units=GPa)
#
#
# Indices 1 2 3 4 5 6 
#
# 1 115.2844 23.0804 44.3861 10.9376 -20.4960 -22.4918
# 2 23.0804 81.8906 34.3733 9.0058 -10.6662 -21.7834
# 3 44.3861 34.3733 124.6370 9.6650 -26.9402 -6.4537
# 4 10.9376 9.0058 9.6650 47.8346 -2.9786 -9.3329
# 5 -20.4960 -10.6662 -26.9402 -2.9786 42.9255 -9.6375
# 6 -22.4918 -21.7834 -6.4537 -9.3329 -9.6375 27.4091
#
#
#
# Elastic Compliance Matrix: (Units=1/GPa)
#
#
# Indices 1 2 3 4 5 6 
#
# 1 0.014097 0.002849 -0.002973 0.000673 0.009359 0.016652
# 2 0.002849 0.019238 -0.003509 0.000886 0.008512 0.020096
# 3 -0.002973 -0.003509 0.010947 -0.000901 0.004182 -0.001487
# 4 0.000673 0.000886 -0.000901 0.023005 0.003871 0.010239
# 5 0.009359 0.008512 0.004182 0.003871 0.039665 0.030694
# 6 0.016652 0.020096 -0.001487 0.010239 0.030694 0.080049
#
#
# Mechanical properties :
#
#
# Convention : Reuss Voigt Hill
#
# Bulk Modulus (GPa) = 27.01456 58.38795 42.70125
# Shear Modulus (GPa) = 24.20072 38.29864 31.24968
#
# Velocity S-wave (km/s) = 3.09460 3.89298 3.51652
# Velocity P-wave (km/s) = 4.84343 6.58119 5.77801
#
# Compressibility (1/GPa) = 0.03701708
#
# Stress axis : x y z
#
# Youngs Moduli (GPa) = 70.93548 51.98035 91.35233
#
# Poissons Ratio (x) = -0.14811 0.27161
# Poissons Ratio (y) = -0.20212 0.32051
# Poissons Ratio (z) = 0.21091 0.18238
#
# Static dielectric constant tensor:
#      x y z
#    x 2.018390 0.023520 0.038850 
#    y 0.023520 2.031690 0.042790 
#    z 0.038850 0.042790 2.009720 
# 
# From -- ./inp_files/11699.got.cif
#   From: 2010.05.17/outbox.cif.g08.bks.cpg/sg2_6_cif.got.tgz:11699.got - 2010.06.03 11:33:40.
