data_PCOD9021535
_publ_section_title
;
Structure prediction by ZEFSAII (Michael W. Deem and Ramdas Pophale) SiO2 
 PCOD9021535
Probable space group: P -1
;
_chemical_formula_sum "Si O2"
_cell_formula_units_Z 16
_cell_length_a 21.006042
_cell_length_b 11.602154
_cell_length_c 11.654213
_cell_angle_alpha 120.181453
_cell_angle_beta 40.965102
_cell_angle_gamma 151.516481
_cell_volume 761.317843
_symmetry_space_group_name_H-M "P -1"
_symmetry_group_IT_number 2
_symmetry_cell_setting 'triclinic'
loop_
_space_group_symop_operation_xyz
x,y,z
-x,-y,-z
loop_
_atom_site_type_symbol
_atom_site_label
_atom_site_fract_x
_atom_site_fract_y
_atom_site_fract_z
Si Si1 0.618879 0.770423 0.023918
Si Si2 0.197105 0.831536 0.373357
Si Si3 0.953352 0.792212 0.609387
Si Si4 0.812030 0.442599 0.169863
Si Si5 0.911837 0.755580 0.383923
Si Si6 0.539386 0.197867 0.913388
Si Si7 0.286469 0.947060 0.766201
Si Si8 0.561219 0.944859 0.638491
O O1 0.570390 0.833478 0.038683
O O2 0.586923 0.784486 0.204753
O O3 0.500000 0.500000 0.000000
O O4 0.856719 0.020521 0.819952
O O5 0.322093 0.010294 0.410037
O O6 0.000000 0.500000 0.500000
O O7 0.107576 0.856654 0.450121
O O8 0.367345 0.967614 0.128948
O O9 0.752196 0.524760 0.827575
O O10 0.858603 0.686629 0.556144
O O11 0.071842 0.074817 0.600676
O O12 0.725374 0.194554 0.203417
O O13 0.788956 0.510545 0.345276
O O14 0.684236 0.348539 0.191481
O O15 0.051749 0.713194 0.953881
O O16 0.606573 0.145813 0.729556
O O17 0.359413 0.985974 0.562889
#
# Coordination Sequence:
#
# PCOD9021535 Si02
#       8
#     2   2   2   2   2   2   2   2
#     4  11  21  39  69 104 135 168 221 283 338 399
#     4  12  28  43  66  98 133 179 232 276 327 399
#     4  11  23  41  67  97 136 172 229 273 337 391
#     4  10  22  38  62  96 134 170 218 271 340 390
#     4  10  22  40  66 101 135 175 212 288 335 393
#     4  12  24  41  65  99 131 175 221 279 330 392
#     4  10  23  38  63  99 134 174 216 280 333 392
#     4  12  25  40  65  93 135 179 217 271 330 400
#
# _framework density 21.016189000000001
#
# number of rings (size 3 to 8) (size 9 to 14) (size 15 to 20)
#    0.000    1.000    5.000    1.500    3.500    0.000 
#    0.000    0.625    0.000    2.250    0.000    0.000 
#    0.000    0.000    0.000    0.000    0.000    0.000 
#
# Total GULP energy -89365.118089 kJ/mol
# GULP energy per Si atom -5585.319881 kJ/mol
# Density = 2.096836 g / cm^3
# Si number density = 21.016189 Si / 1000 Ang^3
#
#
#
# Elastic Constant Matrix: (Units=GPa)
#
#
# Indices 1 2 3 4 5 6 
#
# 1 90.1591 39.5488 29.3886 2.9943 -15.5411 10.4816
# 2 39.5488 113.3462 28.2623 8.5815 1.7867 9.4065
# 3 29.3886 28.2623 117.8546 -0.0483 2.6826 -3.0750
# 4 2.9943 8.5815 -0.0483 24.8353 0.5346 -6.5275
# 5 -15.5411 1.7867 2.6826 0.5346 29.7453 3.1351
# 6 10.4816 9.4065 -3.0750 -6.5275 3.1351 31.6306
#
#
#
# Elastic Compliance Matrix: (Units=1/GPa)
#
#
# Indices 1 2 3 4 5 6 
#
# 1 0.016657 -0.004433 -0.003475 -0.002273 0.009955 -0.005995
# 2 -0.004433 0.011339 -0.001628 -0.004028 -0.002499 -0.002645
# 3 -0.003475 -0.001628 0.009897 0.001930 -0.002992 0.003292
# 4 -0.002273 -0.004028 0.001930 0.045094 -0.003170 0.011759
# 5 0.009955 -0.002499 -0.002992 -0.003170 0.040085 -0.007474
# 6 -0.005995 -0.002645 0.003292 0.011759 -0.007474 0.037876
#
#
# Mechanical properties :
#
#
# Convention : Reuss Voigt Hill
#
# Bulk Modulus (GPa) = 53.12771 57.30658 55.21715
# Shear Modulus (GPa) = 26.83976 32.18626 29.51301
#
# Velocity S-wave (km/s) = 3.57753 3.91768 3.75146
# Velocity P-wave (km/s) = 6.51147 6.91313 6.71530
#
# Compressibility (1/GPa) = 0.01882257
#
# Stress axis : x y z
#
# Youngs Moduli (GPa) = 60.03433 88.19167 101.04540
#
# Poissons Ratio (x) = 0.39095 0.35109
# Poissons Ratio (y) = 0.26613 0.16445
# Poissons Ratio (z) = 0.20859 0.14353
#
# Static dielectric constant tensor:
#      x y z
#    x 1.757390 0.004720 0.007250 
#    y 0.004720 1.771450 -0.008330 
#    z 0.007250 -0.008330 1.818760 
# 
# From -- ./inp_files/471204.got.cif
#   From: 2010.05.17/outbox.cif.g08.bks.cpg/sg2_236_cif.got.tgz:471204.got - 2010.06.03 11:33:40.
