data_PCOD9021788
_publ_section_title
;
Structure prediction by ZEFSAII (Michael W. Deem and Ramdas Pophale) SiO2 
 PCOD9021788
Probable space group: P -1
;
_chemical_formula_sum "Si O2"
_cell_formula_units_Z 14
_cell_length_a 20.733567
_cell_length_b 14.352847
_cell_length_c 11.276736
_cell_angle_alpha 148.769858
_cell_angle_beta 160.402433
_cell_angle_gamma 33.268702
_cell_volume 574.508222
_symmetry_space_group_name_H-M "P -1"
_symmetry_group_IT_number 2
_symmetry_cell_setting 'triclinic'
loop_
_space_group_symop_operation_xyz
x,y,z
-x,-y,-z
loop_
_atom_site_type_symbol
_atom_site_label
_atom_site_fract_x
_atom_site_fract_y
_atom_site_fract_z
Si Si1 0.119198 0.941243 0.489404
Si Si2 0.771432 0.570150 0.155064
Si Si3 0.524994 0.813690 0.187023
Si Si4 0.073792 0.292096 0.940845
Si Si5 0.264919 0.772684 0.181138
Si Si6 0.466525 0.781916 0.307514
Si Si7 0.814780 0.894865 0.468554
O O1 0.001214 0.779210 0.141543
O O2 0.021036 0.135581 0.590175
O O3 0.151902 0.995424 0.471168
O O4 0.329696 0.876144 0.841774
O O5 0.681231 0.688671 0.240735
O O6 0.739229 0.703001 0.130516
O O7 0.000000 0.500000 0.500000
O O8 0.682359 0.386747 0.805807
O O9 0.459416 0.722679 0.094806
O O10 0.599841 0.997488 0.559443
O O11 0.306798 0.263648 0.315602
O O12 0.000000 0.500000 0.000000
O O13 0.345874 0.709081 0.123336
O O14 0.324648 0.960321 0.532811
O O15 0.031687 0.830574 0.827407
#
# Coordination Sequence:
#
# PCOD9021788 Si02
#       7
#     2   2   2   2   2   2   2
#     4  10  24  42  65  92 127 173 203 261 325 368
#     4  10  22  40  61  95 125 163 213 255 311 377
#     4  10  22  41  66  94 129 162 217 259 313 377
#     4  10  24  42  62  95 132 162 211 260 322 378
#     4  10  22  38  65  95 120 169 211 257 320 367
#     4  10  22  40  69  93 126 167 209 266 314 375
#     4  10  22  41  63  88 133 163 211 260 309 386
#
# _framework density 24.368668
#
# number of rings (size 3 to 8) (size 9 to 14) (size 15 to 20)
#    0.000    2.000    1.429    0.000   10.000    4.571 
#    0.000    0.714    0.000    0.000    0.000    0.000 
#    0.000    0.000    0.000    0.000    0.000    0.000 
#
# Total GULP energy -78201.749682 kJ/mol
# GULP energy per Si atom -5585.839263 kJ/mol
# Density = 2.431320 g / cm^3
# Si number density = 24.368668 Si / 1000 Ang^3
#
#
#
# Elastic Constant Matrix: (Units=GPa)
#
#
# Indices 1 2 3 4 5 6 
#
# 1 114.1933 74.7034 -1.0733 13.7233 29.3133 15.4822
# 2 74.7034 172.9363 45.1338 10.9478 22.7022 13.2075
# 3 -1.0733 45.1338 34.7622 5.2344 15.5664 2.1049
# 4 13.7233 10.9478 5.2344 26.1206 5.5009 20.8406
# 5 29.3133 22.7022 15.5664 5.5009 27.2285 1.8874
# 6 15.4822 13.2075 2.1049 20.8406 1.8874 48.6956
#
#
#
# Elastic Compliance Matrix: (Units=1/GPa)
#
#
# Indices 1 2 3 4 5 6 
#
# 1 0.044839 -0.027886 0.066515 -0.010082 -0.060811 -0.002896
# 2 -0.027886 0.026288 -0.052433 0.006592 0.036764 -0.000244
# 3 0.066515 -0.052433 0.151309 -0.019293 -0.110432 -0.000930
# 4 -0.010082 0.006592 -0.019293 0.063689 0.005268 -0.025210
# 5 -0.060811 0.036764 -0.110432 0.005268 0.133143 0.006721
# 6 -0.002896 -0.000244 -0.000930 -0.025210 0.006721 0.032092
#
#
# Mechanical properties :
#
#
# Convention : Reuss Voigt Hill
#
# Bulk Modulus (GPa) = 5.13272 62.15773 33.64522
# Shear Modulus (GPa) = 9.19268 33.95080 21.57174
#
# Velocity S-wave (km/s) = 1.94436 3.73663 2.97850
# Velocity P-wave (km/s) = 2.67424 6.64674 5.06610
#
# Compressibility (1/GPa) = 0.19482866
#
# Stress axis : x y z
#
# Youngs Moduli (GPa) = 22.30187 38.04054 6.60897
#
# Poissons Ratio (x) = 1.06081 -0.43960
# Poissons Ratio (y) = 0.62192 0.34653
# Poissons Ratio (z) = -1.48341 1.99457
#
# Static dielectric constant tensor:
#      x y z
#    x 2.006490 0.017230 0.017210 
#    y 0.017230 1.949750 0.086460 
#    z 0.017210 0.086460 1.984520 
# 
# From -- ./inp_files/472038.got.cif
#   From: 2010.05.17/outbox.cif.g08.bks.cpg/sg2_237_cif.got.tgz:472038.got - 2010.06.03 11:33:40.
