data_PCOD9021237
_publ_section_title
;
Structure prediction by ZEFSAII (Michael W. Deem and Ramdas Pophale) SiO2 
 PCOD9021237
Probable space group: P -1
;
_chemical_formula_sum "Si O2"
_cell_formula_units_Z 16
_cell_length_a 6.981315
_cell_length_b 14.308764
_cell_length_c 12.312819
_cell_angle_alpha 113.792393
_cell_angle_beta 34.477952
_cell_angle_gamma 106.396888
_cell_volume 634.094499
_symmetry_space_group_name_H-M "P -1"
_symmetry_group_IT_number 2
_symmetry_cell_setting 'triclinic'
loop_
_space_group_symop_operation_xyz
x,y,z
-x,-y,-z
loop_
_atom_site_type_symbol
_atom_site_label
_atom_site_fract_x
_atom_site_fract_y
_atom_site_fract_z
Si Si1 0.230179 0.736418 0.909429
Si Si2 0.232452 0.137455 0.360351
Si Si3 0.802494 0.244276 0.449419
Si Si4 0.755709 0.895024 0.328608
Si Si5 0.157139 0.443994 0.081066
Si Si6 0.810409 0.449002 0.666822
Si Si7 0.662385 0.084088 0.762020
Si Si8 0.343070 0.281391 0.077455
O O1 0.508949 0.776199 0.716332
O O2 0.412712 0.716273 0.932100
O O3 0.102821 0.629569 0.881814
O O4 0.939472 0.832354 0.111450
O O5 0.085513 0.153407 0.314134
O O6 0.880802 0.128924 0.585065
O O7 0.433265 0.030652 0.254819
O O8 0.460861 0.193693 0.564528
O O9 0.804839 0.329357 0.582770
O O10 0.955379 0.302133 0.305910
O O11 0.067875 0.920213 0.268082
O O12 0.500000 0.000000 0.500000
O O13 0.035239 0.521050 0.273424
O O14 0.408660 0.360009 0.990905
O O15 0.404208 0.483017 0.891197
O O16 0.000000 0.500000 0.500000
O O17 0.367500 0.168158 0.966447
#
# Coordination Sequence:
#
# PCOD9021237 Si02
#       8
#     2   2   2   2   2   2   2   2
#     4  10  24  41  64  98 132 171 225 270 324 404
#     4  10  22  39  59  89 134 170 222 268 325 393
#     4  11  21  40  65  92 131 169 219 270 330 389
#     4  11  22  37  63  96 129 174 216 270 325 397
#     4  11  23  45  71  94 133 177 216 280 341 384
#     4  11  23  42  71  99 129 174 224 278 335 398
#     4  10  22  38  58  93 131 176 217 270 324 393
#     4  10  23  40  67  94 134 173 216 273 330 392
#
# _framework density 25.232832999999999
#
# number of rings (size 3 to 8) (size 9 to 14) (size 15 to 20)
#    0.000    1.500    3.750    0.750    3.500    1.500 
#    0.000    6.250    2.750    0.000    0.000    0.000 
#    0.000    0.000    0.000    0.000    0.000    0.000 
#
# Total GULP energy -89153.635624 kJ/mol
# GULP energy per Si atom -5572.102226 kJ/mol
# Density = 2.517540 g / cm^3
# Si number density = 25.232833 Si / 1000 Ang^3
#
#
#
# Elastic Constant Matrix: (Units=GPa)
#
#
# Indices 1 2 3 4 5 6 
#
# 1 78.6153 16.3900 7.7578 -9.7134 14.7052 12.9970
# 2 16.3900 113.0927 34.8511 -20.0254 8.5191 10.6812
# 3 7.7578 34.8511 94.6725 -14.3814 20.3948 4.9699
# 4 -9.7134 -20.0254 -14.3814 40.7543 -2.1035 -6.4374
# 5 14.7052 8.5191 20.3948 -2.1035 26.4143 -5.1078
# 6 12.9970 10.6812 4.9699 -6.4374 -5.1078 40.1783
#
#
#
# Elastic Compliance Matrix: (Units=1/GPa)
#
#
# Indices 1 2 3 4 5 6 
#
# 1 0.016221 -0.001150 0.002267 0.002521 -0.011421 -0.006270
# 2 -0.001150 0.010809 -0.003156 0.003652 -0.000424 -0.001580
# 3 0.002267 -0.003156 0.014719 0.003140 -0.011885 -0.002723
# 4 0.002521 0.003652 0.003140 0.028243 -0.002360 0.002050
# 5 -0.011421 -0.000424 -0.011885 -0.002360 0.055658 0.011975
# 6 -0.006270 -0.001580 -0.002723 0.002050 0.011975 0.029525
#
#
# Mechanical properties :
#
#
# Convention : Reuss Voigt Hill
#
# Bulk Modulus (GPa) = 26.54643 44.93094 35.73869
# Shear Modulus (GPa) = 29.10187 36.62814 32.86501
#
# Velocity S-wave (km/s) = 3.39976 3.81413 3.61289
# Velocity P-wave (km/s) = 5.09456 6.10262 5.62123
#
# Compressibility (1/GPa) = 0.03766985
#
# Stress axis : x y z
#
# Youngs Moduli (GPa) = 61.64974 92.51221 67.93907
#
# Poissons Ratio (x) = 0.10643 -0.15400
# Poissons Ratio (y) = 0.07093 0.21441
# Poissons Ratio (z) = -0.13975 0.29196
#
# Static dielectric constant tensor:
#      x y z
#    x 2.058960 -0.002240 0.033600 
#    y -0.002240 2.073650 -0.013240 
#    z 0.033600 -0.013240 2.116600 
# 
# From -- ./inp_files/505444.got.cif
#   From: 2010.05.17/outbox.cif.g08.bks.cpg/sg2_253_cif.got.tgz:505444.got - 2010.06.03 11:33:40.
