data_PCOD9021702
_publ_section_title
;
Structure prediction by ZEFSAII (Michael W. Deem and Ramdas Pophale) SiO2 
 PCOD9021702
Probable space group: P -1
;
_chemical_formula_sum "Si O2"
_cell_formula_units_Z 15
_cell_length_a 10.754213
_cell_length_b 9.347144
_cell_length_c 8.678434
_cell_angle_alpha 133.001581
_cell_angle_beta 112.182483
_cell_angle_gamma 86.904954
_cell_volume 563.464949
_symmetry_space_group_name_H-M "P -1"
_symmetry_group_IT_number 2
_symmetry_cell_setting 'triclinic'
loop_
_space_group_symop_operation_xyz
x,y,z
-x,-y,-z
loop_
_atom_site_type_symbol
_atom_site_label
_atom_site_fract_x
_atom_site_fract_y
_atom_site_fract_z
Si Si1 0.000000 0.500000 0.500000
Si Si2 0.926513 0.143011 0.977412
Si Si3 0.659157 0.621675 0.773665
Si Si4 0.390157 0.022436 0.180986
Si Si5 0.264224 0.448207 0.802265
Si Si6 0.930967 0.801534 0.223688
Si Si7 0.740755 0.340236 0.353423
Si Si8 0.494702 0.713511 0.308232
O O1 0.113648 0.710718 0.608788
O O2 0.005555 0.639562 0.755084
O O3 0.951474 0.187128 0.840706
O O4 0.762302 0.048638 0.863841
O O5 0.000000 0.000000 0.000000
O O6 0.598936 0.766990 0.748437
O O7 0.700872 0.456589 0.562724
O O8 0.555327 0.493967 0.761899
O O9 0.794112 0.774099 0.031522
O O10 0.498202 0.102010 0.433137
O O11 0.379268 0.845884 0.917686
O O12 0.141967 0.372180 0.812675
O O13 0.203360 0.492602 0.641052
O O14 0.355925 0.292790 0.697001
O O15 0.377558 0.652632 0.074514
O O16 0.000000 0.000000 0.500000
#
# Coordination Sequence:
#
# PCOD9021702 Si02
#       8
#     1   2   2   2   2   2   2   2
#     4  10  22  38  64  94 126 164 214 256 322 370
#     4  11  21  40  67  92 125 166 212 268 310 381
#     4  11  22  43  65  93 128 168 218 270 309 372
#     4  11  22  37  68  95 120 166 222 256 318 378
#     4  10  23  42  63  94 134 169 209 265 325 378
#     4  11  23  36  68  95 124 174 209 259 332 382
#     4  11  23  39  67  93 129 169 212 268 316 374
#     4  10  22  42  67  90 129 174 212 263 323 374
#
# _framework density 26.620996000000002
#
# number of rings (size 3 to 8) (size 9 to 14) (size 15 to 20)
#    0.000    1.333    4.000    1.200    1.867    1.067 
#    0.000    2.667   23.467    0.000    0.000    0.000 
#    0.000    0.000    0.000    0.000    0.000    0.000 
#
# Total GULP energy -83696.578468 kJ/mol
# GULP energy per Si atom -5579.771898 kJ/mol
# Density = 2.656041 g / cm^3
# Si number density = 26.620996 Si / 1000 Ang^3
#
#
#
# Elastic Constant Matrix: (Units=GPa)
#
#
# Indices 1 2 3 4 5 6 
#
# 1 106.2941 42.3589 27.9259 -4.0985 -9.8624 29.9486
# 2 42.3589 71.7867 5.6560 -16.3642 -2.5876 22.9961
# 3 27.9259 5.6560 251.3905 -3.3275 -11.6991 1.7770
# 4 -4.0985 -16.3642 -3.3275 39.8581 4.5160 4.4928
# 5 -9.8624 -2.5876 -11.6991 4.5160 54.4509 -4.4829
# 6 29.9486 22.9961 1.7770 4.4928 -4.4829 49.3355
#
#
#
# Elastic Compliance Matrix: (Units=1/GPa)
#
#
# Indices 1 2 3 4 5 6 
#
# 1 0.013949 -0.006682 -0.001303 -0.001027 0.001597 -0.005068
# 2 -0.006682 0.022314 0.000350 0.009499 -0.001468 -0.007356
# 3 -0.001303 0.000350 0.004146 0.000218 0.000696 0.000522
# 4 -0.001027 0.009499 0.000218 0.029976 -0.002733 -0.006790
# 5 0.001597 -0.001468 0.000696 -0.002733 0.019099 0.001674
# 6 -0.005068 -0.007356 0.000522 -0.006790 0.001674 0.027526
#
#
# Mechanical properties :
#
#
# Convention : Reuss Voigt Hill
#
# Bulk Modulus (GPa) = 39.77681 64.59476 52.18578
# Shear Modulus (GPa) = 35.54667 52.29758 43.92212
#
# Velocity S-wave (km/s) = 3.65812 4.43710 4.06631
# Velocity P-wave (km/s) = 5.72860 7.11110 6.45696
#
# Compressibility (1/GPa) = 0.02514028
#
# Stress axis : x y z
#
# Youngs Moduli (GPa) = 71.68891 44.81496 241.17748
#
# Poissons Ratio (x) = 0.29943 0.31418
# Poissons Ratio (y) = 0.47899 -0.08431
# Poissons Ratio (z) = 0.09339 -0.01567
#
# Static dielectric constant tensor:
#      x y z
#    x 1.383140 0.352270 -0.283240 
#    y 0.352270 2.033400 0.158810 
#    z -0.283240 0.158810 2.023540 
# 
# From -- ./inp_files/252732.got.cif
#   From: 2010.05.17/outbox.cif.g08.bks.cpg/sg2_127_cif.got.tgz:252732.got - 2010.06.03 11:33:40.
