data_PCOD9021127
_publ_section_title
;
Structure prediction by ZEFSAII (Michael W. Deem and Ramdas Pophale) SiO2 
 PCOD9021127
Probable space group: P -1
;
_chemical_formula_sum "Si O2"
_cell_formula_units_Z 14
_cell_length_a 10.021145
_cell_length_b 15.459768
_cell_length_c 10.692432
_cell_angle_alpha 147.524329
_cell_angle_beta 41.430509
_cell_angle_gamma 145.052017
_cell_volume 500.282539
_symmetry_space_group_name_H-M "P -1"
_symmetry_group_IT_number 2
_symmetry_cell_setting 'triclinic'
loop_
_space_group_symop_operation_xyz
x,y,z
-x,-y,-z
loop_
_atom_site_type_symbol
_atom_site_label
_atom_site_fract_x
_atom_site_fract_y
_atom_site_fract_z
Si Si1 0.624382 0.196371 0.819922
Si Si2 0.108256 0.221240 0.456601
Si Si3 0.378159 0.259149 0.562252
Si Si4 0.115692 0.929919 0.931613
Si Si5 0.117754 0.437664 0.472029
Si Si6 0.768594 0.527276 0.934642
Si Si7 0.274288 0.871054 0.088839
O O1 0.839197 0.173455 0.597222
O O2 0.632081 0.358799 0.929149
O O3 0.676446 0.251867 0.997027
O O4 0.371004 0.003805 0.779556
O O5 0.251131 0.295194 0.576664
O O6 0.189705 0.360286 0.448745
O O7 0.126905 0.041334 0.184081
O O8 0.655340 0.356933 0.457515
O O9 0.257852 0.034198 0.373698
O O10 0.374564 0.363890 0.819988
O O11 0.941318 0.706147 0.776832
O O12 0.000000 0.000000 0.000000
O O13 0.873264 0.429314 0.655509
O O14 0.025314 0.713196 0.017225
O O15 0.500000 0.000000 0.000000
#
# Coordination Sequence:
#
# PCOD9021127 Si02
#       7
#     2   2   2   2   2   2   2
#     4  11  24  42  67  97 131 170 220 268 321 385
#     4  10  22  37  68  96 131 167 218 267 327 373
#     4  12  23  39  67  97 135 166 217 265 331 384
#     4  10  22  42  64  98 130 172 218 269 320 381
#     4  10  23  39  64  99 130 171 218 270 320 382
#     4  11  23  40  66  98 129 166 218 268 325 375
#     4  12  24  41  64  98 139 169 206 273 333 382
#
# _framework density 27.984185
#
# number of rings (size 3 to 8) (size 9 to 14) (size 15 to 20)
#    0.000    1.143    2.857    3.857    2.000    6.286 
#    0.000    0.714    0.000    1.714    0.000    0.000 
#    0.000    0.000    0.000    0.000    0.000    0.000 
#
# Total GULP energy -78261.909443 kJ/mol
# GULP energy per Si atom -5590.136389 kJ/mol
# Density = 2.792049 g / cm^3
# Si number density = 27.984185 Si / 1000 Ang^3
#
#
#
# Elastic Constant Matrix: (Units=GPa)
#
#
# Indices 1 2 3 4 5 6 
#
# 1 71.2592 -11.4394 -14.0267 -2.7943 -10.3950 -13.9061
# 2 -11.4394 110.0271 4.4054 7.7762 -7.8023 17.4912
# 3 -14.0267 4.4054 154.3612 11.2675 13.4890 11.8413
# 4 -2.7943 7.7762 11.2675 50.0566 4.2743 -15.2029
# 5 -10.3950 -7.8023 13.4890 4.2743 36.1440 -0.5156
# 6 -13.9061 17.4912 11.8413 -15.2029 -0.5156 48.8277
#
#
#
# Elastic Compliance Matrix: (Units=1/GPa)
#
#
# Indices 1 2 3 4 5 6 
#
# 1 0.015926 0.001118 0.000559 0.001585 0.004490 0.004541
# 2 0.001118 0.010312 0.000124 -0.003128 0.002809 -0.004350
# 3 0.000559 0.000124 0.007045 -0.002070 -0.002229 -0.002262
# 4 0.001585 -0.003128 -0.002070 0.024105 -0.002161 0.009557
# 5 0.004490 0.002809 -0.002229 -0.002161 0.030659 0.000464
# 6 0.004541 -0.004350 -0.002262 0.009557 0.000464 0.026861
#
#
# Mechanical properties :
#
#
# Convention : Reuss Voigt Hill
#
# Bulk Modulus (GPa) = 27.11183 32.61399 29.86291
# Shear Modulus (GPa) = 40.45281 50.78621 45.61951
#
# Velocity S-wave (km/s) = 3.80618 4.26469 4.04194
# Velocity P-wave (km/s) = 5.38751 5.99415 5.69891
#
# Compressibility (1/GPa) = 0.03688427
#
# Stress axis : x y z
#
# Youngs Moduli (GPa) = 62.79008 96.97660 141.94453
#
# Poissons Ratio (x) = -0.10842 -0.07933
# Poissons Ratio (y) = -0.07020 -0.01758
# Poissons Ratio (z) = -0.03509 -0.01201
#
# Static dielectric constant tensor:
#      x y z
#    x 2.298480 -0.037860 0.054430 
#    y -0.037860 2.141060 -0.127400 
#    z 0.054430 -0.127400 2.286060 
# 
# From -- ./inp_files/437428.got.cif
#   From: 2010.05.17/outbox.cif.g08.bks.cpg/sg2_219_cif.got.tgz:437428.got - 2010.06.03 11:33:40.
