data_PCOD9021612
_publ_section_title
;
Structure prediction by ZEFSAII (Michael W. Deem and Ramdas Pophale) SiO2 
 PCOD9021612
Probable space group: P -1
;
_chemical_formula_sum "Si O2"
_cell_formula_units_Z 16
_cell_length_a 24.070513
_cell_length_b 20.839569
_cell_length_c 8.679987
_cell_angle_alpha 150.760868
_cell_angle_beta 37.695845
_cell_angle_gamma 160.692129
_cell_volume 689.044733
_symmetry_space_group_name_H-M "P -1"
_symmetry_group_IT_number 2
_symmetry_cell_setting 'triclinic'
loop_
_space_group_symop_operation_xyz
x,y,z
-x,-y,-z
loop_
_atom_site_type_symbol
_atom_site_label
_atom_site_fract_x
_atom_site_fract_y
_atom_site_fract_z
Si Si1 0.491291 0.183524 0.255883
Si Si2 0.858126 0.938798 0.654806
Si Si3 0.404397 0.968136 0.300731
Si Si4 0.143595 0.455285 0.247380
Si Si5 0.612094 0.439505 0.238623
Si Si6 0.744723 0.134322 0.272331
Si Si7 0.839615 0.076663 0.693826
Si Si8 0.899855 0.515631 0.247188
O O1 0.635605 0.424006 0.332833
O O2 0.499907 0.181800 0.418666
O O3 0.322859 0.065065 0.341176
O O4 0.484077 0.022386 0.870854
O O5 0.679726 0.670460 0.556420
O O6 0.826079 0.934198 0.536389
O O7 0.000000 0.000000 0.500000
O O8 0.952466 0.177967 0.030377
O O9 0.299595 0.910062 0.542887
O O10 0.267221 0.726156 0.987939
O O11 0.225594 0.677893 0.443010
O O12 0.132376 0.471445 0.485271
O O13 0.272556 0.497765 0.005182
O O14 0.420165 0.156017 0.027761
O O15 0.882268 0.241917 0.073987
O O16 0.989596 0.248762 0.602778
O O17 0.000000 0.500000 0.000000
#
# Coordination Sequence:
#
# PCOD9021612 Si02
#       8
#     2   2   2   2   2   2   2   2
#     4  10  22  38  63  94 136 170 213 273 332 388
#     4  10  25  46  66  91 133 182 226 268 329 400
#     4  11  23  37  60 106 138 170 208 270 347 394
#     4  11  22  41  67 100 131 175 221 270 336 393
#     4  10  22  43  65  94 129 179 224 271 321 397
#     4  11  22  36  72  98 129 171 220 281 331 389
#     4  11  24  41  66  96 134 168 224 275 333 382
#     4  12  23  38  64 101 143 166 213 279 337 391
#
# _framework density 23.220552999999999
#
# number of rings (size 3 to 8) (size 9 to 14) (size 15 to 20)
#    0.000    1.250    3.750    1.875    8.750    3.000 
#    0.000    3.750    0.000    4.500    0.000    0.000 
#    0.000    0.000    0.000    0.000    0.000    0.000 
#
# Total GULP energy -89110.549817 kJ/mol
# GULP energy per Si atom -5569.409364 kJ/mol
# Density = 2.316770 g / cm^3
# Si number density = 23.220553 Si / 1000 Ang^3
#
#
#
# Elastic Constant Matrix: (Units=GPa)
#
#
# Indices 1 2 3 4 5 6 
#
# 1 105.8681 44.5219 17.6654 14.6789 -7.7489 -27.7385
# 2 44.5219 142.1549 36.2450 1.0353 12.9153 -46.8730
# 3 17.6654 36.2450 46.3748 15.4355 9.9560 -12.9613
# 4 14.6789 1.0353 15.4355 49.6321 -5.4569 3.5284
# 5 -7.7489 12.9153 9.9560 -5.4569 35.5194 -2.4081
# 6 -27.7385 -46.8730 -12.9613 3.5284 -2.4081 56.1556
#
#
#
# Elastic Compliance Matrix: (Units=1/GPa)
#
#
# Indices 1 2 3 4 5 6 
#
# 1 0.012537 -0.002531 -0.001462 -0.003066 0.003872 0.004102
# 2 -0.002531 0.012026 -0.006550 0.001775 -0.002337 0.007064
# 3 -0.001462 -0.006550 0.033246 -0.010866 -0.008804 0.001790
# 4 -0.003066 0.001775 -0.010866 0.025262 0.005348 -0.003899
# 5 0.003872 -0.002337 -0.008804 0.005348 0.033071 -0.000988
# 6 0.004102 0.007064 0.001790 -0.003899 -0.000988 0.026346
#
#
# Mechanical properties :
#
#
# Convention : Reuss Voigt Hill
#
# Bulk Modulus (GPa) = 27.22998 54.58470 40.90734
# Shear Modulus (GPa) = 28.43892 41.32579 34.88236
#
# Velocity S-wave (km/s) = 3.50341 4.22323 3.88005
# Velocity P-wave (km/s) = 5.30258 6.88034 6.14233
#
# Compressibility (1/GPa) = 0.03672422
#
# Stress axis : x y z
#
# Youngs Moduli (GPa) = 79.76243 83.15319 30.07852
#
# Poissons Ratio (x) = 0.21044 0.04398
# Poissons Ratio (y) = 0.20186 0.19701
# Poissons Ratio (z) = 0.11662 0.54463
#
# Static dielectric constant tensor:
#      x y z
#    x 2.072250 0.086240 -0.058080 
#    y 0.086240 1.998960 0.036710 
#    z -0.058080 0.036710 1.901400 
# 
# From -- ./inp_files/357760.got.cif
#   From: 2010.05.17/outbox.cif.g08.bks.cpg/sg2_179_cif.got.tgz:357760.got - 2010.06.03 11:33:40.
