data_PCOD9021489
_publ_section_title
;
Structure prediction by ZEFSAII (Michael W. Deem and Ramdas Pophale) SiO2 
 PCOD9021489
Probable space group: P -1
;
_chemical_formula_sum "Si O2"
_cell_formula_units_Z 16
_cell_length_a 14.915306
_cell_length_b 7.508458
_cell_length_c 16.707068
_cell_angle_alpha 142.153032
_cell_angle_beta 35.755115
_cell_angle_gamma 132.830299
_cell_volume 666.810610
_symmetry_space_group_name_H-M "P -1"
_symmetry_group_IT_number 2
_symmetry_cell_setting 'triclinic'
loop_
_space_group_symop_operation_xyz
x,y,z
-x,-y,-z
loop_
_atom_site_type_symbol
_atom_site_label
_atom_site_fract_x
_atom_site_fract_y
_atom_site_fract_z
Si Si1 0.759037 0.485514 0.905943
Si Si2 0.935268 0.691085 0.400422
Si Si3 0.699943 0.073646 0.651316
Si Si4 0.420481 0.789696 0.654773
Si Si5 0.115934 0.861612 0.974298
Si Si6 0.459917 0.340588 0.734244
Si Si7 0.188578 0.339466 0.829995
Si Si8 0.197319 0.735288 0.521417
O O1 0.700494 0.265806 0.799276
O O2 0.922082 0.388341 0.785203
O O3 0.629816 0.516129 0.077409
O O4 0.812273 0.809399 0.949561
O O5 0.913466 0.459076 0.406690
O O6 0.777783 0.775315 0.505312
O O7 0.000000 0.000000 0.500000
O O8 0.803269 0.251308 0.570037
O O9 0.528156 0.997720 0.712786
O O10 0.500000 0.500000 0.500000
O O11 0.238824 0.735236 0.782825
O O12 0.430555 0.988438 0.639370
O O13 0.131905 0.653437 0.964768
O O14 0.933786 0.816137 0.071504
O O15 0.365025 0.418585 0.754564
O O16 0.641429 0.397114 0.624393
O O17 0.190634 0.075748 0.671209
#
# Coordination Sequence:
#
# PCOD9021489 Si02
#       8
#     2   2   2   2   2   2   2   2
#     4  10  22  46  62  97 131 173 222 268 329 393
#     4  10  23  43  68  99 129 176 222 259 335 397
#     4  10  24  43  71  94 135 172 220 274 324 393
#     4  10  22  38  63  97 122 175 216 260 332 386
#     4  10  22  38  62  91 130 172 216 264 336 379
#     4  10  24  39  67  94 131 169 219 272 333 384
#     4  11  23  41  61  98 132 169 222 275 326 392
#     4  11  23  44  68  98 129 175 218 274 330 388
#
# _framework density 23.994820000000001
#
# number of rings (size 3 to 8) (size 9 to 14) (size 15 to 20)
#    0.000    1.750    1.250    1.875    3.500   11.500 
#    4.500    2.500    0.000    0.000    0.000    0.000 
#    0.000    0.000    0.000    0.000    0.000    0.000 
#
# Total GULP energy -89225.162477 kJ/mol
# GULP energy per Si atom -5576.572655 kJ/mol
# Density = 2.394021 g / cm^3
# Si number density = 23.994820 Si / 1000 Ang^3
#
#
#
# Elastic Constant Matrix: (Units=GPa)
#
#
# Indices 1 2 3 4 5 6 
#
# 1 44.1835 -3.0255 14.9027 6.4394 -1.9043 5.3165
# 2 -3.0255 46.3913 15.8102 -0.6639 10.6227 -3.4964
# 3 14.9027 15.8102 147.6106 -3.3841 -3.2013 13.1881
# 4 6.4394 -0.6639 -3.3841 49.7420 2.7961 -3.3484
# 5 -1.9043 10.6227 -3.2013 2.7961 42.9425 1.1073
# 6 5.3165 -3.4964 13.1881 -3.3484 1.1073 20.3450
#
#
#
# Elastic Compliance Matrix: (Units=1/GPa)
#
#
# Indices 1 2 3 4 5 6 
#
# 1 0.024746 0.001728 -0.002271 -0.003746 0.000883 -0.005362
# 2 0.001728 0.024890 -0.003557 0.000680 -0.006560 0.006600
# 3 -0.002271 -0.003557 0.007885 0.000353 0.001477 -0.005151
# 4 -0.003746 0.000680 0.000353 0.021020 -0.001791 0.004424
# 5 0.000883 -0.006560 0.001477 -0.001791 0.025278 -0.003986
# 6 -0.005362 0.006600 -0.005151 0.004424 -0.003986 0.055972
#
#
# Mechanical properties :
#
#
# Convention : Reuss Voigt Hill
#
# Bulk Modulus (GPa) = 20.27501 32.61780 26.44641
# Shear Modulus (GPa) = 27.11028 36.63909 31.87468
#
# Velocity S-wave (km/s) = 3.36495 3.91187 3.64867
# Velocity P-wave (km/s) = 4.85441 5.83325 5.36620
#
# Compressibility (1/GPa) = 0.04932179
#
# Stress axis : x y z
#
# Youngs Moduli (GPa) = 40.40998 40.17699 126.81980
#
# Poissons Ratio (x) = -0.06943 0.28803
# Poissons Ratio (y) = -0.06983 0.45107
# Poissons Ratio (z) = 0.09178 0.14290
#
# Static dielectric constant tensor:
#      x y z
#    x 2.038780 -0.008600 -0.041360 
#    y -0.008600 1.966220 -0.067160 
#    z -0.041360 -0.067160 1.981880 
# 
# From -- ./inp_files/599797.got.cif
#   From: 2010.05.17/outbox.cif.g08.bks.cpg/sg2_300_cif.got.tgz:599797.got - 2010.06.03 11:33:40.
