data_PCOD9021842
_publ_section_title
;
Structure prediction by ZEFSAII (Michael W. Deem and Ramdas Pophale) SiO2 
 PCOD9021842
Probable space group: P -1
;
_chemical_formula_sum "Si O2"
_cell_formula_units_Z 16
_cell_length_a 9.550552
_cell_length_b 18.568632
_cell_length_c 12.236376
_cell_angle_alpha 41.066703
_cell_angle_beta 38.822200
_cell_angle_gamma 33.670194
_cell_volume 718.596761
_symmetry_space_group_name_H-M "P -1"
_symmetry_group_IT_number 2
_symmetry_cell_setting 'triclinic'
loop_
_space_group_symop_operation_xyz
x,y,z
-x,-y,-z
loop_
_atom_site_type_symbol
_atom_site_label
_atom_site_fract_x
_atom_site_fract_y
_atom_site_fract_z
Si Si1 0.150296 0.164727 0.796923
Si Si2 0.328396 0.964539 0.715458
Si Si3 0.113322 0.738640 0.819351
Si Si4 0.525249 0.307515 0.968784
Si Si5 0.843399 0.492884 0.858695
Si Si6 0.699636 0.635091 0.563293
Si Si7 0.852129 0.991600 0.830749
Si Si8 0.628137 0.723088 0.135135
O O1 0.294394 0.238142 0.607732
O O2 0.220213 0.058801 0.779948
O O3 0.234664 0.083553 0.951471
O O4 0.817865 0.274190 0.864510
O O5 0.485725 0.811198 0.837768
O O6 0.081735 0.990848 0.760343
O O7 0.500000 0.000000 0.500000
O O8 0.407337 0.670306 0.658829
O O9 0.997041 0.889259 0.758272
O O10 0.848436 0.749043 0.921732
O O11 0.184133 0.630680 0.998493
O O12 0.283567 0.445174 0.016534
O O13 0.503610 0.300845 0.859584
O O14 0.702480 0.607562 0.722546
O O15 0.174567 0.411801 0.757947
O O16 0.000000 0.500000 0.500000
O O17 0.592805 0.148609 0.803422
#
# Coordination Sequence:
#
# PCOD9021842 Si02
#       8
#     2   2   2   2   2   2   2   2
#     4  11  21  35  67  85 117 158 205 254 298 343
#     4  11  21  35  63  91 117 156 203 258 300 340
#     4  10  23  38  64  89 117 164 204 248 303 353
#     4  11  19  42  62  91 121 157 207 249 302 360
#     4  10  23  38  64  89 117 164 204 248 303 353
#     4  12  23  42  61  93 124 155 209 253 300 358
#     4  11  19  42  62  91 121 157 207 249 302 360
#     4  10  22  38  66  86 124 164 200 240 310 366
#
# _framework density 22.265616999999999
#
# number of rings (size 3 to 8) (size 9 to 14) (size 15 to 20)
#    0.750    0.500    2.500    6.375    0.000    0.000 
#    0.000    2.500    0.000    0.000    0.000    0.000 
#    0.000    0.000    0.000    0.000    0.000    0.000 
#
# Total GULP energy -89314.121020 kJ/mol
# GULP energy per Si atom -5582.132564 kJ/mol
# Density = 2.221494 g / cm^3
# Si number density = 22.265617 Si / 1000 Ang^3
#
#
#
# Elastic Constant Matrix: (Units=GPa)
#
#
# Indices 1 2 3 4 5 6 
#
# 1 39.2413 -1.3582 -6.5537 2.4329 -3.9624 4.0829
# 2 -1.3582 102.8257 -2.8630 19.8030 -4.1842 3.6520
# 3 -6.5537 -2.8630 59.6934 -10.3218 -7.6429 -1.8399
# 4 2.4329 19.8030 -10.3218 34.2863 4.3327 2.8246
# 5 -3.9624 -4.1842 -7.6429 4.3327 14.6322 -1.9411
# 6 4.0829 3.6520 -1.8399 2.8246 -1.9411 30.6878
#
#
#
# Elastic Compliance Matrix: (Units=1/GPa)
#
#
# Indices 1 2 3 4 5 6 
#
# 1 0.027693 0.001529 0.003885 -0.002772 0.010426 -0.002719
# 2 0.001529 0.011424 0.000182 -0.007355 0.005887 -0.000503
# 3 0.003885 0.000182 0.019203 0.004058 0.010049 0.000875
# 4 -0.002772 -0.007355 0.004058 0.036554 -0.011907 -0.002630
# 5 0.010426 0.005887 0.010049 -0.011907 0.082263 0.004814
# 6 -0.002719 -0.000503 0.000875 -0.002630 0.004814 0.033607
#
#
# Mechanical properties :
#
#
# Convention : Reuss Voigt Hill
#
# Bulk Modulus (GPa) = 14.38590 20.02340 17.20465
# Shear Modulus (GPa) = 22.44961 30.09027 26.26994
#
# Velocity S-wave (km/s) = 3.17876 3.68016 3.43861
# Velocity P-wave (km/s) = 4.46629 5.20294 4.84863
#
# Compressibility (1/GPa) = 0.06951252
#
# Stress axis : x y z
#
# Youngs Moduli (GPa) = 36.11068 87.53298 52.07549
#
# Poissons Ratio (x) = -0.13380 -0.20234
# Poissons Ratio (y) = -0.05520 -0.00949
# Poissons Ratio (z) = -0.14031 -0.01596
#
# Static dielectric constant tensor:
#      x y z
#    x 1.841620 -0.013790 0.009010 
#    y -0.013790 1.884350 0.048680 
#    z 0.009010 0.048680 1.830120 
# 
# From -- ./inp_files/523920.got.cif
#   From: 2010.05.17/outbox.cif.g08.bks.cpg/sg2_262_cif.got.tgz:523920.got - 2010.06.03 11:33:40.
