data_PCOD9021164
_publ_section_title
;
Structure prediction by ZEFSAII (Michael W. Deem and Ramdas Pophale) SiO2 
 PCOD9021164
Probable space group: P -1
;
_chemical_formula_sum "Si O2"
_cell_formula_units_Z 16
_cell_length_a 13.567816
_cell_length_b 8.695995
_cell_length_c 9.507483
_cell_angle_alpha 88.915683
_cell_angle_beta 116.051131
_cell_angle_gamma 123.108095
_cell_volume 806.949455
_symmetry_space_group_name_H-M "P -1"
_symmetry_group_IT_number 2
_symmetry_cell_setting 'triclinic'
loop_
_space_group_symop_operation_xyz
x,y,z
-x,-y,-z
loop_
_atom_site_type_symbol
_atom_site_label
_atom_site_fract_x
_atom_site_fract_y
_atom_site_fract_z
Si Si1 0.153551 0.312962 0.246106
Si Si2 0.168891 0.690624 0.752976
Si Si3 0.160382 0.598006 0.436141
Si Si4 0.710338 0.379339 0.904371
Si Si5 0.593797 0.696179 0.636936
Si Si6 0.596590 0.590543 0.927339
Si Si7 0.165478 0.980732 0.925238
Si Si8 0.294793 0.907655 0.272997
O O1 0.195667 0.456932 0.401915
O O2 0.171916 0.443689 0.122107
O O3 0.256022 0.257390 0.286311
O O4 0.997123 0.130000 0.167845
O O5 0.213061 0.683750 0.623261
O O6 0.198065 0.888466 0.821215
O O7 0.004601 0.535848 0.659974
O O8 0.233200 0.636285 0.913361
O O9 0.209443 0.761202 0.347968
O O10 0.609181 0.432620 0.872279
O O11 0.648048 0.187540 0.778888
O O12 0.500000 0.500000 0.500000
O O13 0.543450 0.652292 0.767221
O O14 0.602815 0.881580 0.600688
O O15 0.500000 0.500000 0.000000
O O16 0.745652 0.791133 0.045944
O O17 0.209394 0.931051 0.099302
#
# Coordination Sequence:
#
# PCOD9021164 Si02
#       8
#     2   2   2   2   2   2   2   2
#     4   9  18  34  56  80 106 139 179 219 260 310
#     4   9  17  30  50  80 112 138 170 216 267 314
#     4   9  17  30  50  80 112 138 170 216 267 314
#     4   9  18  34  55  78 102 137 179 218 260 309
#     4  10  22  38  55  78 109 141 176 218 265 315
#     4  10  22  38  55  78 109 141 176 218 265 315
#     4   9  18  34  56  80 106 139 179 219 260 310
#     4   9  18  34  55  78 102 137 179 218 260 309
#
# _framework density 19.827762
#
# number of rings (size 3 to 8) (size 9 to 14) (size 15 to 20)
#    0.000    2.750    0.000    0.750    0.000   10.500 
#    0.000   12.500    0.000    5.250    0.000    0.000 
#    0.000    0.000    0.000    0.000    0.000    0.000 
#
# Total GULP energy -89170.808580 kJ/mol
# GULP energy per Si atom -5573.175536 kJ/mol
# Density = 1.978263 g / cm^3
# Si number density = 19.827762 Si / 1000 Ang^3
#
#
#
# Elastic Constant Matrix: (Units=GPa)
#
#
# Indices 1 2 3 4 5 6 
#
# 1 66.2363 51.7242 28.2084 -1.6877 -28.0076 -1.4676
# 2 51.7242 119.4270 36.2874 20.0398 -22.9140 -8.9760
# 3 28.2084 36.2874 87.3424 5.7110 -31.5825 1.4622
# 4 -1.6877 20.0398 5.7110 29.3076 0.7728 -6.6673
# 5 -28.0076 -22.9140 -31.5825 0.7728 34.2430 -1.2246
# 6 -1.4676 -8.9760 1.4622 -6.6673 -1.2246 26.0281
#
#
#
# Elastic Compliance Matrix: (Units=1/GPa)
#
#
# Indices 1 2 3 4 5 6 
#
# 1 0.032732 -0.012348 0.000780 0.009895 0.019041 0.000974
# 2 -0.012348 0.016226 -0.002544 -0.010771 -0.001265 0.002224
# 3 0.000780 -0.002544 0.018101 -0.002558 0.015625 -0.001770
# 4 0.009895 -0.010771 -0.002558 0.044496 -0.002181 0.008282
# 5 0.019041 -0.001265 0.015625 -0.002181 0.058460 0.001951
# 6 0.000974 0.002224 -0.001770 0.008282 0.001951 0.041555
#
#
# Mechanical properties :
#
#
# Convention : Reuss Voigt Hill
#
# Bulk Modulus (GPa) = 25.74871 56.16062 40.95467
# Shear Modulus (GPa) = 19.78344 28.36814 24.07579
#
# Velocity S-wave (km/s) = 3.16217 3.78660 3.48838
# Velocity P-wave (km/s) = 5.13291 6.89228 6.07661
#
# Compressibility (1/GPa) = 0.03883689
#
# Stress axis : x y z
#
# Youngs Moduli (GPa) = 30.55080 61.63052 55.24626
#
# Poissons Ratio (x) = 0.76098 -0.04311
# Poissons Ratio (y) = 0.37723 0.14053
# Poissons Ratio (z) = -0.02384 0.15677
#
# Static dielectric constant tensor:
#      x y z
#    x 1.699920 -0.015580 -0.003210 
#    y -0.015580 1.708620 0.025590 
#    z -0.003210 0.025590 1.752090 
# 
# From -- ./inp_files/199571.got.cif
#   From: 2010.05.17/outbox.cif.g08.bks.cpg/sg2_100_cif.got.tgz:199571.got - 2010.06.03 11:33:40.
