data_PCOD9021129
_publ_section_title
;
Structure prediction by ZEFSAII (Michael W. Deem and Ramdas Pophale) SiO2 
 PCOD9021129
Probable space group: P -1
;
_chemical_formula_sum "Si O2"
_cell_formula_units_Z 14
_cell_length_a 15.406253
_cell_length_b 5.291690
_cell_length_c 18.492200
_cell_angle_alpha 58.908784
_cell_angle_beta 153.948319
_cell_angle_gamma 112.792307
_cell_volume 555.120851
_symmetry_space_group_name_H-M "P -1"
_symmetry_group_IT_number 2
_symmetry_cell_setting 'triclinic'
loop_
_space_group_symop_operation_xyz
x,y,z
-x,-y,-z
loop_
_atom_site_type_symbol
_atom_site_label
_atom_site_fract_x
_atom_site_fract_y
_atom_site_fract_z
Si Si1 0.260455 0.507979 0.823600
Si Si2 0.866036 0.613470 0.101010
Si Si3 0.276754 0.403191 0.153145
Si Si4 0.157760 0.025770 0.404764
Si Si5 0.299935 0.120970 0.783848
Si Si6 0.864607 0.912514 0.776993
Si Si7 0.665754 0.650191 0.382147
O O1 0.224907 0.329963 0.895775
O O2 0.191999 0.389836 0.714644
O O3 0.173165 0.862009 0.716570
O O4 0.500000 0.500000 0.000000
O O5 0.939947 0.251174 0.205561
O O6 0.720721 0.716031 0.909734
O O7 0.054929 0.775654 0.206761
O O8 0.260243 0.155594 0.237526
O O9 0.466743 0.557266 0.278663
O O10 0.070445 0.655371 0.968617
O O11 0.244445 0.097936 0.380116
O O12 0.259046 0.137226 0.534376
O O13 0.179393 0.668083 0.470000
O O14 0.366498 0.207415 0.742302
O O15 0.500000 0.000000 0.000000
#
# Coordination Sequence:
#
# PCOD9021129 Si02
#       7
#     2   2   2   2   2   2   2
#     4  10  22  37  68  99 126 168 224 277 338 391
#     4  11  23  45  73  96 148 178 228 284 349 398
#     4  10  24  40  74 106 133 181 237 287 332 404
#     4  11  26  46  68  99 146 188 220 274 354 413
#     4  10  22  40  64 100 130 163 226 283 332 390
#     4  10  23  46  68 105 139 184 227 281 349 408
#     4  12  25  46  71 102 140 179 233 283 337 409
#
# _framework density 25.219733000000002
#
# number of rings (size 3 to 8) (size 9 to 14) (size 15 to 20)
#    0.000    1.429    1.429    3.000   10.000    1.143 
#    0.000    4.286    0.000    0.000    0.000    0.000 
#    0.000    0.000    0.000    0.000    0.000    0.000 
#
# Total GULP energy -78307.801538 kJ/mol
# GULP energy per Si atom -5593.414396 kJ/mol
# Density = 2.516233 g / cm^3
# Si number density = 25.219733 Si / 1000 Ang^3
#
#
#
# Elastic Constant Matrix: (Units=GPa)
#
#
# Indices 1 2 3 4 5 6 
#
# 1 107.1560 40.2520 53.1382 1.3316 -13.1554 15.3073
# 2 40.2520 107.1606 11.7301 -8.0331 -6.0462 -27.2939
# 3 53.1382 11.7301 76.3310 -0.7575 -20.7787 -1.3998
# 4 1.3316 -8.0331 -0.7575 36.1852 3.3696 -7.0065
# 5 -13.1554 -6.0462 -20.7787 3.3696 35.8058 6.2187
# 6 15.3073 -27.2939 -1.3998 -7.0065 6.2187 60.4598
#
#
#
# Elastic Compliance Matrix: (Units=1/GPa)
#
#
# Indices 1 2 3 4 5 6 
#
# 1 0.021270 -0.009618 -0.013359 -0.005352 0.000807 -0.010740
# 2 -0.009618 0.015494 0.004363 0.005947 -0.000733 0.010295
# 3 -0.013359 0.004363 0.024238 0.002169 0.008776 0.005262
# 4 -0.005352 0.005947 0.002169 0.031146 -0.004044 0.008115
# 5 0.000807 -0.000733 0.008776 -0.004044 0.034327 -0.004332
# 6 -0.010740 0.010295 0.005262 0.008115 -0.004332 0.025414
#
#
# Mechanical properties :
#
#
# Convention : Reuss Voigt Hill
#
# Bulk Modulus (GPa) = 42.06692 55.65426 48.86059
# Shear Modulus (GPa) = 25.37538 38.85863 32.11701
#
# Velocity S-wave (km/s) = 3.17546 3.92956 3.57247
# Velocity P-wave (km/s) = 5.49191 6.53485 6.03595
#
# Compressibility (1/GPa) = 0.02377165
#
# Stress axis : x y z
#
# Youngs Moduli (GPa) = 47.01499 64.54279 41.25829
#
# Poissons Ratio (x) = 0.62078 0.55119
# Poissons Ratio (y) = 0.45220 -0.18001
# Poissons Ratio (z) = 0.62809 -0.28160
#
# Static dielectric constant tensor:
#      x y z
#    x 2.468240 -0.410800 0.406590 
#    y -0.410800 2.340930 -0.368970 
#    z 0.406590 -0.368970 2.387730 
# 
# From -- ./inp_files/91117.got.cif
#   From: 2010.05.17/outbox.cif.g08.bks.cpg/sg2_46_cif.got.tgz:91117.got - 2010.06.03 11:33:40.
