data_PCOD9021435
_publ_section_title
;
Structure prediction by ZEFSAII (Michael W. Deem and Ramdas Pophale) SiO2 
 PCOD9021435
Probable space group: P -1
;
_chemical_formula_sum "Si O2"
_cell_formula_units_Z 14
_cell_length_a 5.323068
_cell_length_b 14.276990
_cell_length_c 9.912437
_cell_angle_alpha 90.565806
_cell_angle_beta 119.714592
_cell_angle_gamma 98.167604
_cell_volume 644.794459
_symmetry_space_group_name_H-M "P -1"
_symmetry_group_IT_number 2
_symmetry_cell_setting 'triclinic'
loop_
_space_group_symop_operation_xyz
x,y,z
-x,-y,-z
loop_
_atom_site_type_symbol
_atom_site_label
_atom_site_fract_x
_atom_site_fract_y
_atom_site_fract_z
Si Si1 0.689761 0.725533 0.108720
Si Si2 0.666983 0.489017 0.365562
Si Si3 0.355683 0.806262 0.263056
Si Si4 0.117872 0.743544 0.840923
Si Si5 0.370931 0.326743 0.489088
Si Si6 0.746859 0.058295 0.971906
Si Si7 0.199180 0.419745 0.042367
O O1 0.505220 0.746514 0.189187
O O2 0.004632 0.791082 0.187708
O O3 0.464475 0.739603 0.928786
O O4 0.778823 0.624075 0.099893
O O5 0.517419 0.399260 0.414335
O O6 0.604292 0.594319 0.384857
O O7 0.524105 0.458691 0.184077
O O8 0.000000 0.500000 0.500000
O O9 0.477763 0.762610 0.429233
O O10 0.408395 0.908632 0.204779
O O11 0.110774 0.846542 0.905940
O O12 0.949553 0.717449 0.655456
O O13 0.963866 0.664310 0.905081
O O14 0.500000 0.000000 0.000000
O O15 0.000000 0.000000 0.000000
O O16 0.000000 0.500000 0.000000
#
# Coordination Sequence:
#
# PCOD9021435 Si02
#       7
#     2   2   2   2   2   2   2
#     4  11  21  42  63  96 131 175 224 265 326 383
#     4  10  22  38  61  92 136 182 221 264 316 392
#     4  11  24  42  70  97 130 174 219 278 337 394
#     4  10  23  43  68  95 135 174 217 275 338 393
#     4  10  23  43  60  97 136 181 217 265 334 394
#     4  11  23  44  72  99 126 166 225 282 341 395
#     4  11  22  38  65  97 133 175 228 271 315 390
#
# _framework density 21.712346
#
# number of rings (size 3 to 8) (size 9 to 14) (size 15 to 20)
#    0.000    1.429    2.857    3.429    2.000    0.571 
#    0.000    1.429    0.000    0.000    0.000    0.000 
#    0.000    0.000    0.000    0.000    0.000    0.000 
#
# Total GULP energy -77979.151916 kJ/mol
# GULP energy per Si atom -5569.939423 kJ/mol
# Density = 2.166293 g / cm^3
# Si number density = 21.712346 Si / 1000 Ang^3
#
#
#
# Elastic Constant Matrix: (Units=GPa)
#
#
# Indices 1 2 3 4 5 6 
#
# 1 96.3608 36.9389 17.9293 -3.9146 24.9493 -7.5092
# 2 36.9389 144.4241 28.3437 -23.4528 4.7021 0.3363
# 3 17.9293 28.3437 38.0755 -8.5243 23.6277 19.3917
# 4 -3.9146 -23.4528 -8.5243 39.4412 -6.2398 0.6805
# 5 24.9493 4.7021 23.6277 -6.2398 32.3020 6.8344
# 6 -7.5092 0.3363 19.3917 0.6805 6.8344 39.8894
#
#
#
# Elastic Compliance Matrix: (Units=1/GPa)
#
#
# Indices 1 2 3 4 5 6 
#
# 1 0.015680 -0.004376 0.001673 -0.003022 -0.014270 0.004672
# 2 -0.004376 0.011565 -0.016078 0.005022 0.013475 0.004501
# 3 0.001673 -0.016078 0.091203 0.001703 -0.058151 -0.033953
# 4 -0.003022 0.005022 0.001703 0.029524 0.006715 -0.003093
# 5 -0.014270 0.013475 -0.058151 0.006715 0.081438 0.011402
# 6 0.004672 0.004501 -0.033953 -0.003093 0.011402 0.040516
#
#
# Mechanical properties :
#
#
# Convention : Reuss Voigt Hill
#
# Bulk Modulus (GPa) = 12.36300 49.47602 30.91951
# Shear Modulus (GPa) = 14.94996 35.36975 25.15986
#
# Velocity S-wave (km/s) = 2.62686 4.04049 3.40778
# Velocity P-wave (km/s) = 3.86095 6.67861 5.45485
#
# Compressibility (1/GPa) = 0.08088652
#
# Stress axis : x y z
#
# Youngs Moduli (GPa) = 63.77669 86.46854 10.96454
#
# Poissons Ratio (x) = 0.37837 -0.01835
# Poissons Ratio (y) = 0.27907 0.17629
# Poissons Ratio (z) = -0.10671 1.39024
#
# Static dielectric constant tensor:
#      x y z
#    x 2.484580 -0.621060 1.166770 
#    y -0.621060 2.434210 -1.177160 
#    z 1.166770 -1.177160 4.123000 
# 
# From -- ./inp_files/366275.got.cif
#   From: 2010.05.17/outbox.cif.g08.bks.cpg/sg2_184_cif.got.tgz:366275.got - 2010.06.03 11:33:40.
