data_PCOD9021221
_publ_section_title
;
Structure prediction by ZEFSAII (Michael W. Deem and Ramdas Pophale) SiO2 
 PCOD9021221
Probable space group: P -1
;
_chemical_formula_sum "Si O2"
_cell_formula_units_Z 14
_cell_length_a 11.394035
_cell_length_b 14.445659
_cell_length_c 8.278465
_cell_angle_alpha 91.306957
_cell_angle_beta 86.098155
_cell_angle_gamma 28.861138
_cell_volume 646.503211
_symmetry_space_group_name_H-M "P -1"
_symmetry_group_IT_number 2
_symmetry_cell_setting 'triclinic'
loop_
_space_group_symop_operation_xyz
x,y,z
-x,-y,-z
loop_
_atom_site_type_symbol
_atom_site_label
_atom_site_fract_x
_atom_site_fract_y
_atom_site_fract_z
Si Si1 0.950551 0.493039 0.178904
Si Si2 0.570925 0.094428 0.631698
Si Si3 0.647124 0.692919 0.658423
Si Si4 0.373802 0.716102 0.857263
Si Si5 0.289294 0.641789 0.390784
Si Si6 0.992699 0.322504 0.399082
Si Si7 0.164055 0.911072 0.232547
O O1 0.196223 0.346240 0.250630
O O2 0.908090 0.413896 0.230261
O O3 0.707862 0.714448 0.269997
O O4 0.000000 0.500000 0.000000
O O5 0.540130 0.135529 0.446705
O O6 0.704663 0.088359 0.708926
O O7 0.717931 0.898654 0.640032
O O8 0.495348 0.726557 0.782030
O O9 0.858504 0.491954 0.528579
O O10 0.577890 0.498291 0.781309
O O11 0.304241 0.778615 0.052490
O O12 0.118278 0.875200 0.789029
O O13 0.500000 0.500000 0.500000
O O14 0.183712 0.813748 0.355293
O O15 0.097651 0.707647 0.501781
#
# Coordination Sequence:
#
# PCOD9021221 Si02
#       7
#     2   2   2   2   2   2   2
#     4  11  24  42  62  86 119 154 192 245 300 347
#     4  11  22  39  63  88 117 154 199 242 286 349
#     4  10  22  40  61  86 117 154 198 244 288 343
#     4  10  22  38  58  88 121 155 196 240 291 347
#     4  11  21  36  60  87 119 157 197 239 287 347
#     4  10  22  38  60  89 114 153 200 240 290 345
#     4  11  22  38  60  88 123 158 192 239 294 344
#
# _framework density 21.654957
#
# number of rings (size 3 to 8) (size 9 to 14) (size 15 to 20)
#    0.000    1.429    0.000    7.286    0.000    4.571 
#    0.000    7.143    0.000    0.000    0.000    0.000 
#    0.000    0.000    0.000    0.000    0.000    0.000 
#
# Total GULP energy -78136.637973 kJ/mol
# GULP energy per Si atom -5581.188427 kJ/mol
# Density = 2.160567 g / cm^3
# Si number density = 21.654957 Si / 1000 Ang^3
#
#
#
# Elastic Constant Matrix: (Units=GPa)
#
#
# Indices 1 2 3 4 5 6 
#
# 1 74.8980 22.8210 36.5691 -14.9162 -1.6446 -12.5855
# 2 22.8210 126.4632 47.2376 -13.2298 -6.3870 10.4607
# 3 36.5691 47.2376 107.8401 -15.5356 -20.8279 14.4828
# 4 -14.9162 -13.2298 -15.5356 34.9174 -2.4900 -5.4737
# 5 -1.6446 -6.3870 -20.8279 -2.4900 33.2314 -6.2339
# 6 -12.5855 10.4607 14.4828 -5.4737 -6.2339 34.4651
#
#
#
# Elastic Compliance Matrix: (Units=1/GPa)
#
#
# Indices 1 2 3 4 5 6 
#
# 1 0.020622 -0.001344 -0.007202 0.006886 -0.001008 0.011876
# 2 -0.001344 0.009705 -0.003494 0.001204 -0.000656 -0.001896
# 3 -0.007202 -0.003494 0.015975 0.002256 0.007936 -0.006489
# 4 0.006886 0.001204 0.002256 0.034696 0.006050 0.007806
# 5 -0.001008 -0.000656 0.007936 0.006050 0.036091 0.003985
# 6 0.011876 -0.001896 -0.006489 0.007806 0.003985 0.038614
#
#
# Mechanical properties :
#
#
# Convention : Reuss Voigt Hill
#
# Bulk Modulus (GPa) = 45.00095 58.05073 51.52584
# Shear Modulus (GPa) = 26.71090 34.02771 30.36930
#
# Velocity S-wave (km/s) = 3.51590 3.96834 3.74895
# Velocity P-wave (km/s) = 6.10803 6.91826 6.52573
#
# Compressibility (1/GPa) = 0.02222175
#
# Stress axis : x y z
#
# Youngs Moduli (GPa) = 48.49135 103.04288 62.59851
#
# Poissons Ratio (x) = 0.13851 0.45083
# Poissons Ratio (y) = 0.06518 0.21871
# Poissons Ratio (z) = 0.34923 0.36002
#
# Static dielectric constant tensor:
#      x y z
#    x 1.762350 0.054710 0.036070 
#    y 0.054710 1.734060 -0.036810 
#    z 0.036070 -0.036810 1.798450 
# 
# From -- ./inp_files/258120.got.cif
#   From: 2010.05.17/outbox.cif.g08.bks.cpg/sg2_130_cif.got.tgz:258120.got - 2010.06.03 11:33:40.
