data_PCOD9021582
_publ_section_title
;
Structure prediction by ZEFSAII (Michael W. Deem and Ramdas Pophale) SiO2 
 PCOD9021582
Probable space group: P -1
;
_chemical_formula_sum "Si O2"
_cell_formula_units_Z 14
_cell_length_a 8.052205
_cell_length_b 20.115152
_cell_length_c 5.055403
_cell_angle_alpha 58.639779
_cell_angle_beta 126.838253
_cell_angle_gamma 119.838177
_cell_volume 538.583036
_symmetry_space_group_name_H-M "P -1"
_symmetry_group_IT_number 2
_symmetry_cell_setting 'triclinic'
loop_
_space_group_symop_operation_xyz
x,y,z
-x,-y,-z
loop_
_atom_site_type_symbol
_atom_site_label
_atom_site_fract_x
_atom_site_fract_y
_atom_site_fract_z
Si Si1 0.268040 0.507140 0.676890
Si Si2 0.323717 0.668418 0.664673
Si Si3 0.923342 0.595688 0.799841
Si Si4 0.714472 0.041164 0.287104
Si Si5 0.141401 0.101399 0.221958
Si Si6 0.550722 0.183631 0.814174
Si Si7 0.713769 0.735290 0.236677
O O1 0.293858 0.601758 0.547714
O O2 0.211441 0.465620 0.424702
O O3 0.500000 0.500000 0.000000
O O4 0.110215 0.456063 0.857716
O O5 0.288194 0.752977 0.355066
O O6 0.154971 0.630396 0.811312
O O7 0.572043 0.690058 0.949584
O O8 0.831248 0.673067 0.596375
O O9 0.917110 0.070429 0.223507
O O10 0.782730 0.974312 0.671074
O O11 0.659322 0.120278 0.185459
O O12 0.500000 0.000000 0.000000
O O13 0.337770 0.137634 0.540065
O O14 0.135147 0.176486 0.877561
O O15 0.465959 0.239902 0.813913
#
# Coordination Sequence:
#
# PCOD9021582 Si02
#       7
#     2   2   2   2   2   2   2
#     4  12  25  46  69  95 134 177 226 280 333 392
#     4  11  25  42  65  94 130 169 223 269 333 393
#     4  12  27  43  69  97 133 179 223 280 333 393
#     4   9  18  39  65  88 127 167 212 267 324 394
#     4   9  20  39  61  92 125 168 212 266 327 393
#     4  10  22  38  63  91 128 169 211 271 324 395
#     4  11  24  40  63  94 131 170 217 273 331 394
#
# _framework density 25.994135
#
# number of rings (size 3 to 8) (size 9 to 14) (size 15 to 20)
#    0.000    1.429    1.429    3.000    6.000    1.714 
#    0.000    6.429    0.000    0.000    0.000    0.000 
#    0.000    0.000    0.000    0.000    0.000    0.000 
#
# Total GULP energy -78391.796841 kJ/mol
# GULP energy per Si atom -5599.414060 kJ/mol
# Density = 2.593497 g / cm^3
# Si number density = 25.994135 Si / 1000 Ang^3
#
#
#
# Elastic Constant Matrix: (Units=GPa)
#
#
# Indices 1 2 3 4 5 6 
#
# 1 93.3597 53.8333 24.5675 -18.9980 1.5695 7.5848
# 2 53.8333 131.8321 78.4971 -50.0252 2.8248 6.8216
# 3 24.5675 78.4971 87.2353 -14.6151 -0.6668 -7.0334
# 4 -18.9980 -50.0252 -14.6151 45.9387 -8.9863 11.5327
# 5 1.5695 2.8248 -0.6668 -8.9863 37.4478 -3.6461
# 6 7.5848 6.8216 -7.0334 11.5327 -3.6461 51.8674
#
#
#
# Elastic Compliance Matrix: (Units=1/GPa)
#
#
# Indices 1 2 3 4 5 6 
#
# 1 0.014479 -0.009637 0.004047 -0.003441 -0.000592 0.000423
# 2 -0.009637 0.057123 -0.041821 0.051744 0.005539 -0.022891
# 3 0.004047 -0.041821 0.043520 -0.035217 -0.002896 0.018437
# 4 -0.003441 0.051744 -0.035217 0.074348 0.010841 -0.026847
# 5 -0.000592 0.005539 -0.002896 0.010841 0.028722 -0.001426
# 6 0.000423 -0.022891 0.018437 -0.026847 -0.001426 0.030598
#
#
# Mechanical properties :
#
#
# Convention : Reuss Voigt Hill
#
# Bulk Modulus (GPa) = 49.26326 69.58035 59.42180
# Shear Modulus (GPa) = 14.27028 37.41937 25.84483
#
# Velocity S-wave (km/s) = 2.34558 3.79823 3.15660
# Velocity P-wave (km/s) = 5.13113 6.78684 6.01622
#
# Compressibility (1/GPa) = 0.02029910
#
# Stress axis : x y z
#
# Youngs Moduli (GPa) = 69.06746 17.50604 22.97805
#
# Poissons Ratio (x) = 0.16871 -0.09300
# Poissons Ratio (y) = 0.66561 0.96097
# Poissons Ratio (z) = -0.27954 0.73213
#
# Static dielectric constant tensor:
#      x y z
#    x 2.076690 -0.016880 0.006650 
#    y -0.016880 2.064750 -0.019440 
#    z 0.006650 -0.019440 2.111980 
# 
# From -- ./inp_files/46905.got.cif
#   From: 2010.05.17/outbox.cif.g08.bks.cpg/sg2_24_cif.got.tgz:46905.got - 2010.06.03 11:33:40.
