data_PCOD9021314
_publ_section_title
;
Structure prediction by ZEFSAII (Michael W. Deem and Ramdas Pophale) SiO2 
 PCOD9021314
Probable space group: P -1
;
_chemical_formula_sum "Si O2"
_cell_formula_units_Z 14
_cell_length_a 9.014337
_cell_length_b 11.186517
_cell_length_c 12.180393
_cell_angle_alpha 133.409156
_cell_angle_beta 77.467667
_cell_angle_gamma 128.780177
_cell_volume 644.298366
_symmetry_space_group_name_H-M "P -1"
_symmetry_group_IT_number 2
_symmetry_cell_setting 'triclinic'
loop_
_space_group_symop_operation_xyz
x,y,z
-x,-y,-z
loop_
_atom_site_type_symbol
_atom_site_label
_atom_site_fract_x
_atom_site_fract_y
_atom_site_fract_z
Si Si1 0.255825 0.828199 0.539111
Si Si2 0.991657 0.125108 0.225240
Si Si3 0.897784 0.138515 0.865590
Si Si4 0.455030 0.797923 0.818299
Si Si5 0.685841 0.991321 0.595473
Si Si6 0.524642 0.502424 0.628862
Si Si7 0.952691 0.343832 0.204876
O O1 0.485971 0.962517 0.631727
O O2 0.114650 0.824605 0.643581
O O3 0.154890 0.580354 0.365662
O O4 0.262238 0.933516 0.491231
O O5 0.231666 0.329615 0.293648
O O6 0.903777 0.124622 0.121737
O O7 0.979300 0.934964 0.161152
O O8 0.654234 0.928461 0.792792
O O9 0.880138 0.159888 0.752263
O O10 0.957265 0.324073 0.059919
O O11 0.449143 0.619174 0.767267
O O12 0.228019 0.668212 0.729926
O O13 0.500000 0.000000 0.000000
O O14 0.603545 0.745033 0.464710
O O15 0.500000 0.500000 0.500000
#
# Coordination Sequence:
#
# PCOD9021314 Si02
#       7
#     2   2   2   2   2   2   2
#     4  11  25  38  63  87 119 161 200 248 291 349
#     4  11  21  36  64  92 114 149 206 252 287 348
#     4  10  22  38  60  88 125 154 192 248 305 347
#     4   9  19  34  56  90 116 148 189 240 298 340
#     4  11  23  42  59  85 126 159 198 239 304 355
#     4  11  19  36  63  85 116 154 199 245 291 347
#     4  11  21  37  61  93 116 155 202 246 293 350
#
# _framework density 21.729064000000001
#
# number of rings (size 3 to 8) (size 9 to 14) (size 15 to 20)
#    0.000    1.429    4.286    2.571    0.000    1.143 
#    0.000    0.000    0.000    1.714    0.000    0.000 
#    0.000    0.000    0.000    0.000    0.000    0.000 
#
# Total GULP energy -77992.244862 kJ/mol
# GULP energy per Si atom -5570.874633 kJ/mol
# Density = 2.167961 g / cm^3
# Si number density = 21.729064 Si / 1000 Ang^3
#
#
#
# Elastic Constant Matrix: (Units=GPa)
#
#
# Indices 1 2 3 4 5 6 
#
# 1 112.7671 33.7707 29.8201 -13.4091 -8.6414 -20.0684
# 2 33.7707 41.5349 4.9767 -7.8096 -6.5368 -22.2111
# 3 29.8201 4.9767 69.5643 -13.4945 -11.4371 -2.5017
# 4 -13.4091 -7.8096 -13.4945 14.5472 -5.2976 6.6534
# 5 -8.6414 -6.5368 -11.4371 -5.2976 29.0226 4.1111
# 6 -20.0684 -22.2111 -2.5017 6.6534 4.1111 30.5567
#
#
#
# Elastic Compliance Matrix: (Units=1/GPa)
#
#
# Indices 1 2 3 4 5 6 
#
# 1 0.013337 -0.009070 -0.004296 0.003219 0.000678 0.001022
# 2 -0.009070 0.048655 0.005873 0.015210 0.009770 0.025263
# 3 -0.004296 0.005873 0.023839 0.029263 0.015496 -0.005057
# 4 0.003219 0.015210 0.029263 0.131034 0.042481 -0.018681
# 5 0.000678 0.009770 0.015496 0.042481 0.051767 -0.007399
# 6 0.001022 0.025263 -0.005057 -0.018681 -0.007399 0.056410
#
#
# Mechanical properties :
#
#
# Convention : Reuss Voigt Hill
#
# Bulk Modulus (GPa) = 14.11552 40.11125 27.11338
# Shear Modulus (GPa) = 13.74979 25.17856 19.46418
#
# Velocity S-wave (km/s) = 2.51825 3.40774 2.99618
# Velocity P-wave (km/s) = 3.86855 5.82952 4.94717
#
# Compressibility (1/GPa) = 0.07084399
#
# Stress axis : x y z
#
# Youngs Moduli (GPa) = 74.98124 20.55301 41.94826
#
# Poissons Ratio (x) = 0.18643 0.18019
# Poissons Ratio (y) = 0.68011 -0.24636
# Poissons Ratio (z) = 0.32208 -0.12070
#
# Static dielectric constant tensor:
#      x y z
#    x 2.114140 -0.014330 0.062520 
#    y -0.014330 1.804920 -0.012670 
#    z 0.062520 -0.012670 1.836580 
# 
# From -- ./inp_files/278950.got.cif
#   From: 2010.05.17/outbox.cif.g08.bks.cpg/sg2_140_cif.got.tgz:278950.got - 2010.06.03 11:33:40.
