data_PCOD9021028
_publ_section_title
;
Structure prediction by ZEFSAII (Michael W. Deem and Ramdas Pophale) SiO2 
 PCOD9021028
Probable space group: P -1
;
_chemical_formula_sum "Si O2"
_cell_formula_units_Z 14
_cell_length_a 17.167804
_cell_length_b 27.137769
_cell_length_c 9.429779
_cell_angle_alpha 34.971100
_cell_angle_beta 34.713724
_cell_angle_gamma 16.576747
_cell_volume 700.155648
_symmetry_space_group_name_H-M "P -1"
_symmetry_group_IT_number 2
_symmetry_cell_setting 'triclinic'
loop_
_space_group_symop_operation_xyz
x,y,z
-x,-y,-z
loop_
_atom_site_type_symbol
_atom_site_label
_atom_site_fract_x
_atom_site_fract_y
_atom_site_fract_z
Si Si1 0.936497 0.953564 0.392695
Si Si2 0.704485 0.710289 0.933984
Si Si3 0.663649 0.489566 0.850638
Si Si4 0.551182 0.449131 0.379712
Si Si5 0.681578 0.152920 0.565094
Si Si6 0.212448 0.983408 0.847629
Si Si7 0.026561 0.263957 0.588001
O O1 0.212299 0.752844 0.503134
O O2 0.714860 0.073131 0.568113
O O3 0.836017 0.971350 0.351583
O O4 0.017581 0.009072 0.116143
O O5 0.531887 0.784782 0.873542
O O6 0.767342 0.777180 0.683358
O O7 0.496838 0.792702 0.172912
O O8 0.000000 0.500000 0.000000
O O9 0.488237 0.670093 0.648900
O O10 0.953905 0.327271 0.711000
O O11 0.500000 0.500000 0.000000
O O12 0.655304 0.471459 0.072463
O O13 0.500000 0.500000 0.500000
O O14 0.265176 0.571146 0.451222
O O15 0.000000 0.000000 0.500000
O O16 0.130617 0.110431 0.765592
#
# Coordination Sequence:
#
# PCOD9021028 Si02
#       7
#     2   2   2   2   2   2   2
#     4  11  23  41  66 102 130 171 228 278 331 391
#     4  12  25  45  68  97 136 178 224 275 342 403
#     4  10  22  37  64  96 132 166 223 273 323 386
#     4  11  22  39  68  98 137 172 222 272 334 396
#     4  12  23  42  69 100 130 178 230 275 326 400
#     4  11  24  41  68  95 136 173 222 278 337 395
#     4  11  22  44  64  99 133 176 222 279 333 398
#
# _framework density 19.995553000000001
#
# number of rings (size 3 to 8) (size 9 to 14) (size 15 to 20)
#    0.000    0.857    4.286    4.714    4.000    0.000 
#    0.000    2.857    0.000    0.000    0.000    0.000 
#    0.000    0.000    0.000    0.000    0.000    0.000 
#
# Total GULP energy -78219.018915 kJ/mol
# GULP energy per Si atom -5587.072780 kJ/mol
# Density = 1.995004 g / cm^3
# Si number density = 19.995553 Si / 1000 Ang^3
#
#
#
# Elastic Constant Matrix: (Units=GPa)
#
#
# Indices 1 2 3 4 5 6 
#
# 1 66.6833 37.5180 35.5984 7.5357 23.8260 4.4113
# 2 37.5180 113.6918 48.2790 0.9110 9.7862 7.6548
# 3 35.5984 48.2790 132.6561 9.5192 15.2999 11.2212
# 4 7.5357 0.9110 9.5192 37.2336 2.6266 -1.4956
# 5 23.8260 9.7862 15.2999 2.6266 32.8631 -3.1092
# 6 4.4113 7.6548 11.2212 -1.4956 -3.1092 37.1925
#
#
#
# Elastic Compliance Matrix: (Units=1/GPa)
#
#
# Indices 1 2 3 4 5 6 
#
# 1 0.025857 -0.005911 -0.002504 -0.003437 -0.015787 -0.002553
# 2 -0.005911 0.011890 -0.003026 0.001515 0.001975 -0.000607
# 3 -0.002504 -0.003026 0.009866 -0.001897 -0.001942 -0.002295
# 4 -0.003437 0.001515 -0.001897 0.028015 0.000861 0.001867
# 5 -0.015787 0.001975 -0.001942 0.000861 0.042657 0.005653
# 6 -0.002553 -0.000607 -0.002295 0.001867 0.005653 0.028555
#
#
# Mechanical properties :
#
#
# Convention : Reuss Voigt Hill
#
# Bulk Modulus (GPa) = 40.43652 61.75800 51.09726
# Shear Modulus (GPa) = 28.09527 34.23357 31.16442
#
# Velocity S-wave (km/s) = 3.75250 4.14219 3.95215
# Velocity P-wave (km/s) = 6.24833 7.33689 6.81438
#
# Compressibility (1/GPa) = 0.02473012
#
# Stress axis : x y z
#
# Youngs Moduli (GPa) = 38.67462 84.10334 101.35915
#
# Poissons Ratio (x) = 0.49713 0.25381
# Poissons Ratio (y) = 0.22861 0.30674
# Poissons Ratio (z) = 0.09684 0.25452
#
# Static dielectric constant tensor:
#      x y z
#    x 1.725900 0.015990 0.035960 
#    y 0.015990 1.764730 0.000950 
#    z 0.035960 0.000950 1.743820 
# 
# From -- ./inp_files/262127.got.cif
#   From: 2010.05.17/outbox.cif.g08.bks.cpg/sg2_132_cif.got.tgz:262127.got - 2010.06.03 11:33:40.
