data_PCOD9021508
_publ_section_title
;
Structure prediction by ZEFSAII (Michael W. Deem and Ramdas Pophale) SiO2 
 PCOD9021508
Probable space group: P -1
;
_chemical_formula_sum "Si O2"
_cell_formula_units_Z 16
_cell_length_a 11.767563
_cell_length_b 6.464622
_cell_length_c 11.581841
_cell_angle_alpha 81.335028
_cell_angle_beta 89.784734
_cell_angle_gamma 123.387468
_cell_volume 723.244033
_symmetry_space_group_name_H-M "P -1"
_symmetry_group_IT_number 2
_symmetry_cell_setting 'triclinic'
loop_
_space_group_symop_operation_xyz
x,y,z
-x,-y,-z
loop_
_atom_site_type_symbol
_atom_site_label
_atom_site_fract_x
_atom_site_fract_y
_atom_site_fract_z
Si Si1 0.850146 0.492034 0.136818
Si Si2 0.269752 0.638196 0.598316
Si Si3 0.470559 0.260131 0.303468
Si Si4 0.136711 0.839842 0.005960
Si Si5 0.884738 0.218345 0.560791
Si Si6 0.370902 0.420130 0.925942
Si Si7 0.757466 0.680561 0.594703
Si Si8 0.748462 0.250106 0.772229
O O1 0.820975 0.475129 0.275375
O O2 0.711801 0.445027 0.083822
O O3 0.988589 0.745400 0.068037
O O4 0.874734 0.282059 0.108275
O O5 0.426480 0.776441 0.622178
O O6 0.236704 0.819567 0.518021
O O7 0.244940 0.433672 0.519563
O O8 0.564294 0.513764 0.207283
O O9 0.369338 0.299406 0.374624
O O10 0.388766 0.020372 0.237006
O O11 0.201942 0.734342 0.100832
O O12 0.249069 0.134286 0.973630
O O13 0.855851 0.240806 0.691118
O O14 0.000000 0.500000 0.500000
O O15 0.885630 0.970610 0.574481
O O16 0.500000 0.500000 0.000000
O O17 0.751483 0.489537 0.705833
#
# Coordination Sequence:
#
# PCOD9021508 Si02
#       8
#     2   2   2   2   2   2   2   2
#     4  10  25  42  65  99 134 176 221 272 331 392
#     4  10  22  41  62  94 131 170 215 268 320 398
#     4  10  22  40  60  97 131 166 217 268 332 385
#     4  11  23  44  67  95 136 179 220 273 332 391
#     4  10  22  41  63  91 124 162 215 269 322 386
#     4  11  23  41  67  98 130 173 220 275 327 392
#     4  10  23  39  66  94 126 174 210 268 329 388
#     4  10  22  38  62  93 127 169 216 267 317 388
#
# _framework density 22.122544999999999
#
# number of rings (size 3 to 8) (size 9 to 14) (size 15 to 20)
#    0.000    1.750    1.250    1.500    1.750   12.000 
#    0.000    6.250    0.000    0.000    0.000    0.000 
#    0.000    0.000    0.000    0.000    0.000    0.000 
#
# Total GULP energy -89224.764751 kJ/mol
# GULP energy per Si atom -5576.547797 kJ/mol
# Density = 2.207219 g / cm^3
# Si number density = 22.122545 Si / 1000 Ang^3
#
#
#
# Elastic Constant Matrix: (Units=GPa)
#
#
# Indices 1 2 3 4 5 6 
#
# 1 107.3896 24.9119 38.9656 -5.0725 -14.0658 2.8384
# 2 24.9119 64.9435 18.8134 -15.2145 -10.4214 -0.1266
# 3 38.9656 18.8134 99.7031 -4.1069 -20.6621 -15.1448
# 4 -5.0725 -15.2145 -4.1069 13.4127 5.0234 -0.2651
# 5 -14.0658 -10.4214 -20.6621 5.0234 41.5182 -2.7298
# 6 2.8384 -0.1266 -15.1448 -0.2651 -2.7298 25.9702
#
#
#
# Elastic Compliance Matrix: (Units=1/GPa)
#
#
# Indices 1 2 3 4 5 6 
#
# 1 0.011875 -0.003400 -0.004455 -0.001119 0.000836 -0.003836
# 2 -0.003400 0.022976 -0.001914 0.023904 0.000750 -0.000309
# 3 -0.004455 -0.001914 0.014845 -0.001445 0.006216 0.009773
# 4 -0.001119 0.023904 -0.001445 0.103670 -0.007664 -0.000351
# 5 0.000836 0.000750 0.006216 -0.007664 0.029006 0.006508
# 6 -0.003836 -0.000309 0.009773 -0.000351 0.006508 0.045303
#
#
# Mechanical properties :
#
#
# Convention : Reuss Voigt Hill
#
# Bulk Modulus (GPa) = 33.15715 48.60201 40.87958
# Shear Modulus (GPa) = 19.43517 28.80324 24.11920
#
# Velocity S-wave (km/s) = 2.96720 3.61222 3.30548
# Velocity P-wave (km/s) = 5.17296 6.27811 5.75214
#
# Compressibility (1/GPa) = 0.03015940
#
# Stress axis : x y z
#
# Youngs Moduli (GPa) = 84.20988 43.52275 67.36249
#
# Poissons Ratio (x) = 0.14798 0.30010
# Poissons Ratio (y) = 0.28632 0.12890
# Poissons Ratio (z) = 0.37515 0.08328
#
# Static dielectric constant tensor:
#      x y z
#    x 1.891450 0.048990 0.001870 
#    y 0.048990 1.878850 -0.014090 
#    z 0.001870 -0.014090 1.834410 
# 
# From -- ./inp_files/123579.got.cif
#   From: 2010.05.17/outbox.cif.g08.bks.cpg/sg2_62_cif.got.tgz:123579.got - 2010.06.03 11:33:40.
