data_PCOD9021974
_publ_section_title
;
Structure prediction by ZEFSAII (Michael W. Deem and Ramdas Pophale) SiO2 
 PCOD9021974
Probable space group: P -1
;
_chemical_formula_sum "Si O2"
_cell_formula_units_Z 16
_cell_length_a 15.743264
_cell_length_b 9.266449
_cell_length_c 5.244716
_cell_angle_alpha 78.960498
_cell_angle_beta 101.806051
_cell_angle_gamma 71.077371
_cell_volume 680.440582
_symmetry_space_group_name_H-M "P -1"
_symmetry_group_IT_number 2
_symmetry_cell_setting 'triclinic'
loop_
_space_group_symop_operation_xyz
x,y,z
-x,-y,-z
loop_
_atom_site_type_symbol
_atom_site_label
_atom_site_fract_x
_atom_site_fract_y
_atom_site_fract_z
Si Si1 0.747015 0.666025 0.830376
Si Si2 0.155309 0.688039 0.800246
Si Si3 0.181887 0.862553 0.251451
Si Si4 0.044958 0.124360 0.390506
Si Si5 0.213784 0.190951 0.679362
Si Si6 0.453948 0.301418 0.445400
Si Si7 0.349813 0.873669 0.630914
Si Si8 0.435341 0.622101 0.121716
O O1 0.796680 0.676616 0.590547
O O2 0.636817 0.731528 0.669876
O O3 0.779818 0.489641 0.024709
O O4 0.768257 0.763669 0.041574
O O5 0.172149 0.745503 0.510159
O O6 0.045139 0.714554 0.745856
O O7 0.167393 0.800508 0.992250
O O8 0.283484 0.870198 0.357092
O O9 0.103810 0.035539 0.209933
O O10 0.122733 0.146880 0.611105
O O11 0.000000 0.000000 0.500000
O O12 0.302877 0.040790 0.683063
O O13 0.542232 0.192066 0.366559
O O14 0.417116 0.496677 0.338347
O O15 0.505114 0.282608 0.754751
O O16 0.348527 0.741596 0.877775
O O17 0.500000 0.500000 0.000000
#
# Coordination Sequence:
#
# PCOD9021974 Si02
#       8
#     2   2   2   2   2   2   2   2
#     4  12  28  44  62  96 139 181 219 256 317 397
#     4  11  23  41  69  96 132 173 207 270 335 390
#     4  10  22  38  68 104 129 158 220 276 332 378
#     4   9  22  46  74 102 126 161 215 279 336 386
#     4  11  28  46  65  96 134 173 223 265 314 401
#     4  10  23  39  64  94 133 174 219 271 322 382
#     4  10  23  39  65  91 130 175 217 277 321 369
#     4   9  20  37  63  97 122 165 225 278 323 368
#
# _framework density 23.514178000000001
#
# number of rings (size 3 to 8) (size 9 to 14) (size 15 to 20)
#    0.000    1.750    0.000    1.875   12.250    9.000 
#    0.000    0.000    0.000    0.000    0.000    0.000 
#    0.000    0.000    0.000    0.000    0.000    0.000 
#
# Total GULP energy -89372.761633 kJ/mol
# GULP energy per Si atom -5585.797602 kJ/mol
# Density = 2.346066 g / cm^3
# Si number density = 23.514178 Si / 1000 Ang^3
#
#
#
# Elastic Constant Matrix: (Units=GPa)
#
#
# Indices 1 2 3 4 5 6 
#
# 1 142.7816 21.2313 46.9477 10.3468 30.6678 -2.5346
# 2 21.2313 36.9734 13.5963 2.8484 15.2551 -5.9649
# 3 46.9477 13.5963 109.7975 26.1308 4.5573 4.4877
# 4 10.3468 2.8484 26.1308 48.9883 12.5723 10.0426
# 5 30.6678 15.2551 4.5573 12.5723 35.9525 -4.2860
# 6 -2.5346 -5.9649 4.4877 10.0426 -4.2860 27.6446
#
#
#
# Elastic Compliance Matrix: (Units=1/GPa)
#
#
# Indices 1 2 3 4 5 6 
#
# 1 0.010342 -0.000940 -0.004560 0.002779 -0.008925 -0.000908
# 2 -0.000940 0.035634 -0.004357 0.003088 -0.014252 0.004979
# 3 -0.004560 -0.004357 0.013106 -0.007575 0.006763 0.000314
# 4 0.002779 0.003088 -0.007575 0.029591 -0.014359 -0.010825
# 5 -0.008925 -0.014252 0.006763 -0.014359 0.046526 0.007438
# 6 -0.000908 0.004979 0.000314 -0.010825 0.007438 0.042199
#
#
# Mechanical properties :
#
#
# Convention : Reuss Voigt Hill
#
# Bulk Modulus (GPa) = 25.40126 50.34479 37.87303
# Shear Modulus (GPa) = 23.78281 36.36889 30.07585
#
# Velocity S-wave (km/s) = 3.18374 3.93705 3.58026
# Velocity P-wave (km/s) = 4.93365 6.49030 5.76476
#
# Compressibility (1/GPa) = 0.03936812
#
# Stress axis : x y z
#
# Youngs Moduli (GPa) = 96.69066 28.06275 76.30090
#
# Poissons Ratio (x) = 0.02639 0.34790
# Poissons Ratio (y) = 0.09091 0.33248
# Poissons Ratio (z) = 0.44087 0.12228
#
# Static dielectric constant tensor:
#      x y z
#    x 1.969210 0.033420 -0.041570 
#    y 0.033420 1.926620 -0.066120 
#    z -0.041570 -0.066120 1.922670 
# 
# From -- ./inp_files/107013.got.cif
#   From: 2010.05.17/outbox.cif.g08.bks.cpg/sg2_54_cif.got.tgz:107013.got - 2010.06.03 11:33:40.
