data_PCOD9021684
_publ_section_title
;
Structure prediction by ZEFSAII (Michael W. Deem and Ramdas Pophale) SiO2 
 PCOD9021684
Probable space group: P -1
;
_chemical_formula_sum "Si O2"
_cell_formula_units_Z 12
_cell_length_a 20.132309
_cell_length_b 4.939373
_cell_length_c 9.634956
_cell_angle_alpha 102.000723
_cell_angle_beta 38.929820
_cell_angle_gamma 104.059515
_cell_volume 583.728290
_symmetry_space_group_name_H-M "P -1"
_symmetry_group_IT_number 2
_symmetry_cell_setting 'triclinic'
loop_
_space_group_symop_operation_xyz
x,y,z
-x,-y,-z
loop_
_atom_site_type_symbol
_atom_site_label
_atom_site_fract_x
_atom_site_fract_y
_atom_site_fract_z
Si Si1 0.380310 0.581400 0.714204
Si Si2 0.405765 0.255477 0.252377
Si Si3 0.204969 0.395472 0.484460
Si Si4 0.692461 0.988170 0.338511
Si Si5 0.636114 0.285417 0.933822
Si Si6 0.110306 0.903614 0.767187
O O1 0.500000 0.500000 0.500000
O O2 0.307067 0.285818 0.786132
O O3 0.350527 0.778291 0.660024
O O4 0.364311 0.728040 0.901957
O O5 0.312647 0.450640 0.410757
O O6 0.387073 0.099882 0.413359
O O7 0.379488 0.015435 0.151212
O O8 0.526661 0.400777 0.077231
O O9 0.260448 0.508038 0.263310
O O10 0.157468 0.087401 0.577363
O O11 0.113991 0.584572 0.687070
O O12 0.806175 0.052750 0.236444
O O13 0.000000 0.000000 0.000000
#
# Coordination Sequence:
#
# PCOD9021684 Si02
#       6
#     2   2   2   2   2   2
#     4  12  26  38  60  93 142 175 203 241 324 386
#     4  10  22  38  64  92 132 174 219 251 304 382
#     4  11  21  40  63  97 123 157 217 269 315 371
#     4  11  23  43  60  92 128 166 216 263 305 387
#     4  11  23  37  63  93 138 174 210 248 316 386
#     4  11  24  43  72  95 118 161 225 288 320 354
#
# _framework density 20.557509
#
# number of rings (size 3 to 8) (size 9 to 14) (size 15 to 20)
#    0.000    1.000    5.000    3.500    2.333    1.333 
#    0.000    0.000    0.000    6.000    0.000    0.000 
#    0.000    0.000    0.000    0.000    0.000    0.000 
#
# Total GULP energy -66954.982764 kJ/mol
# GULP energy per Si atom -5579.581897 kJ/mol
# Density = 2.051072 g / cm^3
# Si number density = 20.557509 Si / 1000 Ang^3
#
#
#
# Elastic Constant Matrix: (Units=GPa)
#
#
# Indices 1 2 3 4 5 6 
#
# 1 81.0021 26.8662 41.0724 4.7885 15.6807 -18.5890
# 2 26.8662 84.2837 12.6399 9.4447 1.9386 -25.9731
# 3 41.0724 12.6399 95.7684 0.0585 2.0271 -18.2645
# 4 4.7885 9.4447 0.0585 24.8759 -1.2732 -1.7866
# 5 15.6807 1.9386 2.0271 -1.2732 45.3518 9.5756
# 6 -18.5890 -25.9731 -18.2645 -1.7866 9.5756 34.5772
#
#
#
# Elastic Compliance Matrix: (Units=1/GPa)
#
#
# Indices 1 2 3 4 5 6 
#
# 1 0.020027 -0.002608 -0.006658 -0.002735 -0.008156 0.007408
# 2 -0.002608 0.017008 0.001327 -0.005194 -0.002680 0.012548
# 3 -0.006658 0.001327 0.014001 0.001115 0.000661 0.004688
# 4 -0.002735 -0.005194 0.001115 0.042605 0.003036 -0.003422
# 5 -0.008156 -0.002680 0.000661 0.003036 0.027917 -0.013623
# 6 0.007408 0.012548 0.004688 -0.003422 -0.013623 0.048401
#
#
# Mechanical properties :
#
#
# Convention : Reuss Voigt Hill
#
# Bulk Modulus (GPa) = 28.44324 46.91235 37.67780
# Shear Modulus (GPa) = 25.30927 32.99268 29.15097
#
# Velocity S-wave (km/s) = 3.51257 4.01046 3.76975
# Velocity P-wave (km/s) = 5.50608 6.65693 6.10866
#
# Compressibility (1/GPa) = 0.03515774
#
# Stress axis : x y z
#
# Youngs Moduli (GPa) = 49.93283 58.79714 71.42153
#
# Poissons Ratio (x) = 0.15337 0.47549
# Poissons Ratio (y) = 0.13024 -0.09477
# Poissons Ratio (z) = 0.33243 -0.07802
#
# Static dielectric constant tensor:
#      x y z
#    x 1.725900 -0.003100 0.007740 
#    y -0.003100 1.810400 -0.007130 
#    z 0.007740 -0.007130 1.796740 
# 
# From -- ./inp_files/339822.got.cif
#   From: 2010.05.17/outbox.cif.g08.bks.cpg/sg2_170_cif.got.tgz:339822.got - 2010.06.03 11:33:40.
