data_PCOD9021696
_publ_section_title
;
Structure prediction by ZEFSAII (Michael W. Deem and Ramdas Pophale) SiO2 
 PCOD9021696
Probable space group: P -1
;
_chemical_formula_sum "Si O2"
_cell_formula_units_Z 13
_cell_length_a 15.779297
_cell_length_b 9.692055
_cell_length_c 10.486245
_cell_angle_alpha 140.954710
_cell_angle_beta 139.635723
_cell_angle_gamma 46.100349
_cell_volume 633.640218
_symmetry_space_group_name_H-M "P -1"
_symmetry_group_IT_number 2
_symmetry_cell_setting 'triclinic'
loop_
_space_group_symop_operation_xyz
x,y,z
-x,-y,-z
loop_
_atom_site_type_symbol
_atom_site_label
_atom_site_fract_x
_atom_site_fract_y
_atom_site_fract_z
Si Si1 0.470618 0.713795 0.524677
Si Si2 0.279662 0.207845 0.278049
Si Si3 0.981214 0.250619 0.315990
Si Si4 0.072701 0.682733 0.405525
Si Si5 0.774454 0.098111 0.788916
Si Si6 0.500000 0.000000 0.000000
Si Si7 0.793553 0.930607 0.174497
O O1 0.500000 0.500000 0.500000
O O2 0.591897 0.704238 0.556984
O O3 0.334758 0.737563 0.305916
O O4 0.460205 0.926608 0.757869
O O5 0.155073 0.424571 0.312980
O O6 0.297571 0.054829 0.314611
O O7 0.244213 0.068883 0.017453
O O8 0.957002 0.227849 0.420734
O O9 0.000000 0.500000 0.500000
O O10 0.856137 0.221501 0.066350
O O11 0.112605 0.067060 0.286167
O O12 0.927791 0.730629 0.206197
O O13 0.164146 0.842401 0.570562
O O14 0.661842 0.909906 0.083700
#
# Coordination Sequence:
#
# PCOD9021696 Si02
#       7
#     2   2   2   2   2   1   2
#     4  11  25  44  66  95 131 174 218 267 327 393
#     4  11  22  41  64  96 130 168 213 269 334 380
#     4  11  23  41  67  94 128 171 217 268 331 388
#     4  11  21  39  63  95 128 170 217 263 328 388
#     4  11  24  43  65  97 133 167 219 274 324 391
#     4  10  22  44  62  94 126 172 220 262 324 388
#     4  10  22  38  64  93 131 169 215 271 316 393
#
# _framework density 20.516373999999999
#
# number of rings (size 3 to 8) (size 9 to 14) (size 15 to 20)
#    0.000    1.231    3.077    2.769    0.000    4.923 
#    0.000    0.769    0.000    0.000    0.000    0.000 
#    0.000    0.000    0.000    0.000    0.000    0.000 
#
# Total GULP energy -72375.300935 kJ/mol
# GULP energy per Si atom -5567.330841 kJ/mol
# Density = 2.046968 g / cm^3
# Si number density = 20.516374 Si / 1000 Ang^3
#
#
#
# Elastic Constant Matrix: (Units=GPa)
#
#
# Indices 1 2 3 4 5 6 
#
# 1 91.4820 26.9452 32.3572 -10.2733 0.6219 -4.1941
# 2 26.9452 82.7234 15.5684 -22.7479 11.2682 12.2962
# 3 32.3572 15.5684 54.0944 -24.7170 11.2751 -2.2471
# 4 -10.2733 -22.7479 -24.7170 36.5502 -3.7216 0.4550
# 5 0.6219 11.2682 11.2751 -3.7216 35.7351 3.2186
# 6 -4.1941 12.2962 -2.2471 0.4550 3.2186 20.7315
#
#
#
# Elastic Compliance Matrix: (Units=1/GPa)
#
#
# Indices 1 2 3 4 5 6 
#
# 1 0.016454 -0.006440 -0.011877 -0.007047 0.004276 0.005352
# 2 -0.006440 0.019319 0.004866 0.013132 -0.005091 -0.011731
# 3 -0.011877 0.004866 0.037279 0.023823 -0.010598 -0.000126
# 4 -0.007047 0.013132 0.023823 0.049156 -0.005802 -0.006810
# 5 0.004276 -0.005091 -0.010598 -0.005802 0.032450 -0.002175
# 6 0.005352 -0.011731 -0.000126 -0.006810 -0.002175 0.056750
#
#
# Mechanical properties :
#
#
# Convention : Reuss Voigt Hill
#
# Bulk Modulus (GPa) = 21.66877 42.00461 31.83669
# Shear Modulus (GPa) = 19.70886 28.83195 24.27041
#
# Velocity S-wave (km/s) = 3.10278 3.75282 3.44318
# Velocity P-wave (km/s) = 4.83952 6.26868 5.59988
#
# Compressibility (1/GPa) = 0.04614937
#
# Stress axis : x y z
#
# Youngs Moduli (GPa) = 60.77571 51.76355 26.82467
#
# Poissons Ratio (x) = 0.33335 0.31861
# Poissons Ratio (y) = 0.39139 -0.13053
# Poissons Ratio (z) = 0.72186 -0.25189
#
# Static dielectric constant tensor:
#      x y z
#    x 1.775210 0.056510 0.026770 
#    y 0.056510 1.747720 0.021420 
#    z 0.026770 0.021420 1.732450 
# 
# From -- ./inp_files/93286.got.cif
#   From: 2010.05.17/outbox.cif.g08.bks.cpg/sg2_47_cif.got.tgz:93286.got - 2010.06.03 11:33:40.
