data_PCOD9021261
_publ_section_title
;
Structure prediction by ZEFSAII (Michael W. Deem and Ramdas Pophale) SiO2 
 PCOD9021261
Probable space group: P -1
;
_chemical_formula_sum "Si O2"
_cell_formula_units_Z 14
_cell_length_a 10.569362
_cell_length_b 5.502328
_cell_length_c 11.592254
_cell_angle_alpha 67.941649
_cell_angle_beta 80.321335
_cell_angle_gamma 71.582482
_cell_volume 591.870791
_symmetry_space_group_name_H-M "P -1"
_symmetry_group_IT_number 2
_symmetry_cell_setting 'triclinic'
loop_
_space_group_symop_operation_xyz
x,y,z
-x,-y,-z
loop_
_atom_site_type_symbol
_atom_site_label
_atom_site_fract_x
_atom_site_fract_y
_atom_site_fract_z
Si Si1 0.457430 0.392788 0.407635
Si Si2 0.295453 0.722003 0.059679
Si Si3 0.439649 0.759463 0.817765
Si Si4 0.204369 0.313147 0.524698
Si Si5 0.876656 0.578913 0.735546
Si Si6 0.902442 0.185158 0.386026
Si Si7 0.360107 0.949681 0.219503
O O1 0.500000 0.500000 0.500000
O O2 0.563294 0.294231 0.307320
O O3 0.359792 0.207128 0.481573
O O4 0.356461 0.658736 0.317412
O O5 0.428532 0.474172 0.114530
O O6 0.164180 0.651585 0.141730
O O7 0.320505 0.967977 0.088163
O O8 0.313218 0.762857 0.914440
O O9 0.492159 0.023638 0.785742
O O10 0.120627 0.453219 0.398321
O O11 0.190346 0.550747 0.579640
O O12 0.159188 0.046430 0.615779
O O13 0.005465 0.678039 0.731227
O O14 0.749004 0.834061 0.731698
O O15 0.000000 0.000000 0.500000
#
# Coordination Sequence:
#
# PCOD9021261 Si02
#       7
#     2   2   2   2   2   2   2
#     4  11  22  34  51  70 103 144 180 216 253 302
#     4   9  17  28  51  71 106 130 166 208 269 317
#     4   9  18  32  45  74 100 136 170 215 256 315
#     4  11  20  35  47  76 109 140 175 215 256 316
#     4  10  18  30  50  78 104 138 161 210 265 326
#     4  10  21  30  52  74 109 140 170 209 269 320
#     4  10  17  31  49  72 109 132 174 205 269 308
#
# _framework density 23.65381
#
# number of rings (size 3 to 8) (size 9 to 14) (size 15 to 20)
#    0.000    2.000    4.286    3.857    2.000    1.714 
#    0.000    0.000    0.000    0.000    0.000    2.000 
#    0.000    0.000    0.000    0.000    0.000    0.000 
#
# Total GULP energy -78058.398333 kJ/mol
# GULP energy per Si atom -5575.599881 kJ/mol
# Density = 2.359997 g / cm^3
# Si number density = 23.653810 Si / 1000 Ang^3
#
#
#
# Elastic Constant Matrix: (Units=GPa)
#
#
# Indices 1 2 3 4 5 6 
#
# 1 55.3851 16.9515 42.5227 2.7165 -25.7023 22.2159
# 2 16.9515 86.7818 47.1149 14.2414 -8.6833 24.5592
# 3 42.5227 47.1149 148.4238 23.0647 -32.8466 26.0166
# 4 2.7165 14.2414 23.0647 19.6813 2.1313 0.1413
# 5 -25.7023 -8.6833 -32.8466 2.1313 35.3177 -8.6875
# 6 22.2159 24.5592 26.0166 0.1413 -8.6875 40.1048
#
#
#
# Elastic Compliance Matrix: (Units=1/GPa)
#
#
# Indices 1 2 3 4 5 6 
#
# 1 0.034918 0.001458 -0.002902 -0.004528 0.019894 -0.014028
# 2 0.001458 0.016871 -0.002329 -0.009759 0.001344 -0.009303
# 3 -0.002902 -0.002329 0.013335 -0.014573 0.009748 -0.003455
# 4 -0.004528 -0.009759 -0.014573 0.077722 -0.020696 0.013182
# 5 0.019894 0.001344 0.009748 -0.020696 0.051744 -0.006885
# 6 -0.014028 -0.009303 -0.003455 0.013182 -0.006885 0.039106
#
#
# Mechanical properties :
#
#
# Convention : Reuss Voigt Hill
#
# Bulk Modulus (GPa) = 17.36703 55.97432 36.67068
# Shear Modulus (GPa) = 19.19882 31.28753 25.24318
#
# Velocity S-wave (km/s) = 2.85205 3.64088 3.27034
# Velocity P-wave (km/s) = 4.26658 6.43351 5.45865
#
# Compressibility (1/GPa) = 0.05758036
#
# Stress axis : x y z
#
# Youngs Moduli (GPa) = 28.63878 59.27195 74.98883
#
# Poissons Ratio (x) = -0.08643 0.21758
# Poissons Ratio (y) = -0.04176 0.17462
# Poissons Ratio (z) = 0.08310 0.13802
#
# Static dielectric constant tensor:
#      x y z
#    x 1.992900 0.072910 -0.016290 
#    y 0.072910 1.990780 0.020530 
#    z -0.016290 0.020530 1.984120 
# 
# From -- ./inp_files/74913.got.cif
#   From: 2010.05.17/outbox.cif.g08.bks.cpg/sg2_38_cif.got.tgz:74913.got - 2010.06.03 11:33:40.
