data_PCOD9022413
_publ_section_title
;
Structure prediction by ZEFSAII (Michael W. Deem and Ramdas Pophale) SiO2 
 PCOD9022413
Probable space group: P -1
;
_chemical_formula_sum "Si O2"
_cell_formula_units_Z 14
_cell_length_a 13.873560
_cell_length_b 13.897815
_cell_length_c 8.678365
_cell_angle_alpha 78.857844
_cell_angle_beta 59.157015
_cell_angle_gamma 29.982319
_cell_volume 582.471542
_symmetry_space_group_name_H-M "P -1"
_symmetry_group_IT_number 2
_symmetry_cell_setting 'triclinic'
loop_
_space_group_symop_operation_xyz
x,y,z
-x,-y,-z
loop_
_atom_site_type_symbol
_atom_site_label
_atom_site_fract_x
_atom_site_fract_y
_atom_site_fract_z
Si Si1 0.200446 0.741930 0.242023
Si Si2 0.952044 0.582320 0.765711
Si Si3 0.738783 0.005917 0.425156
Si Si4 0.740907 0.581687 0.140336
Si Si5 0.187959 0.765459 0.612063
Si Si6 0.836455 0.900175 0.056376
Si Si7 0.650005 0.862565 0.635926
O O1 0.213935 0.739809 0.414868
O O2 0.041471 0.770647 0.312820
O O3 0.500000 0.500000 0.000000
O O4 0.995449 0.991553 0.273339
O O5 0.787421 0.773469 0.715598
O O6 0.113968 0.511504 0.785541
O O7 0.152037 0.356820 0.568669
O O8 0.759945 0.661193 0.993336
O O9 0.719506 0.054580 0.248638
O O10 0.613560 0.995946 0.542618
O O11 0.558194 0.209869 0.631887
O O12 0.919012 0.356453 0.988116
O O13 0.500000 0.500000 0.500000
O O14 0.985592 0.842274 0.820667
O O15 0.609687 0.000522 0.166308
#
# Coordination Sequence:
#
# PCOD9022413 Si02
#       7
#     2   2   2   2   2   2   2
#     4  11  28  51  80 109 144 192 249 311 367 435
#     4  10  22  39  61  94 143 190 234 282 342 436
#     4  12  25  44  69 103 143 185 236 295 358 433
#     4  11  23  39  65  95 136 191 236 280 356 424
#     4  11  27  53  78 110 145 190 252 307 370 435
#     4  12  25  43  71 101 144 187 233 296 358 433
#     4  11  23  41  64 104 147 183 229 287 362 431
#
# _framework density 24.035509999999999
#
# number of rings (size 3 to 8) (size 9 to 14) (size 15 to 20)
#    0.000    0.857    2.857    3.857    4.000    8.000 
#    0.000    0.000    0.000    0.000    0.000    0.000 
#    0.000    0.000    0.000    0.000    0.000    0.000 
#
# Total GULP energy -78254.974073 kJ/mol
# GULP energy per Si atom -5589.641005 kJ/mol
# Density = 2.398080 g / cm^3
# Si number density = 24.035510 Si / 1000 Ang^3
#
#
#
# Elastic Constant Matrix: (Units=GPa)
#
#
# Indices 1 2 3 4 5 6 
#
# 1 70.4916 29.1756 38.4106 2.6323 -2.6090 -10.5498
# 2 29.1756 99.2694 50.4756 3.7184 -1.6939 -9.8817
# 3 38.4106 50.4756 191.0921 18.8568 -15.3858 -5.9564
# 4 2.6323 3.7184 18.8568 40.5955 -3.9028 2.5611
# 5 -2.6090 -1.6939 -15.3858 -3.9028 44.8136 -2.2350
# 6 -10.5498 -9.8817 -5.9564 2.5611 -2.2350 31.7553
#
#
#
# Elastic Compliance Matrix: (Units=1/GPa)
#
#
# Indices 1 2 3 4 5 6 
#
# 1 0.017633 -0.003493 -0.002473 0.000079 0.000268 0.004320
# 2 -0.003493 0.012642 -0.002617 0.000095 -0.000504 0.002239
# 3 -0.002473 -0.002617 0.006828 -0.002590 0.001875 -0.000015
# 4 0.000079 0.000095 -0.002590 0.026099 0.001270 -0.002446
# 5 0.000268 -0.000504 0.001875 0.001270 0.023156 0.001811
# 6 0.004320 0.002239 -0.000015 -0.002446 0.001811 0.033945
#
#
# Mechanical properties :
#
#
# Convention : Reuss Voigt Hill
#
# Bulk Modulus (GPa) = 50.16258 66.33074 58.24666
# Shear Modulus (GPa) = 34.69468 39.61896 37.15682
#
# Velocity S-wave (km/s) = 3.80343 4.06439 3.93608
# Velocity P-wave (km/s) = 6.34063 7.04859 6.70396
#
# Compressibility (1/GPa) = 0.01993518
#
# Stress axis : x y z
#
# Youngs Moduli (GPa) = 56.71194 79.10252 146.46385
#
# Poissons Ratio (x) = 0.27632 0.36223
# Poissons Ratio (y) = 0.19811 0.38333
# Poissons Ratio (z) = 0.14026 0.20703
#
# Static dielectric constant tensor:
#      x y z
#    x 1.969410 0.065060 -0.024080 
#    y 0.065060 1.946960 0.054970 
#    z -0.024080 0.054970 1.961130 
# 
# From -- ./inp_files/314854.got.cif
#   From: 2010.05.17/outbox.cif.g08.bks.cpg/sg2_158_cif.got.tgz:314854.got - 2010.06.03 11:33:40.
