data_PCOD9022181
_publ_section_title
;
Structure prediction by ZEFSAII (Michael W. Deem and Ramdas Pophale) SiO2 
 PCOD9022181
Probable space group: P -1
;
_chemical_formula_sum "Si O2"
_cell_formula_units_Z 14
_cell_length_a 21.729612
_cell_length_b 7.794903
_cell_length_c 9.154219
_cell_angle_alpha 47.665450
_cell_angle_beta 152.735182
_cell_angle_gamma 124.857112
_cell_volume 523.394377
_symmetry_space_group_name_H-M "P -1"
_symmetry_group_IT_number 2
_symmetry_cell_setting 'triclinic'
loop_
_space_group_symop_operation_xyz
x,y,z
-x,-y,-z
loop_
_atom_site_type_symbol
_atom_site_label
_atom_site_fract_x
_atom_site_fract_y
_atom_site_fract_z
Si Si1 0.077097 0.524771 0.500717
Si Si2 0.356703 0.940885 0.297593
Si Si3 0.852436 0.992122 0.592217
Si Si4 0.267580 0.447303 0.425350
Si Si5 0.542028 0.177181 0.113313
Si Si6 0.639503 0.393480 0.924152
Si Si7 0.121800 0.266162 0.475394
O O1 0.079184 0.799150 0.304810
O O2 0.033028 0.377714 0.354822
O O3 0.000000 0.500000 0.500000
O O4 0.233768 0.456033 0.910255
O O5 0.302185 0.688135 0.291379
O O6 0.500000 0.000000 0.500000
O O7 0.372790 0.937580 0.509311
O O8 0.245001 0.124166 0.894400
O O9 0.806136 0.754482 0.701571
O O10 0.928071 0.911557 0.648104
O O11 0.384250 0.641998 0.933700
O O12 0.182394 0.460841 0.388128
O O13 0.414125 0.316679 0.836865
O O14 0.500000 0.000000 0.000000
O O15 0.500000 0.500000 0.500000
O O16 0.708274 0.141504 0.158727
#
# Coordination Sequence:
#
# PCOD9022181 Si02
#       7
#     2   2   2   2   2   2   2
#     4  10  22  41  72 104 134 184 238 290 350 420
#     4  12  25  37  61  98 145 184 235 279 360 426
#     4   8  21  42  63  99 134 185 231 280 353 419
#     4  10  22  39  58  94 139 181 224 285 349 414
#     4  12  22  36  61  97 140 185 222 292 346 414
#     4  10  23  39  67 105 144 180 233 284 349 421
#     4  10  22  42  65  96 138 186 230 286 349 424
#
# _framework density 26.748473000000001
#
# number of rings (size 3 to 8) (size 9 to 14) (size 15 to 20)
#    1.714    0.000    2.857    1.286    6.000    0.571 
#    0.000    0.000    0.000    4.286    0.000    0.000 
#    0.000    0.000    0.000    0.000    0.000    0.000 
#
# Total GULP energy -78220.937518 kJ/mol
# GULP energy per Si atom -5587.209823 kJ/mol
# Density = 2.668759 g / cm^3
# Si number density = 26.748473 Si / 1000 Ang^3
#
#
#
# Elastic Constant Matrix: (Units=GPa)
#
#
# Indices 1 2 3 4 5 6 
#
# 1 159.2063 29.4580 44.1336 3.7239 -16.0360 -5.7212
# 2 29.4580 149.5399 37.0464 4.6948 -6.4405 -0.1827
# 3 44.1336 37.0464 114.8585 9.3904 -29.1927 9.8777
# 4 3.7239 4.6948 9.3904 39.7500 3.1825 -2.1258
# 5 -16.0360 -6.4405 -29.1927 3.1825 39.1872 -1.7996
# 6 -5.7212 -0.1827 9.8777 -2.1258 -1.7996 55.7019
#
#
#
# Elastic Compliance Matrix: (Units=1/GPa)
#
#
# Indices 1 2 3 4 5 6 
#
# 1 0.007234 -0.000796 -0.002326 -0.000063 0.001156 0.001188
# 2 -0.000796 0.007383 -0.002289 -0.000177 -0.000788 0.000316
# 3 -0.002326 -0.002289 0.012985 -0.003389 0.008510 -0.002403
# 4 -0.000063 -0.000177 -0.003389 0.026435 -0.004660 0.001452
# 5 0.001156 -0.000788 0.008510 -0.004660 0.032556 -0.000519
# 6 0.001188 0.000316 -0.002403 0.001452 -0.000519 0.018541
#
#
# Mechanical properties :
#
#
# Convention : Reuss Voigt Hill
#
# Bulk Modulus (GPa) = 59.59018 71.65340 65.62179
# Shear Modulus (GPa) = 41.13588 47.79226 44.46407
#
# Velocity S-wave (km/s) = 3.92583 4.23156 4.08156
# Velocity P-wave (km/s) = 6.54797 7.12185 6.84093
#
# Compressibility (1/GPa) = 0.01678129
#
# Stress axis : x y z
#
# Youngs Moduli (GPa) = 138.24016 135.44884 77.01166
#
# Poissons Ratio (x) = 0.10775 0.17913
# Poissons Ratio (y) = 0.10997 0.17625
# Poissons Ratio (z) = 0.32155 0.31000
#
# Static dielectric constant tensor:
#      x y z
#    x 2.059730 -0.000650 0.022000 
#    y -0.000650 2.199840 0.025900 
#    z 0.022000 0.025900 2.244350 
# 
# From -- ./inp_files/476235.got.cif
#   From: 2010.05.17/outbox.cif.g08.bks.cpg/sg2_239_cif.got.tgz:476235.got - 2010.06.03 11:33:40.
