data_PCOD9022664
_publ_section_title
;
Structure prediction by ZEFSAII (Michael W. Deem and Ramdas Pophale) SiO2 
 PCOD9022664
Probable space group: P -1
;
_chemical_formula_sum "Si O2"
_cell_formula_units_Z 14
_cell_length_a 10.876117
_cell_length_b 19.882944
_cell_length_c 19.308471
_cell_angle_alpha 155.895542
_cell_angle_beta 158.975510
_cell_angle_gamma 36.342877
_cell_volume 580.093952
_symmetry_space_group_name_H-M "P -1"
_symmetry_group_IT_number 2
_symmetry_cell_setting 'triclinic'
loop_
_space_group_symop_operation_xyz
x,y,z
-x,-y,-z
loop_
_atom_site_type_symbol
_atom_site_label
_atom_site_fract_x
_atom_site_fract_y
_atom_site_fract_z
Si Si1 0.168958 0.205833 0.781573
Si Si2 0.896250 0.241892 0.815404
Si Si3 0.401928 0.173607 0.121131
Si Si4 0.855960 0.019994 0.807103
Si Si5 0.792537 0.642104 0.608815
Si Si6 0.080496 0.605831 0.289540
Si Si7 0.040992 0.685939 0.635450
O O1 0.956280 0.267605 0.789234
O O2 0.109732 0.278152 0.743841
O O3 0.579538 0.257887 0.070992
O O4 0.000000 0.000000 0.500000
O O5 0.572329 0.068303 0.498988
O O6 0.266492 0.228705 0.030332
O O7 0.831879 0.407181 0.973693
O O8 0.735941 0.313753 0.466414
O O9 0.053329 0.126805 0.944694
O O10 0.500000 0.000000 0.000000
O O11 0.003765 0.855460 0.738247
O O12 0.976504 0.162131 0.064803
O O13 0.421637 0.605498 0.420677
O O14 0.968030 0.489875 0.574376
O O15 0.749760 0.637440 0.499012
#
# Coordination Sequence:
#
# PCOD9022664 Si02
#       7
#     2   2   2   2   2   2   2
#     4  12  23  39  68 103 134 170 221 275 328 395
#     4  12  24  43  67  98 134 171 220 274 335 390
#     4  11  25  47  68  92 130 179 224 271 333 399
#     4  11  24  43  66  93 135 175 223 270 337 387
#     4  10  22  39  63  93 138 172 214 266 337 390
#     4  11  24  43  68  97 134 174 217 275 337 388
#     4  11  22  38  65  99 136 173 220 268 332 394
#
# _framework density 24.134021000000001
#
# number of rings (size 3 to 8) (size 9 to 14) (size 15 to 20)
#    0.000    0.857    1.429    6.857    4.000    0.000 
#    0.000    0.714    0.000    0.000    0.000    0.000 
#    0.000    0.000    0.000    0.000    0.000    0.000 
#
# Total GULP energy -78385.468816 kJ/mol
# GULP energy per Si atom -5598.962058 kJ/mol
# Density = 2.407909 g / cm^3
# Si number density = 24.134021 Si / 1000 Ang^3
#
#
#
# Elastic Constant Matrix: (Units=GPa)
#
#
# Indices 1 2 3 4 5 6 
#
# 1 45.8787 -10.8116 -0.7589 -9.3732 2.0991 -4.8756
# 2 -10.8116 114.7123 24.4359 6.4733 -15.4735 9.4686
# 3 -0.7589 24.4359 130.7295 14.5333 -12.9044 5.3470
# 4 -9.3732 6.4733 14.5333 46.0426 -3.9337 -1.2669
# 5 2.0991 -15.4735 -12.9044 -3.9337 23.6694 4.3539
# 6 -4.8756 9.4686 5.3470 -1.2669 4.3539 35.0366
#
#
#
# Elastic Compliance Matrix: (Units=1/GPa)
#
#
# Indices 1 2 3 4 5 6 
#
# 1 0.023586 0.001709 -0.000987 0.004852 -0.001315 0.003310
# 2 0.001709 0.010270 -0.001107 -0.000279 0.006498 -0.003186
# 3 -0.000987 -0.001107 0.008586 -0.002465 0.003953 -0.001729
# 4 0.004852 -0.000279 -0.002465 0.023715 0.001657 0.001778
# 5 -0.001315 0.006498 0.003953 0.001657 0.050659 -0.008778
# 6 0.003310 -0.003186 -0.001729 0.001778 -0.008778 0.031282
#
#
# Mechanical properties :
#
#
# Convention : Reuss Voigt Hill
#
# Bulk Modulus (GPa) = 23.99749 35.22792 29.61270
# Shear Modulus (GPa) = 30.72061 39.51340 35.11700
#
# Velocity S-wave (km/s) = 3.57167 4.05068 3.81869
# Velocity P-wave (km/s) = 5.19366 6.04201 5.63382
#
# Compressibility (1/GPa) = 0.04167103
#
# Stress axis : x y z
#
# Youngs Moduli (GPa) = 42.39785 97.37475 116.47517
#
# Poissons Ratio (x) = -0.16640 0.11497
# Poissons Ratio (y) = -0.07245 0.12892
# Poissons Ratio (z) = 0.04185 0.10778
#
# Static dielectric constant tensor:
#      x y z
#    x 1.956770 0.005970 0.016920 
#    y 0.005970 1.968420 -0.029040 
#    z 0.016920 -0.029040 1.948030 
# 
# From -- ./inp_files/280152.got.cif
#   From: 2010.05.17/outbox.cif.g08.bks.cpg/sg2_141_cif.got.tgz:280152.got - 2010.06.03 11:33:40.
