data_PCOD9022583
_publ_section_title
;
Structure prediction by ZEFSAII (Michael W. Deem and Ramdas Pophale) SiO2 
 PCOD9022583
Probable space group: P -1
;
_chemical_formula_sum "Si O2"
_cell_formula_units_Z 15
_cell_length_a 10.983040
_cell_length_b 11.950884
_cell_length_c 6.738907
_cell_angle_alpha 109.837794
_cell_angle_beta 52.663287
_cell_angle_gamma 87.066271
_cell_volume 621.257042
_symmetry_space_group_name_H-M "P -1"
_symmetry_group_IT_number 2
_symmetry_cell_setting 'triclinic'
loop_
_space_group_symop_operation_xyz
x,y,z
-x,-y,-z
loop_
_atom_site_type_symbol
_atom_site_label
_atom_site_fract_x
_atom_site_fract_y
_atom_site_fract_z
Si Si1 0.652619 0.743812 0.866924
Si Si2 0.604752 0.168957 0.515406
Si Si3 0.577023 0.611094 0.485739
Si Si4 0.912038 0.796054 0.369954
Si Si5 0.875584 0.249848 0.523859
Si Si6 0.162562 0.475335 0.150394
Si Si7 0.869371 0.929061 0.090176
Si Si8 0.000000 0.500000 0.000000
O O1 0.580066 0.670161 0.732898
O O2 0.762958 0.801508 0.663605
O O3 0.749803 0.641424 0.872273
O O4 0.517708 0.839942 0.197122
O O5 0.518028 0.276020 0.502803
O O6 0.734911 0.215648 0.533602
O O7 0.703341 0.032925 0.242715
O O8 0.500000 0.500000 0.500000
O O9 0.762308 0.551646 0.171790
O O10 0.849311 0.892288 0.311854
O O11 0.057545 0.814435 0.368223
O O12 0.979820 0.654314 0.131189
O O13 0.816902 0.398713 0.713822
O O14 0.037506 0.197998 0.197577
O O15 0.982051 0.497032 0.268858
O O16 0.000000 0.000000 0.000000
#
# Coordination Sequence:
#
# PCOD9022583 Si02
#       8
#     2   2   2   2   2   2   2   1
#     4  11  24  41  67  98 140 173 220 282 338 401
#     4  10  24  44  65  96 133 181 229 273 333 400
#     4  11  22  40  66  97 137 176 222 270 334 405
#     4  11  25  41  68 103 133 176 223 282 339 399
#     4  10  23  41  69  97 132 179 223 282 327 399
#     4  10  22  39  63 103 133 169 217 271 341 398
#     4  10  25  45  66  96 135 180 231 278 328 399
#     4  10  22  40  66  96 140 164 214 268 336 400
#
# _framework density 24.144593
#
# number of rings (size 3 to 8) (size 9 to 14) (size 15 to 20)
#    0.000    1.600    1.333    1.600    3.733   13.333 
#    0.000    1.333    0.000    0.000    0.000    0.000 
#    0.000    0.000    0.000    0.000    0.000    0.000 
#
# Total GULP energy -83714.645597 kJ/mol
# GULP energy per Si atom -5580.976373 kJ/mol
# Density = 2.408964 g / cm^3
# Si number density = 24.144593 Si / 1000 Ang^3
#
#
#
# Elastic Constant Matrix: (Units=GPa)
#
#
# Indices 1 2 3 4 5 6 
#
# 1 106.7175 34.7005 11.8642 -0.0628 21.9174 0.0454
# 2 34.7005 116.0410 29.0499 -10.8545 -6.8337 -22.4354
# 3 11.8642 29.0499 92.1431 5.6029 -15.0826 -2.8725
# 4 -0.0628 -10.8545 5.6029 33.6060 -7.3671 -0.8092
# 5 21.9174 -6.8337 -15.0826 -7.3671 32.4529 4.6410
# 6 0.0454 -22.4354 -2.8725 -0.8092 4.6410 31.3347
#
#
#
# Elastic Compliance Matrix: (Units=1/GPa)
#
#
# Indices 1 2 3 4 5 6 
#
# 1 0.013650 -0.005090 -0.001907 -0.003930 -0.011754 -0.002199
# 2 -0.005090 0.013416 -0.002842 0.006122 0.005079 0.008759
# 3 -0.001907 -0.002842 0.013132 -0.001693 0.006674 -0.001861
# 4 -0.003930 0.006122 -0.001693 0.034386 0.010452 0.003574
# 5 -0.011754 0.005079 0.006674 0.010452 0.045614 -0.002221
# 6 -0.002199 0.008759 -0.001861 0.003574 -0.002221 0.038438
#
#
# Mechanical properties :
#
#
# Convention : Reuss Voigt Hill
#
# Bulk Modulus (GPa) = 48.73050 51.79229 50.26140
# Shear Modulus (GPa) = 27.00463 35.43121 31.21792
#
# Velocity S-wave (km/s) = 3.34796 3.83490 3.59967
# Velocity P-wave (km/s) = 5.93057 6.41140 6.17567
#
# Compressibility (1/GPa) = 0.02052103
#
# Stress axis : x y z
#
# Youngs Moduli (GPa) = 73.25931 74.53605 76.15219
#
# Poissons Ratio (x) = 0.37936 0.14519
# Poissons Ratio (y) = 0.37286 0.21645
# Poissons Ratio (z) = 0.13967 0.21185
#
# Static dielectric constant tensor:
#      x y z
#    x 0.674190 0.414180 0.369850 
#    y 0.414180 1.763670 -0.136090 
#    z 0.369850 -0.136090 1.930080 
# 
# From -- ./inp_files/68720.got.cif
#   From: 2010.05.17/outbox.cif.g08.bks.cpg/sg2_35_cif.got.tgz:68720.got - 2010.06.03 11:33:40.
