data_PCOD9022242
_publ_section_title
;
Structure prediction by ZEFSAII (Michael W. Deem and Ramdas Pophale) SiO2 
 PCOD9022242
Probable space group: P -1
;
_chemical_formula_sum "Si O2"
_cell_formula_units_Z 16
_cell_length_a 8.488047
_cell_length_b 19.184465
_cell_length_c 24.120789
_cell_angle_alpha 22.945030
_cell_angle_beta 31.296478
_cell_angle_gamma 43.190928
_cell_volume 762.336255
_symmetry_space_group_name_H-M "P -1"
_symmetry_group_IT_number 2
_symmetry_cell_setting 'triclinic'
loop_
_space_group_symop_operation_xyz
x,y,z
-x,-y,-z
loop_
_atom_site_type_symbol
_atom_site_label
_atom_site_fract_x
_atom_site_fract_y
_atom_site_fract_z
Si Si1 0.677714 0.944777 0.064562
Si Si2 0.210571 0.194023 0.176214
Si Si3 0.309820 0.845668 0.714509
Si Si4 0.334004 0.618135 0.615555
Si Si5 0.324592 0.674292 0.273492
Si Si6 0.268399 0.909679 0.509706
Si Si7 0.398677 0.479276 0.110915
Si Si8 0.605618 0.926199 0.230690
O O1 0.444648 0.784214 0.214885
O O2 0.592494 0.919761 0.173159
O O3 0.678190 0.152323 0.892361
O O4 0.047044 0.948159 0.947239
O O5 0.057665 0.211049 0.150097
O O6 0.925537 0.195302 0.302633
O O7 0.327837 0.009880 0.274453
O O8 0.491573 0.347328 0.007887
O O9 0.448560 0.671862 0.798694
O O10 0.500000 0.000000 0.500000
O O11 0.421489 0.936967 0.673838
O O12 0.417757 0.431506 0.743087
O O13 0.373686 0.767284 0.543580
O O14 0.549639 0.724119 0.422715
O O15 0.975045 0.581235 0.732814
O O16 0.000000 0.500000 0.500000
O O17 0.000000 0.000000 0.500000
O O18 0.500000 0.500000 0.000000
#
# Coordination Sequence:
#
# PCOD9022242 Si02
#       8
#     2   2   2   2   2   2   2   2
#     4  10  25  49  72  99 140 174 227 303 349 406
#     4  11  22  39  62  97 137 174 220 280 335 403
#     4  10  22  39  60  86 132 181 218 274 325 388
#     4  12  23  40  73 101 131 185 233 275 344 414
#     4  11  24  48  74 103 135 176 234 292 350 413
#     4  11  19  40  65  92 134 179 224 263 326 412
#     4  12  23  40  63  94 137 185 230 271 329 410
#     4  11  23  45  72  99 132 183 230 282 354 408
#
# _framework density 20.988112999999998
#
# number of rings (size 3 to 8) (size 9 to 14) (size 15 to 20)
#    0.000    1.000    5.000    1.875    0.000    2.500 
#    6.750    0.000    0.000    0.000    0.000    0.000 
#    0.000    0.000    0.000    0.000    0.000    0.000 
#
# Total GULP energy -89244.838512 kJ/mol
# GULP energy per Si atom -5577.802407 kJ/mol
# Density = 2.094034 g / cm^3
# Si number density = 20.988113 Si / 1000 Ang^3
#
#
#
# Elastic Constant Matrix: (Units=GPa)
#
#
# Indices 1 2 3 4 5 6 
#
# 1 116.8849 38.9226 42.1822 -13.0659 -16.1292 2.7008
# 2 38.9226 87.2563 25.3028 -23.2140 10.6528 -9.3614
# 3 42.1822 25.3028 75.3326 -2.9946 -14.1346 13.5358
# 4 -13.0659 -23.2140 -2.9946 31.5899 1.4095 2.3318
# 5 -16.1292 10.6528 -14.1346 1.4095 40.7170 -7.3879
# 6 2.7008 -9.3614 13.5358 2.3318 -7.3879 26.6639
#
#
#
# Elastic Compliance Matrix: (Units=1/GPa)
#
#
# Indices 1 2 3 4 5 6 
#
# 1 0.012456 -0.004292 -0.004780 0.001286 0.004497 0.000792
# 2 -0.004292 0.020624 -0.007030 0.012522 -0.008559 0.007778
# 3 -0.004780 -0.007030 0.021092 -0.004592 0.005472 -0.010773
# 4 0.001286 0.012522 -0.004592 0.041091 -0.005516 0.001476
# 5 0.004497 -0.008559 0.005472 -0.005516 0.031195 0.002888
# 6 0.000792 0.007778 -0.010773 0.001476 0.002888 0.046294
#
#
# Mechanical properties :
#
#
# Convention : Reuss Voigt Hill
#
# Bulk Modulus (GPa) = 45.52026 54.69879 50.10953
# Shear Modulus (GPa) = 23.55393 31.33191 27.44292
#
# Velocity S-wave (km/s) = 3.35364 3.86792 3.61992
# Velocity P-wave (km/s) = 6.06065 6.78720 6.43419
#
# Compressibility (1/GPa) = 0.02196824
#
# Stress axis : x y z
#
# Youngs Moduli (GPa) = 80.28419 48.48683 47.41087
#
# Poissons Ratio (x) = 0.20810 0.22664
# Poissons Ratio (y) = 0.34457 0.33328
# Poissons Ratio (z) = 0.38379 0.34084
#
# Static dielectric constant tensor:
#      x y z
#    x 1.862460 0.039630 -0.044550 
#    y 0.039630 1.841240 -0.026740 
#    z -0.044550 -0.026740 1.831690 
# 
# From -- ./inp_files/617499.got.cif
#   From: 2010.05.17/outbox.cif.g08.bks.cpg/sg2_309_cif.got.tgz:617499.got - 2010.06.03 11:33:40.
