data_PCOD9022671
_publ_section_title
;
Structure prediction by ZEFSAII (Michael W. Deem and Ramdas Pophale) SiO2 
 PCOD9022671
Probable space group: P -1
;
_chemical_formula_sum "Si O2"
_cell_formula_units_Z 12
_cell_length_a 8.836416
_cell_length_b 7.568703
_cell_length_c 15.972862
_cell_angle_alpha 147.610836
_cell_angle_beta 60.200701
_cell_angle_gamma 105.036312
_cell_volume 466.140851
_symmetry_space_group_name_H-M "P -1"
_symmetry_group_IT_number 2
_symmetry_cell_setting 'triclinic'
loop_
_space_group_symop_operation_xyz
x,y,z
-x,-y,-z
loop_
_atom_site_type_symbol
_atom_site_label
_atom_site_fract_x
_atom_site_fract_y
_atom_site_fract_z
Si Si1 0.220511 0.647712 0.862766
Si Si2 0.832531 0.325085 0.640764
Si Si3 0.580254 0.817217 0.031517
Si Si4 0.749115 0.404152 0.979851
Si Si5 0.111276 0.770335 0.592293
Si Si6 0.112096 0.715699 0.746492
O O1 0.215551 0.498027 0.710960
O O2 0.270895 0.468768 0.867558
O O3 0.354821 0.877052 0.900785
O O4 0.001537 0.886636 0.033849
O O5 0.671429 0.471662 0.810548
O O6 0.778531 0.255585 0.534516
O O7 0.935020 0.611049 0.728173
O O8 0.000000 0.000000 0.500000
O O9 0.658954 0.708337 0.059192
O O10 0.365415 0.866082 0.106955
O O11 0.958115 0.160483 0.801033
O O12 0.217260 0.683978 0.617215
O O13 0.000000 0.500000 0.500000
#
# Coordination Sequence:
#
# PCOD9022671 Si02
#       6
#     2   2   2   2   2   2
#     4   9  17  33  49  73 104 130 163 207 253 291
#     4  10  17  31  51  75  97 129 167 207 247 290
#     4  10  20  32  53  78  99 132 169 204 253 294
#     4  10  19  33  52  77 101 130 169 210 243 298
#     4   9  17  31  52  73  99 129 166 206 249 289
#     4   8  17  31  48  73 101 127 166 208 246 296
#
# _framework density 25.743292
#
# number of rings (size 3 to 8) (size 9 to 14) (size 15 to 20)
#    0.000    2.667    1.667    1.500    0.000    0.000 
#    3.000    3.333    0.000   10.000    0.000    0.000 
#    0.000    0.000    0.000    0.000    0.000    0.000 
#
# Total GULP energy -66984.526487 kJ/mol
# GULP energy per Si atom -5582.043874 kJ/mol
# Density = 2.568470 g / cm^3
# Si number density = 25.743292 Si / 1000 Ang^3
#
#
#
# Elastic Constant Matrix: (Units=GPa)
#
#
# Indices 1 2 3 4 5 6 
#
# 1 93.7791 41.1920 29.0368 -21.1481 12.8487 -12.2366
# 2 41.1920 131.8343 57.8157 -39.9242 23.4509 -39.0236
# 3 29.0368 57.8157 74.5692 -37.2750 14.3586 -31.9224
# 4 -21.1481 -39.9242 -37.2750 51.0292 -20.3579 28.8690
# 5 12.8487 23.4509 14.3586 -20.3579 30.1432 -18.2743
# 6 -12.2366 -39.0236 -31.9224 28.8690 -18.2743 60.4026
#
#
#
# Elastic Compliance Matrix: (Units=1/GPa)
#
#
# Indices 1 2 3 4 5 6 
#
# 1 0.013050 -0.002575 -0.002647 0.001584 -0.002378 -0.001895
# 2 -0.002575 0.013155 -0.006627 0.001513 -0.003286 0.002757
# 3 -0.002647 -0.006627 0.027075 0.012678 0.004935 0.004925
# 4 0.001584 0.001513 0.012678 0.040711 0.015500 -0.006770
# 5 -0.002378 -0.003286 0.004935 0.015500 0.049442 0.007554
# 6 -0.001895 0.002757 0.004925 -0.006770 0.007554 0.026077
#
#
# Mechanical properties :
#
#
# Convention : Reuss Voigt Hill
#
# Bulk Modulus (GPa) = 33.80518 61.80796 47.80657
# Shear Modulus (GPa) = 24.62237 39.79087 32.20662
#
# Velocity S-wave (km/s) = 3.09602 3.93578 3.54088
# Velocity P-wave (km/s) = 5.09319 6.68695 5.94373
#
# Compressibility (1/GPa) = 0.02958126
#
# Stress axis : x y z
#
# Youngs Moduli (GPa) = 76.63096 76.01485 36.93502
#
# Poissons Ratio (x) = 0.19574 0.09775
# Poissons Ratio (y) = 0.19733 0.24478
# Poissons Ratio (z) = 0.20282 0.50378
#
# Static dielectric constant tensor:
#      x y z
#    x 2.090460 0.094380 0.128180 
#    y 0.094380 2.189620 0.043530 
#    z 0.128180 0.043530 2.138110 
# 
# From -- ./inp_files/148029.got.cif
#   From: 2010.05.17/outbox.cif.g08.bks.cpg/sg2_75_cif.got.tgz:148029.got - 2010.06.03 11:33:40.
