data_PCOD9022601
_publ_section_title
;
Structure prediction by ZEFSAII (Michael W. Deem and Ramdas Pophale) SiO2 
 PCOD9022601
Probable space group: P -1
;
_chemical_formula_sum "Si O2"
_cell_formula_units_Z 16
_cell_length_a 12.528160
_cell_length_b 8.966850
_cell_length_c 11.433772
_cell_angle_alpha 99.708235
_cell_angle_beta 97.157929
_cell_angle_gamma 38.676257
_cell_volume 791.129909
_symmetry_space_group_name_H-M "P -1"
_symmetry_group_IT_number 2
_symmetry_cell_setting 'triclinic'
loop_
_space_group_symop_operation_xyz
x,y,z
-x,-y,-z
loop_
_atom_site_type_symbol
_atom_site_label
_atom_site_fract_x
_atom_site_fract_y
_atom_site_fract_z
Si Si1 0.778647 0.376756 0.431105
Si Si2 0.430226 0.210779 0.183164
Si Si3 0.850124 0.989222 0.501875
Si Si4 0.459560 0.897264 0.559726
Si Si5 0.176992 0.891219 0.013370
Si Si6 0.611042 0.525929 0.200340
Si Si7 0.309085 0.671952 0.257878
Si Si8 0.643083 0.016592 0.948312
O O1 0.812851 0.158733 0.421497
O O2 0.611585 0.613302 0.510424
O O3 0.742965 0.455621 0.300593
O O4 0.949314 0.266658 0.493504
O O5 0.529567 0.069689 0.298283
O O6 0.324821 0.475618 0.233112
O O7 0.319190 0.189587 0.124122
O O8 0.552114 0.107838 0.074472
O O9 0.719958 0.991535 0.473675
O O10 0.806031 0.128957 0.632923
O O11 0.500000 0.000000 0.500000
O O12 0.247207 0.781000 0.135913
O O13 0.194571 0.051951 0.025877
O O14 0.296284 0.686467 0.904775
O O15 0.000000 0.000000 0.000000
O O16 0.492242 0.554019 0.272416
O O17 0.493194 0.762619 0.134647
#
# Coordination Sequence:
#
# PCOD9022601 Si02
#       8
#     2   2   2   2   2   2   2   2
#     4  11  23  40  67  96 126 162 211 266 308 370
#     4  11  21  39  65  87 122 159 209 255 308 373
#     4  11  24  41  65  96 125 164 217 260 309 372
#     4  12  25  42  66  93 128 172 208 254 322 372
#     4  11  22  36  60  93 122 158 208 255 308 370
#     4  11  19  38  63  92 118 161 209 253 312 368
#     4  11  19  39  65  88 120 163 209 257 306 368
#     4  10  22  39  63  90 119 163 204 253 314 370
#
# _framework density 20.224239000000001
#
# number of rings (size 3 to 8) (size 9 to 14) (size 15 to 20)
#    0.000    1.000    5.000    3.375    1.750    0.500 
#    0.000    0.625    0.000    0.000    0.000    0.000 
#    0.000    0.000    0.000    0.000    0.000    0.000 
#
# Total GULP energy -89295.315877 kJ/mol
# GULP energy per Si atom -5580.957242 kJ/mol
# Density = 2.017821 g / cm^3
# Si number density = 20.224239 Si / 1000 Ang^3
#
#
#
# Elastic Constant Matrix: (Units=GPa)
#
#
# Indices 1 2 3 4 5 6 
#
# 1 144.2194 26.3704 20.0364 -8.6189 15.2251 -2.5529
# 2 26.3704 19.0062 9.5674 -2.6022 0.5880 -4.8232
# 3 20.0364 9.5674 118.8592 -9.2555 2.6403 0.6831
# 4 -8.6189 -2.6022 -9.2555 27.6168 4.0572 3.8517
# 5 15.2251 0.5880 2.6403 4.0572 24.9508 -1.8132
# 6 -2.5529 -4.8232 0.6831 3.8517 -1.8132 31.3340
#
#
#
# Elastic Compliance Matrix: (Units=1/GPa)
#
#
# Indices 1 2 3 4 5 6 
#
# 1 0.010422 -0.014259 -0.000207 0.003112 -0.006661 -0.002109
# 2 -0.014259 0.076935 -0.004152 -0.001419 0.008388 0.011431
# 3 -0.000207 -0.004152 0.009048 0.002949 -0.001307 -0.001291
# 4 0.003112 -0.001419 0.002949 0.040139 -0.009104 -0.005490
# 5 -0.006661 0.008388 -0.001307 -0.009104 0.045895 0.004552
# 6 -0.002109 0.011431 -0.001291 -0.005490 0.004552 0.034468
#
#
# Mechanical properties :
#
#
# Convention : Reuss Voigt Hill
#
# Bulk Modulus (GPa) = 16.90018 43.78146 30.34082
# Shear Modulus (GPa) = 18.25720 31.85436 25.05578
#
# Velocity S-wave (km/s) = 3.00782 3.97301 3.52362
# Velocity P-wave (km/s) = 4.52075 6.53769 5.62043
#
# Compressibility (1/GPa) = 0.05917097
#
# Stress axis : x y z
#
# Youngs Moduli (GPa) = 95.95440 12.99803 110.51667
#
# Poissons Ratio (x) = 0.18533 0.02284
# Poissons Ratio (y) = 1.36818 0.45882
# Poissons Ratio (z) = 0.01983 0.05396
#
# Static dielectric constant tensor:
#      x y z
#    x 1.714550 0.021410 -0.045950 
#    y 0.021410 1.722090 -0.021840 
#    z -0.045950 -0.021840 1.707870 
# 
# From -- ./inp_files/171334.got.cif
#   From: 2010.05.17/outbox.cif.g08.bks.cpg/sg2_86_cif.got.tgz:171334.got - 2010.06.03 11:33:40.
