data_PCOD9022666
_publ_section_title
;
Structure prediction by ZEFSAII (Michael W. Deem and Ramdas Pophale) SiO2 
 PCOD9022666
Probable space group: P -1
;
_chemical_formula_sum "Si O2"
_cell_formula_units_Z 16
_cell_length_a 27.688468
_cell_length_b 27.874098
_cell_length_c 12.330420
_cell_angle_alpha 154.690143
_cell_angle_beta 154.005732
_cell_angle_gamma 10.510641
_cell_volume 736.032992
_symmetry_space_group_name_H-M "P -1"
_symmetry_group_IT_number 2
_symmetry_cell_setting 'triclinic'
loop_
_space_group_symop_operation_xyz
x,y,z
-x,-y,-z
loop_
_atom_site_type_symbol
_atom_site_label
_atom_site_fract_x
_atom_site_fract_y
_atom_site_fract_z
Si Si1 0.764555 0.626108 0.089486
Si Si2 0.247172 0.012036 0.533360
Si Si3 0.724787 0.245236 0.011663
Si Si4 0.203877 0.406465 0.259701
Si Si5 0.399250 0.322074 0.910236
Si Si6 0.061753 0.772702 0.443097
Si Si7 0.663325 0.795843 0.646576
Si Si8 0.050312 0.081296 0.734842
O O1 0.657353 0.703635 0.152144
O O2 0.068371 0.387137 0.219885
O O3 0.579641 0.890506 0.200776
O O4 0.775788 0.494571 0.785317
O O5 0.975978 0.318031 0.565674
O O6 0.168159 0.037871 0.544922
O O7 0.504586 0.852975 0.736586
O O8 0.326005 0.840000 0.257309
O O9 0.761228 0.288925 0.279464
O O10 0.500000 0.500000 0.000000
O O11 0.000000 0.000000 0.000000
O O12 0.270886 0.319876 0.342145
O O13 0.000000 0.500000 0.000000
O O14 0.401356 0.241085 0.645050
O O15 0.172497 0.627297 0.073860
O O16 0.672854 0.132190 0.095634
O O17 0.955025 0.900090 0.368670
O O18 0.000000 0.000000 0.500000
#
# Coordination Sequence:
#
# PCOD9022666 Si02
#       8
#     2   2   2   2   2   2   2   2
#     4  11  23  42  68  99 127 171 220 266 320 391
#     4  11  24  45  64  94 131 173 220 267 316 390
#     4  10  22  39  63  94 123 162 215 264 314 377
#     4  12  27  42  63  96 132 173 221 266 321 385
#     4  11  24  44  68  98 131 171 219 264 324 395
#     4  10  24  43  70  96 130 171 215 270 327 380
#     4  12  25  43  66  96 135 174 213 272 328 374
#     4  11  25  44  68 101 132 167 215 269 327 392
#
# _framework density 21.738157999999999
#
# number of rings (size 3 to 8) (size 9 to 14) (size 15 to 20)
#    0.000    1.000    0.000    6.750    0.000   15.000 
#    0.000    0.000    0.000    0.000    0.000    0.000 
#    0.000    0.000    0.000    0.000    0.000    0.000 
#
# Total GULP energy -89563.921551 kJ/mol
# GULP energy per Si atom -5597.745097 kJ/mol
# Density = 2.168868 g / cm^3
# Si number density = 21.738158 Si / 1000 Ang^3
#
#
#
# Elastic Constant Matrix: (Units=GPa)
#
#
# Indices 1 2 3 4 5 6 
#
# 1 97.8615 34.7507 72.1014 -1.2238 -7.3457 11.7194
# 2 34.7507 190.8745 87.5699 -5.7830 -9.0726 30.2717
# 3 72.1014 87.5699 199.0434 -4.0174 -31.2716 31.0112
# 4 -1.2238 -5.7830 -4.0174 30.8296 4.6102 9.0845
# 5 -7.3457 -9.0726 -31.2716 4.6102 32.2176 -3.1245
# 6 11.7194 30.2717 31.0112 9.0845 -3.1245 36.6489
#
#
#
# Elastic Compliance Matrix: (Units=1/GPa)
#
#
# Indices 1 2 3 4 5 6 
#
# 1 0.014060 -0.000209 -0.005312 0.000142 -0.002033 -0.000037
# 2 -0.000209 0.007157 -0.002533 0.002501 -0.001278 -0.004430
# 3 -0.005312 -0.002533 0.009836 0.000742 0.007118 -0.004109
# 4 0.000142 0.002501 0.000742 0.037442 -0.005109 -0.012455
# 5 -0.002033 -0.001278 0.007118 -0.005109 0.037873 0.000178
# 6 -0.000037 -0.004430 -0.004109 -0.012455 0.000178 0.037537
#
#
# Mechanical properties :
#
#
# Convention : Reuss Voigt Hill
#
# Bulk Modulus (GPa) = 66.91321 97.40261 82.15791
# Shear Modulus (GPa) = 30.30403 39.49637 34.90020
#
# Velocity S-wave (km/s) = 3.73775 4.26715 4.01119
# Velocity P-wave (km/s) = 7.03391 8.31761 7.70255
#
# Compressibility (1/GPa) = 0.01494473
#
# Stress axis : x y z
#
# Youngs Moduli (GPa) = 71.12368 139.72636 101.66580
#
# Poissons Ratio (x) = 0.02924 0.54003
# Poissons Ratio (y) = 0.01489 0.25752
# Poissons Ratio (z) = 0.37779 0.35393
#
# Static dielectric constant tensor:
#      x y z
#    x 1.785620 -0.018350 0.015860 
#    y -0.018350 1.769030 0.016800 
#    z 0.015860 0.016800 1.833330 
# 
# From -- ./inp_files/477239.got.cif
#   From: 2010.05.17/outbox.cif.g08.bks.cpg/sg2_239_cif.got.tgz:477239.got - 2010.06.03 11:33:40.
