data_PCOD9022561
_publ_section_title
;
Structure prediction by ZEFSAII (Michael W. Deem and Ramdas Pophale) SiO2 
 PCOD9022561
Probable space group: P -1
;
_chemical_formula_sum "Si O2"
_cell_formula_units_Z 16
_cell_length_a 20.590631
_cell_length_b 8.996189
_cell_length_c 16.524097
_cell_angle_alpha 139.001721
_cell_angle_beta 160.717555
_cell_angle_gamma 48.707934
_cell_volume 643.347132
_symmetry_space_group_name_H-M "P -1"
_symmetry_group_IT_number 2
_symmetry_cell_setting 'triclinic'
loop_
_space_group_symop_operation_xyz
x,y,z
-x,-y,-z
loop_
_atom_site_type_symbol
_atom_site_label
_atom_site_fract_x
_atom_site_fract_y
_atom_site_fract_z
Si Si1 0.946571 0.975905 0.554347
Si Si2 0.906887 0.709314 0.006104
Si Si3 0.372956 0.109690 0.581102
Si Si4 0.957787 0.668986 0.713149
Si Si5 0.283652 0.687854 0.826174
Si Si6 0.289685 0.505557 0.928437
Si Si7 0.815527 0.553801 0.004731
Si Si8 0.534421 0.809678 0.527039
O O1 0.135948 0.857560 0.732003
O O2 0.759422 0.768396 0.221640
O O3 0.932722 0.087391 0.673015
O O4 0.030162 0.201232 0.688409
O O5 0.770737 0.599817 0.878759
O O6 0.761365 0.797056 0.808369
O O7 0.000000 0.500000 0.000000
O O8 0.140208 0.111850 0.313347
O O9 0.487968 0.322347 0.743535
O O10 0.437141 0.891498 0.527781
O O11 0.489089 0.173877 0.829159
O O12 0.049822 0.628955 0.891317
O O13 0.134830 0.633946 0.845466
O O14 0.769930 0.457740 0.377570
O O15 0.233168 0.506617 0.766902
O O16 0.394091 0.550747 0.238650
O O17 0.500000 0.000000 0.500000
#
# Coordination Sequence:
#
# PCOD9022561 Si02
#       8
#     2   2   2   2   2   2   2   2
#     4   9  18  39  63  84 128 167 216 259 340 395
#     4  10  23  46  66  93 138 178 223 274 342 405
#     4  10  22  39  62  97 133 165 227 275 334 393
#     4  11  20  38  62  97 133 170 221 282 328 406
#     4   9  19  38  64  94 131 172 219 277 340 395
#     4   9  20  38  62  96 127 171 217 278 340 394
#     4  10  25  41  63  98 133 178 225 271 342 405
#     4  12  25  45  71  95 136 180 228 285 331 402
#
# _framework density 24.869934000000001
#
# number of rings (size 3 to 8) (size 9 to 14) (size 15 to 20)
#    1.500    0.500    1.250    3.000    1.750    3.500 
#    6.750    3.125    0.000    0.000    0.000    0.000 
#    0.000    0.000    0.000    0.000    0.000    0.000 
#
# Total GULP energy -89147.825209 kJ/mol
# GULP energy per Si atom -5571.739076 kJ/mol
# Density = 2.481333 g / cm^3
# Si number density = 24.869934 Si / 1000 Ang^3
#
#
#
# Elastic Constant Matrix: (Units=GPa)
#
#
# Indices 1 2 3 4 5 6 
#
# 1 59.0936 24.2673 30.1686 3.9638 7.9826 9.0593
# 2 24.2673 109.0902 35.2204 5.6333 -0.8641 -28.1121
# 3 30.1686 35.2204 100.6074 10.8961 2.2911 -0.7891
# 4 3.9638 5.6333 10.8961 40.8564 12.8135 -1.3235
# 5 7.9826 -0.8641 2.2911 12.8135 34.9350 4.1753
# 6 9.0593 -28.1121 -0.7891 -1.3235 4.1753 40.4816
#
#
#
# Elastic Compliance Matrix: (Units=1/GPa)
#
#
# Indices 1 2 3 4 5 6 
#
# 1 0.024043 -0.006167 -0.005130 0.001022 -0.004578 -0.009257
# 2 -0.006167 0.014474 -0.003098 -0.000453 0.000789 0.011275
# 3 -0.005130 -0.003098 0.012845 -0.002995 0.001471 -0.001003
# 4 0.001022 -0.000453 -0.002995 0.028650 -0.010729 0.001441
# 5 -0.004578 0.000789 0.001471 -0.010729 0.033796 -0.002235
# 6 -0.009257 0.011275 -0.001003 0.001441 -0.002235 0.034862
#
#
# Mechanical properties :
#
#
# Convention : Reuss Voigt Hill
#
# Bulk Modulus (GPa) = 44.30145 49.78930 47.04538
# Shear Modulus (GPa) = 27.02949 35.19692 31.11320
#
# Velocity S-wave (km/s) = 3.30029 3.76605 3.54084
# Velocity P-wave (km/s) = 5.68986 6.24293 5.97280
#
# Compressibility (1/GPa) = 0.02257262
#
# Stress axis : x y z
#
# Youngs Moduli (GPa) = 41.59272 69.08977 77.84866
#
# Poissons Ratio (x) = 0.42606 0.39934
# Poissons Ratio (y) = 0.25649 0.24119
# Poissons Ratio (z) = 0.21336 0.21406
#
# Static dielectric constant tensor:
#      x y z
#    x 2.025560 0.013640 -0.001530 
#    y 0.013640 1.999340 0.096710 
#    z -0.001530 0.096710 2.022130 
# 
# From -- ./inp_files/602376.got.cif
#   From: 2010.05.17/outbox.cif.g08.bks.cpg/sg2_302_cif.got.tgz:602376.got - 2010.06.03 11:33:40.
