data_PCOD9022909
_publ_section_title
;
Structure prediction by ZEFSAII (Michael W. Deem and Ramdas Pophale) SiO2 
 PCOD9022909
Probable space group: P -1
;
_chemical_formula_sum "Si O2"
_cell_formula_units_Z 16
_cell_length_a 17.564448
_cell_length_b 9.114057
_cell_length_c 11.987483
_cell_angle_alpha 54.251012
_cell_angle_beta 32.161699
_cell_angle_gamma 39.077200
_cell_volume 628.524633
_symmetry_space_group_name_H-M "P -1"
_symmetry_group_IT_number 2
_symmetry_cell_setting 'triclinic'
loop_
_space_group_symop_operation_xyz
x,y,z
-x,-y,-z
loop_
_atom_site_type_symbol
_atom_site_label
_atom_site_fract_x
_atom_site_fract_y
_atom_site_fract_z
Si Si1 0.251256 0.739151 0.268585
Si Si2 0.915796 0.545689 0.925675
Si Si3 0.506451 0.792812 0.364200
Si Si4 0.174532 0.308443 0.286586
Si Si5 0.164221 0.988179 0.857819
Si Si6 0.960365 0.901223 0.809612
Si Si7 0.684517 0.206375 0.597312
Si Si8 0.412070 0.269723 0.184470
O O1 0.327527 0.669986 0.330588
O O2 0.257266 0.527458 0.315758
O O3 0.070703 0.969062 0.326077
O O4 0.402183 0.761900 0.022997
O O5 0.862058 0.631077 0.824967
O O6 0.968601 0.686479 0.860320
O O7 0.076054 0.262848 0.848493
O O8 0.727378 0.627981 0.183507
O O9 0.480488 0.697813 0.325814
O O10 0.361559 0.834019 0.616128
O O11 0.438155 0.054546 0.304515
O O12 0.347870 0.284571 0.130640
O O13 0.000000 0.500000 0.500000
O O14 0.234133 0.053933 0.348105
O O15 0.189557 0.924437 0.986148
O O16 0.000000 0.000000 0.000000
O O17 0.150880 0.825503 0.657925
#
# Coordination Sequence:
#
# PCOD9022909 Si02
#       8
#     2   2   2   2   2   2   2   2
#     4  11  22  39  66 107 144 176 223 290 356 424
#     4  12  26  47  74 103 140 186 241 288 355 415
#     4  11  24  50  75 102 139 193 230 292 351 423
#     4  11  22  38  69 104 142 189 223 281 360 427
#     4  12  29  51  71 100 140 186 254 294 338 414
#     4  12  25  45  67 103 140 188 233 295 345 411
#     4  11  22  40  69 100 144 176 225 286 358 425
#     4  10  22  39  65 107 142 177 226 281 355 427
#
# _framework density 25.456440000000001
#
# number of rings (size 3 to 8) (size 9 to 14) (size 15 to 20)
#    0.000    0.750    3.750    3.750    5.250    3.000 
#    0.000    0.000    0.000    0.000    0.000    0.000 
#    0.000    0.000    0.000    0.000    0.000    0.000 
#
# Total GULP energy -89534.363532 kJ/mol
# GULP energy per Si atom -5595.897721 kJ/mol
# Density = 2.539850 g / cm^3
# Si number density = 25.456440 Si / 1000 Ang^3
#
#
#
# Elastic Constant Matrix: (Units=GPa)
#
#
# Indices 1 2 3 4 5 6 
#
# 1 129.1620 22.7334 33.0985 -14.5259 7.9579 26.8465
# 2 22.7334 87.0900 -1.0271 -10.2733 3.3001 15.0484
# 3 33.0985 -1.0271 109.6299 -1.6794 12.6041 5.8497
# 4 -14.5259 -10.2733 -1.6794 13.9798 -1.2097 0.8637
# 5 7.9579 3.3001 12.6041 -1.2097 55.8218 -0.7773
# 6 26.8465 15.0484 5.8497 0.8637 -0.7773 39.4008
#
#
#
# Elastic Compliance Matrix: (Units=1/GPa)
#
#
# Indices 1 2 3 4 5 6 
#
# 1 0.011447 -0.000301 -0.002780 0.011733 -0.000837 -0.007546
# 2 -0.000301 0.013725 0.000753 0.010128 -0.000794 -0.005386
# 3 -0.002780 0.000753 0.010170 -0.001289 -0.001971 0.000086
# 4 0.011733 0.010128 -0.001289 0.091841 -0.000181 -0.013688
# 5 -0.000837 -0.000794 -0.001971 -0.000181 0.018543 0.001536
# 6 -0.007546 -0.005386 0.000086 -0.013688 0.001536 0.032896
#
#
# Mechanical properties :
#
#
# Convention : Reuss Voigt Hill
#
# Bulk Modulus (GPa) = 32.58751 48.38794 40.48772
# Shear Modulus (GPa) = 25.83873 39.91230 32.87551
#
# Velocity S-wave (km/s) = 3.18939 3.96392 3.59756
# Velocity P-wave (km/s) = 5.13732 6.32453 5.76158
#
# Compressibility (1/GPa) = 0.03068660
#
# Stress axis : x y z
#
# Youngs Moduli (GPa) = 87.35819 72.85746 98.32504
#
# Poissons Ratio (x) = 0.02196 0.27337
# Poissons Ratio (y) = 0.02632 -0.07408
# Poissons Ratio (z) = 0.24288 -0.05489
#
# Static dielectric constant tensor:
#      x y z
#    x 2.002710 -0.042650 0.046920 
#    y -0.042650 2.012890 0.067930 
#    z 0.046920 0.067930 2.120090 
# 
# From -- ./inp_files/461979.got.cif
#   From: 2010.05.17/outbox.cif.g08.bks.cpg/sg2_231_cif.got.tgz:461979.got - 2010.06.03 11:33:40.
