data_PCOD9022830
_publ_section_title
;
Structure prediction by ZEFSAII (Michael W. Deem and Ramdas Pophale) SiO2 
 PCOD9022830
Probable space group: P -1
;
_chemical_formula_sum "Si O2"
_cell_formula_units_Z 16
_cell_length_a 6.812149
_cell_length_b 18.151983
_cell_length_c 18.272959
_cell_angle_alpha 158.088618
_cell_angle_beta 73.128607
_cell_angle_gamma 92.789096
_cell_volume 634.534581
_symmetry_space_group_name_H-M "P -1"
_symmetry_group_IT_number 2
_symmetry_cell_setting 'triclinic'
loop_
_space_group_symop_operation_xyz
x,y,z
-x,-y,-z
loop_
_atom_site_type_symbol
_atom_site_label
_atom_site_fract_x
_atom_site_fract_y
_atom_site_fract_z
Si Si1 0.926738 0.762912 0.589671
Si Si2 0.399641 0.761407 0.577852
Si Si3 0.567941 0.174276 0.118992
Si Si4 0.584786 0.017634 0.735730
Si Si5 0.765587 0.466159 0.398649
Si Si6 0.406525 0.371101 0.846227
Si Si7 0.268823 0.628788 0.942589
Si Si8 0.719659 0.886963 0.282381
O O1 0.954157 0.527630 0.405129
O O2 0.165144 0.758086 0.581170
O O3 0.857689 0.794905 0.540584
O O4 0.678887 0.032900 0.899421
O O5 0.516858 0.667104 0.558715
O O6 0.620827 0.559049 0.309927
O O7 0.373036 0.009106 0.793434
O O8 0.785753 0.216672 0.156198
O O9 0.310806 0.439101 0.422235
O O10 0.500000 0.000000 0.000000
O O11 0.523663 0.006938 0.647996
O O12 0.579922 0.254586 0.963084
O O13 0.306153 0.503666 0.901354
O O14 0.225950 0.348461 0.897995
O O15 0.646345 0.086983 0.536586
O O16 0.500000 0.500000 0.000000
O O17 0.957631 0.831349 0.158706
#
# Coordination Sequence:
#
# PCOD9022830 Si02
#       8
#     2   2   2   2   2   2   2   2
#     4  10  22  39  64  94 133 170 218 272 316 386
#     4  11  24  41  61  98 134 172 221 266 327 386
#     4   9  18  39  64  91 128 172 220 270 317 379
#     4  11  23  41  65  95 127 174 216 265 326 384
#     4   9  20  39  63  91 128 174 219 265 327 379
#     4  11  24  47  68  98 127 169 215 269 332 388
#     4  12  25  42  67  96 132 173 214 272 325 391
#     4  11  25  45  68  97 130 166 222 270 323 393
#
# _framework density 25.215330999999999
#
# number of rings (size 3 to 8) (size 9 to 14) (size 15 to 20)
#    0.000    1.500    2.500    1.875    0.000    5.000 
#    0.000    5.625    0.000    0.000    0.000    0.000 
#    0.000    0.000    0.000    0.000    0.000    0.000 
#
# Total GULP energy -89210.276603 kJ/mol
# GULP energy per Si atom -5575.642288 kJ/mol
# Density = 2.515794 g / cm^3
# Si number density = 25.215331 Si / 1000 Ang^3
#
#
#
# Elastic Constant Matrix: (Units=GPa)
#
#
# Indices 1 2 3 4 5 6 
#
# 1 160.9884 50.3489 49.2475 17.5660 31.7183 27.0495
# 2 50.3489 116.5701 19.0748 19.3713 7.2324 16.9474
# 3 49.2475 19.0748 81.6332 -14.7903 40.5221 10.7861
# 4 17.5660 19.3713 -14.7903 33.0500 10.1658 15.4665
# 5 31.7183 7.2324 40.5221 10.1658 43.6938 10.0754
# 6 27.0495 16.9474 10.7861 15.4665 10.0754 53.4396
#
#
#
# Elastic Compliance Matrix: (Units=1/GPa)
#
#
# Indices 1 2 3 4 5 6 
#
# 1 0.009804 -0.001284 -0.009275 -0.009539 0.004075 -0.000691
# 2 -0.001284 0.013186 -0.013260 -0.018340 0.014937 0.001637
# 3 -0.009275 -0.013260 0.070575 0.071948 -0.070285 -0.012917
# 4 -0.009539 -0.018340 0.071948 0.112403 -0.077909 -0.021720
# 5 0.004075 0.014937 -0.070285 -0.077909 0.098129 0.011434
# 6 -0.000691 0.001637 -0.012917 -0.021720 0.011434 0.025281
#
#
# Mechanical properties :
#
#
# Convention : Reuss Voigt Hill
#
# Bulk Modulus (GPa) = 21.77350 66.28157 44.02753
# Shear Modulus (GPa) = 12.74450 42.07139 27.40795
#
# Velocity S-wave (km/s) = 2.25061 4.08914 3.30048
# Velocity P-wave (km/s) = 3.92523 6.97410 5.65886
#
# Compressibility (1/GPa) = 0.04592739
#
# Stress axis : x y z
#
# Youngs Moduli (GPa) = 101.99419 75.83724 14.16931
#
# Poissons Ratio (x) = 0.09740 0.13142
# Poissons Ratio (y) = 0.13099 0.18789
# Poissons Ratio (z) = 0.94597 1.00561
#
# Static dielectric constant tensor:
#      x y z
#    x 1.979360 0.027110 -0.056780 
#    y 0.027110 2.033990 0.050280 
#    z -0.056780 0.050280 2.045670 
# 
# From -- ./inp_files/584318.got.cif
#   From: 2010.05.17/outbox.cif.g08.bks.cpg/sg2_293_cif.got.tgz:584318.got - 2010.06.03 11:33:40.
