data_PCOD9022811
_publ_section_title
;
Structure prediction by ZEFSAII (Michael W. Deem and Ramdas Pophale) SiO2 
 PCOD9022811
Probable space group: P -1
;
_chemical_formula_sum "Si O2"
_cell_formula_units_Z 12
_cell_length_a 12.957700
_cell_length_b 7.389899
_cell_length_c 7.943199
_cell_angle_alpha 59.247159
_cell_angle_beta 53.707097
_cell_angle_gamma 81.739997
_cell_volume 512.777340
_symmetry_space_group_name_H-M "P -1"
_symmetry_group_IT_number 2
_symmetry_cell_setting 'triclinic'
loop_
_space_group_symop_operation_xyz
x,y,z
-x,-y,-z
loop_
_atom_site_type_symbol
_atom_site_label
_atom_site_fract_x
_atom_site_fract_y
_atom_site_fract_z
Si Si1 0.079822 0.228213 0.237355
Si Si2 0.680716 0.913795 0.827633
Si Si3 0.172929 0.619002 0.505503
Si Si4 0.605936 0.879971 0.532244
Si Si5 0.868689 0.826229 0.175730
Si Si6 0.446722 0.573114 0.346815
O O1 0.222157 0.252086 0.174138
O O2 0.972360 0.369723 0.301517
O O3 0.111690 0.237643 0.004814
O O4 0.000000 0.000000 0.500000
O O5 0.652449 0.949985 0.642234
O O6 0.757354 0.137017 0.740568
O O7 0.542841 0.795486 0.095841
O O8 0.143679 0.371853 0.583037
O O9 0.297726 0.592143 0.510472
O O10 0.738964 0.918325 0.275298
O O11 0.552673 0.619109 0.695741
O O12 0.500000 0.000000 0.500000
O O13 0.000000 0.000000 0.000000
O O14 0.500000 0.500000 0.500000
#
# Coordination Sequence:
#
# PCOD9022811 Si02
#       6
#     2   2   2   2   2   2
#     4  10  22  40  63  92 124 166 212 263 318 375
#     4  11  22  42  64  92 130 168 212 264 315 380
#     4  10  22  39  64  93 124 167 210 256 318 373
#     4  11  25  42  63  95 128 167 213 264 320 377
#     4  11  23  42  64  93 128 167 216 264 314 379
#     4  11  23  41  66  97 129 167 211 261 318 380
#
# _framework density 23.401966999999999
#
# number of rings (size 3 to 8) (size 9 to 14) (size 15 to 20)
#    0.000    1.333    0.000    6.500    0.000    4.000 
#    0.000   13.333    0.000    2.000    0.000    0.000 
#    0.000    0.000    0.000    0.000    0.000    0.000 
#
# Total GULP energy -66832.946963 kJ/mol
# GULP energy per Si atom -5569.412247 kJ/mol
# Density = 2.334870 g / cm^3
# Si number density = 23.401967 Si / 1000 Ang^3
#
#
#
# Elastic Constant Matrix: (Units=GPa)
#
#
# Indices 1 2 3 4 5 6 
#
# 1 95.2828 52.1589 19.9500 2.8237 -24.5279 -41.0942
# 2 52.1589 112.1558 39.7669 -10.2640 -10.0164 -26.0743
# 3 19.9500 39.7669 103.6205 -15.0064 -28.0348 -1.0959
# 4 2.8237 -10.2640 -15.0064 34.4577 2.8638 -18.9587
# 5 -24.5279 -10.0164 -28.0348 2.8638 44.8080 3.4955
# 6 -41.0942 -26.0743 -1.0959 -18.9587 3.4955 54.6347
#
#
#
# Elastic Compliance Matrix: (Units=1/GPa)
#
#
# Indices 1 2 3 4 5 6 
#
# 1 0.022593 -0.006338 0.001728 0.004281 0.010602 0.014811
# 2 -0.006338 0.014662 -0.004565 0.005585 -0.003741 0.004317
# 3 0.001728 -0.004565 0.013912 0.004004 0.008354 0.000255
# 4 0.004281 0.005585 0.004004 0.043457 0.001686 0.020938
# 5 0.010602 -0.003741 0.008354 0.001686 0.032022 0.004893
# 6 0.014811 0.004317 0.000255 0.020938 0.004893 0.038461
#
#
# Mechanical properties :
#
#
# Convention : Reuss Voigt Hill
#
# Bulk Modulus (GPa) = 30.47080 59.42340 44.94710
# Shear Modulus (GPa) = 25.72056 40.05898 32.88977
#
# Velocity S-wave (km/s) = 3.31883 4.14185 3.75297
# Velocity P-wave (km/s) = 5.26641 6.95132 6.16668
#
# Compressibility (1/GPa) = 0.03281830
#
# Stress axis : x y z
#
# Youngs Moduli (GPa) = 44.26216 68.20122 71.87781
#
# Poissons Ratio (x) = 0.43223 -0.12417
# Poissons Ratio (y) = 0.28051 0.32810
# Poissons Ratio (z) = -0.07646 0.31131
#
# Static dielectric constant tensor:
#      x y z
#    x 1.905660 0.038050 -0.023630 
#    y 0.038050 2.326850 -0.151900 
#    z -0.023630 -0.151900 1.941730 
# 
# From -- ./inp_files/230162.got.cif
#   From: 2010.05.17/outbox.cif.g08.bks.cpg/sg2_116_cif.got.tgz:230162.got - 2010.06.03 11:33:40.
