data_PCOD9022134
_publ_section_title
;
Structure prediction by ZEFSAII (Michael W. Deem and Ramdas Pophale) SiO2 
 PCOD9022134
Probable space group: P -1
;
_chemical_formula_sum "Si O2"
_cell_formula_units_Z 12
_cell_length_a 9.122381
_cell_length_b 9.841191
_cell_length_c 8.941327
_cell_angle_alpha 105.204511
_cell_angle_beta 60.796474
_cell_angle_gamma 89.710412
_cell_volume 667.667443
_symmetry_space_group_name_H-M "P -1"
_symmetry_group_IT_number 2
_symmetry_cell_setting 'triclinic'
loop_
_space_group_symop_operation_xyz
x,y,z
-x,-y,-z
loop_
_atom_site_type_symbol
_atom_site_label
_atom_site_fract_x
_atom_site_fract_y
_atom_site_fract_z
Si Si1 0.026447 0.094504 0.872888
Si Si2 0.659010 0.402621 0.467495
Si Si3 0.013046 0.395909 0.103553
Si Si4 0.146065 0.548432 0.339170
Si Si5 0.141585 0.870546 0.333870
Si Si6 0.647870 0.087591 0.492519
O O1 0.872271 0.122866 0.837233
O O2 0.183454 0.008645 0.681463
O O3 0.065315 0.240932 0.963927
O O4 0.000000 0.000000 0.000000
O O5 0.500000 0.500000 0.500000
O O6 0.831450 0.400579 0.281909
O O7 0.695070 0.462257 0.631604
O O8 0.628142 0.240954 0.465162
O O9 0.147092 0.447770 0.166283
O O10 0.000000 0.500000 0.000000
O O11 0.102353 0.714562 0.359104
O O12 0.000000 0.500000 0.500000
O O13 0.313052 0.888806 0.343959
O O14 0.000000 0.000000 0.500000
O O15 0.500000 0.000000 0.500000
#
# Coordination Sequence:
#
# PCOD9022134 Si02
#       6
#     2   2   2   2   2   2
#     4  11  21  39  60  84 116 146 191 241 279 328
#     4  10  22  39  57  83 117 149 188 233 279 340
#     4  11  21  37  62  86 112 147 191 238 283 332
#     4   9  19  35  56  83 111 148 190 224 280 343
#     4   9  19  35  57  81 111 150 189 228 275 341
#     4  10  22  39  58  82 114 154 189 227 283 339
#
# _framework density 17.973020999999999
#
# number of rings (size 3 to 8) (size 9 to 14) (size 15 to 20)
#    0.000    2.000    3.333    0.000    4.667    1.333 
#    0.000    3.333    0.000    0.000    0.000    0.000 
#    0.000    0.000    0.000    0.000    0.000    0.000 
#
# Total GULP energy -66822.291307 kJ/mol
# GULP energy per Si atom -5568.524276 kJ/mol
# Density = 1.793211 g / cm^3
# Si number density = 17.973021 Si / 1000 Ang^3
#
#
#
# Elastic Constant Matrix: (Units=GPa)
#
#
# Indices 1 2 3 4 5 6 
#
# 1 131.8217 77.1238 46.2018 -3.3160 37.0718 1.9353
# 2 77.1238 152.2445 41.2304 1.3535 35.5145 2.7971
# 3 46.2018 41.2304 69.8303 -1.6514 40.4549 0.5288
# 4 -3.3160 1.3535 -1.6514 39.1439 1.1951 2.9435
# 5 37.0718 35.5145 40.4549 1.1951 37.7919 2.2828
# 6 1.9353 2.7971 0.5288 2.9435 2.2828 33.7945
#
#
#
# Elastic Compliance Matrix: (Units=1/GPa)
#
#
# Indices 1 2 3 4 5 6 
#
# 1 0.012672 -0.004444 -0.002435 0.001302 -0.005686 -0.000049
# 2 -0.004444 0.010001 -0.000197 -0.000569 -0.004798 -0.000196
# 3 -0.002435 -0.000197 0.038739 0.002480 -0.039093 0.001974
# 4 0.001302 -0.000569 0.002480 0.026061 -0.004096 -0.002059
# 5 -0.005686 -0.004798 -0.039093 -0.004096 0.078744 -0.003628
# 6 -0.000049 -0.000196 0.001974 -0.002059 -0.003628 0.030003
#
#
# Mechanical properties :
#
#
# Convention : Reuss Voigt Hill
#
# Bulk Modulus (GPa) = 21.15942 75.88986 48.52464
# Shear Modulus (GPa) = 22.11155 34.76877 28.44016
#
# Velocity S-wave (km/s) = 3.51132 4.40306 3.98223
# Velocity P-wave (km/s) = 5.31390 8.25623 6.94272
#
# Compressibility (1/GPa) = 0.04726027
#
# Stress axis : x y z
#
# Youngs Moduli (GPa) = 78.91360 99.98970 25.81357
#
# Poissons Ratio (x) = 0.44439 0.06286
# Poissons Ratio (y) = 0.35072 0.00507
# Poissons Ratio (z) = 0.19217 0.01966
#
# Static dielectric constant tensor:
#      x y z
#    x 1.643700 0.002540 0.033680 
#    y 0.002540 1.558410 -0.009510 
#    z 0.033680 -0.009510 1.638820 
# 
# From -- ./inp_files/144421.got.cif
#   From: 2010.05.17/outbox.cif.g08.bks.cpg/sg2_73_cif.got.tgz:144421.got - 2010.06.03 11:33:40.
