data_PCOD9022548
_publ_section_title
;
Structure prediction by ZEFSAII (Michael W. Deem and Ramdas Pophale) SiO2 
 PCOD9022548
Probable space group: P -1
;
_chemical_formula_sum "Si O2"
_cell_formula_units_Z 16
_cell_length_a 14.509952
_cell_length_b 5.372406
_cell_length_c 16.360749
_cell_angle_alpha 62.120266
_cell_angle_beta 37.155805
_cell_angle_gamma 80.770204
_cell_volume 624.751175
_symmetry_space_group_name_H-M "P -1"
_symmetry_group_IT_number 2
_symmetry_cell_setting 'triclinic'
loop_
_space_group_symop_operation_xyz
x,y,z
-x,-y,-z
loop_
_atom_site_type_symbol
_atom_site_label
_atom_site_fract_x
_atom_site_fract_y
_atom_site_fract_z
Si Si1 0.842811 0.560123 0.631761
Si Si2 0.182057 0.122948 0.070265
Si Si3 0.214994 0.762639 0.874897
Si Si4 0.030885 0.191768 0.322197
Si Si5 0.437590 0.061059 0.332059
Si Si6 0.681642 0.169298 0.384147
Si Si7 0.933509 0.662903 0.213716
Si Si8 0.538614 0.260069 0.793407
O O1 0.868116 0.624366 0.699524
O O2 0.672506 0.290572 0.764403
O O3 0.000000 0.500000 0.500000
O O4 0.881175 0.888446 0.509027
O O5 0.159328 0.130304 0.181707
O O6 0.211482 0.428547 0.950625
O O7 0.342461 0.038228 0.958564
O O8 0.998563 0.907223 0.201448
O O9 0.396474 0.979151 0.746388
O O10 0.202547 0.799170 0.781229
O O11 0.069787 0.791178 0.026069
O O12 0.967218 0.392297 0.277766
O O13 0.476424 0.413015 0.229210
O O14 0.331755 0.025111 0.495376
O O15 0.383187 0.822112 0.331767
O O16 0.753635 0.511527 0.321609
O O17 0.500000 0.000000 0.500000
#
# Coordination Sequence:
#
# PCOD9022548 Si02
#       8
#     2   2   2   2   2   2   2   2
#     4  11  25  43  67  98 132 170 223 277 333 404
#     4  10  22  41  66  95 128 176 224 268 338 399
#     4   9  20  41  60  92 131 170 222 276 326 392
#     4  10  24  42  65  95 130 172 220 275 338 399
#     4  10  22  43  65 100 133 178 224 276 339 390
#     4  10  22  39  62  95 132 174 225 276 328 394
#     4  11  20  40  66  88 130 172 219 271 336 397
#     4  11  24  43  71  97 137 180 224 277 336 398
#
# _framework density 25.610192999999999
#
# number of rings (size 3 to 8) (size 9 to 14) (size 15 to 20)
#    0.000    1.750    1.250    1.875    7.000    1.000 
#    2.250    5.000    0.000    0.000    0.000    0.000 
#    0.000    0.000    0.000    0.000    0.000    0.000 
#
# Total GULP energy -89221.732100 kJ/mol
# GULP energy per Si atom -5576.358256 kJ/mol
# Density = 2.555190 g / cm^3
# Si number density = 25.610193 Si / 1000 Ang^3
#
#
#
# Elastic Constant Matrix: (Units=GPa)
#
#
# Indices 1 2 3 4 5 6 
#
# 1 135.5866 53.8908 50.9056 7.6055 -13.4663 35.5015
# 2 53.8908 87.7301 20.4261 14.9847 0.0575 35.8904
# 3 50.9056 20.4261 94.5628 13.9136 10.5082 17.7736
# 4 7.6055 14.9847 13.9136 35.9828 14.5742 3.5581
# 5 -13.4663 0.0575 10.5082 14.5742 33.4183 3.2325
# 6 35.5015 35.8904 17.7736 3.5581 3.2325 56.4350
#
#
#
# Elastic Compliance Matrix: (Units=1/GPa)
#
#
# Indices 1 2 3 4 5 6 
#
# 1 0.013694 -0.005197 -0.006289 -0.001355 0.008456 -0.003728
# 2 -0.005197 0.019169 0.001216 -0.007049 0.001430 -0.008942
# 3 -0.006289 0.001216 0.014915 -0.002377 -0.006092 -0.001016
# 4 -0.001355 -0.007049 -0.002377 0.038341 -0.016956 0.004638
# 5 0.008456 0.001430 -0.006092 -0.016956 0.043192 -0.005715
# 6 -0.003728 -0.008942 -0.001016 0.004638 -0.005715 0.026106
#
#
# Mechanical properties :
#
#
# Convention : Reuss Voigt Hill
#
# Bulk Modulus (GPa) = 36.71214 63.14718 49.92966
# Shear Modulus (GPa) = 27.02165 38.01103 32.51634
#
# Velocity S-wave (km/s) = 3.25177 3.85673 3.56710
# Velocity P-wave (km/s) = 5.33524 6.67406 6.04185
#
# Compressibility (1/GPa) = 0.02723894
#
# Stress axis : x y z
#
# Youngs Moduli (GPa) = 73.02489 52.16738 67.04489
#
# Poissons Ratio (x) = 0.27110 0.42164
# Poissons Ratio (y) = 0.37949 -0.08152
# Poissons Ratio (z) = 0.45925 -0.06343
#
# Static dielectric constant tensor:
#      x y z
#    x 2.033340 -0.025590 -0.060900 
#    y -0.025590 2.157970 -0.095940 
#    z -0.060900 -0.095940 2.092690 
# 
# From -- ./inp_files/46246.got.cif
#   From: 2010.05.17/outbox.cif.g08.bks.cpg/sg2_24_cif.got.tgz:46246.got - 2010.06.03 11:33:40.
