data_PCOD9022339
_publ_section_title
;
Structure prediction by ZEFSAII (Michael W. Deem and Ramdas Pophale) SiO2 
 PCOD9022339
Probable space group: P -1
;
_chemical_formula_sum "Si O2"
_cell_formula_units_Z 16
_cell_length_a 12.650838
_cell_length_b 12.108818
_cell_length_c 21.890009
_cell_angle_alpha 25.882987
_cell_angle_beta 30.983570
_cell_angle_gamma 38.587872
_cell_volume 752.762161
_symmetry_space_group_name_H-M "P -1"
_symmetry_group_IT_number 2
_symmetry_cell_setting 'triclinic'
loop_
_space_group_symop_operation_xyz
x,y,z
-x,-y,-z
loop_
_atom_site_type_symbol
_atom_site_label
_atom_site_fract_x
_atom_site_fract_y
_atom_site_fract_z
Si Si1 0.366656 0.979580 0.015058
Si Si2 0.026009 0.616737 0.994609
Si Si3 0.892889 0.410447 0.286859
Si Si4 0.614053 0.952501 0.653812
Si Si5 0.015980 0.624278 0.364983
Si Si6 0.857242 0.452639 0.786150
Si Si7 0.371652 0.980997 0.635854
Si Si8 0.636602 0.935717 0.154896
O O1 0.248460 0.720753 0.202204
O O2 0.168173 0.177782 0.009799
O O3 0.500000 0.000000 0.000000
O O4 0.480803 0.015694 0.875834
O O5 0.253111 0.722592 0.830280
O O6 0.000000 0.500000 0.000000
O O7 0.999673 0.438675 0.154326
O O8 0.804726 0.134435 0.473719
O O9 0.722360 0.645198 0.256847
O O10 0.037074 0.474015 0.240031
O O11 0.507344 0.022216 0.607697
O O12 0.481442 0.014569 0.748689
O O13 0.665316 0.652247 0.776808
O O14 0.007248 0.494306 0.367669
O O15 0.000000 0.500000 0.500000
O O16 0.823306 0.822753 0.363124
O O17 0.806808 0.154587 0.960184
O O18 0.500000 0.000000 0.500000
#
# Coordination Sequence:
#
# PCOD9022339 Si02
#       8
#     2   2   2   2   2   2   2   2
#     4   9  21  38  59  87 119 156 201 247 301 363
#     4  10  22  39  61  87 120 163 206 252 307 366
#     4  11  23  41  62  89 124 164 207 258 314 373
#     4  12  24  38  62  96 125 160 207 261 315 370
#     4  10  22  39  61  87 120 163 206 252 307 366
#     4  11  23  41  62  89 124 164 207 258 314 373
#     4  11  23  41  62  89 125 167 212 260 310 372
#     4  10  22  41  62  88 121 165 208 250 310 377
#
# _framework density 21.255053
#
# number of rings (size 3 to 8) (size 9 to 14) (size 15 to 20)
#    0.000    1.500    0.000    5.250    0.000    8.000 
#    0.000    0.000    0.000    0.000    0.000    0.000 
#    0.000    0.000    0.000    0.000    0.000    0.000 
#
# Total GULP energy -89225.502445 kJ/mol
# GULP energy per Si atom -5576.593903 kJ/mol
# Density = 2.120668 g / cm^3
# Si number density = 21.255053 Si / 1000 Ang^3
#
#
#
# Elastic Constant Matrix: (Units=GPa)
#
#
# Indices 1 2 3 4 5 6 
#
# 1 160.7788 0.3591 23.1727 18.5115 21.8151 20.7260
# 2 0.3591 52.8036 -1.0615 14.7951 13.7409 17.9338
# 3 23.1727 -1.0615 63.6648 17.0195 19.5541 15.5811
# 4 18.5115 14.7951 17.0195 34.6949 15.3615 11.4148
# 5 21.8151 13.7409 19.5541 15.3615 44.0274 9.1206
# 6 20.7260 17.9338 15.5811 11.4148 9.1206 39.4318
#
#
#
# Elastic Compliance Matrix: (Units=1/GPa)
#
#
# Indices 1 2 3 4 5 6 
#
# 1 0.007373 0.002579 -0.000251 -0.002524 -0.002722 -0.003589
# 2 0.002579 0.027901 0.007394 -0.009530 -0.007354 -0.012507
# 3 -0.000251 0.007394 0.022365 -0.007960 -0.007684 -0.007986
# 4 -0.002524 -0.009530 -0.007960 0.041532 -0.006369 -0.001743
# 5 -0.002722 -0.007354 -0.007684 -0.006369 0.031501 0.002369
# 6 -0.003589 -0.012507 -0.007986 -0.001743 0.002369 0.036047
#
#
# Mechanical properties :
#
#
# Convention : Reuss Voigt Hill
#
# Bulk Modulus (GPa) = 12.97326 35.79864 24.38595
# Shear Modulus (GPa) = 28.90694 40.61594 34.76144
#
# Velocity S-wave (km/s) = 3.69182 4.37611 4.04845
# Velocity P-wave (km/s) = 4.92845 6.51251 5.77505
#
# Compressibility (1/GPa) = 0.07708160
#
# Stress axis : x y z
#
# Youngs Moduli (GPa) = 135.63312 35.84122 44.71357
#
# Poissons Ratio (x) = -0.09245 0.01124
# Poissons Ratio (y) = -0.34985 -0.33059
# Poissons Ratio (z) = 0.03408 -0.26499
#
# Static dielectric constant tensor:
#      x y z
#    x 1.741720 0.001550 0.024230 
#    y 0.001550 1.830040 -0.023400 
#    z 0.024230 -0.023400 1.614410 
# 
# From -- ./inp_files/594096.got.cif
#   From: 2010.05.17/outbox.cif.g08.bks.cpg/sg2_298_cif.got.tgz:594096.got - 2010.06.03 11:33:40.
