data_PCOD9022021
_publ_section_title
;
Structure prediction by ZEFSAII (Michael W. Deem and Ramdas Pophale) SiO2 
 PCOD9022021
Probable space group: P -1
;
_chemical_formula_sum "Si O2"
_cell_formula_units_Z 16
_cell_length_a 10.856490
_cell_length_b 5.234509
_cell_length_c 15.155781
_cell_angle_alpha 101.944057
_cell_angle_beta 92.630998
_cell_angle_gamma 122.712251
_cell_volume 695.847008
_symmetry_space_group_name_H-M "P -1"
_symmetry_group_IT_number 2
_symmetry_cell_setting 'triclinic'
loop_
_space_group_symop_operation_xyz
x,y,z
-x,-y,-z
loop_
_atom_site_type_symbol
_atom_site_label
_atom_site_fract_x
_atom_site_fract_y
_atom_site_fract_z
Si Si1 0.174743 0.769790 0.458210
Si Si2 0.351127 0.342646 0.043569
Si Si3 0.555424 0.834000 0.635534
Si Si4 0.963754 0.621533 0.746836
Si Si5 0.640457 0.481384 0.749555
Si Si6 0.785983 0.628359 0.428733
Si Si7 0.321782 0.761600 0.963624
Si Si8 0.858123 0.655031 0.226860
O O1 0.179324 0.583807 0.527562
O O2 0.067774 0.516764 0.363461
O O3 0.333967 0.976609 0.428196
O O4 0.141084 0.023749 0.504173
O O5 0.396223 0.432878 0.152220
O O6 0.500000 0.500000 0.000000
O O7 0.266440 0.493101 0.015419
O O8 0.260069 0.973443 0.996016
O O9 0.623368 0.684414 0.688706
O O10 0.392536 0.549492 0.582499
O O11 0.543654 0.104690 0.701682
O O12 0.017494 0.425166 0.784398
O O13 0.808282 0.567569 0.766100
O O14 0.084952 0.995380 0.777751
O O15 0.820952 0.634806 0.327397
O O16 0.279560 0.604099 0.855448
O O17 0.500000 0.000000 0.000000
#
# Coordination Sequence:
#
# PCOD9022021 Si02
#       8
#     2   2   2   2   2   2   2   2
#     4  11  23  44  64  96 136 182 216 274 329 377
#     4  10  22  38  68  97 130 160 213 273 330 396
#     4  11  23  40  68  98 138 168 221 278 329 399
#     4  11  25  46  65  90 140 181 226 259 312 404
#     4  11  23  42  69  98 129 184 216 261 340 388
#     4  12  25  38  68 101 135 170 229 278 327 380
#     4  10  23  43  65  97 134 163 203 283 339 386
#     4  12  26  43  67  99 132 177 223 273 319 388
#
# _framework density 22.993559000000001
#
# number of rings (size 3 to 8) (size 9 to 14) (size 15 to 20)
#    0.000    1.000    0.000    7.500    7.000    3.000 
#    0.000    3.750    0.000    0.000    0.000    0.000 
#    0.000    0.000    0.000    0.000    0.000    0.000 
#
# Total GULP energy -89530.026847 kJ/mol
# GULP energy per Si atom -5595.626678 kJ/mol
# Density = 2.294122 g / cm^3
# Si number density = 22.993559 Si / 1000 Ang^3
#
#
#
# Elastic Constant Matrix: (Units=GPa)
#
#
# Indices 1 2 3 4 5 6 
#
# 1 57.1417 38.4118 7.7289 11.2807 -8.3051 -5.5115
# 2 38.4118 104.5736 35.8285 16.3463 -18.7381 -42.8406
# 3 7.7289 35.8285 101.3668 28.3153 -16.3118 -2.1021
# 4 11.2807 16.3463 28.3153 39.4091 -6.5701 -4.4054
# 5 -8.3051 -18.7381 -16.3118 -6.5701 23.2274 4.2631
# 6 -5.5115 -42.8406 -2.1021 -4.4054 4.2631 46.5604
#
#
#
# Elastic Compliance Matrix: (Units=1/GPa)
#
#
# Indices 1 2 3 4 5 6 
#
# 1 0.027304 -0.015076 0.004952 -0.006133 0.001385 -0.011123
# 2 -0.015076 0.028611 -0.007661 0.002016 0.008549 0.023603
# 3 0.004952 -0.007661 0.015470 -0.009295 0.005131 -0.007114
# 4 -0.006133 0.002016 -0.009295 0.033681 0.001748 0.003736
# 5 0.001385 0.008549 0.005131 0.001748 0.053901 0.003492
# 6 -0.011123 0.023603 -0.007114 0.003736 0.003492 0.041591
#
#
# Mechanical properties :
#
#
# Convention : Reuss Voigt Hill
#
# Bulk Modulus (GPa) = 27.92098 47.44672 37.68385
# Shear Modulus (GPa) = 20.15589 33.91358 27.03474
#
# Velocity S-wave (km/s) = 2.96394 3.84463 3.43264
# Velocity P-wave (km/s) = 4.88698 6.35514 5.66879
#
# Compressibility (1/GPa) = 0.03581536
#
# Stress axis : x y z
#
# Youngs Moduli (GPa) = 36.62466 34.95141 64.64153
#
# Poissons Ratio (x) = 0.52692 -0.32011
# Poissons Ratio (y) = 0.55214 0.49524
# Poissons Ratio (z) = -0.18137 0.26777
#
# Static dielectric constant tensor:
#      x y z
#    x 2.290230 -0.513480 -0.069900 
#    y -0.513480 2.475280 0.095600 
#    z -0.069900 0.095600 1.848330 
# 
# From -- ./inp_files/511166.got.cif
#   From: 2010.05.17/outbox.cif.g08.bks.cpg/sg2_256_cif.got.tgz:511166.got - 2010.06.03 11:33:40.
