data_PCOD9022775
_publ_section_title
;
Structure prediction by ZEFSAII (Michael W. Deem and Ramdas Pophale) SiO2 
 PCOD9022775
Probable space group: P -1
;
_chemical_formula_sum "Si O2"
_cell_formula_units_Z 14
_cell_length_a 11.721591
_cell_length_b 8.934146
_cell_length_c 15.860267
_cell_angle_alpha 134.827320
_cell_angle_beta 124.510947
_cell_angle_gamma 92.100291
_cell_volume 646.269346
_symmetry_space_group_name_H-M "P -1"
_symmetry_group_IT_number 2
_symmetry_cell_setting 'triclinic'
loop_
_space_group_symop_operation_xyz
x,y,z
-x,-y,-z
loop_
_atom_site_type_symbol
_atom_site_label
_atom_site_fract_x
_atom_site_fract_y
_atom_site_fract_z
Si Si1 0.819463 0.892514 0.037021
Si Si2 0.704293 0.090393 0.717705
Si Si3 0.757322 0.451487 0.720547
Si Si4 0.002647 0.373655 0.693152
Si Si5 0.871198 0.402231 0.491996
Si Si6 0.062450 0.285861 0.853671
Si Si7 0.447679 0.031277 0.082372
O O1 0.801521 0.739657 0.055683
O O2 0.854808 0.773362 0.927405
O O3 0.617763 0.800381 0.892645
O O4 0.004703 0.264321 0.280676
O O5 0.711455 0.260716 0.709513
O O6 0.859779 0.084417 0.749087
O O7 0.465962 0.758553 0.499620
O O8 0.809498 0.347806 0.937738
O O9 0.898527 0.460767 0.727837
O O10 0.884906 0.227354 0.496062
O O11 0.993710 0.188061 0.689271
O O12 0.242245 0.684931 0.894391
O O13 0.641778 0.209566 0.294233
O O14 0.000000 0.500000 0.500000
O O15 0.500000 0.000000 0.000000
#
# Coordination Sequence:
#
# PCOD9022775 Si02
#       7
#     2   2   2   2   2   2   2
#     4  10  22  39  64  90 122 150 204 246 292 369
#     4   8  16  32  57  83 136 163 173 225 318 375
#     4   9  18  35  57  95 122 155 190 242 303 353
#     4  10  22  39  64  90 122 150 204 246 292 369
#     4  11  23  44  63  78 117 170 205 239 301 350
#     4   9  18  36  60  96 118 154 198 243 294 354
#     4  11  23  44  63  78 117 170 205 239 301 350
#
# _framework density 21.662794000000002
#
# number of rings (size 3 to 8) (size 9 to 14) (size 15 to 20)
#    0.000    2.286    2.857    0.857    4.000    2.286 
#    0.000    2.857    0.000    0.000    0.000    0.000 
#    0.000    0.000    0.000    0.000    0.000    0.000 
#
# Total GULP energy -78084.761129 kJ/mol
# GULP energy per Si atom -5577.482938 kJ/mol
# Density = 2.161349 g / cm^3
# Si number density = 21.662794 Si / 1000 Ang^3
#
#
#
# Elastic Constant Matrix: (Units=GPa)
#
#
# Indices 1 2 3 4 5 6 
#
# 1 42.0741 9.1905 14.1155 -2.2078 23.0754 4.7593
# 2 9.1905 96.4401 10.4562 -38.9344 10.2325 0.6517
# 3 14.1155 10.4562 109.6954 -25.4191 32.3229 0.8577
# 4 -2.2078 -38.9344 -25.4191 36.8658 -11.0158 4.8980
# 5 23.0754 10.2325 32.3229 -11.0158 35.1246 -9.5852
# 6 4.7593 0.6517 0.8577 4.8980 -9.5852 28.4617
#
#
#
# Elastic Compliance Matrix: (Units=1/GPa)
#
#
# Indices 1 2 3 4 5 6 
#
# 1 0.049500 -0.003191 0.005842 -0.006921 -0.045258 -0.022431
# 2 -0.003191 0.020361 0.004774 0.024715 -0.001826 -0.004944
# 3 0.005842 0.004774 0.016574 0.012386 -0.019392 -0.010248
# 4 -0.006921 0.024715 0.012386 0.063609 0.003271 -0.009627
# 5 -0.045258 -0.001826 -0.019392 0.003271 0.087753 0.037184
# 6 -0.022431 -0.004944 -0.010248 -0.009627 0.037184 0.053487
#
#
# Mechanical properties :
#
#
# Convention : Reuss Voigt Hill
#
# Bulk Modulus (GPa) = 9.87341 35.08157 22.47749
# Shear Modulus (GPa) = 16.11879 34.38692 25.25285
#
# Velocity S-wave (km/s) = 2.73074 3.98851 3.41797
# Velocity P-wave (km/s) = 3.80923 6.11886 5.09660
#
# Compressibility (1/GPa) = 0.10128216
#
# Stress axis : x y z
#
# Youngs Moduli (GPa) = 20.20185 49.11464 60.33620
#
# Poissons Ratio (x) = 0.15675 -0.35246
# Poissons Ratio (y) = 0.06447 -0.28801
# Poissons Ratio (z) = -0.11801 -0.23445
#
# Static dielectric constant tensor:
#      x y z
#    x 1.799410 -0.011120 -0.005610 
#    y -0.011120 1.885340 -0.032540 
#    z -0.005610 -0.032540 1.821790 
# 
# From -- ./inp_files/514712.got.cif
#   From: 2010.05.17/outbox.cif.g08.bks.cpg/sg2_258_cif.got.tgz:514712.got - 2010.06.03 11:33:40.
