data_PCOD9022319
_publ_section_title
;
Structure prediction by ZEFSAII (Michael W. Deem and Ramdas Pophale) SiO2 
 PCOD9022319
Probable space group: P -1
;
_chemical_formula_sum "Si O2"
_cell_formula_units_Z 14
_cell_length_a 15.500459
_cell_length_b 9.089768
_cell_length_c 11.111994
_cell_angle_alpha 104.581936
_cell_angle_beta 142.329445
_cell_angle_gamma 46.017677
_cell_volume 506.395600
_symmetry_space_group_name_H-M "P -1"
_symmetry_group_IT_number 2
_symmetry_cell_setting 'triclinic'
loop_
_space_group_symop_operation_xyz
x,y,z
-x,-y,-z
loop_
_atom_site_type_symbol
_atom_site_label
_atom_site_fract_x
_atom_site_fract_y
_atom_site_fract_z
Si Si1 0.278238 0.822784 0.696112
Si Si2 0.521716 0.139659 0.487536
Si Si3 0.599920 0.776783 0.150237
Si Si4 0.097862 0.678981 0.442937
Si Si5 0.292095 0.733064 0.215423
Si Si6 0.807110 0.697071 0.031878
Si Si7 0.000604 0.233902 0.249023
O O1 0.314847 0.612378 0.662966
O O2 0.134289 0.033006 0.468792
O O3 0.528560 0.689655 0.980252
O O4 0.122431 0.008150 0.685828
O O5 0.757902 0.955347 0.616669
O O6 0.500000 0.000000 0.500000
O O7 0.591116 0.207731 0.674363
O O8 0.265981 0.353443 0.166051
O O9 0.859064 0.482365 0.437060
O O10 0.500000 0.000000 0.000000
O O11 0.438178 0.980926 0.131970
O O12 0.019304 0.640149 0.238425
O O13 0.500000 0.500000 0.500000
O O14 0.231862 0.664146 0.033563
O O15 0.000000 0.000000 0.000000
O O16 0.891726 0.502367 0.188758
#
# Coordination Sequence:
#
# PCOD9022319 Si02
#       7
#     2   2   2   2   2   2   2
#     4  10  22  39  64  92 134 175 220 279 339 410
#     4  11  25  43  66  97 132 175 227 294 353 411
#     4  11  21  38  64  94 132 172 221 273 340 409
#     4  10  22  39  60  99 135 172 219 280 335 416
#     4  10  22  46  69 100 138 178 234 294 355 420
#     4  11  22  39  64  92 131 169 226 269 346 411
#     4  11  23  43  68  96 132 180 232 278 351 421
#
# _framework density 27.646367000000001
#
# number of rings (size 3 to 8) (size 9 to 14) (size 15 to 20)
#    0.000    1.429    1.429    3.857    2.000    2.857 
#    0.000    2.857    0.000    0.000    0.000    0.000 
#    0.000    0.000    0.000    0.000    0.000    0.000 
#
# Total GULP energy -78034.190438 kJ/mol
# GULP energy per Si atom -5573.870746 kJ/mol
# Density = 2.758344 g / cm^3
# Si number density = 27.646367 Si / 1000 Ang^3
#
#
#
# Elastic Constant Matrix: (Units=GPa)
#
#
# Indices 1 2 3 4 5 6 
#
# 1 84.9493 34.2213 32.9240 14.5357 2.1408 26.9179
# 2 34.2213 149.9146 71.1510 50.6192 15.6395 19.5471
# 3 32.9240 71.1510 209.7535 64.6647 11.9338 38.7922
# 4 14.5357 50.6192 64.6647 76.5301 23.0800 14.0315
# 5 2.1408 15.6395 11.9338 23.0800 39.3357 3.6246
# 6 26.9179 19.5471 38.7922 14.0315 3.6246 55.4726
#
#
#
# Elastic Compliance Matrix: (Units=1/GPa)
#
#
# Indices 1 2 3 4 5 6 
#
# 1 0.014843 -0.002500 -0.000418 0.000050 0.000845 -0.006097
# 2 -0.002500 0.009466 -0.001435 -0.004393 -0.000617 0.000033
# 3 -0.000418 -0.001435 0.007417 -0.005136 0.001660 -0.003288
# 4 0.000050 -0.004393 -0.005136 0.023485 -0.010464 -0.000141
# 5 0.000845 -0.000617 0.001660 -0.010464 0.031327 -0.000753
# 6 -0.006097 0.000033 -0.003288 -0.000141 -0.000753 0.023358
#
#
# Mechanical properties :
#
#
# Convention : Reuss Voigt Hill
#
# Bulk Modulus (GPa) = 43.44068 80.13444 61.78756
# Shear Modulus (GPa) = 39.59621 54.68909 47.14265
#
# Velocity S-wave (km/s) = 3.78860 4.45248 4.13389
# Velocity P-wave (km/s) = 5.90636 7.44857 6.72184
#
# Compressibility (1/GPa) = 0.02301990
#
# Stress axis : x y z
#
# Youngs Moduli (GPa) = 67.37210 105.64319 134.82807
#
# Poissons Ratio (x) = 0.26413 0.05632
# Poissons Ratio (y) = 0.16844 0.19348
# Poissons Ratio (z) = 0.02814 0.15160
#
# Static dielectric constant tensor:
#      x y z
#    x 2.724150 -0.173550 0.279460 
#    y -0.173550 2.167410 -0.030490 
#    z 0.279460 -0.030490 2.613170 
# 
# From -- ./inp_files/364202.got.cif
#   From: 2010.05.17/outbox.cif.g08.bks.cpg/sg2_183_cif.got.tgz:364202.got - 2010.06.03 11:33:40.
