data_PCOD9022941
_publ_section_title
;
Structure prediction by ZEFSAII (Michael W. Deem and Ramdas Pophale) SiO2 
 PCOD9022941
Probable space group: P -1
;
_chemical_formula_sum "Si O2"
_cell_formula_units_Z 16
_cell_length_a 6.450554
_cell_length_b 22.723624
_cell_length_c 15.175497
_cell_angle_alpha 161.546364
_cell_angle_beta 73.449156
_cell_angle_gamma 105.924068
_cell_volume 674.876547
_symmetry_space_group_name_H-M "P -1"
_symmetry_group_IT_number 2
_symmetry_cell_setting 'triclinic'
loop_
_space_group_symop_operation_xyz
x,y,z
-x,-y,-z
loop_
_atom_site_type_symbol
_atom_site_label
_atom_site_fract_x
_atom_site_fract_y
_atom_site_fract_z
Si Si1 0.028582 0.923821 0.291426
Si Si2 0.366616 0.233049 0.643465
Si Si3 0.466731 0.333155 0.447873
Si Si4 0.720946 0.934893 0.191553
Si Si5 0.333476 0.651313 0.795998
Si Si6 0.118767 0.778182 0.827871
Si Si7 0.005962 0.216125 0.331830
Si Si8 0.383015 0.563025 0.241511
O O1 0.175901 0.080085 0.444691
O O2 0.000000 0.000000 0.500000
O O3 0.810390 0.892157 0.217667
O O4 0.171411 0.739658 0.013115
O O5 0.419342 0.344802 0.706618
O O6 0.589495 0.124709 0.481414
O O7 0.321077 0.377931 0.933012
O O8 0.420901 0.458707 0.546854
O O9 0.641332 0.178405 0.179303
O O10 0.554347 0.460202 0.697268
O O11 0.240654 0.252893 0.393225
O O12 0.544194 0.788827 0.967167
O O13 0.938129 0.919968 0.084743
O O14 0.187161 0.662529 0.741537
O O15 0.015574 0.683967 0.619942
O O16 0.815181 0.293464 0.524194
O O17 0.000000 0.000000 0.000000
#
# Coordination Sequence:
#
# PCOD9022941 Si02
#       8
#     2   2   2   2   2   2   2   2
#     4  10  24  38  67  97 127 168 211 262 314 381
#     4  10  23  44  64  95 130 168 215 258 317 376
#     4  11  25  40  65  94 128 166 214 266 316 379
#     4  10  22  39  65  92 128 169 206 260 317 377
#     4  10  23  39  62  96 130 166 211 262 320 380
#     4  10  22  41  63  93 125 166 211 260 316 379
#     4  11  25  42  65  92 125 167 214 266 320 375
#     4  10  25  42  65  94 128 171 214 262 309 383
#
# _framework density 23.708041000000001
#
# number of rings (size 3 to 8) (size 9 to 14) (size 15 to 20)
#    0.000    1.750    0.000    1.875    5.250   13.000 
#    0.000    2.500    0.000    0.000    0.000    0.000 
#    0.000    0.000    0.000    0.000    0.000    0.000 
#
# Total GULP energy -89325.513992 kJ/mol
# GULP energy per Si atom -5582.844625 kJ/mol
# Density = 2.365408 g / cm^3
# Si number density = 23.708041 Si / 1000 Ang^3
#
#
#
# Elastic Constant Matrix: (Units=GPa)
#
#
# Indices 1 2 3 4 5 6 
#
# 1 103.6774 28.9313 48.2133 -9.8269 -5.3019 -12.1276
# 2 28.9313 60.6595 24.0525 -19.7763 -1.3150 -10.5728
# 3 48.2133 24.0525 123.3591 -18.1790 -20.3511 -2.2566
# 4 -9.8269 -19.7763 -18.1790 44.5735 4.0242 -0.9691
# 5 -5.3019 -1.3150 -20.3511 4.0242 32.5814 -1.7562
# 6 -12.1276 -10.5728 -2.2566 -0.9691 -1.7562 31.9796
#
#
#
# Elastic Compliance Matrix: (Units=1/GPa)
#
#
# Indices 1 2 3 4 5 6 
#
# 1 0.013176 -0.004169 -0.004464 -0.000645 -0.000558 0.003253
# 2 -0.004169 0.023085 -0.001709 0.008902 -0.001584 0.006113
# 3 -0.004464 -0.001709 0.011514 0.002385 0.006046 -0.001041
# 4 -0.000645 0.008902 0.002385 0.027425 -0.001448 0.003618
# 5 -0.000558 -0.001584 0.006046 -0.001448 0.034576 0.001546
# 6 0.003253 0.006113 -0.001041 0.003618 0.001546 0.034646
#
#
# Mechanical properties :
#
#
# Convention : Reuss Voigt Hill
#
# Bulk Modulus (GPa) = 36.91432 54.45448 45.68440
# Shear Modulus (GPa) = 28.71306 34.26016 31.48661
#
# Velocity S-wave (km/s) = 3.48388 3.80555 3.64826
# Velocity P-wave (km/s) = 5.63803 6.50602 6.08751
#
# Compressibility (1/GPa) = 0.02708976
#
# Stress axis : x y z
#
# Youngs Moduli (GPa) = 75.89803 43.31783 86.84872
#
# Poissons Ratio (x) = 0.18060 0.38770
# Poissons Ratio (y) = 0.31643 0.14846
# Poissons Ratio (z) = 0.33881 0.07405
#
# Static dielectric constant tensor:
#      x y z
#    x 1.893320 0.007740 -0.013510 
#    y 0.007740 1.984100 0.033830 
#    z -0.013510 0.033830 1.868050 
# 
# From -- ./inp_files/94602.got.cif
#   From: 2010.05.17/outbox.cif.g08.bks.cpg/sg2_48_cif.got.tgz:94602.got - 2010.06.03 11:33:40.
