data_PCOD9022042
_publ_section_title
;
Structure prediction by ZEFSAII (Michael W. Deem and Ramdas Pophale) SiO2 
 PCOD9022042
Probable space group: P -1
;
_chemical_formula_sum "Si O2"
_cell_formula_units_Z 16
_cell_length_a 9.520662
_cell_length_b 9.333447
_cell_length_c 23.934960
_cell_angle_alpha 47.679735
_cell_angle_beta 152.458046
_cell_angle_gamma 133.138157
_cell_volume 703.347996
_symmetry_space_group_name_H-M "P -1"
_symmetry_group_IT_number 2
_symmetry_cell_setting 'triclinic'
loop_
_space_group_symop_operation_xyz
x,y,z
-x,-y,-z
loop_
_atom_site_type_symbol
_atom_site_label
_atom_site_fract_x
_atom_site_fract_y
_atom_site_fract_z
Si Si1 0.792795 0.239918 0.602943
Si Si2 0.416211 0.968966 0.302404
Si Si3 0.836006 0.854270 0.390578
Si Si4 0.181441 0.152291 0.353634
Si Si5 0.744219 0.398131 0.141889
Si Si6 0.830600 0.843143 0.933573
Si Si7 0.297183 0.613141 0.643939
Si Si8 0.742170 0.385789 0.805968
O O1 0.512981 0.295968 0.453331
O O2 0.109180 0.413753 0.661847
O O3 0.728560 0.185731 0.659253
O O4 0.790563 0.027285 0.629212
O O5 0.177178 0.025793 0.158426
O O6 0.572682 0.187644 0.326126
O O7 0.676977 0.883494 0.384765
O O8 0.552918 0.797664 0.261807
O O9 0.026959 0.686086 0.496260
O O10 0.069762 0.056253 0.399989
O O11 0.886045 0.228889 0.208056
O O12 0.531761 0.280207 0.148506
O O13 0.071294 0.568085 0.200176
O O14 0.500000 0.500000 0.000000
O O15 0.031303 0.676943 0.052184
O O16 0.000000 0.000000 0.000000
O O17 0.586480 0.559912 0.727510
#
# Coordination Sequence:
#
# PCOD9022042 Si02
#       8
#     2   2   2   2   2   2   2   2
#     4  11  26  42  72 107 146 186 233 286 360 416
#     4  12  26  46  69 104 146 181 234 301 354 407
#     4  12  23  43  75  98 146 187 231 291 349 421
#     4  11  21  44  70 104 142 190 233 285 345 432
#     4  10  22  38  69 104 130 176 241 288 332 414
#     4  11  23  47  70  97 134 186 236 290 349 417
#     4  12  26  44  68 108 148 181 229 295 360 411
#     4  11  23  43  72 100 134 188 240 280 346 428
#
# _framework density 22.748339000000001
#
# number of rings (size 3 to 8) (size 9 to 14) (size 15 to 20)
#    0.000    0.750    5.000    2.250    1.750    2.000 
#    2.250    0.625    0.000    0.000    0.000    0.000 
#    0.000    0.000    0.000    0.000    0.000    0.000 
#
# Total GULP energy -89110.506966 kJ/mol
# GULP energy per Si atom -5569.406685 kJ/mol
# Density = 2.269656 g / cm^3
# Si number density = 22.748339 Si / 1000 Ang^3
#
#
#
# Elastic Constant Matrix: (Units=GPa)
#
#
# Indices 1 2 3 4 5 6 
#
# 1 125.5364 19.9918 49.2913 -5.9123 13.3255 15.7135
# 2 19.9918 65.4348 18.3158 3.2133 9.6253 9.5655
# 3 49.2913 18.3158 143.5574 -23.1082 23.3372 -7.9879
# 4 -5.9123 3.2133 -23.1082 36.4436 -1.4645 9.8580
# 5 13.3255 9.6253 23.3372 -1.4645 36.0172 -4.4559
# 6 15.7135 9.5655 -7.9879 9.8580 -4.4559 30.6557
#
#
#
# Elastic Compliance Matrix: (Units=1/GPa)
#
#
# Indices 1 2 3 4 5 6 
#
# 1 0.010572 -0.001068 -0.003260 0.001474 -0.002288 -0.006742
# 2 -0.001068 0.017555 -0.001795 -0.001536 -0.003872 -0.005467
# 3 -0.003260 -0.001795 0.009966 0.005081 -0.004246 0.002577
# 4 0.001474 -0.001536 0.005081 0.033679 -0.003328 -0.010266
# 5 -0.002288 -0.003872 -0.004246 -0.003328 0.033148 0.007163
# 6 -0.006742 -0.005467 0.002577 -0.010266 0.007163 0.042796
#
#
# Mechanical properties :
#
#
# Convention : Reuss Voigt Hill
#
# Bulk Modulus (GPa) = 38.68830 56.63627 47.66228
# Shear Modulus (GPa) = 29.66011 37.08529 33.37270
#
# Velocity S-wave (km/s) = 3.61478 4.04201 3.83435
# Velocity P-wave (km/s) = 5.87079 6.83628 6.37185
#
# Compressibility (1/GPa) = 0.02584761
#
# Stress axis : x y z
#
# Youngs Moduli (GPa) = 94.59049 56.96270 100.34553
#
# Poissons Ratio (x) = 0.06083 0.32708
# Poissons Ratio (y) = 0.10101 0.18014
# Poissons Ratio (z) = 0.30832 0.10226
#
# Static dielectric constant tensor:
#      x y z
#    x 1.886620 0.040620 -0.014050 
#    y 0.040620 1.927600 -0.058240 
#    z -0.014050 -0.058240 1.905670 
# 
# From -- ./inp_files/606705.got.cif
#   From: 2010.05.17/outbox.cif.g08.bks.cpg/sg2_304_cif.got.tgz:606705.got - 2010.06.03 11:33:40.
