data_PCOD9022946
_publ_section_title
;
Structure prediction by ZEFSAII (Michael W. Deem and Ramdas Pophale) SiO2 
 PCOD9022946
Probable space group: P -1
;
_chemical_formula_sum "Si O2"
_cell_formula_units_Z 14
_cell_length_a 17.024641
_cell_length_b 11.365011
_cell_length_c 9.373675
_cell_angle_alpha 53.312650
_cell_angle_beta 141.440425
_cell_angle_gamma 147.856729
_cell_volume 589.933494
_symmetry_space_group_name_H-M "P -1"
_symmetry_group_IT_number 2
_symmetry_cell_setting 'triclinic'
loop_
_space_group_symop_operation_xyz
x,y,z
-x,-y,-z
loop_
_atom_site_type_symbol
_atom_site_label
_atom_site_fract_x
_atom_site_fract_y
_atom_site_fract_z
Si Si1 0.486075 0.843676 0.493142
Si Si2 0.965477 0.413204 0.268497
Si Si3 0.863911 0.876184 0.534508
Si Si4 0.781008 0.221036 0.433865
Si Si5 0.963448 0.828765 0.174307
Si Si6 0.548566 0.567528 0.855084
Si Si7 0.947017 0.637149 0.844020
O O1 0.580226 0.771824 0.729456
O O2 0.265496 0.602834 0.332010
O O3 0.500000 0.000000 0.500000
O O4 0.582839 0.979649 0.383993
O O5 0.798767 0.269605 0.255889
O O6 0.154789 0.583530 0.517536
O O7 0.933903 0.264301 0.207035
O O8 0.002247 0.579998 0.091030
O O9 0.640409 0.656251 0.336566
O O10 0.931132 0.785327 0.771198
O O11 0.000000 0.000000 0.500000
O O12 0.916889 0.045562 0.599420
O O13 0.945215 0.244142 0.691962
O O14 0.736748 0.642375 0.022599
O O15 0.000000 0.000000 0.000000
O O16 0.500000 0.500000 0.000000
#
# Coordination Sequence:
#
# PCOD9022946 Si02
#       7
#     2   2   2   2   2   2   2
#     4  11  23  43  67  97 130 173 227 280 332 409
#     4  10  22  39  65  92 129 174 214 275 335 399
#     4  11  23  42  69  99 133 177 227 278 330 409
#     4  11  23  41  64  96 132 174 217 274 345 395
#     4  12  24  43  67  97 139 178 218 280 343 394
#     4  11  25  43  70 103 133 181 232 273 340 411
#     4  10  22  41  66  96 128 169 229 271 332 402
#
# _framework density 23.731490000000001
#
# number of rings (size 3 to 8) (size 9 to 14) (size 15 to 20)
#    0.000    1.143    4.286    1.714    2.000    1.143 
#    5.143    0.000    0.000    0.000    0.000    0.000 
#    0.000    0.000    0.000    0.000    0.000    0.000 
#
# Total GULP energy -78153.054195 kJ/mol
# GULP energy per Si atom -5582.361014 kJ/mol
# Density = 2.367748 g / cm^3
# Si number density = 23.731490 Si / 1000 Ang^3
#
#
#
# Elastic Constant Matrix: (Units=GPa)
#
#
# Indices 1 2 3 4 5 6 
#
# 1 115.3832 25.1751 33.2359 5.2507 -20.8256 6.2318
# 2 25.1751 59.1994 6.6113 -2.4880 -4.5515 7.9275
# 3 33.2359 6.6113 79.7027 -7.0068 -11.2496 4.7405
# 4 5.2507 -2.4880 -7.0068 34.7989 4.5566 -9.6439
# 5 -20.8256 -4.5515 -11.2496 4.5566 49.2450 -7.0691
# 6 6.2318 7.9275 4.7405 -9.6439 -7.0691 54.0312
#
#
#
# Elastic Compliance Matrix: (Units=1/GPa)
#
#
# Indices 1 2 3 4 5 6 
#
# 1 0.011717 -0.004296 -0.004273 -0.003572 0.003843 -0.000481
# 2 -0.004296 0.018987 0.000421 0.001562 -0.000412 -0.002102
# 3 -0.004273 0.000421 0.014783 0.003462 0.001277 -0.000081
# 4 -0.003572 0.001562 0.003462 0.031891 -0.002779 0.005208
# 5 0.003843 -0.000412 0.001277 -0.002779 0.022727 0.001983
# 6 -0.000481 -0.002102 -0.000081 0.005208 0.001983 0.020068
#
#
# Mechanical properties :
#
#
# Convention : Reuss Voigt Hill
#
# Bulk Modulus (GPa) = 34.25651 42.70333 38.47992
# Shear Modulus (GPa) = 34.19976 40.23256 37.21616
#
# Velocity S-wave (km/s) = 3.80032 4.12190 3.96437
# Velocity P-wave (km/s) = 5.80715 6.37862 6.09958
#
# Compressibility (1/GPa) = 0.02919153
#
# Stress axis : x y z
#
# Youngs Moduli (GPa) = 85.34611 52.66637 67.64634
#
# Poissons Ratio (x) = 0.22625 0.28902
# Poissons Ratio (y) = 0.36663 -0.02845
# Poissons Ratio (z) = 0.36465 -0.02215
#
# Static dielectric constant tensor:
#      x y z
#    x 1.931120 -0.019410 0.048920 
#    y -0.019410 1.905190 -0.065950 
#    z 0.048920 -0.065950 1.921350 
# 
# From -- ./inp_files/179868.got.cif
#   From: 2010.05.17/outbox.cif.g08.bks.cpg/sg2_90_cif.got.tgz:179868.got - 2010.06.03 11:33:40.
