data_PCOD9022445
_publ_section_title
;
Structure prediction by ZEFSAII (Michael W. Deem and Ramdas Pophale) SiO2 
 PCOD9022445
Probable space group: P -1
;
_chemical_formula_sum "Si O2"
_cell_formula_units_Z 15
_cell_length_a 12.481819
_cell_length_b 11.907127
_cell_length_c 5.050281
_cell_angle_alpha 68.668827
_cell_angle_beta 59.223013
_cell_angle_gamma 71.747558
_cell_volume 593.079032
_symmetry_space_group_name_H-M "P -1"
_symmetry_group_IT_number 2
_symmetry_cell_setting 'triclinic'
loop_
_space_group_symop_operation_xyz
x,y,z
-x,-y,-z
loop_
_atom_site_type_symbol
_atom_site_label
_atom_site_fract_x
_atom_site_fract_y
_atom_site_fract_z
Si Si1 0.796116 0.448772 0.460126
Si Si2 0.000000 0.500000 0.000000
Si Si3 0.293373 0.696699 0.675270
Si Si4 0.873530 0.945576 0.291237
Si Si5 0.305512 0.019381 0.019916
Si Si6 0.506926 0.812438 0.156344
Si Si7 0.024753 0.686095 0.273225
Si Si8 0.600290 0.552036 0.011670
O O1 0.846430 0.517240 0.094854
O O2 0.748411 0.322364 0.559118
O O3 0.939262 0.405036 0.440010
O O4 0.717241 0.538481 0.678128
O O5 0.975382 0.623142 0.137496
O O6 0.396924 0.781133 0.520543
O O7 0.365535 0.557623 0.731078
O O8 0.163469 0.719102 0.983302
O O9 0.799884 0.995417 0.608608
O O10 0.928595 0.802976 0.380471
O O11 0.769757 0.964876 0.172215
O O12 0.000000 0.000000 0.000000
O O13 0.422897 0.907959 0.984872
O O14 0.378576 0.131616 0.908915
O O15 0.557708 0.684742 0.062635
O O16 0.500000 0.500000 0.000000
#
# Coordination Sequence:
#
# PCOD9022445 Si02
#       8
#     2   1   2   2   2   2   2   2
#     4  10  22  39  62 104 135 183 228 282 377 427
#     4  10  22  40  64  98 144 176 228 292 366 436
#     4  10  22  42  66 104 137 184 233 291 369 437
#     4  12  28  51  78 107 144 191 257 298 364 439
#     4  11  30  49  75 113 140 205 244 306 371 419
#     4  11  25  48  72 101 154 182 250 306 359 441
#     4  10  24  41  71  99 141 184 235 302 364 433
#     4  11  23  39  68 107 137 189 236 293 365 440
#
# _framework density 25.291741999999999
#
# number of rings (size 3 to 8) (size 9 to 14) (size 15 to 20)
#    0.000    1.333    1.333    2.000    7.467    7.467 
#    0.000    0.000    0.000    0.000    0.000    0.000 
#    0.000    0.000    0.000    0.000    0.000    0.000 
#
# Total GULP energy -83653.229756 kJ/mol
# GULP energy per Si atom -5576.881984 kJ/mol
# Density = 2.523418 g / cm^3
# Si number density = 25.291742 Si / 1000 Ang^3
#
#
#
# Elastic Constant Matrix: (Units=GPa)
#
#
# Indices 1 2 3 4 5 6 
#
# 1 125.1368 16.1883 19.4130 -8.7723 -9.7382 8.1185
# 2 16.1883 100.8834 5.0269 6.7719 -5.7352 -16.7484
# 3 19.4130 5.0269 88.3403 4.0136 -17.3394 6.2434
# 4 -8.7723 6.7719 4.0136 35.3057 15.5997 -15.1323
# 5 -9.7382 -5.7352 -17.3394 15.5997 27.6019 -3.8554
# 6 8.1185 -16.7484 6.2434 -15.1323 -3.8554 43.4611
#
#
#
# Elastic Compliance Matrix: (Units=1/GPa)
#
#
# Indices 1 2 3 4 5 6 
#
# 1 0.008725 -0.001641 -0.001758 0.001983 0.000332 -0.001290
# 2 -0.001641 0.011234 0.000353 -0.002670 0.004047 0.004014
# 3 -0.001758 0.000353 0.015238 -0.010269 0.014266 -0.004035
# 4 0.001983 -0.002670 -0.010269 0.051759 -0.033446 0.015130
# 5 0.000332 0.004047 0.014266 -0.033446 0.064143 -0.006507
# 6 -0.001290 0.004014 -0.004035 0.015130 -0.006507 0.030067
#
#
# Mechanical properties :
#
#
# Convention : Reuss Voigt Hill
#
# Bulk Modulus (GPa) = 34.35675 43.95743 39.15709
# Shear Modulus (GPa) = 25.38606 39.52256 32.45431
#
# Velocity S-wave (km/s) = 3.17161 3.95735 3.58606
# Velocity P-wave (km/s) = 5.19863 6.18859 5.71509
#
# Compressibility (1/GPa) = 0.02910637
#
# Stress axis : x y z
#
# Youngs Moduli (GPa) = 114.61706 89.01667 65.62607
#
# Poissons Ratio (x) = 0.14605 0.11534
# Poissons Ratio (y) = 0.18806 -0.02319
# Poissons Ratio (z) = 0.20145 -0.03145
#
# Static dielectric constant tensor:
#      x y z
#    x 1.648340 -0.249930 -0.124840 
#    y -0.249930 1.868010 -0.150030 
#    z -0.124840 -0.150030 2.397280 
# 
# From -- ./inp_files/66072.got.cif
#   From: 2010.05.17/outbox.cif.g08.bks.cpg/sg2_34_cif.got.tgz:66072.got - 2010.06.03 11:33:40.
