data_PCOD9022696
_publ_section_title
;
Structure prediction by ZEFSAII (Michael W. Deem and Ramdas Pophale) SiO2 
 PCOD9022696
Probable space group: P -1
;
_chemical_formula_sum "Si O2"
_cell_formula_units_Z 14
_cell_length_a 12.394210
_cell_length_b 7.499587
_cell_length_c 11.013716
_cell_angle_alpha 89.755504
_cell_angle_beta 145.535280
_cell_angle_gamma 81.856738
_cell_volume 559.942338
_symmetry_space_group_name_H-M "P -1"
_symmetry_group_IT_number 2
_symmetry_cell_setting 'triclinic'
loop_
_space_group_symop_operation_xyz
x,y,z
-x,-y,-z
loop_
_atom_site_type_symbol
_atom_site_label
_atom_site_fract_x
_atom_site_fract_y
_atom_site_fract_z
Si Si1 0.211470 0.581619 0.966443
Si Si2 0.475670 0.788097 0.333689
Si Si3 0.126091 0.809841 0.376412
Si Si4 0.156648 0.468141 0.253941
Si Si5 0.695333 0.912336 0.350003
Si Si6 0.924546 0.317104 0.413724
Si Si7 0.670067 0.848587 0.918518
O O1 0.297927 0.696882 0.144050
O O2 0.318753 0.365846 0.081693
O O3 0.980615 0.594324 0.772063
O O4 0.215823 0.655932 0.833841
O O5 0.637694 0.679666 0.577674
O O6 0.604746 0.756710 0.327097
O O7 0.396465 0.009258 0.256703
O O8 0.197911 0.657145 0.340534
O O9 0.212690 0.986153 0.456469
O O10 0.175156 0.723815 0.555772
O O11 0.889556 0.861956 0.150292
O O12 0.000000 0.500000 0.000000
O O13 0.492839 0.064719 0.131011
O O14 0.874181 0.841630 0.425498
O O15 0.000000 0.500000 0.500000
#
# Coordination Sequence:
#
# PCOD9022696 Si02
#       7
#     2   2   2   2   2   2   2
#     4  11  21  44  67  94 135 170 215 270 327 385
#     4  10  22  41  67  94 130 169 215 266 323 391
#     4  11  22  43  63  95 137 169 217 272 317 387
#     4  11  24  45  72  93 126 176 220 271 331 382
#     4  10  22  39  63  95 132 168 217 257 326 396
#     4  12  21  40  65  96 135 178 208 265 327 389
#     4   9  21  36  65  91 125 168 212 260 319 374
#
# _framework density 25.002573999999999
#
# number of rings (size 3 to 8) (size 9 to 14) (size 15 to 20)
#    0.857    0.571    4.286    2.143    0.000    1.143 
#    2.571    5.714    0.000    0.000    0.000    0.000 
#    0.000    0.000    0.000    0.000    0.000    0.000 
#
# Total GULP energy -78166.220984 kJ/mol
# GULP energy per Si atom -5583.301499 kJ/mol
# Density = 2.494567 g / cm^3
# Si number density = 25.002574 Si / 1000 Ang^3
#
#
#
# Elastic Constant Matrix: (Units=GPa)
#
#
# Indices 1 2 3 4 5 6 
#
# 1 34.0790 16.9109 22.4965 5.0753 -0.0510 -8.1003
# 2 16.9109 119.7491 39.5677 -12.5433 15.6193 -16.9495
# 3 22.4965 39.5677 116.4778 -21.1276 0.3395 -14.7212
# 4 5.0753 -12.5433 -21.1276 41.0948 5.3159 5.5070
# 5 -0.0510 15.6193 0.3395 5.3159 34.5301 4.2786
# 6 -8.1003 -16.9495 -14.7212 5.5070 4.2786 22.9697
#
#
#
# Elastic Compliance Matrix: (Units=1/GPa)
#
#
# Indices 1 2 3 4 5 6 
#
# 1 0.039754 -0.003346 -0.007447 -0.011265 0.002257 0.009058
# 2 -0.003346 0.011535 -0.001887 0.002913 -0.006474 0.006630
# 3 -0.007447 -0.001887 0.012108 0.006327 -0.000538 0.002325
# 4 -0.011265 0.002913 0.006327 0.031162 -0.005675 -0.004182
# 5 0.002257 -0.006474 -0.000538 -0.005675 0.033921 -0.009284
# 6 0.009058 0.006630 0.002325 -0.004182 -0.009284 0.055844
#
#
# Mechanical properties :
#
#
# Convention : Reuss Voigt Hill
#
# Bulk Modulus (GPa) = 26.29010 47.58402 36.93706
# Shear Modulus (GPa) = 22.48599 32.47431 27.48015
#
# Velocity S-wave (km/s) = 3.00216 3.60785 3.31885
# Velocity P-wave (km/s) = 4.74922 6.03560 5.43063
#
# Compressibility (1/GPa) = 0.03803713
#
# Stress axis : x y z
#
# Youngs Moduli (GPa) = 25.15493 86.69496 82.59337
#
# Poissons Ratio (x) = 0.29006 0.61504
# Poissons Ratio (y) = 0.08416 0.15586
# Poissons Ratio (z) = 0.18732 0.16360
#
# Static dielectric constant tensor:
#      x y z
#    x 2.067070 -0.002430 -0.048340 
#    y -0.002430 1.988000 -0.063260 
#    z -0.048340 -0.063260 2.005600 
# 
# From -- ./inp_files/447554.got.cif
#   From: 2010.05.17/outbox.cif.g08.bks.cpg/sg2_224_cif.got.tgz:447554.got - 2010.06.03 11:33:40.
