data_PCOD9022577
_publ_section_title
;
Structure prediction by ZEFSAII (Michael W. Deem and Ramdas Pophale) SiO2 
 PCOD9022577
Probable space group: P -1
;
_chemical_formula_sum "Si O2"
_cell_formula_units_Z 14
_cell_length_a 8.456891
_cell_length_b 14.310127
_cell_length_c 8.252061
_cell_angle_alpha 80.236708
_cell_angle_beta 54.259842
_cell_angle_gamma 116.287855
_cell_volume 587.579107
_symmetry_space_group_name_H-M "P -1"
_symmetry_group_IT_number 2
_symmetry_cell_setting 'triclinic'
loop_
_space_group_symop_operation_xyz
x,y,z
-x,-y,-z
loop_
_atom_site_type_symbol
_atom_site_label
_atom_site_fract_x
_atom_site_fract_y
_atom_site_fract_z
Si Si1 0.217149 0.819559 0.699875
Si Si2 0.207930 0.030376 0.732662
Si Si3 0.309905 0.356846 0.083898
Si Si4 0.878391 0.269854 0.866061
Si Si5 0.775895 0.766365 0.495602
Si Si6 0.280617 0.640942 0.330988
Si Si7 0.227733 0.547001 0.724020
O O1 0.487553 0.891852 0.418786
O O2 0.500624 0.632135 0.632126
O O3 0.138929 0.905103 0.736602
O O4 0.269159 0.799117 0.857112
O O5 0.216085 0.119811 0.575580
O O6 0.000000 0.000000 0.000000
O O7 0.211649 0.259684 0.318875
O O8 0.051731 0.314207 0.166942
O O9 0.500000 0.500000 0.000000
O O10 0.483207 0.350617 0.862552
O O11 0.719806 0.269521 0.816325
O O12 0.121941 0.419040 0.731252
O O13 0.993917 0.210689 0.746510
O O14 0.000000 0.500000 0.500000
O O15 0.280278 0.642146 0.524415
O O16 0.000000 0.500000 0.000000
#
# Coordination Sequence:
#
# PCOD9022577 Si02
#       7
#     2   2   2   2   2   2   2
#     4  11  25  47  76 103 141 189 241 300 353 426
#     4  11  25  49  75 100 138 192 253 295 353 413
#     4  12  25  45  70 110 146 183 232 293 368 435
#     4  11  22  41  65 103 138 183 235 295 359 431
#     4  12  24  41  68  98 140 188 235 292 357 426
#     4  10  22  39  62  99 145 182 228 285 348 439
#     4  11  22  39  65  97 138 189 231 291 365 422
#
# _framework density 23.826577
#
# number of rings (size 3 to 8) (size 9 to 14) (size 15 to 20)
#    0.000    0.857    1.429    7.286    0.000    5.143 
#    0.000    0.714    0.000    0.000    0.000    0.000 
#    0.000    0.000    0.000    0.000    0.000    0.000 
#
# Total GULP energy -78338.174401 kJ/mol
# GULP energy per Si atom -5595.583886 kJ/mol
# Density = 2.377235 g / cm^3
# Si number density = 23.826577 Si / 1000 Ang^3
#
#
#
# Elastic Constant Matrix: (Units=GPa)
#
#
# Indices 1 2 3 4 5 6 
#
# 1 115.9877 16.3684 75.3206 18.5209 -0.1934 -16.4871
# 2 16.3684 109.1775 22.9402 0.2439 -2.1238 -27.7728
# 3 75.3206 22.9402 162.7279 20.7443 -9.2892 -18.8140
# 4 18.5209 0.2439 20.7443 30.1616 -11.9661 -2.5538
# 5 -0.1934 -2.1238 -9.2892 -11.9661 54.9782 -3.6125
# 6 -16.4871 -27.7728 -18.8140 -2.5538 -3.6125 40.7597
#
#
#
# Elastic Compliance Matrix: (Units=1/GPa)
#
#
# Indices 1 2 3 4 5 6 
#
# 1 0.013203 -0.000334 -0.005274 -0.005006 -0.001802 0.002205
# 2 -0.000334 0.011268 -0.000727 0.001706 0.001170 0.007418
# 3 -0.005274 -0.000727 0.009259 -0.002569 0.001062 0.001579
# 4 -0.005006 0.001706 -0.002569 0.041565 0.008749 0.001332
# 5 -0.001802 0.001170 0.001062 0.008749 0.020504 0.002924
# 6 0.002205 0.007418 0.001579 0.001332 0.002924 0.031552
#
#
# Mechanical properties :
#
#
# Convention : Reuss Voigt Hill
#
# Bulk Modulus (GPa) = 47.48186 68.57239 58.02713
# Shear Modulus (GPa) = 34.00388 43.39750 38.70069
#
# Velocity S-wave (km/s) = 3.78185 4.27240 4.03459
# Velocity P-wave (km/s) = 6.24830 7.29248 6.79049
#
# Compressibility (1/GPa) = 0.02106067
#
# Stress axis : x y z
#
# Youngs Moduli (GPa) = 75.73790 88.74579 107.99744
#
# Poissons Ratio (x) = 0.02966 0.56958
# Poissons Ratio (y) = 0.02532 0.07850
# Poissons Ratio (z) = 0.39944 0.06451
#
# Static dielectric constant tensor:
#      x y z
#    x 1.846850 0.000390 0.023480 
#    y 0.000390 1.963920 -0.013210 
#    z 0.023480 -0.013210 1.912170 
# 
# From -- ./inp_files/196078.got.cif
#   From: 2010.05.17/outbox.cif.g08.bks.cpg/sg2_99_cif.got.tgz:196078.got - 2010.06.03 11:33:40.
