data_PCOD9022045
_publ_section_title
;
Structure prediction by ZEFSAII (Michael W. Deem and Ramdas Pophale) SiO2 
 PCOD9022045
Probable space group: P -1
;
_chemical_formula_sum "Si O2"
_cell_formula_units_Z 13
_cell_length_a 9.389382
_cell_length_b 8.453917
_cell_length_c 11.411191
_cell_angle_alpha 146.405433
_cell_angle_beta 81.176822
_cell_angle_gamma 106.272920
_cell_volume 475.612915
_symmetry_space_group_name_H-M "P -1"
_symmetry_group_IT_number 2
_symmetry_cell_setting 'triclinic'
loop_
_space_group_symop_operation_xyz
x,y,z
-x,-y,-z
loop_
_atom_site_type_symbol
_atom_site_label
_atom_site_fract_x
_atom_site_fract_y
_atom_site_fract_z
Si Si1 0.546043 0.657080 0.277430
Si Si2 0.408916 0.212016 0.204823
Si Si3 0.527785 0.961454 0.236201
Si Si4 0.000000 0.500000 0.000000
Si Si5 0.872612 0.226146 0.402685
Si Si6 0.851666 0.108009 0.588798
Si Si7 0.938147 0.093488 0.943192
O O1 0.447017 0.514025 0.312420
O O2 0.499257 0.869818 0.318917
O O3 0.711273 0.820650 0.403974
O O4 0.531496 0.357493 0.018017
O O5 0.453467 0.182085 0.314140
O O6 0.231074 0.098489 0.153585
O O7 0.500000 0.000000 0.000000
O O8 0.709771 0.104977 0.289509
O O9 0.849413 0.272716 0.813815
O O10 0.934866 0.410930 0.089333
O O11 0.852614 0.291099 0.580780
O O12 0.000000 0.500000 0.500000
O O13 0.951384 0.959449 0.209102
O O14 0.000000 0.000000 0.500000
O O15 0.000000 0.000000 0.000000
#
# Coordination Sequence:
#
# PCOD9022045 Si02
#       7
#     2   2   2   1   2   2   2
#     4   9  20  39  67  98 143 187 245 294 370 442
#     4  10  22  38  69 104 148 193 238 300 374 444
#     4   9  20  39  69 102 136 198 240 299 378 437
#     4  12  28  46  74 110 154 188 262 308 378 450
#     4  11  24  46  76 107 152 198 254 315 376 446
#     4  11  24  44  73 106 143 199 246 310 377 440
#     4  12  26  44  73 114 150 198 253 310 373 452
#
# _framework density 27.333151000000001
#
# number of rings (size 3 to 8) (size 9 to 14) (size 15 to 20)
#    0.000    1.538    1.538    2.769    6.462    2.462 
#    0.000    3.077    0.000    9.231    0.000    0.000 
#    0.000    0.000    0.000    0.000    0.000    0.000 
#
# Total GULP energy -72497.741890 kJ/mol
# GULP energy per Si atom -5576.749376 kJ/mol
# Density = 2.727094 g / cm^3
# Si number density = 27.333151 Si / 1000 Ang^3
#
#
#
# Elastic Constant Matrix: (Units=GPa)
#
#
# Indices 1 2 3 4 5 6 
#
# 1 191.1512 67.0471 61.9964 2.6955 50.6937 -7.7346
# 2 67.0471 266.2565 67.4930 10.1304 40.3994 -15.8965
# 3 61.9964 67.4930 167.5638 -17.5419 39.4515 -7.3978
# 4 2.6955 10.1304 -17.5419 69.7231 -4.4520 6.7797
# 5 50.6937 40.3994 39.4515 -4.4520 61.7417 3.3271
# 6 -7.7346 -15.8965 -7.3978 6.7797 3.3271 44.5982
#
#
#
# Elastic Compliance Matrix: (Units=1/GPa)
#
#
# Indices 1 2 3 4 5 6 
#
# 1 0.007227 -0.000640 -0.001327 -0.000954 -0.004807 0.001309
# 2 -0.000640 0.004673 -0.001252 -0.001255 -0.001913 0.001680
# 3 -0.001327 -0.001252 0.007909 0.001975 -0.003033 0.000562
# 4 -0.000954 -0.001255 0.001975 0.015428 0.001604 -0.002750
# 5 -0.004807 -0.001913 -0.003033 0.001604 0.023666 -0.004028
# 6 0.001309 0.001680 0.000562 -0.002750 -0.004028 0.024060
#
#
# Mechanical properties :
#
#
# Convention : Reuss Voigt Hill
#
# Bulk Modulus (GPa) = 74.78592 113.11606 93.95099
# Shear Modulus (GPa) = 53.27237 63.77492 58.52365
#
# Velocity S-wave (km/s) = 4.41954 4.83561 4.63225
# Velocity P-wave (km/s) = 7.31187 8.52359 7.94087
#
# Compressibility (1/GPa) = 0.01337150
#
# Stress axis : x y z
#
# Youngs Moduli (GPa) = 138.36109 214.01283 126.44441
#
# Poissons Ratio (x) = 0.13693 0.16775
# Poissons Ratio (y) = 0.08852 0.15832
# Poissons Ratio (z) = 0.18356 0.26797
#
# Static dielectric constant tensor:
#      x y z
#    x 1.928900 0.204750 0.066010 
#    y 0.204750 2.102790 -0.080240 
#    z 0.066010 -0.080240 2.461650 
# 
# From -- ./inp_files/157041.got.cif
#   From: 2010.05.17/outbox.cif.g08.bks.cpg/sg2_79_cif.got.tgz:157041.got - 2010.06.03 11:33:40.
