data_PCOD9022791
_publ_section_title
;
Structure prediction by ZEFSAII (Michael W. Deem and Ramdas Pophale) SiO2 
 PCOD9022791
Probable space group: P -1
;
_chemical_formula_sum "Si O2"
_cell_formula_units_Z 14
_cell_length_a 17.920849
_cell_length_b 11.775381
_cell_length_c 7.098331
_cell_angle_alpha 66.471964
_cell_angle_beta 116.429183
_cell_angle_gamma 154.163214
_cell_volume 584.576880
_symmetry_space_group_name_H-M "P -1"
_symmetry_group_IT_number 2
_symmetry_cell_setting 'triclinic'
loop_
_space_group_symop_operation_xyz
x,y,z
-x,-y,-z
loop_
_atom_site_type_symbol
_atom_site_label
_atom_site_fract_x
_atom_site_fract_y
_atom_site_fract_z
Si Si1 0.493129 0.362914 0.194956
Si Si2 0.991527 0.785829 0.549873
Si Si3 0.336628 0.782781 0.606537
Si Si4 0.217183 0.302382 0.372732
Si Si5 0.435298 0.718024 0.024907
Si Si6 0.833367 0.211284 0.752168
Si Si7 0.178037 0.766895 0.841555
O O1 0.628552 0.525591 0.413352
O O2 0.289330 0.068699 0.212082
O O3 0.500000 0.500000 0.000000
O O4 0.544788 0.329607 0.117740
O O5 0.815824 0.509221 0.438123
O O6 0.921854 0.779481 0.647459
O O7 0.094324 0.794756 0.709776
O O8 0.113942 0.038805 0.401925
O O9 0.250434 0.804064 0.478221
O O10 0.500000 0.000000 0.500000
O O11 0.392294 0.800188 0.856578
O O12 0.300433 0.472507 0.170207
O O13 0.622652 0.961079 0.174862
O O14 0.043213 0.489863 0.787816
O O15 0.809560 0.240428 0.914261
#
# Coordination Sequence:
#
# PCOD9022791 Si02
#       7
#     2   2   2   2   2   2   2
#     4  11  22  40  64  94 128 169 206 260 322 373
#     4  10  22  39  64  91 132 168 206 262 319 374
#     4  11  18  39  68  89 126 171 212 256 319 376
#     4  11  23  42  63  96 131 166 216 256 315 383
#     4  11  23  40  70  96 123 170 215 263 311 371
#     4   9  18  35  65  87 127 166 209 253 319 374
#     4   9  18  35  65  95 117 171 209 257 318 367
#
# _framework density 23.948945999999999
#
# number of rings (size 3 to 8) (size 9 to 14) (size 15 to 20)
#    0.000    1.714    4.286    1.714    0.000    2.857 
#    0.000    3.571   12.571    0.000    0.000    0.000 
#    0.000    0.000    0.000    0.000    0.000    0.000 
#
# Total GULP energy -78289.075924 kJ/mol
# GULP energy per Si atom -5592.076852 kJ/mol
# Density = 2.389444 g / cm^3
# Si number density = 23.948946 Si / 1000 Ang^3
#
#
#
# Elastic Constant Matrix: (Units=GPa)
#
#
# Indices 1 2 3 4 5 6 
#
# 1 38.2769 31.2149 25.5662 -4.1604 14.0375 -4.4208
# 2 31.2149 211.7972 81.8486 -31.8234 10.9389 4.0802
# 3 25.5662 81.8486 151.9268 -15.5836 15.5651 2.7952
# 4 -4.1604 -31.8234 -15.5836 47.4690 3.7454 -1.7794
# 5 14.0375 10.9389 15.5651 3.7454 40.7328 -4.6602
# 6 -4.4208 4.0802 2.7952 -1.7794 -4.6602 35.0213
#
#
#
# Elastic Compliance Matrix: (Units=1/GPa)
#
#
# Indices 1 2 3 4 5 6 
#
# 1 0.035016 -0.003464 -0.003047 0.000647 -0.009595 0.003823
# 2 -0.003464 0.006801 -0.002725 0.003329 0.000006 -0.000842
# 3 -0.003047 -0.002725 0.008859 0.000920 -0.001799 -0.000967
# 4 0.000647 0.003329 0.000920 0.023957 -0.003631 0.000354
# 5 -0.009595 0.000006 -0.001799 -0.003631 0.029177 0.002630
# 6 0.003823 -0.000842 -0.000967 0.000354 0.002630 0.029580
#
#
# Mechanical properties :
#
#
# Convention : Reuss Voigt Hill
#
# Bulk Modulus (GPa) = 31.05146 75.47337 53.26241
# Shear Modulus (GPa) = 30.75066 42.20270 36.47668
#
# Velocity S-wave (km/s) = 3.58719 4.20240 3.90693
# Velocity P-wave (km/s) = 5.49100 7.42493 6.52996
#
# Compressibility (1/GPa) = 0.03220461
#
# Stress axis : x y z
#
# Youngs Moduli (GPa) = 28.55807 147.03367 112.87564
#
# Poissons Ratio (x) = 0.50933 0.34397
# Poissons Ratio (y) = 0.09893 0.30756
# Poissons Ratio (z) = 0.08703 0.40063
#
# Static dielectric constant tensor:
#      x y z
#    x 2.011070 0.001330 0.006090 
#    y 0.001330 1.942460 0.003020 
#    z 0.006090 0.003020 1.918620 
# 
# From -- ./inp_files/354067.got.cif
#   From: 2010.05.17/outbox.cif.g08.bks.cpg/sg2_178_cif.got.tgz:354067.got - 2010.06.03 11:33:40.
