data_PCOD9022978
_publ_section_title
;
Structure prediction by ZEFSAII (Michael W. Deem and Ramdas Pophale) SiO2 
 PCOD9022978
Probable space group: P -1
;
_chemical_formula_sum "Si O2"
_cell_formula_units_Z 16
_cell_length_a 5.121143
_cell_length_b 8.466851
_cell_length_c 22.087576
_cell_angle_alpha 129.386912
_cell_angle_beta 122.426761
_cell_angle_gamma 57.217334
_cell_volume 594.330216
_symmetry_space_group_name_H-M "P -1"
_symmetry_group_IT_number 2
_symmetry_cell_setting 'triclinic'
loop_
_space_group_symop_operation_xyz
x,y,z
-x,-y,-z
loop_
_atom_site_type_symbol
_atom_site_label
_atom_site_fract_x
_atom_site_fract_y
_atom_site_fract_z
Si Si1 0.872041 0.612412 0.074124
Si Si2 0.798754 0.017221 0.789496
Si Si3 0.137236 0.686140 0.506940
Si Si4 0.079828 0.229907 0.373365
Si Si5 0.166429 0.340279 0.736712
Si Si6 0.348400 0.404394 0.177293
Si Si7 0.332768 0.080612 0.577617
Si Si8 0.734663 0.018323 0.919934
O O1 0.493872 0.737086 0.053931
O O2 0.035846 0.797797 0.152793
O O3 0.021539 0.452988 0.107667
O O4 0.000000 0.500000 0.000000
O O5 0.410755 0.138481 0.756142
O O6 0.842887 0.952539 0.848968
O O7 0.952958 0.829858 0.714498
O O8 0.215089 0.436741 0.439566
O O9 0.181611 0.702253 0.588531
O O10 0.752179 0.795501 0.466202
O O11 0.253855 0.856893 0.524490
O O12 0.300081 0.999774 0.371712
O O13 0.382510 0.500953 0.793526
O O14 0.135869 0.245367 0.644167
O O15 0.815664 0.465107 0.751434
O O16 0.462261 0.148093 0.130263
O O17 0.000000 0.000000 0.000000
#
# Coordination Sequence:
#
# PCOD9022978 Si02
#       8
#     2   2   2   2   2   2   2   2
#     4  11  26  47  71 101 143 190 238 301 367 435
#     4  10  24  44  71  98 139 187 243 288 363 429
#     4  10  22  39  65  97 135 182 225 293 354 418
#     4  10  22  41  63  97 135 178 230 293 348 425
#     4  10  24  46  72 104 141 191 236 300 350 434
#     4  11  26  46  73 104 144 185 245 293 366 421
#     4  10  22  39  65  94 137 175 237 280 357 411
#     4  12  28  44  73 105 141 186 242 302 367 438
#
# _framework density 26.921057999999999
#
# number of rings (size 3 to 8) (size 9 to 14) (size 15 to 20)
#    0.000    1.500    1.250    1.500   12.250    2.000 
#    0.000    2.500    0.000    0.000    0.000    0.000 
#    0.000    0.000    0.000    0.000    0.000    0.000 
#
# Total GULP energy -89477.112464 kJ/mol
# GULP energy per Si atom -5592.319529 kJ/mol
# Density = 2.685978 g / cm^3
# Si number density = 26.921058 Si / 1000 Ang^3
#
#
#
# Elastic Constant Matrix: (Units=GPa)
#
#
# Indices 1 2 3 4 5 6 
#
# 1 66.4300 8.3792 20.6329 10.6413 -22.1512 5.2356
# 2 8.3792 129.5725 33.3021 12.2984 -11.3404 -0.8501
# 3 20.6329 33.3021 170.8558 9.1486 -33.4176 10.1226
# 4 10.6413 12.2984 9.1486 51.2554 6.6978 -0.6546
# 5 -22.1512 -11.3404 -33.4176 6.6978 45.4367 8.9574
# 6 5.2356 -0.8501 10.1226 -0.6546 8.9574 42.1599
#
#
#
# Elastic Compliance Matrix: (Units=1/GPa)
#
#
# Indices 1 2 3 4 5 6 
#
# 1 0.020363 0.000156 0.000565 -0.006046 0.012333 -0.005375
# 2 0.000156 0.008353 -0.001247 -0.002012 0.001522 0.000094
# 3 0.000565 -0.001247 0.007614 -0.002073 0.006528 -0.003343
# 4 -0.006046 -0.002012 -0.002073 0.022842 -0.009027 0.003481
# 5 0.012333 0.001522 0.006528 -0.009027 0.036703 -0.011006
# 6 -0.005375 0.000094 -0.003343 0.003481 -0.011006 0.027584
#
#
# Mechanical properties :
#
#
# Convention : Reuss Voigt Hill
#
# Bulk Modulus (GPa) = 28.34745 54.60963 41.47854
# Shear Modulus (GPa) = 36.69210 48.07335 42.38272
#
# Velocity S-wave (km/s) = 3.69582 4.23036 3.97209
# Velocity P-wave (km/s) = 5.36329 6.64758 6.03967
#
# Compressibility (1/GPa) = 0.03527654
#
# Stress axis : x y z
#
# Youngs Moduli (GPa) = 49.10926 119.71947 131.34327
#
# Poissons Ratio (x) = -0.01867 -0.07419
# Poissons Ratio (y) = -0.00766 0.16381
# Poissons Ratio (z) = -0.02774 0.14931
#
# Static dielectric constant tensor:
#      x y z
#    x 2.337730 0.023980 0.348190 
#    y 0.023980 2.211230 -0.397840 
#    z 0.348190 -0.397840 1.402750 
# 
# From -- ./inp_files/582621.got.cif
#   From: 2010.05.17/outbox.cif.g08.bks.cpg/sg2_292_cif.got.tgz:582621.got - 2010.06.03 11:33:40.
