data_PCOD9022559
_publ_section_title
;
Structure prediction by ZEFSAII (Michael W. Deem and Ramdas Pophale) SiO2 
 PCOD9022559
Probable space group: P -1
;
_chemical_formula_sum "Si O2"
_cell_formula_units_Z 15
_cell_length_a 18.022973
_cell_length_b 11.741691
_cell_length_c 12.618449
_cell_angle_alpha 147.243083
_cell_angle_beta 29.971673
_cell_angle_gamma 147.934305
_cell_volume 648.187740
_symmetry_space_group_name_H-M "P -1"
_symmetry_group_IT_number 2
_symmetry_cell_setting 'triclinic'
loop_
_space_group_symop_operation_xyz
x,y,z
-x,-y,-z
loop_
_atom_site_type_symbol
_atom_site_label
_atom_site_fract_x
_atom_site_fract_y
_atom_site_fract_z
Si Si1 0.325676 0.778229 0.570127
Si Si2 0.515303 0.498845 0.144105
Si Si3 0.427411 0.353847 0.580256
Si Si4 0.861284 0.962155 0.054582
Si Si5 0.000000 0.500000 0.000000
Si Si6 0.112639 0.878601 0.304770
Si Si7 0.595841 0.022696 0.146324
Si Si8 0.903152 0.866146 0.285098
O O1 0.368174 0.559888 0.333547
O O2 0.500000 0.000000 0.500000
O O3 0.192795 0.825387 0.705179
O O4 0.303915 0.822367 0.756240
O O5 0.500358 0.489274 0.282839
O O6 0.693849 0.719108 0.079324
O O7 0.494530 0.252116 0.932871
O O8 0.500000 0.500000 0.500000
O O9 0.233174 0.261559 0.735571
O O10 0.474449 0.137428 0.358371
O O11 0.000000 0.000000 0.000000
O O12 0.933287 0.976235 0.858659
O O13 0.075442 0.324030 0.816015
O O14 0.989559 0.392844 0.807174
O O15 0.153834 0.972179 0.445734
O O16 0.000000 0.000000 0.500000
O O17 0.271266 0.940059 0.080920
#
# Coordination Sequence:
#
# PCOD9022559 Si02
#       8
#     2   2   2   2   1   2   2   2
#     4   9  21  40  68  93 128 176 226 274 334 406
#     4  10  23  44  68  98 135 179 226 280 342 407
#     4  11  23  40  66  98 133 179 220 281 343 405
#     4  11  22  44  70  97 139 186 225 280 346 407
#     4  10  22  42  66  92 130 174 218 280 344 384
#     4  10  22  39  62  97 129 166 221 278 331 399
#     4  11  23  42  68  99 136 173 232 282 344 409
#     4  11  23  41  67  97 135 170 232 275 337 409
#
# _framework density 23.141442999999999
#
# number of rings (size 3 to 8) (size 9 to 14) (size 15 to 20)
#    0.000    1.600    1.333    3.200    0.000   11.733 
#    0.000    6.000    0.000    0.000    0.000    0.000 
#    0.000    0.000    0.000    0.000    0.000    0.000 
#
# Total GULP energy -83583.883552 kJ/mol
# GULP energy per Si atom -5572.258903 kJ/mol
# Density = 2.308877 g / cm^3
# Si number density = 23.141443 Si / 1000 Ang^3
#
#
#
# Elastic Constant Matrix: (Units=GPa)
#
#
# Indices 1 2 3 4 5 6 
#
# 1 113.0498 26.2973 40.8617 12.4202 -33.0157 -4.1309
# 2 26.2973 82.0145 31.4295 12.4372 -7.5923 -1.2200
# 3 40.8617 31.4295 102.0373 25.4362 -9.6664 0.7317
# 4 12.4202 12.4372 25.4362 52.5661 -6.1806 5.6154
# 5 -33.0157 -7.5923 -9.6664 -6.1806 44.0350 -2.5466
# 6 -4.1309 -1.2200 0.7317 5.6154 -2.5466 24.6229
#
#
#
# Elastic Compliance Matrix: (Units=1/GPa)
#
#
# Indices 1 2 3 4 5 6 
#
# 1 0.013509 -0.001908 -0.003957 -0.000103 0.009105 0.003254
# 2 -0.001908 0.014304 -0.003279 -0.001416 0.000165 0.000826
# 3 -0.003957 -0.003279 0.013510 -0.004952 -0.001275 -0.000230
# 4 -0.000103 -0.001416 -0.004952 0.022476 0.001462 -0.004915
# 5 0.009105 0.000165 -0.001275 0.001462 0.029739 0.004316
# 6 0.003254 0.000826 -0.000230 -0.004915 0.004316 0.042774
#
#
# Mechanical properties :
#
#
# Convention : Reuss Voigt Hill
#
# Bulk Modulus (GPa) = 43.41426 54.91983 49.16705
# Shear Modulus (GPa) = 30.81121 37.47902 34.14512
#
# Velocity S-wave (km/s) = 3.65284 4.02875 3.84539
# Velocity P-wave (km/s) = 6.04914 6.73979 6.40378
#
# Compressibility (1/GPa) = 0.02303390
#
# Stress axis : x y z
#
# Youngs Moduli (GPa) = 74.02434 69.91236 74.01720
#
# Poissons Ratio (x) = 0.13341 0.29290
# Poissons Ratio (y) = 0.14126 0.24271
# Poissons Ratio (z) = 0.29293 0.22925
#
# Static dielectric constant tensor:
#      x y z
#    x 1.860210 -0.016370 0.030580 
#    y -0.016370 2.140150 -0.139700 
#    z 0.030580 -0.139700 1.897210 
# 
# From -- ./inp_files/465170.got.cif
#   From: 2010.05.17/outbox.cif.g08.bks.cpg/sg2_233_cif.got.tgz:465170.got - 2010.06.03 11:33:40.
