data_PCOD9022892
_publ_section_title
;
Structure prediction by ZEFSAII (Michael W. Deem and Ramdas Pophale) SiO2 
 PCOD9022892
Probable space group: P -1
;
_chemical_formula_sum "Si O2"
_cell_formula_units_Z 15
_cell_length_a 8.613551
_cell_length_b 9.721471
_cell_length_c 11.141957
_cell_angle_alpha 68.985192
_cell_angle_beta 125.967723
_cell_angle_gamma 117.580396
_cell_volume 664.398247
_symmetry_space_group_name_H-M "P -1"
_symmetry_group_IT_number 2
_symmetry_cell_setting 'triclinic'
loop_
_space_group_symop_operation_xyz
x,y,z
-x,-y,-z
loop_
_atom_site_type_symbol
_atom_site_label
_atom_site_fract_x
_atom_site_fract_y
_atom_site_fract_z
Si Si1 0.675411 0.988107 0.363762
Si Si2 0.831775 0.592504 0.580107
Si Si3 0.479349 0.731297 0.782550
Si Si4 0.067765 0.137985 0.643936
Si Si5 0.506248 0.720499 0.524134
Si Si6 0.500000 0.500000 0.000000
Si Si7 0.087939 0.485246 0.915167
Si Si8 0.908245 0.830329 0.072728
O O1 0.751916 0.922734 0.301494
O O2 0.493150 0.859659 0.389522
O O3 0.626904 0.144941 0.271418
O O4 0.858161 0.019392 0.533393
O O5 0.677630 0.660119 0.561871
O O6 0.703523 0.420745 0.531176
O O7 0.090004 0.295512 0.532285
O O8 0.000897 0.581217 0.752353
O O9 0.554432 0.766268 0.670071
O O10 0.372703 0.547986 0.813812
O O11 0.664043 0.749391 0.957007
O O12 0.063825 0.152017 0.778920
O O13 0.332341 0.536109 0.006700
O O14 0.008900 0.301076 0.900853
O O15 0.000000 0.500000 0.000000
O O16 0.000000 0.000000 0.000000
#
# Coordination Sequence:
#
# PCOD9022892 Si02
#       8
#     2   2   2   2   2   1   2   2
#     4  10  22  41  67  92 131 182 224 285 360 410
#     4  10  22  40  68  99 133 180 233 293 345 415
#     4  11  23  39  65  93 136 179 222 284 347 413
#     4  10  23  43  65  96 133 175 238 288 341 424
#     4  10  22  39  65 100 136 173 234 288 347 424
#     4  10  24  42  62 102 134 180 234 276 342 416
#     4  11  25  46  72 100 140 189 230 288 363 418
#     4  11  26  42  64  99 137 178 234 288 345 417
#
# _framework density 22.576819
#
# number of rings (size 3 to 8) (size 9 to 14) (size 15 to 20)
#    0.000    1.600    0.000    3.600    7.467    4.267 
#    4.800    0.000    0.000    0.000    0.000    0.000 
#    0.000    0.000    0.000    0.000    0.000    0.000 
#
# Total GULP energy -83648.043772 kJ/mol
# GULP energy per Si atom -5576.536251 kJ/mol
# Density = 2.252543 g / cm^3
# Si number density = 22.576819 Si / 1000 Ang^3
#
#
#
# Elastic Constant Matrix: (Units=GPa)
#
#
# Indices 1 2 3 4 5 6 
#
# 1 103.6519 39.1120 56.2117 -3.1186 -32.3469 -11.5638
# 2 39.1120 98.8424 51.0901 -15.5726 -28.0545 -7.2136
# 3 56.2117 51.0901 117.4769 -17.4466 -28.3341 -28.1952
# 4 -3.1186 -15.5726 -17.4466 45.8735 -0.4752 0.9244
# 5 -32.3469 -28.0545 -28.3341 -0.4752 41.5047 4.7744
# 6 -11.5638 -7.2136 -28.1952 0.9244 4.7744 35.8555
#
#
#
# Elastic Compliance Matrix: (Units=1/GPa)
#
#
# Indices 1 2 3 4 5 6 
#
# 1 0.015221 -0.001519 -0.005142 -0.001352 0.007354 -0.000384
# 2 -0.001519 0.015142 -0.004185 0.003546 0.006428 -0.001682
# 3 -0.005142 -0.004185 0.016694 0.004412 0.003455 0.010053
# 4 -0.001352 0.003546 0.004412 0.024583 0.004345 0.002534
# 5 0.007354 0.006428 0.003455 0.004345 0.036415 0.001421
# 6 -0.000384 -0.001682 0.010053 0.002534 0.001421 0.035078
#
#
# Mechanical properties :
#
#
# Convention : Reuss Voigt Hill
#
# Bulk Modulus (GPa) = 39.42424 68.08877 53.75650
# Shear Modulus (GPa) = 28.85527 36.21724 32.53625
#
# Velocity S-wave (km/s) = 3.57892 4.00956 3.80035
# Velocity P-wave (km/s) = 5.88034 7.18746 6.56651
#
# Compressibility (1/GPa) = 0.02536511
#
# Stress axis : x y z
#
# Youngs Moduli (GPa) = 65.69973 66.04292 59.90213
#
# Poissons Ratio (x) = 0.10031 0.30800
# Poissons Ratio (y) = 0.09979 0.25068
# Poissons Ratio (z) = 0.33781 0.27638
#
# Static dielectric constant tensor:
#      x y z
#    x 1.848910 -0.051170 0.024640 
#    y -0.051170 1.605590 0.043050 
#    z 0.024640 0.043050 1.797620 
# 
# From -- ./inp_files/376219.got.cif
#   From: 2010.05.17/outbox.cif.g08.bks.cpg/sg2_189_cif.got.tgz:376219.got - 2010.06.03 11:33:40.
