data_PCOD9022272
_publ_section_title
;
Structure prediction by ZEFSAII (Michael W. Deem and Ramdas Pophale) SiO2 
 PCOD9022272
Probable space group: P -1
;
_chemical_formula_sum "Si O2"
_cell_formula_units_Z 16
_cell_length_a 14.817204
_cell_length_b 5.955433
_cell_length_c 11.737998
_cell_angle_alpha 81.640453
_cell_angle_beta 115.532173
_cell_angle_gamma 63.981391
_cell_volume 765.146942
_symmetry_space_group_name_H-M "P -1"
_symmetry_group_IT_number 2
_symmetry_cell_setting 'triclinic'
loop_
_space_group_symop_operation_xyz
x,y,z
-x,-y,-z
loop_
_atom_site_type_symbol
_atom_site_label
_atom_site_fract_x
_atom_site_fract_y
_atom_site_fract_z
Si Si1 0.588128 0.593155 0.511916
Si Si2 0.615577 0.597338 0.164869
Si Si3 0.765382 0.016008 0.577120
Si Si4 0.355086 0.072043 0.037883
Si Si5 0.207617 0.984406 0.789572
Si Si6 0.351915 0.146905 0.289280
Si Si7 0.975790 0.048788 0.618459
Si Si8 0.208647 0.340930 0.580978
O O1 0.500000 0.500000 0.500000
O O2 0.651630 0.619475 0.655434
O O3 0.494303 0.894770 0.389312
O O4 0.686358 0.345924 0.505803
O O5 0.699146 0.627163 0.297062
O O6 0.479407 0.767077 0.124703
O O7 0.678284 0.280501 0.190857
O O8 0.617894 0.743518 0.039503
O O9 0.729671 0.931684 0.680021
O O10 0.731117 0.887452 0.467391
O O11 0.901387 0.929832 0.635186
O O12 0.320240 0.190196 0.136791
O O13 0.253667 0.053692 0.920664
O O14 0.155893 0.233215 0.653291
O O15 0.104070 0.930401 0.755504
O O16 0.890956 0.378196 0.554939
O O17 0.000000 0.000000 0.500000
#
# Coordination Sequence:
#
# PCOD9022272 Si02
#       8
#     2   2   2   2   2   2   2   2
#     4   9  21  38  60  92 122 163 204 256 308 366
#     4  10  22  40  60  94 125 163 205 254 315 372
#     4  11  23  37  60  94 126 160 202 263 316 368
#     4  10  24  39  62  88 130 169 207 249 302 385
#     4  11  23  41  62  91 127 166 209 256 316 371
#     4  10  22  39  60  89 127 165 210 252 308 370
#     4  12  23  39  64  95 124 160 208 268 315 366
#     4  11  22  37  65  94 126 154 206 265 322 369
#
# _framework density 20.911014999999999
#
# number of rings (size 3 to 8) (size 9 to 14) (size 15 to 20)
#    0.000    1.500    2.500    1.500    8.750    2.000 
#    0.000    0.625    0.000    3.750    0.000    0.000 
#    0.000    0.000    0.000    0.000    0.000    0.000 
#
# Total GULP energy -89370.926111 kJ/mol
# GULP energy per Si atom -5585.682882 kJ/mol
# Density = 2.086342 g / cm^3
# Si number density = 20.911015 Si / 1000 Ang^3
#
#
#
# Elastic Constant Matrix: (Units=GPa)
#
#
# Indices 1 2 3 4 5 6 
#
# 1 121.2754 -2.0587 26.6861 14.5526 -4.2983 -1.7906
# 2 -2.0587 94.4334 22.3441 21.6563 -11.7049 -3.1645
# 3 26.6861 22.3441 74.1143 27.4911 -11.2639 -4.0282
# 4 14.5526 21.6563 27.4911 34.4045 -6.1172 -0.1709
# 5 -4.2983 -11.7049 -11.2639 -6.1172 28.5471 3.6340
# 6 -1.7906 -3.1645 -4.0282 -0.1709 3.6340 23.1964
#
#
#
# Elastic Compliance Matrix: (Units=1/GPa)
#
#
# Indices 1 2 3 4 5 6 
#
# 1 0.009200 0.001493 -0.002734 -0.002588 0.000317 0.000370
# 2 0.001493 0.013030 -0.001193 -0.007270 0.003399 0.001100
# 3 -0.002734 -0.001193 0.020755 -0.013957 0.003979 0.002504
# 4 -0.002588 -0.007270 -0.013957 0.046130 0.001453 -0.003503
# 5 0.000317 0.003399 0.003979 0.001453 0.038978 -0.004917
# 6 0.000370 0.001100 0.002504 -0.003503 -0.004917 0.044468
#
#
# Mechanical properties :
#
#
# Convention : Reuss Voigt Hill
#
# Bulk Modulus (GPa) = 26.23600 42.64069 34.43835
# Shear Modulus (GPa) = 26.29712 33.41970 29.85841
#
# Velocity S-wave (km/s) = 3.55007 4.00207 3.78283
# Velocity P-wave (km/s) = 5.42013 6.46461 5.96527
#
# Compressibility (1/GPa) = 0.03811556
#
# Stress axis : x y z
#
# Youngs Moduli (GPa) = 108.69605 76.74824 48.18198
#
# Poissons Ratio (x) = -0.11456 0.13175
# Poissons Ratio (y) = -0.16225 0.05746
# Poissons Ratio (z) = 0.29722 0.09153
#
# Static dielectric constant tensor:
#      x y z
#    x 1.797410 0.001400 -0.003540 
#    y 0.001400 1.810520 -0.037180 
#    z -0.003540 -0.037180 1.750790 
# 
# From -- ./inp_files/84974.got.cif
#   From: 2010.05.17/outbox.cif.g08.bks.cpg/sg2_43_cif.got.tgz:84974.got - 2010.06.03 11:33:40.
