data_PCOD9022912
_publ_section_title
;
Structure prediction by ZEFSAII (Michael W. Deem and Ramdas Pophale) SiO2 
 PCOD9022912
Probable space group: P -1
;
_chemical_formula_sum "Si O2"
_cell_formula_units_Z 16
_cell_length_a 5.175177
_cell_length_b 17.847938
_cell_length_c 7.858578
_cell_angle_alpha 107.310397
_cell_angle_beta 105.229389
_cell_angle_gamma 111.058960
_cell_volume 588.433599
_symmetry_space_group_name_H-M "P -1"
_symmetry_group_IT_number 2
_symmetry_cell_setting 'triclinic'
loop_
_space_group_symop_operation_xyz
x,y,z
-x,-y,-z
loop_
_atom_site_type_symbol
_atom_site_label
_atom_site_fract_x
_atom_site_fract_y
_atom_site_fract_z
Si Si1 0.427322 0.083361 0.047055
Si Si2 0.841606 0.548539 0.397293
Si Si3 0.699587 0.631194 0.917076
Si Si4 0.480596 0.339309 0.450465
Si Si5 0.360216 0.883390 0.339719
Si Si6 0.854456 0.979828 0.700694
Si Si7 0.196314 0.248210 0.683584
Si Si8 0.292759 0.749928 0.980464
O O1 0.236074 0.073303 0.176001
O O2 0.646898 0.188995 0.134323
O O3 0.198769 0.053091 0.826956
O O4 0.500000 0.000000 0.000000
O O5 0.576978 0.468270 0.191662
O O6 0.652813 0.591497 0.487864
O O7 0.000000 0.500000 0.500000
O O8 0.161200 0.625141 0.430729
O O9 0.582037 0.678118 0.778120
O O10 0.783332 0.666005 0.149766
O O11 0.018695 0.650818 0.893635
O O12 0.314096 0.268631 0.524850
O O13 0.330875 0.965601 0.314555
O O14 0.187636 0.807846 0.120696
O O15 0.138704 0.836720 0.429873
O O16 0.701692 0.911119 0.476696
O O17 0.424113 0.238086 0.850077
#
# Coordination Sequence:
#
# PCOD9022912 Si02
#       8
#     2   2   2   2   2   2   2   2
#     4  11  22  40  62  93 122 173 230 275 339 418
#     4  10  23  47  75 106 139 182 238 285 340 421
#     4  10  25  44  71  97 139 180 221 289 347 403
#     4  11  26  46  75 105 139 186 238 279 349 425
#     4  10  22  43  60  93 130 172 225 286 345 406
#     4  10  22  39  65  87 126 172 226 284 340 407
#     4  11  26  44  65 102 142 177 228 286 350 421
#     4  11  24  42  62  95 136 171 223 287 349 407
#
# _framework density 27.190836000000001
#
# number of rings (size 3 to 8) (size 9 to 14) (size 15 to 20)
#    0.000    1.500    2.500    1.500   10.500    2.500 
#    2.250    0.000    0.000    0.000    0.000    0.000 
#    0.000    0.000    0.000    0.000    0.000    0.000 
#
# Total GULP energy -89121.015709 kJ/mol
# GULP energy per Si atom -5570.063482 kJ/mol
# Density = 2.712895 g / cm^3
# Si number density = 27.190836 Si / 1000 Ang^3
#
#
#
# Elastic Constant Matrix: (Units=GPa)
#
#
# Indices 1 2 3 4 5 6 
#
# 1 49.9243 0.7129 28.2305 6.4886 16.5736 -13.6981
# 2 0.7129 82.1402 29.3995 -16.6769 -2.9938 13.6199
# 3 28.2305 29.3995 131.5405 -6.6055 20.6532 13.9157
# 4 6.4886 -16.6769 -6.6055 43.1519 12.6408 0.3287
# 5 16.5736 -2.9938 20.6532 12.6408 40.8759 -7.5795
# 6 -13.6981 13.6199 13.9157 0.3287 -7.5795 40.5235
#
#
#
# Elastic Compliance Matrix: (Units=1/GPa)
#
#
# Indices 1 2 3 4 5 6 
#
# 1 0.029277 -0.000829 -0.006757 -0.004377 -0.005014 0.011593
# 2 -0.000829 0.014917 -0.002422 0.005520 0.000114 -0.004486
# 3 -0.006757 -0.002422 0.011287 0.003434 -0.005386 -0.006381
# 4 -0.004377 0.005520 0.003434 0.029436 -0.009883 -0.006601
# 5 -0.005014 0.000114 -0.005386 -0.009883 0.033481 0.006459
# 6 0.011593 -0.004486 -0.006381 -0.006601 0.006459 0.033556
#
#
# Mechanical properties :
#
#
# Convention : Reuss Voigt Hill
#
# Bulk Modulus (GPa) = 28.19730 42.25455 35.22592
# Shear Modulus (GPa) = 27.20447 38.59438 32.89942
#
# Velocity S-wave (km/s) = 3.16650 3.77157 3.48220
# Velocity P-wave (km/s) = 4.87459 5.87707 5.39915
#
# Compressibility (1/GPa) = 0.03546438
#
# Stress axis : x y z
#
# Youngs Moduli (GPa) = 34.15605 67.03751 88.59885
#
# Poissons Ratio (x) = 0.05560 0.59866
# Poissons Ratio (y) = 0.02833 0.21460
# Poissons Ratio (z) = 0.23079 0.16238
#
# Static dielectric constant tensor:
#      x y z
#    x 2.335030 0.062830 -0.107460 
#    y 0.062830 2.525570 0.161630 
#    z -0.107460 0.161630 2.225300 
# 
# From -- ./inp_files/52514.got.cif
#   From: 2010.05.17/outbox.cif.g08.bks.cpg/sg2_27_cif.got.tgz:52514.got - 2010.06.03 11:33:40.
