data_PCOD9022294
_publ_section_title
;
Structure prediction by ZEFSAII (Michael W. Deem and Ramdas Pophale) SiO2 
 PCOD9022294
Probable space group: P -1
;
_chemical_formula_sum "Si O2"
_cell_formula_units_Z 14
_cell_length_a 11.573494
_cell_length_b 18.612256
_cell_length_c 17.781922
_cell_angle_alpha 19.588989
_cell_angle_beta 149.551697
_cell_angle_gamma 152.577606
_cell_volume 583.109281
_symmetry_space_group_name_H-M "P -1"
_symmetry_group_IT_number 2
_symmetry_cell_setting 'triclinic'
loop_
_space_group_symop_operation_xyz
x,y,z
-x,-y,-z
loop_
_atom_site_type_symbol
_atom_site_label
_atom_site_fract_x
_atom_site_fract_y
_atom_site_fract_z
Si Si1 0.277923 0.109306 0.513465
Si Si2 0.571220 0.773811 0.835219
Si Si3 0.691512 0.925518 0.138610
Si Si4 0.332091 0.403201 0.672112
Si Si5 0.016381 0.366710 0.774623
Si Si6 0.180353 0.941781 0.457598
Si Si7 0.712995 0.998993 0.851608
O O1 0.453140 0.362809 0.399566
O O2 0.262885 0.100053 0.423646
O O3 0.434929 0.957340 0.765768
O O4 0.000000 0.000000 0.500000
O O5 0.278613 0.733443 0.718517
O O6 0.693379 0.953886 0.796611
O O7 0.681128 0.903053 0.690867
O O8 0.689854 0.584161 0.099866
O O9 0.562195 0.697174 0.237264
O O10 0.883570 0.870668 0.352573
O O11 0.500000 0.000000 0.000000
O O12 0.863681 0.151491 0.959402
O O13 0.094860 0.442529 0.468046
O O14 0.235811 0.199363 0.881827
O O15 0.905672 0.252736 0.743325
#
# Coordination Sequence:
#
# PCOD9022294 Si02
#       7
#     2   2   2   2   2   2   2
#     4  10  22  40  62  89 125 163 207 252 307 368
#     4   9  17  37  61  86 123 165 206 250 307 357
#     4  10  22  40  62  89 125 163 207 252 307 368
#     4  10  22  39  60  92 122 163 208 248 312 360
#     4   9  19  36  59  90 121 163 207 251 301 365
#     4   9  20  38  62  88 124 165 200 260 308 351
#     4   9  19  36  59  90 121 163 207 251 301 365
#
# _framework density 24.009222000000001
#
# number of rings (size 3 to 8) (size 9 to 14) (size 15 to 20)
#    0.000    2.571    0.000    0.429    6.000    1.714 
#    0.000   12.857    0.000    0.000    0.000    0.000 
#    0.000    0.000    0.000    0.000    0.000    0.000 
#
# Total GULP energy -78181.185558 kJ/mol
# GULP energy per Si atom -5584.370397 kJ/mol
# Density = 2.395458 g / cm^3
# Si number density = 24.009222 Si / 1000 Ang^3
#
#
#
# Elastic Constant Matrix: (Units=GPa)
#
#
# Indices 1 2 3 4 5 6 
#
# 1 141.5338 54.2241 67.9738 15.9084 51.4060 -10.4591
# 2 54.2241 93.0828 52.4232 20.7737 16.9060 -10.5470
# 3 67.9738 52.4232 112.4684 20.6142 29.8214 -9.4493
# 4 15.9084 20.7737 20.6142 40.8827 5.6934 3.2422
# 5 51.4060 16.9060 29.8214 5.6934 47.0133 6.4733
# 6 -10.4591 -10.5470 -9.4493 3.2422 6.4733 33.8521
#
#
#
# Elastic Compliance Matrix: (Units=1/GPa)
#
#
# Indices 1 2 3 4 5 6 
#
# 1 0.016021 -0.003949 -0.003293 -0.000975 -0.014676 0.005700
# 2 -0.003949 0.016900 -0.004680 -0.005123 0.001423 0.002957
# 3 -0.003293 -0.004680 0.015091 -0.003587 -0.004253 0.002894
# 4 -0.000975 -0.005123 -0.003587 0.029398 0.002476 -0.006188
# 5 -0.014676 0.001423 -0.004253 0.002476 0.041044 -0.013364
# 6 0.005700 0.002957 0.002894 -0.006188 -0.013364 0.036179
#
#
# Mechanical properties :
#
#
# Convention : Reuss Voigt Hill
#
# Bulk Modulus (GPa) = 41.37831 77.36970 59.37401
# Shear Modulus (GPa) = 26.80483 35.84719 31.32601
#
# Velocity S-wave (km/s) = 3.34494 3.86820 3.61605
# Velocity P-wave (km/s) = 5.67362 7.22811 6.49752
#
# Compressibility (1/GPa) = 0.02416725
#
# Stress axis : x y z
#
# Youngs Moduli (GPa) = 62.41677 59.17332 66.26257
#
# Poissons Ratio (x) = 0.23370 0.21821
# Poissons Ratio (y) = 0.24651 0.31011
# Poissons Ratio (z) = 0.20554 0.27694
#
# Static dielectric constant tensor:
#      x y z
#    x 1.911930 -0.015860 0.037440 
#    y -0.015860 1.959840 0.033370 
#    z 0.037440 0.033370 1.964980 
# 
# From -- ./inp_files/429304.got.cif
#   From: 2010.05.17/outbox.cif.g08.bks.cpg/sg2_215_cif.got.tgz:429304.got - 2010.06.03 11:33:40.
