data_PCOD9022761
_publ_section_title
;
Structure prediction by ZEFSAII (Michael W. Deem and Ramdas Pophale) SiO2 
 PCOD9022761
Probable space group: P -1
;
_chemical_formula_sum "Si O2"
_cell_formula_units_Z 14
_cell_length_a 10.140221
_cell_length_b 7.215889
_cell_length_c 18.875554
_cell_angle_alpha 129.152477
_cell_angle_beta 130.123015
_cell_angle_gamma 41.206954
_cell_volume 665.644831
_symmetry_space_group_name_H-M "P -1"
_symmetry_group_IT_number 2
_symmetry_cell_setting 'triclinic'
loop_
_space_group_symop_operation_xyz
x,y,z
-x,-y,-z
loop_
_atom_site_type_symbol
_atom_site_label
_atom_site_fract_x
_atom_site_fract_y
_atom_site_fract_z
Si Si1 0.696506 0.143577 0.066274
Si Si2 0.336538 0.164567 0.890381
Si Si3 0.478206 0.245202 0.369366
Si Si4 0.140916 0.881974 0.448828
Si Si5 0.523601 0.653968 0.214377
Si Si6 0.717339 0.234674 0.315606
Si Si7 0.897959 0.254339 0.968424
O O1 0.685940 0.428518 0.154496
O O2 0.614630 0.076721 0.091920
O O3 0.538715 0.177957 0.958706
O O4 0.926125 0.864422 0.059246
O O5 0.278473 0.046114 0.776502
O O6 0.158910 0.467497 0.938867
O O7 0.252213 0.538867 0.385039
O O8 0.651885 0.126446 0.464127
O O9 0.573016 0.334881 0.360427
O O10 0.477204 0.971792 0.279081
O O11 0.000000 0.000000 0.500000
O O12 0.963258 0.101867 0.383512
O O13 0.613519 0.486875 0.280677
O O14 0.308192 0.694675 0.126054
O O15 0.000000 0.000000 0.000000
#
# Coordination Sequence:
#
# PCOD9022761 Si02
#       7
#     2   2   2   2   2   2   2
#     4   9  20  39  55  80 124 156 199 247 291 347
#     4   9  20  36  57  83 114 163 199 243 292 350
#     4  10  22  41  66  86 123 152 193 255 298 361
#     4   9  21  42  63  92 117 154 194 242 311 363
#     4  10  24  40  58  95 118 158 208 245 294 359
#     4  10  22  39  64  88 120 157 203 243 303 356
#     4  11  24  34  55  89 124 161 204 244 298 349
#
# _framework density 21.032236000000001
#
# number of rings (size 3 to 8) (size 9 to 14) (size 15 to 20)
#    0.000    2.286    0.000    1.286    6.000    5.143 
#    0.000    6.429    0.000    0.000    0.000    0.000 
#    0.000    0.000    0.000    0.000    0.000    0.000 
#
# Total GULP energy -77994.107528 kJ/mol
# GULP energy per Si atom -5571.007681 kJ/mol
# Density = 2.098437 g / cm^3
# Si number density = 21.032236 Si / 1000 Ang^3
#
#
#
# Elastic Constant Matrix: (Units=GPa)
#
#
# Indices 1 2 3 4 5 6 
#
# 1 37.4561 31.2322 8.1530 -7.4629 -3.2925 -6.9421
# 2 31.2322 123.3131 22.7695 -1.0478 -9.6125 -11.2946
# 3 8.1530 22.7695 56.2729 1.1386 -14.9546 -7.3154
# 4 -7.4629 -1.0478 1.1386 49.5995 8.5384 -9.9016
# 5 -3.2925 -9.6125 -14.9546 8.5384 8.7440 2.4654
# 6 -6.9421 -11.2946 -7.3154 -9.9016 2.4654 38.8293
#
#
#
# Elastic Compliance Matrix: (Units=1/GPa)
#
#
# Indices 1 2 3 4 5 6 
#
# 1 0.037059 -0.008988 -0.005492 0.009664 -0.016586 0.006494
# 2 -0.008988 0.011312 0.000059 -0.003204 0.012253 0.000100
# 3 -0.005492 0.000059 0.041613 -0.017371 0.086998 -0.003078
# 4 0.009664 -0.003204 -0.017371 0.035768 -0.067603 0.010936
# 5 -0.016586 0.012253 0.086998 -0.067603 0.342598 -0.022003
# 6 0.006494 0.000100 -0.003078 0.010936 -0.022003 0.030550
#
#
# Mechanical properties :
#
#
# Convention : Reuss Voigt Hill
#
# Bulk Modulus (GPa) = 16.35500 37.92793 27.14146
# Shear Modulus (GPa) = 9.12206 29.76038 19.44122
#
# Velocity S-wave (km/s) = 2.08485 3.76571 3.04362
# Velocity P-wave (km/s) = 3.68626 6.08111 5.02834
#
# Compressibility (1/GPa) = 0.06114338
#
# Stress axis : x y z
#
# Youngs Moduli (GPa) = 26.98404 88.40129 24.03073
#
# Poissons Ratio (x) = 0.79456 0.13197
# Poissons Ratio (y) = 0.24254 -0.00142
# Poissons Ratio (z) = 0.14818 -0.00523
#
# Static dielectric constant tensor:
#      x y z
#    x 1.841900 -0.007530 -0.020260 
#    y -0.007530 1.814930 0.020910 
#    z -0.020260 0.020910 1.827640 
# 
# From -- ./inp_files/49128.got.cif
#   From: 2010.05.17/outbox.cif.g08.bks.cpg/sg2_25_cif.got.tgz:49128.got - 2010.06.03 11:33:40.
