data_PCOD9022976
_publ_section_title
;
Structure prediction by ZEFSAII (Michael W. Deem and Ramdas Pophale) SiO2 
 PCOD9022976
Probable space group: P -1
;
_chemical_formula_sum "Si O2"
_cell_formula_units_Z 16
_cell_length_a 9.907031
_cell_length_b 17.857452
_cell_length_c 7.454364
_cell_angle_alpha 117.547683
_cell_angle_beta 80.614856
_cell_angle_gamma 142.265535
_cell_volume 663.796262
_symmetry_space_group_name_H-M "P -1"
_symmetry_group_IT_number 2
_symmetry_cell_setting 'triclinic'
loop_
_space_group_symop_operation_xyz
x,y,z
-x,-y,-z
loop_
_atom_site_type_symbol
_atom_site_label
_atom_site_fract_x
_atom_site_fract_y
_atom_site_fract_z
Si Si1 0.634330 0.467981 0.555719
Si Si2 0.044421 0.481918 0.270252
Si Si3 0.986766 0.017234 0.728536
Si Si4 0.063934 0.671841 0.410020
Si Si5 0.574264 0.928989 0.767299
Si Si6 0.249196 0.984449 0.784192
Si Si7 0.797932 0.729275 0.795506
Si Si8 0.731487 0.178535 0.823544
O O1 0.713358 0.446915 0.672979
O O2 0.662444 0.579150 0.732980
O O3 0.383343 0.320738 0.360940
O O4 0.824671 0.559358 0.452317
O O5 0.061314 0.571694 0.242022
O O6 0.000000 0.500000 0.500000
O O7 0.857290 0.317679 0.062484
O O8 0.115011 0.003723 0.787954
O O9 0.121848 0.166150 0.952041
O O10 0.000000 0.000000 0.500000
O O11 0.714634 0.912819 0.684727
O O12 0.306129 0.800116 0.615208
O O13 0.104318 0.747034 0.306814
O O14 0.712411 0.079908 0.822392
O O15 0.588224 0.938135 0.988084
O O16 0.460858 0.067432 0.694075
O O17 0.026087 0.818186 0.723091
#
# Coordination Sequence:
#
# PCOD9022976 Si02
#       8
#     2   2   2   2   2   2   2   2
#     4  10  22  42  68  98 130 183 224 273 326 418
#     4  10  22  39  65  94 135 179 226 266 331 406
#     4  11  25  42  66 100 137 173 217 285 340 391
#     4  11  24  40  68 103 138 170 223 285 346 387
#     4  11  23  43  69  99 132 178 234 275 333 405
#     4  11  23  41  71  97 131 179 227 274 328 404
#     4  10  22  42  69  95 133 176 232 266 331 410
#     4  12  24  43  69 101 138 174 223 292 338 389
#
# _framework density 24.103781000000001
#
# number of rings (size 3 to 8) (size 9 to 14) (size 15 to 20)
#    0.000    1.250    0.000    7.125    7.000    1.000 
#    2.250    0.000    0.000    6.000    0.000    0.000 
#    0.000    0.000    0.000    0.000    0.000    0.000 
#
# Total GULP energy -89283.012275 kJ/mol
# GULP energy per Si atom -5580.188267 kJ/mol
# Density = 2.404892 g / cm^3
# Si number density = 24.103781 Si / 1000 Ang^3
#
#
#
# Elastic Constant Matrix: (Units=GPa)
#
#
# Indices 1 2 3 4 5 6 
#
# 1 102.9801 11.0787 13.4516 8.9220 19.9903 -7.1004
# 2 11.0787 63.3347 32.8722 4.8154 -0.6813 1.1956
# 3 13.4516 32.8722 120.6227 18.2106 6.6389 11.6679
# 4 8.9220 4.8154 18.2106 33.2038 6.4553 6.5931
# 5 19.9903 -0.6813 6.6389 6.4553 34.5074 7.4896
# 6 -7.1004 1.1956 11.6679 6.5931 7.4896 42.5775
#
#
#
# Elastic Compliance Matrix: (Units=1/GPa)
#
#
# Indices 1 2 3 4 5 6 
#
# 1 0.011798 -0.001808 -0.000488 -0.001978 -0.007215 0.003727
# 2 -0.001808 0.018750 -0.005059 0.000057 0.002351 0.000136
# 3 -0.000488 -0.005059 0.010625 -0.004440 -0.000584 -0.002061
# 4 -0.001978 0.000057 -0.004440 0.034541 -0.003630 -0.003825
# 5 -0.007215 0.002351 -0.000584 -0.003630 0.035470 -0.006787
# 6 0.003727 0.000136 -0.002061 -0.003825 -0.006787 0.026455
#
#
# Mechanical properties :
#
#
# Convention : Reuss Voigt Hill
#
# Bulk Modulus (GPa) = 37.78947 44.63807 41.21377
# Shear Modulus (GPa) = 31.02323 37.36005 34.19164
#
# Velocity S-wave (km/s) = 3.59147 3.94123 3.77041
# Velocity P-wave (km/s) = 5.73673 6.26661 6.00751
#
# Compressibility (1/GPa) = 0.02646240
#
# Stress axis : x y z
#
# Youngs Moduli (GPa) = 84.76116 53.33433 94.11562
#
# Poissons Ratio (x) = 0.09644 0.04590
# Poissons Ratio (y) = 0.15326 0.47615
# Poissons Ratio (z) = 0.04134 0.26983
#
# Static dielectric constant tensor:
#      x y z
#    x 2.130410 0.091100 -0.120760 
#    y 0.091100 2.079670 -0.064850 
#    z -0.120760 -0.064850 1.977460 
# 
# From -- ./inp_files/208415.got.cif
#   From: 2010.05.17/outbox.cif.g08.bks.cpg/sg2_105_cif.got.tgz:208415.got - 2010.06.03 11:33:40.
