data_PCOD9022489
_publ_section_title
;
Structure prediction by ZEFSAII (Michael W. Deem and Ramdas Pophale) SiO2 
 PCOD9022489
Probable space group: P -1
;
_chemical_formula_sum "Si O2"
_cell_formula_units_Z 16
_cell_length_a 26.840271
_cell_length_b 12.224976
_cell_length_c 9.331137
_cell_angle_alpha 31.862715
_cell_angle_beta 137.747863
_cell_angle_gamma 149.430894
_cell_volume 821.535934
_symmetry_space_group_name_H-M "P -1"
_symmetry_group_IT_number 2
_symmetry_cell_setting 'triclinic'
loop_
_space_group_symop_operation_xyz
x,y,z
-x,-y,-z
loop_
_atom_site_type_symbol
_atom_site_label
_atom_site_fract_x
_atom_site_fract_y
_atom_site_fract_z
Si Si1 0.423612 0.215392 0.238101
Si Si2 0.944555 0.408717 0.133445
Si Si3 0.116167 0.105332 0.244118
Si Si4 0.552768 0.084288 0.745382
Si Si5 0.980327 0.250360 0.818592
Si Si6 0.285407 0.917167 0.024268
Si Si7 0.670775 0.599300 0.610856
Si Si8 0.570239 0.535325 0.732407
O O1 0.480696 0.102292 0.484531
O O2 0.409639 0.277052 0.300379
O O3 0.323164 0.026285 0.144902
O O4 0.500000 0.500000 0.000000
O O5 0.012925 0.674344 0.086068
O O6 0.931855 0.159993 0.460648
O O7 0.832806 0.295064 0.008052
O O8 0.000000 0.500000 0.000000
O O9 0.227231 0.326746 0.280254
O O10 0.108847 0.010771 0.169645
O O11 0.063190 0.227417 0.001925
O O12 0.652537 0.172378 0.791557
O O13 0.586789 0.291509 0.719654
O O14 0.486471 0.768321 0.994536
O O15 0.000000 0.500000 0.500000
O O16 0.325243 0.181950 0.716912
O O17 0.661478 0.636980 0.716045
O O18 0.500000 0.500000 0.500000
#
# Coordination Sequence:
#
# PCOD9022489 Si02
#       8
#     2   2   2   2   2   2   2   2
#     4  12  23  40  59  86 125 162 200 241 288 355
#     4  10  22  39  62  91 121 152 198 250 300 355
#     4   9  20  38  64  87 116 156 198 242 299 353
#     4  12  21  37  65  81 123 163 198 237 304 341
#     4   9  18  39  63  85 115 154 193 245 300 349
#     4  11  23  40  61  87 119 162 203 241 296 358
#     4  11  22  38  60  90 118 156 202 244 291 352
#     4  12  23  39  57  88 121 154 197 246 289 341
#
# _framework density 19.475717
#
# number of rings (size 3 to 8) (size 9 to 14) (size 15 to 20)
#    0.000    1.250    5.000    1.500    0.000    1.500 
#    0.000    3.750    0.000    0.000    0.000    0.000 
#    0.000    0.000    0.000    0.000    0.000    0.000 
#
# Total GULP energy -89167.412733 kJ/mol
# GULP energy per Si atom -5572.963296 kJ/mol
# Density = 1.943139 g / cm^3
# Si number density = 19.475717 Si / 1000 Ang^3
#
#
#
# Elastic Constant Matrix: (Units=GPa)
#
#
# Indices 1 2 3 4 5 6 
#
# 1 117.2314 41.2463 35.7181 6.9816 -9.0271 -23.9346
# 2 41.2463 73.0174 34.6122 15.7007 -5.4521 -17.3443
# 3 35.7181 34.6122 94.5672 15.3313 13.6763 6.8131
# 4 6.9816 15.7007 15.3313 22.1213 -3.0668 0.0374
# 5 -9.0271 -5.4521 13.6763 -3.0668 25.7242 8.9698
# 6 -23.9346 -17.3443 6.8131 0.0374 8.9698 40.9584
#
#
#
# Elastic Compliance Matrix: (Units=1/GPa)
#
#
# Indices 1 2 3 4 5 6 
#
# 1 0.012698 -0.003715 -0.004954 0.002698 0.004654 0.005649
# 2 -0.003715 0.023229 -0.006411 -0.010475 0.002957 0.008094
# 3 -0.004954 -0.006411 0.018230 -0.008124 -0.011635 -0.006086
# 4 0.002698 -0.010475 -0.008124 0.059020 0.011505 -0.004081
# 5 0.004654 0.002957 -0.011635 0.011505 0.050491 -0.005161
# 6 0.005649 0.008094 -0.006086 -0.004081 -0.005161 0.033290
#
#
# Mechanical properties :
#
#
# Convention : Reuss Voigt Hill
#
# Bulk Modulus (GPa) = 41.67285 56.44104 49.05695
# Shear Modulus (GPa) = 21.26602 29.31007 25.28805
#
# Velocity S-wave (km/s) = 3.30801 3.88358 3.60730
# Velocity P-wave (km/s) = 6.00287 7.01090 6.52638
#
# Compressibility (1/GPa) = 0.02399644
#
# Stress axis : x y z
#
# Youngs Moduli (GPa) = 78.75505 43.04980 54.85402
#
# Poissons Ratio (x) = 0.15995 0.27172
# Poissons Ratio (y) = 0.29261 0.35168
# Poissons Ratio (z) = 0.39011 0.27600
#
# Static dielectric constant tensor:
#      x y z
#    x 1.719990 -0.021270 0.037180 
#    y -0.021270 1.699780 0.013280 
#    z 0.037180 0.013280 1.622190 
# 
# From -- ./inp_files/52240.got.cif
#   From: 2010.05.17/outbox.cif.g08.bks.cpg/sg2_27_cif.got.tgz:52240.got - 2010.06.03 11:33:40.
