data_PCOD9022942
_publ_section_title
;
Structure prediction by ZEFSAII (Michael W. Deem and Ramdas Pophale) SiO2 
 PCOD9022942
Probable space group: P -1
;
_chemical_formula_sum "Si O2"
_cell_formula_units_Z 16
_cell_length_a 8.721069
_cell_length_b 14.577633
_cell_length_c 13.452885
_cell_angle_alpha 30.478760
_cell_angle_beta 81.351077
_cell_angle_gamma 99.725941
_cell_volume 689.082504
_symmetry_space_group_name_H-M "P -1"
_symmetry_group_IT_number 2
_symmetry_cell_setting 'triclinic'
loop_
_space_group_symop_operation_xyz
x,y,z
-x,-y,-z
loop_
_atom_site_type_symbol
_atom_site_label
_atom_site_fract_x
_atom_site_fract_y
_atom_site_fract_z
Si Si1 0.604305 0.195935 0.161720
Si Si2 0.839348 0.132511 0.845157
Si Si3 0.109449 0.077711 0.154027
Si Si4 0.225687 0.944663 0.553379
Si Si5 0.472671 0.493304 0.680764
Si Si6 0.278749 0.550078 0.457441
Si Si7 0.139693 0.280876 0.321278
Si Si8 0.263677 0.005833 0.798366
O O1 0.709291 0.144818 0.282776
O O2 0.381818 0.039441 0.361509
O O3 0.643414 0.116790 0.129824
O O4 0.705799 0.460877 0.906509
O O5 0.846964 0.999929 0.878467
O O6 0.728196 0.238930 0.730619
O O7 0.059484 0.335204 0.661028
O O8 0.748413 0.985125 0.090360
O O9 0.005098 0.872685 0.431868
O O10 0.951009 0.121486 0.105154
O O11 0.315909 0.305223 0.947603
O O12 0.007895 0.755372 0.716148
O O13 0.230117 0.154842 0.394152
O O14 0.356532 0.515523 0.583142
O O15 0.598045 0.432817 0.665063
O O16 0.611350 0.736803 0.489714
#
# Coordination Sequence:
#
# PCOD9022942 Si02
#       8
#     2   2   2   2   2   2   2   2
#     4  11  25  46  76 104 139 176 229 282 347 411
#     4  11  23  41  67  96 140 183 230 276 341 397
#     4  12  25  43  66 102 140 182 228 281 341 402
#     4  10  24  50  72 108 134 176 224 290 350 408
#     4  11  24  42  64  92 138 182 232 282 334 393
#     4  10  22  39  65  92 128 189 234 282 327 396
#     4  11  25  46  76 104 139 176 229 282 347 411
#     4  12  25  43  66 102 140 182 228 281 341 402
#
# _framework density 23.219280999999999
#
# number of rings (size 3 to 8) (size 9 to 14) (size 15 to 20)
#    0.000    1.000    3.750    2.625    3.500    6.000 
#    9.000    0.000    0.000    0.000    0.000    0.000 
#    0.000    0.000    0.000    0.000    0.000    0.000 
#
# Total GULP energy -89656.343672 kJ/mol
# GULP energy per Si atom -5603.521479 kJ/mol
# Density = 2.316643 g / cm^3
# Si number density = 23.219281 Si / 1000 Ang^3
#
#
#
# Elastic Constant Matrix: (Units=GPa)
#
#
# Indices 1 2 3 4 5 6 
#
# 1 87.2799 18.4838 26.2683 0.6404 -0.4547 -10.9262
# 2 18.4838 55.0923 -7.9206 -3.9014 -6.0211 -26.1897
# 3 26.2683 -7.9206 81.4512 -6.1679 -10.8029 -16.1396
# 4 0.6404 -3.9014 -6.1679 23.8763 8.9029 7.0727
# 5 -0.4547 -6.0211 -10.8029 8.9029 27.6514 3.9512
# 6 -10.9262 -26.1897 -16.1396 7.0727 3.9512 32.4789
#
#
#
# Elastic Compliance Matrix: (Units=1/GPa)
#
#
# Indices 1 2 3 4 5 6 
#
# 1 0.014859 -0.008919 -0.007212 -0.000889 -0.003492 -0.005159
# 2 -0.008919 0.043004 0.015990 -0.004428 0.011287 0.039213
# 3 -0.007212 0.015990 0.021286 -0.001079 0.009145 0.020167
# 4 -0.000889 -0.004428 -0.001079 0.050818 -0.015826 -0.013546
# 5 -0.003492 0.011287 0.009145 -0.015826 0.045754 0.010351
# 6 -0.005159 0.039213 0.020167 -0.013546 0.010351 0.072386
#
#
# Mechanical properties :
#
#
# Convention : Reuss Voigt Hill
#
# Bulk Modulus (GPa) = 12.67980 33.05401 22.86691
# Shear Modulus (GPa) = 18.20309 29.26745 23.73527
#
# Velocity S-wave (km/s) = 2.80297 3.55418 3.20069
# Velocity P-wave (km/s) = 3.99353 5.57758 4.85065
#
# Compressibility (1/GPa) = 0.07886557
#
# Stress axis : x y z
#
# Youngs Moduli (GPa) = 67.29711 23.25378 46.98012
#
# Poissons Ratio (x) = 0.20741 0.33884
# Poissons Ratio (y) = 0.60025 -0.75122
# Poissons Ratio (z) = 0.48537 -0.37183
#
# Static dielectric constant tensor:
#      x y z
#    x 1.878140 0.037360 0.007090 
#    y 0.037360 1.846080 0.010560 
#    z 0.007090 0.010560 1.881090 
# 
# From -- ./inp_files/504958.got.cif
#   From: 2010.05.17/outbox.cif.g08.bks.cpg/sg2_253_cif.got.tgz:504958.got - 2010.06.03 11:33:40.
