data_PCOD9022846
_publ_section_title
;
Structure prediction by ZEFSAII (Michael W. Deem and Ramdas Pophale) SiO2 
 PCOD9022846
Probable space group: P -1
;
_chemical_formula_sum "Si O2"
_cell_formula_units_Z 16
_cell_length_a 12.120580
_cell_length_b 13.545997
_cell_length_c 11.769010
_cell_angle_alpha 157.871964
_cell_angle_beta 103.138084
_cell_angle_gamma 76.099376
_cell_volume 706.477927
_symmetry_space_group_name_H-M "P -1"
_symmetry_group_IT_number 2
_symmetry_cell_setting 'triclinic'
loop_
_space_group_symop_operation_xyz
x,y,z
-x,-y,-z
loop_
_atom_site_type_symbol
_atom_site_label
_atom_site_fract_x
_atom_site_fract_y
_atom_site_fract_z
Si Si1 0.097488 0.597971 0.256603
Si Si2 0.551602 0.754795 0.327778
Si Si3 0.406019 0.994385 0.725175
Si Si4 0.023158 0.217011 0.143764
Si Si5 0.952021 0.135450 0.792403
Si Si6 0.762094 0.799107 0.293348
Si Si7 0.235307 0.864721 0.747393
Si Si8 0.549149 0.225470 0.173110
O O1 0.162532 0.639183 0.435560
O O2 0.174961 0.453813 0.024369
O O3 0.048217 0.894157 0.533539
O O4 0.997452 0.404743 0.044748
O O5 0.685637 0.729460 0.308544
O O6 0.500000 0.000000 0.500000
O O7 0.501280 0.784942 0.473973
O O8 0.500000 0.500000 0.000000
O O9 0.322382 0.087300 0.703695
O O10 0.322972 0.911348 0.715819
O O11 0.487838 0.203962 0.015606
O O12 0.000000 0.500000 0.500000
O O13 0.946447 0.180259 0.974720
O O14 0.150626 0.120265 0.027103
O O15 0.000000 0.000000 0.000000
O O16 0.842650 0.019170 0.588677
O O17 0.315085 0.796271 0.801688
O O18 0.500000 0.500000 0.500000
O O19 0.500000 0.000000 0.000000
#
# Coordination Sequence:
#
# PCOD9022846 Si02
#       8
#     2   2   2   2   2   2   2   2
#     4  11  22  40  65  96 130 168 216 263 313 389
#     4  10  23  40  60  89 123 163 209 253 309 378
#     4  10  22  43  66  95 128 168 217 266 319 391
#     4  11  24  43  64  93 130 169 217 269 322 388
#     4  11  25  41  64  99 129 168 220 259 316 396
#     4  11  22  40  66  95 134 173 204 266 328 373
#     4  10  22  42  69  95 130 176 215 274 331 375
#     4  10  22  39  64  96 124 161 220 268 315 382
#
# _framework density 22.647558
#
# number of rings (size 3 to 8) (size 9 to 14) (size 15 to 20)
#    0.000    1.500    0.000    5.250    0.000   12.000 
#    0.000    2.500    0.000    1.500    0.000    0.000 
#    0.000    0.000    0.000    0.000    0.000    0.000 
#
# Total GULP energy -89365.034656 kJ/mol
# GULP energy per Si atom -5585.314666 kJ/mol
# Density = 2.259601 g / cm^3
# Si number density = 22.647558 Si / 1000 Ang^3
#
#
#
# Elastic Constant Matrix: (Units=GPa)
#
#
# Indices 1 2 3 4 5 6 
#
# 1 121.7515 36.8211 71.9109 -25.4916 6.7492 -3.5100
# 2 36.8211 66.2745 36.4683 -8.4266 2.7706 -9.6008
# 3 71.9109 36.4683 207.1277 -16.7862 0.9849 -9.2240
# 4 -25.4916 -8.4266 -16.7862 46.3308 1.4263 12.4250
# 5 6.7492 2.7706 0.9849 1.4263 37.0046 -24.1206
# 6 -3.5100 -9.6008 -9.2240 12.4250 -24.1206 48.4946
#
#
#
# Elastic Compliance Matrix: (Units=1/GPa)
#
#
# Indices 1 2 3 4 5 6 
#
# 1 0.013368 -0.005233 -0.003379 0.006760 -0.005637 -0.005247
# 2 -0.005233 0.019228 -0.001471 -0.001304 0.002773 0.004862
# 3 -0.003379 -0.001471 0.006296 -0.000299 0.001556 0.001512
# 4 0.006760 -0.001304 -0.000299 0.028544 -0.010182 -0.012204
# 5 -0.005637 0.002773 0.001556 -0.010182 0.044660 0.025259
# 6 -0.005247 0.004862 0.001512 -0.012204 0.025259 0.037181
#
#
# Mechanical properties :
#
#
# Convention : Reuss Voigt Hill
#
# Bulk Modulus (GPa) = 53.40029 76.17270 64.78650
# Shear Modulus (GPa) = 28.45999 43.02956 35.74478
#
# Velocity S-wave (km/s) = 3.54877 4.36359 3.97710
# Velocity P-wave (km/s) = 6.35781 7.68732 7.05395
#
# Compressibility (1/GPa) = 0.01872649
#
# Stress axis : x y z
#
# Youngs Moduli (GPa) = 74.80364 52.00736 158.83752
#
# Poissons Ratio (x) = 0.27215 0.53670
# Poissons Ratio (y) = 0.39144 0.23366
# Poissons Ratio (z) = 0.25275 0.07650
#
# Static dielectric constant tensor:
#      x y z
#    x 1.923950 -0.008000 -0.018210 
#    y -0.008000 1.917820 -0.023610 
#    z -0.018210 -0.023610 1.794800 
# 
# From -- ./inp_files/434393.got.cif
#   From: 2010.05.17/outbox.cif.g08.bks.cpg/sg2_218_cif.got.tgz:434393.got - 2010.06.03 11:33:40.
