data_PCOD9022765
_publ_section_title
;
Structure prediction by ZEFSAII (Michael W. Deem and Ramdas Pophale) SiO2 
 PCOD9022765
Probable space group: P -1
;
_chemical_formula_sum "Si O2"
_cell_formula_units_Z 14
_cell_length_a 23.445485
_cell_length_b 11.243989
_cell_length_c 13.018565
_cell_angle_alpha 43.294152
_cell_angle_beta 20.396743
_cell_angle_gamma 33.731345
_cell_volume 640.091268
_symmetry_space_group_name_H-M "P -1"
_symmetry_group_IT_number 2
_symmetry_cell_setting 'triclinic'
loop_
_space_group_symop_operation_xyz
x,y,z
-x,-y,-z
loop_
_atom_site_type_symbol
_atom_site_label
_atom_site_fract_x
_atom_site_fract_y
_atom_site_fract_z
Si Si1 0.063583 0.527668 0.188827
Si Si2 0.860738 0.975764 0.331214
Si Si3 0.284439 0.676430 0.314086
Si Si4 0.568493 0.557338 0.248901
Si Si5 0.057622 0.625006 0.897548
Si Si6 0.180360 0.877566 0.019713
Si Si7 0.979991 0.831712 0.556488
O O1 0.871610 0.777142 0.390603
O O2 0.026731 0.349343 0.369740
O O3 0.238302 0.460919 0.020621
O O4 0.111908 0.539948 0.978470
O O5 0.986299 0.919502 0.259199
O O6 0.627898 0.195960 0.603408
O O7 0.000000 0.000000 0.000000
O O8 0.242862 0.610638 0.535380
O O9 0.084931 0.734002 0.550804
O O10 0.500000 0.500000 0.000000
O O11 0.233399 0.916702 0.250168
O O12 0.500000 0.500000 0.500000
O O13 0.629782 0.361699 0.192151
O O14 0.859277 0.891695 0.071852
O O15 0.000000 0.500000 0.000000
O O16 0.148888 0.845407 0.209338
#
# Coordination Sequence:
#
# PCOD9022765 Si02
#       7
#     2   2   2   2   2   2   2
#     4  11  22  39  64  93 122 160 209 256 299 372
#     4  11  20  39  60  88 125 157 197 260 308 358
#     4  10  23  43  62  87 128 170 206 251 310 365
#     4  11  20  37  63  93 120 159 206 250 310 367
#     4  11  20  40  68  90 125 166 206 256 308 362
#     4  10  22  39  64  88 123 165 200 250 315 364
#     4  10  23  42  60  87 129 162 203 256 312 361
#
# _framework density 21.871880000000001
#
# number of rings (size 3 to 8) (size 9 to 14) (size 15 to 20)
#    0.000    1.429    5.714    0.000    0.000    6.857 
#    2.571    2.143    0.000    0.000    0.000    0.000 
#    0.000    0.000    0.000    0.000    0.000    0.000 
#
# Total GULP energy -78008.969564 kJ/mol
# GULP energy per Si atom -5572.069255 kJ/mol
# Density = 2.182210 g / cm^3
# Si number density = 21.871880 Si / 1000 Ang^3
#
#
#
# Elastic Constant Matrix: (Units=GPa)
#
#
# Indices 1 2 3 4 5 6 
#
# 1 78.5421 37.3727 9.4584 12.4136 0.7583 6.9543
# 2 37.3727 185.6923 50.4992 28.3511 -9.6636 36.1218
# 3 9.4584 50.4992 53.2542 31.4052 9.2971 2.8497
# 4 12.4136 28.3511 31.4052 44.8591 6.1824 5.3737
# 5 0.7583 -9.6636 9.2971 6.1824 28.3011 -3.1301
# 6 6.9543 36.1218 2.8497 5.3737 -3.1301 49.7446
#
#
#
# Elastic Compliance Matrix: (Units=1/GPa)
#
#
# Indices 1 2 3 4 5 6 
#
# 1 0.014558 -0.003409 0.003270 -0.003999 -0.001691 0.000579
# 2 -0.003409 0.010311 -0.011179 0.002153 0.006126 -0.006217
# 3 0.003270 -0.011179 0.045063 -0.024483 -0.012593 0.006931
# 4 -0.003999 0.002153 -0.024483 0.039675 -0.000213 -0.003901
# 5 -0.001691 0.006126 -0.012593 -0.000213 0.041561 -0.000853
# 6 0.000579 -0.006217 0.006931 -0.003901 -0.000853 0.024507
#
#
# Mechanical properties :
#
#
# Convention : Reuss Voigt Hill
#
# Bulk Modulus (GPa) = 21.14353 56.90546 39.02450
# Shear Modulus (GPa) = 23.35624 39.25816 31.30720
#
# Velocity S-wave (km/s) = 3.27137 4.24124 3.78748
# Velocity P-wave (km/s) = 4.89460 7.07519 6.08339
#
# Compressibility (1/GPa) = 0.04729579
#
# Stress axis : x y z
#
# Youngs Moduli (GPa) = 68.69280 96.98451 22.19104
#
# Poissons Ratio (x) = 0.33062 -0.07256
# Poissons Ratio (y) = 0.23418 0.24807
# Poissons Ratio (z) = -0.22462 1.08417
#
# Static dielectric constant tensor:
#      x y z
#    x 1.593990 -0.086090 0.086160 
#    y -0.086090 1.799600 0.015230 
#    z 0.086160 0.015230 1.823160 
# 
# From -- ./inp_files/241985.got.cif
#   From: 2010.05.17/outbox.cif.g08.bks.cpg/sg2_121_cif.got.tgz:241985.got - 2010.06.03 11:33:40.
