data_PCOD9022491
_publ_section_title
;
Structure prediction by ZEFSAII (Michael W. Deem and Ramdas Pophale) SiO2 
 PCOD9022491
Probable space group: P -1
;
_chemical_formula_sum "Si O2"
_cell_formula_units_Z 16
_cell_length_a 21.071605
_cell_length_b 6.717671
_cell_length_c 19.201137
_cell_angle_alpha 117.149485
_cell_angle_beta 161.440695
_cell_angle_gamma 56.414251
_cell_volume 696.493991
_symmetry_space_group_name_H-M "P -1"
_symmetry_group_IT_number 2
_symmetry_cell_setting 'triclinic'
loop_
_space_group_symop_operation_xyz
x,y,z
-x,-y,-z
loop_
_atom_site_type_symbol
_atom_site_label
_atom_site_fract_x
_atom_site_fract_y
_atom_site_fract_z
Si Si1 0.269760 0.233732 0.284901
Si Si2 0.535151 0.313936 0.202703
Si Si3 0.884775 0.796691 0.504462
Si Si4 0.994326 0.226367 0.119364
Si Si5 0.991274 0.759732 0.116565
Si Si6 0.311127 0.258676 0.564837
Si Si7 0.311326 0.262209 0.094946
Si Si8 0.657111 0.567492 0.124753
O O1 0.097748 0.172281 0.142145
O O2 0.192525 0.265572 0.129751
O O3 0.500000 0.000000 0.500000
O O4 0.215525 0.511405 0.299353
O O5 0.556243 0.571796 0.272275
O O6 0.359538 0.282122 0.066927
O O7 0.767539 0.091935 0.429272
O O8 0.474863 0.288286 0.056744
O O9 0.830815 0.697451 0.505003
O O10 0.764909 0.710850 0.305626
O O11 0.141559 0.675760 0.735139
O O12 0.153666 0.311225 0.343687
O O13 0.756547 0.457189 0.905044
O O14 0.002135 0.000060 0.135962
O O15 0.888890 0.791957 0.091859
O O16 0.475862 0.968142 0.691775
O O17 0.500000 0.500000 0.000000
#
# Coordination Sequence:
#
# PCOD9022491 Si02
#       8
#     2   2   2   2   2   2   2   2
#     4  10  22  39  62  91 122 165 207 253 314 368
#     4  11  23  42  65  91 126 166 209 259 316 374
#     4  10  24  42  64  96 124 165 215 257 319 380
#     4  11  23  39  63  92 125 166 205 256 316 369
#     4  10  22  41  61  92 127 156 210 259 304 377
#     4  11  23  41  60  93 125 162 211 254 308 378
#     4  10  23  39  63  89 122 165 204 255 314 365
#     4  11  22  44  67  91 129 164 209 268 315 374
#
# _framework density 22.972201999999999
#
# number of rings (size 3 to 8) (size 9 to 14) (size 15 to 20)
#    0.000    1.500    1.250    3.000    0.000    7.000 
#    2.250    0.000    0.000    0.000    0.000    0.000 
#    0.000    0.000    0.000    0.000    0.000    0.000 
#
# Total GULP energy -89387.115973 kJ/mol
# GULP energy per Si atom -5586.694748 kJ/mol
# Density = 2.291992 g / cm^3
# Si number density = 22.972202 Si / 1000 Ang^3
#
#
#
# Elastic Constant Matrix: (Units=GPa)
#
#
# Indices 1 2 3 4 5 6 
#
# 1 133.9025 28.7395 30.0764 -0.2089 8.7848 29.1261
# 2 28.7395 116.0956 37.4327 -28.2608 13.2438 24.8374
# 3 30.0764 37.4327 78.5632 -25.4198 2.8923 -0.7219
# 4 -0.2089 -28.2608 -25.4198 38.5809 -9.7412 -2.7984
# 5 8.7848 13.2438 2.8923 -9.7412 38.5742 -3.8391
# 6 29.1261 24.8374 -0.7219 -2.7984 -3.8391 36.4726
#
#
#
# Elastic Compliance Matrix: (Units=1/GPa)
#
#
# Indices 1 2 3 4 5 6 
#
# 1 0.011391 0.000715 -0.006453 -0.005663 -0.004846 -0.010656
# 2 0.000715 0.014062 -0.005304 0.004957 -0.004370 -0.010332
# 3 -0.006453 -0.005304 0.021704 0.012661 0.005935 0.010791
# 4 -0.005663 0.004957 0.012661 0.040648 0.009452 0.005511
# 5 -0.004846 -0.004370 0.005935 0.009452 0.031566 0.011011
# 6 -0.010656 -0.010332 0.010791 0.005511 0.011011 0.044759
#
#
# Mechanical properties :
#
#
# Convention : Reuss Voigt Hill
#
# Bulk Modulus (GPa) = 39.88501 57.89538 48.89019
# Shear Modulus (GPa) = 25.69738 38.21306 31.95522
#
# Velocity S-wave (km/s) = 3.34822 4.08296 3.73371
# Velocity P-wave (km/s) = 5.68748 6.89090 6.31791
#
# Compressibility (1/GPa) = 0.02507208
#
# Stress axis : x y z
#
# Youngs Moduli (GPa) = 87.78718 71.11160 46.07540
#
# Poissons Ratio (x) = -0.05084 0.29734
# Poissons Ratio (y) = -0.06276 0.24439
# Poissons Ratio (z) = 0.56653 0.37718
#
# Static dielectric constant tensor:
#      x y z
#    x 1.846890 -0.032470 0.019020 
#    y -0.032470 1.886940 -0.002710 
#    z 0.019020 -0.002710 1.850450 
# 
# From -- ./inp_files/600795.got.cif
#   From: 2010.05.17/outbox.cif.g08.bks.cpg/sg2_301_cif.got.tgz:600795.got - 2010.06.03 11:33:40.
