data_PCOD9022699
_publ_section_title
;
Structure prediction by ZEFSAII (Michael W. Deem and Ramdas Pophale) SiO2 
 PCOD9022699
Probable space group: P -1
;
_chemical_formula_sum "Si O2"
_cell_formula_units_Z 14
_cell_length_a 11.069320
_cell_length_b 11.398309
_cell_length_c 7.578494
_cell_angle_alpha 87.076094
_cell_angle_beta 119.350698
_cell_angle_gamma 134.450995
_cell_volume 525.249702
_symmetry_space_group_name_H-M "P -1"
_symmetry_group_IT_number 2
_symmetry_cell_setting 'triclinic'
loop_
_space_group_symop_operation_xyz
x,y,z
-x,-y,-z
loop_
_atom_site_type_symbol
_atom_site_label
_atom_site_fract_x
_atom_site_fract_y
_atom_site_fract_z
Si Si1 0.723145 0.075708 0.611960
Si Si2 0.578057 0.524484 0.251610
Si Si3 0.026265 0.383397 0.101032
Si Si4 0.540495 0.310119 0.782398
Si Si5 0.908045 0.561252 0.352451
Si Si6 0.308278 0.970932 0.871478
Si Si7 0.752878 0.880762 0.858734
O O1 0.905156 0.225380 0.880981
O O2 0.865051 0.222787 0.545460
O O3 0.500000 0.000000 0.500000
O O4 0.681429 0.913253 0.639664
O O5 0.771830 0.560122 0.375990
O O6 0.379882 0.326613 0.213007
O O7 0.500000 0.500000 0.000000
O O8 0.617372 0.680261 0.335663
O O9 0.288491 0.551361 0.265732
O O10 0.891977 0.245650 0.183809
O O11 0.000000 0.500000 0.000000
O O12 0.729158 0.428773 0.072012
O O13 0.388384 0.100219 0.746114
O O14 0.000000 0.500000 0.500000
O O15 0.500000 0.000000 0.000000
O O16 0.298828 0.071808 0.006882
O O17 0.000000 0.000000 0.000000
#
# Coordination Sequence:
#
# PCOD9022699 Si02
#       7
#     2   2   2   2   2   2   2
#     4  10  22  34  52  85 116 145 189 246 299 339
#     4  10  17  31  51  76 111 139 183 236 289 331
#     4  10  20  35  53  83 115 151 195 238 286 353
#     4  10  20  35  53  84 115 144 190 242 289 338
#     4  10  19  32  52  77 111 147 183 231 292 352
#     4  11  20  32  57  80 116 150 192 236 290 340
#     4  11  20  34  56  85 117 147 193 245 295 343
#
# _framework density 26.653993
#
# number of rings (size 3 to 8) (size 9 to 14) (size 15 to 20)
#    0.000    1.714    4.286    4.286    2.000    0.000 
#    0.000    0.000    0.000    0.000    3.714   13.000 
#    0.000    0.000    0.000    0.000    0.000    0.000 
#
# Total GULP energy -78040.645480 kJ/mol
# GULP energy per Si atom -5574.331820 kJ/mol
# Density = 2.659333 g / cm^3
# Si number density = 26.653993 Si / 1000 Ang^3
#
#
#
# Elastic Constant Matrix: (Units=GPa)
#
#
# Indices 1 2 3 4 5 6 
#
# 1 96.4371 53.2967 30.1664 -2.5450 59.0232 10.2790
# 2 53.2967 307.4395 73.2304 -1.0164 13.1859 20.4756
# 3 30.1664 73.2304 90.6897 -5.0415 25.4889 19.3752
# 4 -2.5450 -1.0164 -5.0415 52.3185 -8.6573 3.9999
# 5 59.0232 13.1859 25.4889 -8.6573 32.1616 4.4668
# 6 10.2790 20.4756 19.3752 3.9999 4.4668 68.4444
#
#
#
# Elastic Compliance Matrix: (Units=1/GPa)
#
#
# Indices 1 2 3 4 5 6 
#
# 1 -0.036300 0.006399 -0.014977 0.009691 0.078180 0.002108
# 2 0.006399 0.002941 -0.000918 -0.001755 -0.012602 -0.000656
# 3 -0.014977 -0.000918 0.011907 0.003857 0.019793 -0.002364
# 4 0.009691 -0.001755 0.003857 0.017581 -0.015102 -0.002064
# 5 0.078180 -0.012602 0.019793 -0.015102 -0.126351 -0.004445
# 6 0.002108 -0.000656 -0.002364 -0.002064 -0.004445 0.015570
#
#
# Mechanical properties :
#
#
# Convention : Reuss Voigt Hill
#
# Bulk Modulus (GPa) = -24.72410 89.77259 32.52424
# Shear Modulus (GPa) = -45.81207 53.10976 3.64884
#
# Velocity S-wave (km/s) = -4.15030 4.46866 1.17130
# Velocity P-wave (km/s) = 5.68003 7.77039 3.74942
#
# Compressibility (1/GPa) = -0.04044637
#
# Stress axis : x y z
#
# Youngs Moduli (GPa) = -27.54809 340.07464 83.98682
#
# Poissons Ratio (x) = -2.17608 1.25788
# Poissons Ratio (y) = 0.17628 0.07714
# Poissons Ratio (z) = -0.41259 0.31234
#
# Static dielectric constant tensor:
#      x y z
#    x 2.341590 -0.040080 -0.234780 
#    y -0.040080 2.221300 -0.071880 
#    z -0.234780 -0.071880 2.371870 
# 
# From -- ./inp_files/181652.got.cif
#   From: 2010.05.17/outbox.cif.g08.bks.cpg/sg2_91_cif.got.tgz:181652.got - 2010.06.03 11:33:40.
