data_PCOD9022312
_publ_section_title
;
Structure prediction by ZEFSAII (Michael W. Deem and Ramdas Pophale) SiO2 
 PCOD9022312
Probable space group: P -1
;
_chemical_formula_sum "Si O2"
_cell_formula_units_Z 12
_cell_length_a 9.604581
_cell_length_b 8.218103
_cell_length_c 11.167636
_cell_angle_alpha 39.212596
_cell_angle_beta 77.015617
_cell_angle_gamma 71.933653
_cell_volume 529.616918
_symmetry_space_group_name_H-M "P -1"
_symmetry_group_IT_number 2
_symmetry_cell_setting 'triclinic'
loop_
_space_group_symop_operation_xyz
x,y,z
-x,-y,-z
loop_
_atom_site_type_symbol
_atom_site_label
_atom_site_fract_x
_atom_site_fract_y
_atom_site_fract_z
Si Si1 0.181250 0.972961 0.346337
Si Si2 0.407307 0.119392 0.803750
Si Si3 0.375304 0.361168 0.050266
Si Si4 0.643266 0.821693 0.505627
Si Si5 0.664506 0.243045 0.800802
Si Si6 0.845743 0.202363 0.300303
O O1 0.232184 0.829535 0.293809
O O2 0.181794 0.763092 0.571882
O O3 0.289405 0.168222 0.246490
O O4 0.016960 0.146071 0.273052
O O5 0.532357 0.847937 0.938796
O O6 0.376298 0.168793 0.641774
O O7 0.499520 0.311240 0.735141
O O8 0.295575 0.011709 0.972454
O O9 0.500000 0.500000 0.000000
O O10 0.252031 0.571008 0.888109
O O11 0.674261 0.514078 0.708939
O O12 0.500000 0.000000 0.500000
O O13 0.782684 0.945669 0.429505
#
# Coordination Sequence:
#
# PCOD9022312 Si02
#       6
#     2   2   2   2   2   2
#     4  10  25  45  61  95 133 177 211 261 328 388
#     4  10  22  39  60  96 125 164 211 267 327 371
#     4  11  21  39  68  95 123 162 220 269 312 378
#     4  12  23  37  65  97 124 166 219 271 315 380
#     4  10  23  39  60  88 136 166 208 263 325 386
#     4  11  24  41  68  94 131 170 220 263 322 387
#
# _framework density 22.657889000000001
#
# number of rings (size 3 to 8) (size 9 to 14) (size 15 to 20)
#    0.000    1.333    1.667    4.000    2.333    4.667 
#    0.000    0.833    0.000    0.000    0.000    0.000 
#    0.000    0.000    0.000    0.000    0.000    0.000 
#
# Total GULP energy -66953.716806 kJ/mol
# GULP energy per Si atom -5579.476401 kJ/mol
# Density = 2.260632 g / cm^3
# Si number density = 22.657889 Si / 1000 Ang^3
#
#
#
# Elastic Constant Matrix: (Units=GPa)
#
#
# Indices 1 2 3 4 5 6 
#
# 1 101.7613 15.5454 9.4662 5.8114 -9.4772 -9.3293
# 2 15.5454 60.8437 15.9111 6.0146 -20.5949 -4.9154
# 3 9.4662 15.9111 81.2957 14.3011 0.2971 -12.7770
# 4 5.8114 6.0146 14.3011 45.3770 5.7748 -7.8927
# 5 -9.4772 -20.5949 0.2971 5.7748 36.4259 -2.6766
# 6 -9.3293 -4.9154 -12.7770 -7.8927 -2.6766 27.5508
#
#
#
# Elastic Compliance Matrix: (Units=1/GPa)
#
#
# Indices 1 2 3 4 5 6 
#
# 1 0.010638 -0.001537 -0.000307 -0.000797 0.002261 0.003177
# 2 -0.001537 0.022626 -0.003402 -0.002983 0.013066 0.002353
# 3 -0.000307 -0.003402 0.014311 -0.002997 -0.001282 0.004943
# 4 -0.000797 -0.002983 -0.002997 0.024949 -0.005500 0.004421
# 5 0.002261 0.013066 -0.001282 -0.005500 0.036641 0.004486
# 6 0.003177 0.002353 0.004943 0.004421 0.004486 0.041787
#
#
# Mechanical properties :
#
#
# Convention : Reuss Voigt Hill
#
# Bulk Modulus (GPa) = 26.96676 36.19403 31.58039
# Shear Modulus (GPa) = 28.76811 35.40260 32.08535
#
# Velocity S-wave (km/s) = 3.56711 3.95712 3.76716
# Velocity P-wave (km/s) = 5.37525 6.07348 5.73500
#
# Compressibility (1/GPa) = 0.03708270
#
# Stress axis : x y z
#
# Youngs Moduli (GPa) = 94.00631 44.19742 69.87536
#
# Poissons Ratio (x) = 0.06793 0.02142
# Poissons Ratio (y) = 0.14448 0.23775
# Poissons Ratio (z) = 0.02882 0.15038
#
# Static dielectric constant tensor:
#      x y z
#    x 1.870720 0.064010 -0.070310 
#    y 0.064010 1.926000 0.067060 
#    z -0.070310 0.067060 2.095810 
# 
# From -- ./inp_files/380848.got.cif
#   From: 2010.05.17/outbox.cif.g08.bks.cpg/sg2_191_cif.got.tgz:380848.got - 2010.06.03 11:33:40.
