data_PCOD9022960
_publ_section_title
;
Structure prediction by ZEFSAII (Michael W. Deem and Ramdas Pophale) SiO2 
 PCOD9022960
Probable space group: P -1
;
_chemical_formula_sum "Si O2"
_cell_formula_units_Z 16
_cell_length_a 9.649854
_cell_length_b 9.226266
_cell_length_c 17.664981
_cell_angle_alpha 69.590155
_cell_angle_beta 145.132827
_cell_angle_gamma 124.938633
_cell_volume 711.998342
_symmetry_space_group_name_H-M "P -1"
_symmetry_group_IT_number 2
_symmetry_cell_setting 'triclinic'
loop_
_space_group_symop_operation_xyz
x,y,z
-x,-y,-z
loop_
_atom_site_type_symbol
_atom_site_label
_atom_site_fract_x
_atom_site_fract_y
_atom_site_fract_z
Si Si1 0.313212 0.558026 0.337486
Si Si2 0.501628 0.881492 0.712218
Si Si3 0.856329 0.955944 0.526783
Si Si4 0.513382 0.532299 0.090538
Si Si5 0.046611 0.563334 0.652884
Si Si6 0.542296 0.442101 0.337850
Si Si7 0.440558 0.229380 0.810102
Si Si8 0.102399 0.755831 0.097848
O O1 0.346780 0.420224 0.325459
O O2 0.161392 0.634376 0.203836
O O3 0.133715 0.469957 0.347434
O O4 0.622349 0.739548 0.463028
O O5 0.331590 0.950266 0.572822
O O6 0.294842 0.770529 0.710149
O O7 0.552986 0.742482 0.714986
O O8 0.778643 0.054656 0.840400
O O9 0.126922 0.049805 0.687163
O O10 0.000000 0.000000 0.500000
O O11 0.800379 0.548282 0.246258
O O12 0.512206 0.704214 0.093875
O O13 0.500000 0.500000 0.000000
O O14 0.238345 0.357843 0.038428
O O15 0.846697 0.505958 0.500628
O O16 0.561195 0.607597 0.267917
O O17 0.701685 0.219490 0.891986
#
# Coordination Sequence:
#
# PCOD9022960 Si02
#       8
#     2   2   2   2   2   2   2   2
#     4  10  22  39  65  93 135 165 199 263 323 385
#     4  11  21  38  66  94 127 159 212 267 309 373
#     4  11  18  38  66  99 126 160 211 257 321 379
#     4  12  25  43  63  91 130 172 218 255 309 372
#     4  12  22  39  65  93 132 164 200 270 322 365
#     4  11  21  38  65 102 120 161 210 261 331 372
#     4  11  21  42  71  91 124 170 213 260 309 387
#     4  10  23  43  65  90 123 175 220 247 301 384
#
# _framework density 22.471964
#
# number of rings (size 3 to 8) (size 9 to 14) (size 15 to 20)
#    0.000    1.000    7.500    1.875    0.000    0.500 
#    2.250    1.875    0.000    1.500    0.000    0.000 
#    0.000    0.000    0.000    0.000    0.000    0.000 
#
# Total GULP energy -89443.983165 kJ/mol
# GULP energy per Si atom -5590.248948 kJ/mol
# Density = 2.242082 g / cm^3
# Si number density = 22.471964 Si / 1000 Ang^3
#
#
#
# Elastic Constant Matrix: (Units=GPa)
#
#
# Indices 1 2 3 4 5 6 
#
# 1 150.1514 45.3126 45.5165 18.5309 7.0070 -16.7687
# 2 45.3126 64.0229 16.9290 12.5733 7.7519 -27.9124
# 3 45.5165 16.9290 67.8672 25.1832 1.6787 -11.6664
# 4 18.5309 12.5733 25.1832 35.7404 0.1031 -4.4882
# 5 7.0070 7.7519 1.6787 0.1031 30.4645 2.3144
# 6 -16.7687 -27.9124 -11.6664 -4.4882 2.3144 32.7247
#
#
#
# Elastic Compliance Matrix: (Units=1/GPa)
#
#
# Indices 1 2 3 4 5 6 
#
# 1 0.010130 -0.007006 -0.005897 0.001023 -0.000017 -0.002746
# 2 -0.007006 0.033434 0.003838 -0.007556 -0.009050 0.025900
# 3 -0.005897 0.003838 0.024395 -0.014592 -0.001451 0.007050
# 4 0.001023 -0.007556 -0.014592 0.039642 0.002804 -0.005884
# 5 -0.000017 -0.009050 -0.001451 0.002804 0.035993 -0.010406
# 6 -0.002746 0.025900 0.007050 -0.005884 -0.010406 0.053684
#
#
# Mechanical properties :
#
#
# Convention : Reuss Voigt Hill
#
# Bulk Modulus (GPa) = 20.06875 55.28419 37.67647
# Shear Modulus (GPa) = 21.55013 31.40483 26.47748
#
# Velocity S-wave (km/s) = 3.10010 3.74239 3.43628
# Velocity P-wave (km/s) = 4.66520 6.58246 5.70495
#
# Compressibility (1/GPa) = 0.04982872
#
# Stress axis : x y z
#
# Youngs Moduli (GPa) = 98.71841 29.90948 40.99235
#
# Poissons Ratio (x) = 0.20955 0.24175
# Poissons Ratio (y) = 0.69163 -0.15735
# Poissons Ratio (z) = 0.58218 -0.11481
#
# Static dielectric constant tensor:
#      x y z
#    x 1.855240 -0.029090 0.015310 
#    y -0.029090 1.836580 -0.040440 
#    z 0.015310 -0.040440 1.902260 
# 
# From -- ./inp_files/557219.got.cif
#   From: 2010.05.17/outbox.cif.g08.bks.cpg/sg2_279_cif.got.tgz:557219.got - 2010.06.03 11:33:40.
