data_PCOD9022194
_publ_section_title
;
Structure prediction by ZEFSAII (Michael W. Deem and Ramdas Pophale) SiO2 
 PCOD9022194
Probable space group: P -1
;
_chemical_formula_sum "Si O2"
_cell_formula_units_Z 16
_cell_length_a 8.349697
_cell_length_b 16.822508
_cell_length_c 7.790323
_cell_angle_alpha 84.911849
_cell_angle_beta 35.912321
_cell_angle_gamma 80.832358
_cell_volume 632.090373
_symmetry_space_group_name_H-M "P -1"
_symmetry_group_IT_number 2
_symmetry_cell_setting 'triclinic'
loop_
_space_group_symop_operation_xyz
x,y,z
-x,-y,-z
loop_
_atom_site_type_symbol
_atom_site_label
_atom_site_fract_x
_atom_site_fract_y
_atom_site_fract_z
Si Si1 0.715779 0.458196 0.554438
Si Si2 0.414647 0.221790 0.892421
Si Si3 0.288061 0.388161 0.127133
Si Si4 0.844772 0.695738 0.384939
Si Si5 0.749482 0.916284 0.120512
Si Si6 0.177630 0.010790 0.582177
Si Si7 0.013586 0.171063 0.522548
Si Si8 0.356259 0.625743 0.721167
O O1 0.539532 0.543682 0.648516
O O2 0.699295 0.398570 0.419756
O O3 0.038940 0.459205 0.293961
O O4 0.577246 0.419751 0.843714
O O5 0.295837 0.315392 0.998112
O O6 0.281591 0.178805 0.175623
O O7 0.307785 0.174505 0.835515
O O8 0.741048 0.208634 0.647702
O O9 0.216548 0.349692 0.375418
O O10 0.952145 0.775799 0.347374
O O11 0.548422 0.695824 0.551275
O O12 0.082023 0.649970 0.065950
O O13 0.781254 0.943099 0.283039
O O14 0.480871 0.972784 0.266761
O O15 0.012485 0.938293 0.787647
O O16 0.015585 0.078473 0.588819
#
# Coordination Sequence:
#
# PCOD9022194 Si02
#       8
#     2   2   2   2   2   2   2   2
#     4  11  24  41  62  90 122 157 201 250 300 359
#     4  11  23  40  61  87 119 154 197 245 292 350
#     4  11  23  41  62  89 123 158 201 249 299 357
#     4  11  23  41  62  89 123 158 201 249 299 357
#     4  10  22  39  59  87 120 153 194 241 290 349
#     4  10  22  39  59  87 120 153 194 241 290 349
#     4  11  23  40  61  87 119 154 197 245 292 350
#     4  11  24  41  62  90 122 157 201 250 300 359
#
# _framework density 25.312837999999999
#
# number of rings (size 3 to 8) (size 9 to 14) (size 15 to 20)
#    0.000    1.250    0.000    6.750    0.000   10.000 
#    0.000    2.500    0.000    0.000    0.000    0.000 
#    0.000    0.000    0.000    0.000    0.000    0.000 
#
# Total GULP energy -89635.631905 kJ/mol
# GULP energy per Si atom -5602.226994 kJ/mol
# Density = 2.525522 g / cm^3
# Si number density = 25.312838 Si / 1000 Ang^3
#
#
#
# Elastic Constant Matrix: (Units=GPa)
#
#
# Indices 1 2 3 4 5 6 
#
# 1 54.9220 28.6287 20.1915 4.8906 -4.4027 26.2723
# 2 28.6287 88.9338 33.7814 -5.2966 8.3832 21.4663
# 3 20.1915 33.7814 128.5776 5.9771 -4.3572 7.0627
# 4 4.8906 -5.2966 5.9771 30.3231 5.3084 0.1798
# 5 -4.4027 8.3832 -4.3572 5.3084 38.4578 0.9147
# 6 26.2723 21.4663 7.0627 0.1798 0.9147 54.1306
#
#
#
# Elastic Compliance Matrix: (Units=1/GPa)
#
#
# Indices 1 2 3 4 5 6 
#
# 1 0.028725 -0.006897 -0.001594 -0.006467 0.005767 -0.011074
# 2 -0.006897 0.016259 -0.003493 0.005609 -0.005442 -0.002571
# 3 -0.001594 -0.003493 0.009074 -0.002485 0.001927 0.000951
# 4 -0.006467 0.005609 -0.002485 0.036770 -0.007349 0.001241
# 5 0.005767 -0.005442 0.001927 -0.007349 0.029114 -0.001360
# 6 -0.011074 -0.002571 0.000951 0.001241 -0.001360 0.024763
#
#
# Mechanical properties :
#
#
# Convention : Reuss Voigt Hill
#
# Bulk Modulus (GPa) = 33.23396 48.62629 40.93012
# Shear Modulus (GPa) = 27.97948 37.23775 32.60862
#
# Velocity S-wave (km/s) = 3.32828 3.83966 3.59308
# Velocity P-wave (km/s) = 5.28467 6.23772 5.78087
#
# Compressibility (1/GPa) = 0.03008970
#
# Stress axis : x y z
#
# Youngs Moduli (GPa) = 34.81344 61.50505 110.20518
#
# Poissons Ratio (x) = 0.42419 0.17571
# Poissons Ratio (y) = 0.24010 0.38490
# Poissons Ratio (z) = 0.05551 0.21481
#
# Static dielectric constant tensor:
#      x y z
#    x 2.054800 0.031530 0.034250 
#    y 0.031530 2.011430 0.006580 
#    z 0.034250 0.006580 1.886560 
# 
# From -- ./inp_files/217571.got.cif
#   From: 2010.05.17/outbox.cif.g08.bks.cpg/sg2_109_cif.got.tgz:217571.got - 2010.06.03 11:33:40.
