data_PCOD9022498
_publ_section_title
;
Structure prediction by ZEFSAII (Michael W. Deem and Ramdas Pophale) SiO2 
 PCOD9022498
Probable space group: P -1
;
_chemical_formula_sum "Si O2"
_cell_formula_units_Z 16
_cell_length_a 7.926146
_cell_length_b 17.236425
_cell_length_c 8.357826
_cell_angle_alpha 50.865686
_cell_angle_beta 125.462960
_cell_angle_gamma 117.726487
_cell_volume 712.455254
_symmetry_space_group_name_H-M "P -1"
_symmetry_group_IT_number 2
_symmetry_cell_setting 'triclinic'
loop_
_space_group_symop_operation_xyz
x,y,z
-x,-y,-z
loop_
_atom_site_type_symbol
_atom_site_label
_atom_site_fract_x
_atom_site_fract_y
_atom_site_fract_z
Si Si1 0.037754 0.091034 0.274825
Si Si2 0.346004 0.039734 0.239462
Si Si3 0.621890 0.241539 0.140430
Si Si4 0.640362 0.097434 0.868668
Si Si5 0.003418 0.620040 0.686674
Si Si6 0.688447 0.529209 0.912163
Si Si7 0.408496 0.250326 0.358153
Si Si8 0.402900 0.412100 0.682013
O O1 0.154521 0.061856 0.215531
O O2 0.184505 0.180904 0.324187
O O3 0.000000 0.000000 0.500000
O O4 0.829374 0.127934 0.053033
O O5 0.502449 0.137690 0.132547
O O6 0.500000 0.000000 0.500000
O O7 0.285060 0.954318 0.184561
O O8 0.506695 0.238996 0.252634
O O9 0.861406 0.281510 0.279228
O O10 0.549602 0.325920 0.876514
O O11 0.537598 0.194082 0.631180
O O12 0.500000 0.000000 0.000000
O O13 0.845262 0.563981 0.804634
O O14 0.838385 0.631227 0.437652
O O15 0.173958 0.547487 0.825814
O O16 0.626807 0.635432 0.791420
O O17 0.466165 0.464458 0.819172
O O18 0.500000 0.500000 0.500000
#
# Coordination Sequence:
#
# PCOD9022498 Si02
#       8
#     2   2   2   2   2   2   2   2
#     4  11  23  44  66  93 133 174 222 276 334 392
#     4  11  22  44  66  95 136 176 221 278 328 390
#     4  10  22  39  62  91 129 164 212 271 321 389
#     4  12  24  43  65  92 132 179 224 271 328 388
#     4   9  19  38  63  89 119 161 210 260 329 385
#     4   9  20  38  62  87 123 160 205 268 319 385
#     4  11  24  42  59  94 131 165 220 270 330 390
#     4   9  19  38  60  91 124 157 210 264 320 392
#
# _framework density 22.457550999999999
#
# number of rings (size 3 to 8) (size 9 to 14) (size 15 to 20)
#    0.000    1.750    3.750    1.125    0.000    9.000 
#    2.250    1.250    0.000    0.000    0.000    0.000 
#    0.000    0.000    0.000    0.000    0.000    0.000 
#
# Total GULP energy -89128.332436 kJ/mol
# GULP energy per Si atom -5570.520777 kJ/mol
# Density = 2.240644 g / cm^3
# Si number density = 22.457551 Si / 1000 Ang^3
#
#
#
# Elastic Constant Matrix: (Units=GPa)
#
#
# Indices 1 2 3 4 5 6 
#
# 1 81.1128 14.3451 29.7150 5.9411 10.0296 2.8698
# 2 14.3451 87.7725 29.3188 9.0903 12.6379 19.2610
# 3 29.7150 29.3188 126.2732 16.6000 13.1735 16.0916
# 4 5.9411 9.0903 16.6000 38.0171 21.0207 12.1563
# 5 10.0296 12.6379 13.1735 21.0207 28.3923 1.3082
# 6 2.8698 19.2610 16.0916 12.1563 1.3082 39.2504
#
#
#
# Elastic Compliance Matrix: (Units=1/GPa)
#
#
# Indices 1 2 3 4 5 6 
#
# 1 0.013956 -0.000909 -0.002858 0.001669 -0.004446 0.000229
# 2 -0.000909 0.014522 -0.001948 0.004364 -0.008132 -0.007342
# 3 -0.002858 -0.001948 0.009692 -0.002109 -0.000961 -0.002124
# 4 0.001669 0.004364 -0.002109 0.053643 -0.040502 -0.016663
# 5 -0.004446 -0.008132 -0.000961 -0.040502 0.070156 0.014915
# 6 0.000229 -0.007342 -0.002124 -0.016663 0.014915 0.034598
#
#
# Mechanical properties :
#
#
# Convention : Reuss Voigt Hill
#
# Bulk Modulus (GPa) = 37.39576 49.10182 43.24879
# Shear Modulus (GPa) = 23.05106 35.91725 29.48415
#
# Velocity S-wave (km/s) = 3.20727 4.00351 3.62730
# Velocity P-wave (km/s) = 5.51392 6.57895 6.06984
#
# Compressibility (1/GPa) = 0.02674100
#
# Stress axis : x y z
#
# Youngs Moduli (GPa) = 71.65598 68.85945 103.17553
#
# Poissons Ratio (x) = 0.06261 0.29485
# Poissons Ratio (y) = 0.06515 0.20095
# Poissons Ratio (z) = 0.20478 0.13411
#
# Static dielectric constant tensor:
#      x y z
#    x 1.888020 -0.062690 -0.014850 
#    y -0.062690 2.057060 -0.091360 
#    z -0.014850 -0.091360 1.924920 
# 
# From -- ./inp_files/216870.got.cif
#   From: 2010.05.17/outbox.cif.g08.bks.cpg/sg2_109_cif.got.tgz:216870.got - 2010.06.03 11:33:40.
