data_PCOD9022773
_publ_section_title
;
Structure prediction by ZEFSAII (Michael W. Deem and Ramdas Pophale) SiO2 
 PCOD9022773
Probable space group: P -1
;
_chemical_formula_sum "Si O2"
_cell_formula_units_Z 12
_cell_length_a 9.325019
_cell_length_b 8.289671
_cell_length_c 13.359690
_cell_angle_alpha 81.124283
_cell_angle_beta 151.388856
_cell_angle_gamma 105.481429
_cell_volume 469.365954
_symmetry_space_group_name_H-M "P -1"
_symmetry_group_IT_number 2
_symmetry_cell_setting 'triclinic'
loop_
_space_group_symop_operation_xyz
x,y,z
-x,-y,-z
loop_
_atom_site_type_symbol
_atom_site_label
_atom_site_fract_x
_atom_site_fract_y
_atom_site_fract_z
Si Si1 0.235886 0.226293 0.421481
Si Si2 0.212511 0.989542 0.984538
Si Si3 0.176472 0.360963 0.741876
Si Si4 0.154391 0.742433 0.643814
Si Si5 0.037566 0.722453 0.152584
Si Si6 0.195791 0.635691 0.980321
O O1 0.592780 0.240513 0.624015
O O2 0.143252 0.242513 0.477467
O O3 0.113047 0.369564 0.274256
O O4 0.009761 0.060534 0.244735
O O5 0.558710 0.102727 0.163010
O O6 0.224803 0.804188 0.047256
O O7 0.073610 0.112682 0.953891
O O8 0.206337 0.559445 0.717893
O O9 0.498886 0.326802 0.906796
O O10 0.911903 0.255794 0.514554
O O11 0.086901 0.323197 0.805025
O O12 0.860800 0.554834 0.997232
#
# Coordination Sequence:
#
# PCOD9022773 Si02
#       6
#     2   2   2   2   2   2
#     4  10  23  39  63  89 119 155 202 244 292 349
#     4  10  23  39  64  90 118 157 204 241 289 359
#     4  11  23  38  64  89 120 160 196 245 301 345
#     4  11  22  41  60  91 122 155 200 246 294 355
#     4  12  21  42  64  89 119 156 201 246 289 355
#     4  10  22  39  64  90 115 162 200 241 291 356
#
# _framework density 25.566405
#
# number of rings (size 3 to 8) (size 9 to 14) (size 15 to 20)
#    1.000    0.333    3.333    3.000    2.333    0.667 
#    0.000    3.333    0.000    0.000    0.000    0.000 
#    0.000    0.000    0.000    0.000    0.000    0.000 
#
# Total GULP energy -67153.683616 kJ/mol
# GULP energy per Si atom -5596.140301 kJ/mol
# Density = 2.550821 g / cm^3
# Si number density = 25.566405 Si / 1000 Ang^3
#
#
#
# Elastic Constant Matrix: (Units=GPa)
#
#
# Indices 1 2 3 4 5 6 
#
# 1 95.6065 57.5223 28.6295 -4.0262 17.1892 -10.4428
# 2 57.5223 201.2793 43.4921 12.6049 17.0269 -21.4704
# 3 28.6295 43.4921 101.7926 2.3348 39.6443 -1.0018
# 4 -4.0262 12.6049 2.3348 45.5851 -13.7245 1.4260
# 5 17.1892 17.0269 39.6443 -13.7245 46.9450 -14.6373
# 6 -10.4428 -21.4704 -1.0018 1.4260 -14.6373 45.1111
#
#
#
# Elastic Compliance Matrix: (Units=1/GPa)
#
#
# Indices 1 2 3 4 5 6 
#
# 1 0.013445 -0.003329 -0.001892 0.001788 -0.001278 0.001015
# 2 -0.003329 0.006733 -0.002273 -0.001816 0.001031 0.002775
# 3 -0.001892 -0.002273 0.018235 -0.005557 -0.017578 -0.006643
# 4 0.001788 -0.001816 -0.005557 0.026843 0.013463 0.002946
# 5 -0.001278 0.001031 -0.017578 0.013463 0.044483 0.013812
# 6 0.001015 0.002775 -0.006643 0.002946 0.013812 0.027964
#
#
# Mechanical properties :
#
#
# Convention : Reuss Voigt Hill
#
# Bulk Modulus (GPa) = 42.68962 73.10739 57.89850
# Shear Modulus (GPa) = 31.15250 45.46386 38.30818
#
# Velocity S-wave (km/s) = 3.49448 4.22152 3.87509
# Velocity P-wave (km/s) = 5.74592 7.24009 6.53584
#
# Compressibility (1/GPa) = 0.02342490
#
# Stress axis : x y z
#
# Youngs Moduli (GPa) = 74.37624 148.51368 54.83865
#
# Poissons Ratio (x) = 0.49443 0.10377
# Poissons Ratio (y) = 0.24761 0.12465
# Poissons Ratio (z) = 0.14074 0.33759
#
# Static dielectric constant tensor:
#      x y z
#    x 1.993410 0.011810 -0.033140 
#    y 0.011810 2.069020 -0.003960 
#    z -0.033140 -0.003960 1.944510 
# 
# From -- ./inp_files/161779.got.cif
#   From: 2010.05.17/outbox.cif.g08.bks.cpg/sg2_81_cif.got.tgz:161779.got - 2010.06.03 11:33:40.
