data_PCOD9022340
_publ_section_title
;
Structure prediction by ZEFSAII (Michael W. Deem and Ramdas Pophale) SiO2 
 PCOD9022340
Probable space group: P -1
;
_chemical_formula_sum "Si O2"
_cell_formula_units_Z 16
_cell_length_a 12.628319
_cell_length_b 12.379577
_cell_length_c 9.779834
_cell_angle_alpha 53.613132
_cell_angle_beta 126.234597
_cell_angle_gamma 142.993813
_cell_volume 718.776862
_symmetry_space_group_name_H-M "P -1"
_symmetry_group_IT_number 2
_symmetry_cell_setting 'triclinic'
loop_
_space_group_symop_operation_xyz
x,y,z
-x,-y,-z
loop_
_atom_site_type_symbol
_atom_site_label
_atom_site_fract_x
_atom_site_fract_y
_atom_site_fract_z
Si Si1 0.504057 0.146133 0.224146
Si Si2 0.854604 0.490300 0.701198
Si Si3 0.925099 0.777921 0.730769
Si Si4 0.566725 0.442617 0.850185
Si Si5 0.449566 0.887013 0.182155
Si Si6 0.717211 0.860413 0.349737
Si Si7 0.878929 0.458619 0.312646
Si Si8 0.614716 0.411123 0.315414
O O1 0.709712 0.239164 0.330522
O O2 0.475312 0.200079 0.306934
O O3 0.400185 0.951091 0.221600
O O4 0.522064 0.279302 0.027911
O O5 0.940489 0.678798 0.696349
O O6 0.722362 0.323319 0.829084
O O7 0.720377 0.442366 0.510495
O O8 0.996411 0.479019 0.767874
O O9 0.779974 0.615935 0.850056
O O10 0.820385 0.832689 0.549008
O O11 0.132096 0.972747 0.766155
O O12 0.443429 0.332830 0.703763
O O13 0.484684 0.518919 0.797875
O O14 0.617679 0.907402 0.321418
O O15 0.500000 0.000000 0.000000
O O16 0.774861 0.518890 0.240253
O O17 0.000000 0.500000 0.500000
#
# Coordination Sequence:
#
# PCOD9022340 Si02
#       8
#     2   2   2   2   2   2   2   2
#     4  10  22  39  61  87 124 168 197 256 311 355
#     4  11  19  39  65  87 126 161 211 253 304 377
#     4  11  23  38  66  96 117 169 204 256 321 357
#     4  12  20  42  65  91 130 158 209 254 316 371
#     4  12  23  38  60  92 130 162 201 260 314 364
#     4  11  23  39  61  95 125 157 204 260 304 372
#     4   8  19  38  57  88 114 161 208 245 298 363
#     4   9  21  38  65  86 118 172 204 253 310 360
#
# _framework density 22.260037000000001
#
# number of rings (size 3 to 8) (size 9 to 14) (size 15 to 20)
#    0.750    0.750    3.750    2.250    0.000    1.500 
#    0.000    3.750    0.000    2.250    0.000    0.000 
#    0.000    0.000    0.000    0.000    0.000    0.000 
#
# Total GULP energy -89109.287160 kJ/mol
# GULP energy per Si atom -5569.330447 kJ/mol
# Density = 2.220937 g / cm^3
# Si number density = 22.260037 Si / 1000 Ang^3
#
#
#
# Elastic Constant Matrix: (Units=GPa)
#
#
# Indices 1 2 3 4 5 6 
#
# 1 145.6133 24.9095 12.7959 -13.4126 20.1382 -14.2861
# 2 24.9095 71.6456 0.6295 -9.4521 7.8563 -9.0862
# 3 12.7959 0.6295 38.0530 -4.1708 3.9163 -6.5869
# 4 -13.4126 -9.4521 -4.1708 24.0871 -1.0544 -6.1098
# 5 20.1382 7.8563 3.9163 -1.0544 21.8994 -4.3253
# 6 -14.2861 -9.0862 -6.5869 -6.1098 -4.3253 29.7863
#
#
#
# Elastic Compliance Matrix: (Units=1/GPa)
#
#
# Indices 1 2 3 4 5 6 
#
# 1 0.008905 -0.001246 -0.001117 0.004927 -0.006574 0.003700
# 2 -0.001246 0.016530 0.002389 0.007566 -0.003663 0.005993
# 3 -0.001117 0.002389 0.029043 0.007138 -0.003176 0.007619
# 4 0.004927 0.007566 0.007138 0.052567 -0.002704 0.016640
# 5 -0.006574 -0.003663 -0.003176 -0.002704 0.053915 0.002302
# 6 0.003700 0.005993 0.007619 0.016640 0.002302 0.042607
#
#
# Mechanical properties :
#
#
# Convention : Reuss Voigt Hill
#
# Bulk Modulus (GPa) = 18.33828 36.88684 27.61256
# Shear Modulus (GPa) = 22.55389 29.61969 26.08679
#
# Velocity S-wave (km/s) = 3.18653 3.65173 3.42703
# Velocity P-wave (km/s) = 4.66849 5.86404 5.30008
#
# Compressibility (1/GPa) = 0.05453073
#
# Stress axis : x y z
#
# Youngs Moduli (GPa) = 112.29923 60.49680 34.43148
#
# Poissons Ratio (x) = 0.07538 0.03845
# Poissons Ratio (y) = 0.13994 -0.08227
# Poissons Ratio (z) = 0.12541 -0.14454
#
# Static dielectric constant tensor:
#      x y z
#    x 1.896540 -0.008330 -0.049910 
#    y -0.008330 1.844070 0.017410 
#    z -0.049910 0.017410 1.879180 
# 
# From -- ./inp_files/425502.got.cif
#   From: 2010.05.17/outbox.cif.g08.bks.cpg/sg2_213_cif.got.tgz:425502.got - 2010.06.03 11:33:40.
