data_PCOD9022414
_publ_section_title
;
Structure prediction by ZEFSAII (Michael W. Deem and Ramdas Pophale) SiO2 
 PCOD9022414
Probable space group: P -1
;
_chemical_formula_sum "Si O2"
_cell_formula_units_Z 16
_cell_length_a 11.480300
_cell_length_b 8.237116
_cell_length_c 9.019222
_cell_angle_alpha 80.018595
_cell_angle_beta 77.012733
_cell_angle_gamma 51.871503
_cell_volume 653.086850
_symmetry_space_group_name_H-M "P -1"
_symmetry_group_IT_number 2
_symmetry_cell_setting 'triclinic'
loop_
_space_group_symop_operation_xyz
x,y,z
-x,-y,-z
loop_
_atom_site_type_symbol
_atom_site_label
_atom_site_fract_x
_atom_site_fract_y
_atom_site_fract_z
Si Si1 0.148351 0.534300 0.644981
Si Si2 0.699912 0.253765 0.881728
Si Si3 0.412377 0.984753 0.392723
Si Si4 0.123415 0.033623 0.402472
Si Si5 0.824794 0.329513 0.090025
Si Si6 0.556070 0.783834 0.089784
Si Si7 0.255015 0.439482 0.300303
Si Si8 0.020969 0.364314 0.871318
O O1 0.182538 0.650588 0.735274
O O2 0.232622 0.473189 0.477450
O O3 0.974650 0.719898 0.628414
O O4 0.152446 0.349955 0.749119
O O5 0.558246 0.257208 0.927147
O O6 0.663315 0.463919 0.791866
O O7 0.813975 0.082769 0.754734
O O8 0.757001 0.236556 0.034338
O O9 0.274418 0.968254 0.459109
O O10 0.338374 0.199127 0.291773
O O11 0.500000 0.000000 0.500000
O O12 0.529308 0.809727 0.271062
O O13 0.000000 0.000000 0.500000
O O14 0.720157 0.577305 0.039270
O O15 0.990601 0.221175 0.992878
O O16 0.500000 0.000000 0.000000
O O17 0.097416 0.566387 0.239133
O O18 0.000000 0.500000 0.000000
#
# Coordination Sequence:
#
# PCOD9022414 Si02
#       8
#     2   2   2   2   2   2   2   2
#     4  11  21  37  65  93 128 167 208 268 325 387
#     4  10  23  41  64  91 125 168 215 269 326 385
#     4  11  25  43  66  97 131 172 220 268 324 388
#     4  11  23  43  64  95 134 168 214 270 332 383
#     4  10  22  39  61  95 123 163 225 257 321 388
#     4  11  23  44  64  87 129 173 217 269 324 384
#     4  11  20  40  67  91 126 170 214 267 330 385
#     4   9  19  34  59  93 120 157 207 262 311 384
#
# _framework density 24.499037999999999
#
# number of rings (size 3 to 8) (size 9 to 14) (size 15 to 20)
#    0.000    1.500    2.500    3.000    1.750    0.500 
#    4.500    1.875    0.000    0.000    0.000    0.000 
#    0.000    0.000    0.000    0.000    0.000    0.000 
#
# Total GULP energy -89183.964902 kJ/mol
# GULP energy per Si atom -5573.997806 kJ/mol
# Density = 2.444328 g / cm^3
# Si number density = 24.499038 Si / 1000 Ang^3
#
#
#
# Elastic Constant Matrix: (Units=GPa)
#
#
# Indices 1 2 3 4 5 6 
#
# 1 196.9959 21.2617 63.0590 8.6866 4.3031 27.9067
# 2 21.2617 75.0778 11.8243 5.1412 -14.3321 -3.9925
# 3 63.0590 11.8243 140.7656 31.4873 16.8971 7.7904
# 4 8.6866 5.1412 31.4873 36.7621 7.3395 -2.2080
# 5 4.3031 -14.3321 16.8971 7.3395 48.3473 2.7077
# 6 27.9067 -3.9925 7.7904 -2.2080 2.7077 33.2991
#
#
#
# Elastic Compliance Matrix: (Units=1/GPa)
#
#
# Indices 1 2 3 4 5 6 
#
# 1 0.006889 -0.001838 -0.002798 0.000706 0.000009 -0.005293
# 2 -0.001838 0.015224 -0.000825 -0.001819 0.005071 0.003026
# 3 -0.002798 -0.000825 0.010482 -0.007743 -0.002454 -0.000520
# 4 0.000706 -0.001819 -0.007743 0.034812 -0.003382 0.003585
# 5 0.000009 0.005071 -0.002454 -0.003382 0.023612 -0.000969
# 6 -0.005293 0.003026 -0.000520 0.003585 -0.000969 0.035268
#
#
# Mechanical properties :
#
#
# Convention : Reuss Voigt Hill
#
# Bulk Modulus (GPa) = 46.13987 67.23660 56.68823
# Shear Modulus (GPa) = 34.61872 44.79465 39.70669
#
# Velocity S-wave (km/s) = 3.76315 4.28065 4.03021
# Velocity P-wave (km/s) = 6.14459 7.20667 6.69672
#
# Compressibility (1/GPa) = 0.02167323
#
# Stress axis : x y z
#
# Youngs Moduli (GPa) = 145.16642 65.68758 95.40324
#
# Poissons Ratio (x) = 0.12076 0.26689
# Poissons Ratio (y) = 0.26687 0.07867
# Poissons Ratio (z) = 0.40610 0.05416
#
# Static dielectric constant tensor:
#      x y z
#    x 1.991950 -0.050960 0.022770 
#    y -0.050960 2.037460 -0.033540 
#    z 0.022770 -0.033540 1.987740 
# 
# From -- ./inp_files/238392.got.cif
#   From: 2010.05.17/outbox.cif.g08.bks.cpg/sg2_120_cif.got.tgz:238392.got - 2010.06.03 11:33:40.
