data_PCOD9022038
_publ_section_title
;
Structure prediction by ZEFSAII (Michael W. Deem and Ramdas Pophale) SiO2 
 PCOD9022038
Probable space group: P -1
;
_chemical_formula_sum "Si O2"
_cell_formula_units_Z 16
_cell_length_a 22.124288
_cell_length_b 17.211715
_cell_length_c 13.741897
_cell_angle_alpha 147.161385
_cell_angle_beta 158.945248
_cell_angle_gamma 21.948467
_cell_volume 689.997086
_symmetry_space_group_name_H-M "P -1"
_symmetry_group_IT_number 2
_symmetry_cell_setting 'triclinic'
loop_
_space_group_symop_operation_xyz
x,y,z
-x,-y,-z
loop_
_atom_site_type_symbol
_atom_site_label
_atom_site_fract_x
_atom_site_fract_y
_atom_site_fract_z
Si Si1 0.299631 0.940350 0.682413
Si Si2 0.438378 0.530948 0.053165
Si Si3 0.316140 0.247809 0.103539
Si Si4 0.094485 0.289609 0.109546
Si Si5 0.482551 0.839551 0.476491
Si Si6 0.127424 0.945085 0.738028
Si Si7 0.338070 0.508744 0.188096
Si Si8 0.052062 0.802283 0.893122
O O1 0.439612 0.855828 0.700044
O O2 0.499792 0.736482 0.839299
O O3 0.052669 0.002516 0.391321
O O4 0.246767 0.135541 0.839532
O O5 0.478797 0.669668 0.293712
O O6 0.623710 0.302052 0.139146
O O7 0.500000 0.500000 0.000000
O O8 0.157438 0.670015 0.811901
O O9 0.379468 0.197739 0.258063
O O10 0.095910 0.497624 0.017882
O O11 0.352850 0.212463 0.421732
O O12 0.924149 0.371035 0.032999
O O13 0.153640 0.096886 0.952825
O O14 0.209491 0.078248 0.327489
O O15 0.000000 0.000000 0.500000
O O16 0.500000 0.500000 0.500000
O O17 0.270454 0.637713 0.125943
O O18 0.000000 0.000000 0.000000
#
# Coordination Sequence:
#
# PCOD9022038 Si02
#       8
#     2   2   2   2   2   2   2   2
#     4  10  22  38  69 101 141 179 236 287 341 417
#     4  11  27  45  68  99 135 181 239 284 346 422
#     4  10  22  41  66 105 140 184 232 286 355 407
#     4  11  24  39  70 104 137 182 228 290 350 410
#     4  11  24  45  70  95 147 184 232 284 357 419
#     4  12  23  38  68  97 135 175 237 287 346 407
#     4  11  23  43  72 104 141 178 236 288 347 414
#     4  10  26  45  70  99 136 188 229 282 357 418
#
# _framework density 23.188503000000001
#
# number of rings (size 3 to 8) (size 9 to 14) (size 15 to 20)
#    0.000    1.250    1.250    3.375   12.250    0.500 
#    0.000    1.250    0.000    0.000    0.000    0.000 
#    0.000    0.000    0.000    0.000    0.000    0.000 
#
# Total GULP energy -89461.865206 kJ/mol
# GULP energy per Si atom -5591.366575 kJ/mol
# Density = 2.313572 g / cm^3
# Si number density = 23.188503 Si / 1000 Ang^3
#
#
#
# Elastic Constant Matrix: (Units=GPa)
#
#
# Indices 1 2 3 4 5 6 
#
# 1 87.4468 44.8459 25.2618 -23.1382 16.4409 1.7258
# 2 44.8459 180.4226 39.3241 -11.1902 13.5276 -4.2897
# 3 25.2618 39.3241 38.8794 -2.5365 28.9869 -6.1120
# 4 -23.1382 -11.1902 -2.5365 35.2104 -0.4085 9.7212
# 5 16.4409 13.5276 28.9869 -0.4085 40.6585 -10.0808
# 6 1.7258 -4.2897 -6.1120 9.7212 -10.0808 41.9536
#
#
#
# Elastic Compliance Matrix: (Units=1/GPa)
#
#
# Indices 1 2 3 4 5 6 
#
# 1 0.018822 -0.001940 -0.008938 0.012648 -0.001868 -0.005654
# 2 -0.001940 0.008138 -0.011819 0.000339 0.006685 0.000718
# 3 -0.008938 -0.011819 0.080271 -0.004403 -0.049745 -0.000080
# 4 0.012648 0.000339 -0.004403 0.039594 -0.004514 -0.011386
# 5 -0.001868 0.006685 -0.049745 -0.004514 0.060821 0.009173
# 6 -0.005654 0.000718 -0.000080 -0.011386 0.009173 0.028973
#
#
# Mechanical properties :
#
#
# Convention : Reuss Voigt Hill
#
# Bulk Modulus (GPa) = 16.17194 58.40138 37.28666
# Shear Modulus (GPa) = 16.52215 36.71898 26.62056
#
# Velocity S-wave (km/s) = 2.67219 3.98364 3.39190
# Velocity P-wave (km/s) = 4.06326 6.81170 5.60845
#
# Compressibility (1/GPa) = 0.06183550
#
# Stress axis : x y z
#
# Youngs Moduli (GPa) = 53.12967 122.88459 12.45784
#
# Poissons Ratio (x) = 0.23842 0.11135
# Poissons Ratio (y) = 0.10308 0.14724
# Poissons Ratio (z) = 0.47489 1.45236
#
# Static dielectric constant tensor:
#      x y z
#    x 1.993510 0.006860 0.048730 
#    y 0.006860 1.867800 -0.027990 
#    z 0.048730 -0.027990 1.877740 
# 
# From -- ./inp_files/543189.got.cif
#   From: 2010.05.17/outbox.cif.g08.bks.cpg/sg2_272_cif.got.tgz:543189.got - 2010.06.03 11:33:40.
