data_PCOD9022928
_publ_section_title
;
Structure prediction by ZEFSAII (Michael W. Deem and Ramdas Pophale) SiO2 
 PCOD9022928
Probable space group: P -1
;
_chemical_formula_sum "Si O2"
_cell_formula_units_Z 14
_cell_length_a 11.323208
_cell_length_b 14.566002
_cell_length_c 9.790707
_cell_angle_alpha 127.746370
_cell_angle_beta 124.309245
_cell_angle_gamma 30.666433
_cell_volume 648.498538
_symmetry_space_group_name_H-M "P -1"
_symmetry_group_IT_number 2
_symmetry_cell_setting 'triclinic'
loop_
_space_group_symop_operation_xyz
x,y,z
-x,-y,-z
loop_
_atom_site_type_symbol
_atom_site_label
_atom_site_fract_x
_atom_site_fract_y
_atom_site_fract_z
Si Si1 0.957686 0.497032 0.812690
Si Si2 0.700810 0.328405 0.304334
Si Si3 0.822492 0.827175 0.529547
Si Si4 0.541013 0.215060 0.616682
Si Si5 0.812973 0.200738 0.983498
Si Si6 0.043806 0.630179 0.764518
Si Si7 0.534611 0.295501 0.395672
O O1 0.703284 0.603906 0.727174
O O2 0.136385 0.290839 0.672209
O O3 0.973810 0.599253 0.819804
O O4 0.000000 0.500000 0.000000
O O5 0.633318 0.335779 0.114048
O O6 0.699925 0.220772 0.309126
O O7 0.523232 0.541766 0.428507
O O8 0.951074 0.231140 0.380533
O O9 0.854250 0.750529 0.629567
O O10 0.604083 0.050872 0.573440
O O11 0.277781 0.426232 0.663402
O O12 0.604042 0.174136 0.460056
O O13 0.698892 0.207745 0.791317
O O14 0.911192 0.264625 0.071741
O O15 0.000000 0.000000 0.000000
#
# Coordination Sequence:
#
# PCOD9022928 Si02
#       7
#     2   2   2   2   2   2   2
#     4  11  25  46  64  90 133 172 213 265 317 381
#     4   9  19  40  62  91 134 159 208 269 306 376
#     4  10  22  44  65  98 125 163 219 262 316 381
#     4  12  22  39  70  97 123 169 211 265 321 374
#     4  11  21  40  65 102 128 159 217 264 314 375
#     4  11  23  43  68  91 134 169 208 265 318 379
#     4  10  22  39  65  91 126 174 211 253 327 375
#
# _framework density 21.588329000000002
#
# number of rings (size 3 to 8) (size 9 to 14) (size 15 to 20)
#    0.000    1.429    7.143    0.857    2.000    3.429 
#    2.571    0.714    0.000    0.000    0.000    0.000 
#    0.000    0.000    0.000    0.000    0.000    0.000 
#
# Total GULP energy -78241.816163 kJ/mol
# GULP energy per Si atom -5588.701154 kJ/mol
# Density = 2.153919 g / cm^3
# Si number density = 21.588329 Si / 1000 Ang^3
#
#
#
# Elastic Constant Matrix: (Units=GPa)
#
#
# Indices 1 2 3 4 5 6 
#
# 1 110.9967 20.3961 37.1648 -2.4374 -12.2732 27.8240
# 2 20.3961 94.8075 25.6739 -7.5166 10.6978 27.2173
# 3 37.1648 25.6739 152.2436 -14.0536 -0.7788 19.2691
# 4 -2.4374 -7.5166 -14.0536 27.6628 10.7062 3.6702
# 5 -12.2732 10.6978 -0.7788 10.7062 34.2795 -1.8539
# 6 27.8240 27.2173 19.2691 3.6702 -1.8539 31.9755
#
#
#
# Elastic Compliance Matrix: (Units=1/GPa)
#
#
# Indices 1 2 3 4 5 6 
#
# 1 0.012428 0.000148 -0.001822 -0.000001 0.003842 -0.009620
# 2 0.000148 0.017156 0.000096 0.010599 -0.009505 -0.016557
# 3 -0.001822 0.000096 0.007999 0.005403 -0.002408 -0.004077
# 4 -0.000001 0.010599 0.005403 0.052323 -0.020580 -0.019475
# 5 0.003842 -0.009505 -0.002408 -0.020580 0.040477 0.010907
# 6 -0.009620 -0.016557 -0.004077 -0.019475 0.010907 0.059062
#
#
# Mechanical properties :
#
#
# Convention : Reuss Voigt Hill
#
# Bulk Modulus (GPa) = 29.04664 58.27971 43.66318
# Shear Modulus (GPa) = 24.50053 37.10443 30.80248
#
# Velocity S-wave (km/s) = 3.37248 4.15025 3.78141
# Velocity P-wave (km/s) = 5.35246 7.07253 6.27174
#
# Compressibility (1/GPa) = 0.03442739
#
# Stress axis : x y z
#
# Youngs Moduli (GPa) = 80.46106 58.28928 125.01083
#
# Poissons Ratio (x) = -0.00860 0.22774
# Poissons Ratio (y) = -0.01187 -0.01202
# Poissons Ratio (z) = 0.14658 -0.00561
#
# Static dielectric constant tensor:
#      x y z
#    x 1.862100 -0.003390 -0.017190 
#    y -0.003390 1.829650 0.026390 
#    z -0.017190 0.026390 1.790620 
# 
# From -- ./inp_files/270963.got.cif
#   From: 2010.05.17/outbox.cif.g08.bks.cpg/sg2_136_cif.got.tgz:270963.got - 2010.06.03 11:33:40.
