data_PCOD9022141
_publ_section_title
;
Structure prediction by ZEFSAII (Michael W. Deem and Ramdas Pophale) SiO2 
 PCOD9022141
Probable space group: P -1
;
_chemical_formula_sum "Si O2"
_cell_formula_units_Z 16
_cell_length_a 8.247095
_cell_length_b 13.660343
_cell_length_c 9.338034
_cell_angle_alpha 106.277796
_cell_angle_beta 47.388233
_cell_angle_gamma 115.619488
_cell_volume 697.990968
_symmetry_space_group_name_H-M "P -1"
_symmetry_group_IT_number 2
_symmetry_cell_setting 'triclinic'
loop_
_space_group_symop_operation_xyz
x,y,z
-x,-y,-z
loop_
_atom_site_type_symbol
_atom_site_label
_atom_site_fract_x
_atom_site_fract_y
_atom_site_fract_z
Si Si1 0.801323 0.807771 0.876684
Si Si2 0.450723 0.042361 0.893406
Si Si3 0.359711 0.532210 0.889980
Si Si4 0.969933 0.856712 0.112897
Si Si5 0.847918 0.005630 0.453711
Si Si6 0.714262 0.432733 0.735577
Si Si7 0.074150 0.660890 0.630579
Si Si8 0.865909 0.330812 0.086438
O O1 0.003370 0.899298 0.702901
O O2 0.861914 0.703906 0.746637
O O3 0.572625 0.841233 0.012312
O O4 0.834976 0.810106 0.029016
O O5 0.625694 0.029608 0.662008
O O6 0.500000 0.000000 0.000000
O O7 0.190457 0.961539 0.977114
O O8 0.558477 0.476996 0.739868
O O9 0.327149 0.623046 0.842036
O O10 0.394170 0.584106 0.049558
O O11 0.114447 0.430749 0.981988
O O12 0.079515 0.767113 0.065466
O O13 0.820358 0.896828 0.333880
O O14 0.000000 0.000000 0.500000
O O15 0.755726 0.329662 0.599646
O O16 0.956869 0.530896 0.663263
O O17 0.192380 0.706225 0.728820
#
# Coordination Sequence:
#
# PCOD9022141 Si02
#       8
#     2   2   2   2   2   2   2   2
#     4  10  22  39  57  86 118 146 188 238 278 338
#     4  11  21  39  61  81 114 150 185 238 286 332
#     4   9  18  35  57  81 111 145 185 223 272 330
#     4  10  22  39  58  85 118 146 191 234 279 339
#     4  11  21  39  60  83 113 150 186 236 286 333
#     4   9  18  35  57  82 110 146 183 223 274 330
#     4   9  19  37  55  79 115 144 180 230 276 324
#     4   9  19  37  55  79 116 145 176 235 274 323
#
# _framework density 22.922934000000001
#
# number of rings (size 3 to 8) (size 9 to 14) (size 15 to 20)
#    0.000    2.250    2.500    1.500    0.000    4.500 
#   13.500    0.000    0.000    0.000    0.000    0.000 
#    0.000    0.000    0.000    0.000    0.000    0.000 
#
# Total GULP energy -89190.295470 kJ/mol
# GULP energy per Si atom -5574.393467 kJ/mol
# Density = 2.287076 g / cm^3
# Si number density = 22.922934 Si / 1000 Ang^3
#
#
#
# Elastic Constant Matrix: (Units=GPa)
#
#
# Indices 1 2 3 4 5 6 
#
# 1 70.5589 5.2505 28.4445 9.1756 -12.0785 -25.1455
# 2 5.2505 63.4040 44.4849 21.6382 -2.1325 -15.5026
# 3 28.4445 44.4849 187.4727 40.1835 -22.3041 -15.4076
# 4 9.1756 21.6382 40.1835 36.4998 -3.0237 -8.0339
# 5 -12.0785 -2.1325 -22.3041 -3.0237 26.4255 1.8359
# 6 -25.1455 -15.5026 -15.4076 -8.0339 1.8359 27.3091
#
#
#
# Elastic Compliance Matrix: (Units=1/GPa)
#
#
# Indices 1 2 3 4 5 6 
#
# 1 0.024680 0.005990 -0.001817 -0.001777 0.008359 0.024015
# 2 0.005990 0.024427 -0.003669 -0.008731 -0.000413 0.014772
# 3 -0.001817 -0.003669 0.008388 -0.006444 0.005304 -0.001276
# 4 -0.001777 -0.008731 -0.006444 0.040305 -0.002469 0.001795
# 5 0.008359 -0.000413 0.005304 -0.002469 0.045360 0.006679
# 6 0.024015 0.014772 -0.001276 0.001795 0.006679 0.066475
#
#
# Mechanical properties :
#
#
# Convention : Reuss Voigt Hill
#
# Bulk Modulus (GPa) = 17.09285 53.08836 35.09061
# Shear Modulus (GPa) = 21.91756 34.26393 28.09074
#
# Velocity S-wave (km/s) = 3.09551 3.87039 3.50443
# Velocity P-wave (km/s) = 4.49990 6.57137 5.63170
#
# Compressibility (1/GPa) = 0.05850398
#
# Stress axis : x y z
#
# Youngs Moduli (GPa) = 40.51922 40.93750 119.22051
#
# Poissons Ratio (x) = -0.24523 0.21663
# Poissons Ratio (y) = -0.24273 0.43741
# Poissons Ratio (z) = 0.07362 0.15019
#
# Static dielectric constant tensor:
#      x y z
#    x 1.904650 0.026870 -0.029930 
#    y 0.026870 1.966240 -0.009820 
#    z -0.029930 -0.009820 1.918680 
# 
# From -- ./inp_files/201128.got.cif
#   From: 2010.05.17/outbox.cif.g08.bks.cpg/sg2_101_cif.got.tgz:201128.got - 2010.06.03 11:33:40.
