data_PCOD9022121
_publ_section_title
;
Structure prediction by ZEFSAII (Michael W. Deem and Ramdas Pophale) SiO2 
 PCOD9022121
Probable space group: P -1
;
_chemical_formula_sum "Si O2"
_cell_formula_units_Z 15
_cell_length_a 21.157536
_cell_length_b 10.427766
_cell_length_c 8.157320
_cell_angle_alpha 46.364950
_cell_angle_beta 41.643355
_cell_angle_gamma 37.265728
_cell_volume 703.508637
_symmetry_space_group_name_H-M "P -1"
_symmetry_group_IT_number 2
_symmetry_cell_setting 'triclinic'
loop_
_space_group_symop_operation_xyz
x,y,z
-x,-y,-z
loop_
_atom_site_type_symbol
_atom_site_label
_atom_site_fract_x
_atom_site_fract_y
_atom_site_fract_z
Si Si1 0.252094 0.747826 0.397069
Si Si2 0.348159 0.310033 0.453975
Si Si3 0.000000 0.000000 0.500000
Si Si4 0.012537 0.690669 0.024109
Si Si5 0.123516 0.531498 0.471784
Si Si6 0.399566 0.947291 0.921831
Si Si7 0.073892 0.089894 0.656739
Si Si8 0.790838 0.684739 0.845357
O O1 0.334289 0.489154 0.447151
O O2 0.145868 0.865569 0.369405
O O3 0.177816 0.845325 0.624636
O O4 0.332265 0.834437 0.145534
O O5 0.229167 0.438524 0.470613
O O6 0.461467 0.221416 0.199380
O O7 0.368067 0.102249 0.688978
O O8 0.001485 0.814337 0.774330
O O9 0.939169 0.587278 0.260753
O O10 0.974089 0.851079 0.117083
O O11 0.145019 0.483697 0.981670
O O12 0.181828 0.451529 0.250491
O O13 0.026207 0.795235 0.397921
O O14 0.340647 0.118823 0.034611
O O15 0.133663 0.217512 0.408741
#
# Coordination Sequence:
#
# PCOD9022121 Si02
#       8
#     2   2   1   2   2   2   2   2
#     4  11  22  37  54  83 115 147 190 231 276 340
#     4  11  22  36  58  82 110 152 193 232 282 328
#     4  12  22  30  54  86 116 146 174 224 290 338
#     4   9  18  34  55  87 118 145 180 226 287 346
#     4   9  17  34  59  86 112 142 189 238 275 334
#     4  10  22  39  56  78 113 154 190 233 281 331
#     4   8  17  34  57  80 113 149 179 228 287 333
#     4   8  16  34  59  80 108 149 187 230 283 330
#
# _framework density 21.321701000000001
#
# number of rings (size 3 to 8) (size 9 to 14) (size 15 to 20)
#    0.000    2.400    0.000    4.400    0.000    1.067 
#    0.000    6.667    0.000    0.000    0.000   23.333 
#    0.000    0.000    0.000    0.000    0.000    0.000 
#
# Total GULP energy -83577.806744 kJ/mol
# GULP energy per Si atom -5571.853783 kJ/mol
# Density = 2.127317 g / cm^3
# Si number density = 21.321701 Si / 1000 Ang^3
#
#
#
# Elastic Constant Matrix: (Units=GPa)
#
#
# Indices 1 2 3 4 5 6 
#
# 1 37.7352 21.0279 20.1698 -4.4297 -8.5092 -6.6190
# 2 21.0279 130.9048 44.6358 12.9665 -11.9822 4.1855
# 3 20.1698 44.6358 128.2133 7.1479 -8.1396 -5.9267
# 4 -4.4297 12.9665 7.1479 31.7529 -2.1985 0.9819
# 5 -8.5092 -11.9822 -8.1396 -2.1985 34.9529 -4.4739
# 6 -6.6190 4.1855 -5.9267 0.9819 -4.4739 9.2425
#
#
#
# Elastic Compliance Matrix: (Units=1/GPa)
#
#
# Indices 1 2 3 4 5 6 
#
# 1 0.041843 -0.006882 -0.002179 0.008871 0.012593 0.036839
# 2 -0.006882 0.010466 -0.002874 -0.004270 -0.000470 -0.011285
# 3 -0.002179 -0.002874 0.009631 -0.001404 0.001509 0.006797
# 4 0.008871 -0.004270 -0.001404 0.034852 0.003233 0.005249
# 5 0.012593 -0.000470 0.001509 0.003233 0.035532 0.027055
# 6 0.036839 -0.011285 0.006797 0.005249 0.027055 0.156585
#
#
# Mechanical properties :
#
#
# Convention : Reuss Voigt Hill
#
# Bulk Modulus (GPa) = 26.26802 52.05782 39.16292
# Shear Modulus (GPa) = 15.36243 29.25766 22.31004
#
# Velocity S-wave (km/s) = 2.68714 3.70834 3.23825
# Velocity P-wave (km/s) = 4.68767 6.54249 5.69115
#
# Compressibility (1/GPa) = 0.03806910
#
# Stress axis : x y z
#
# Youngs Moduli (GPa) = 23.89879 95.55191 103.83054
#
# Poissons Ratio (x) = 0.65763 0.22621
# Poissons Ratio (y) = 0.16448 0.29843
# Poissons Ratio (z) = 0.05207 0.27463
#
# Static dielectric constant tensor:
#      x y z
#    x 1.687770 0.005710 -0.066790 
#    y 0.005710 1.745390 -0.034600 
#    z -0.066790 -0.034600 1.745910 
# 
# From -- ./inp_files/344847.got.cif
#   From: 2010.05.17/outbox.cif.g08.bks.cpg/sg2_173_cif.got.tgz:344847.got - 2010.06.03 11:33:40.
