data_PCOD9022683
_publ_section_title
;
Structure prediction by ZEFSAII (Michael W. Deem and Ramdas Pophale) SiO2 
 PCOD9022683
Probable space group: P -1
;
_chemical_formula_sum "Si O2"
_cell_formula_units_Z 16
_cell_length_a 15.273197
_cell_length_b 8.843776
_cell_length_c 18.273696
_cell_angle_alpha 37.328435
_cell_angle_beta 140.757011
_cell_angle_gamma 148.116436
_cell_volume 751.630274
_symmetry_space_group_name_H-M "P -1"
_symmetry_group_IT_number 2
_symmetry_cell_setting 'triclinic'
loop_
_space_group_symop_operation_xyz
x,y,z
-x,-y,-z
loop_
_atom_site_type_symbol
_atom_site_label
_atom_site_fract_x
_atom_site_fract_y
_atom_site_fract_z
Si Si1 0.110274 0.562253 0.678386
Si Si2 0.173787 0.257938 0.717809
Si Si3 0.967564 0.445827 0.099107
Si Si4 0.423813 0.320319 0.596903
Si Si5 0.489782 0.397855 0.949469
Si Si6 0.143739 0.345139 0.932319
Si Si7 0.709804 0.304307 0.867440
Si Si8 0.157400 0.333973 0.506967
O O1 0.090399 0.398524 0.651978
O O2 0.151293 0.406123 0.827762
O O3 0.928578 0.487772 0.614492
O O4 0.271030 0.939403 0.634939
O O5 0.362841 0.433127 0.808287
O O6 0.183766 0.296111 0.623227
O O7 0.074842 0.890761 0.811591
O O8 0.898753 0.445196 0.134127
O O9 0.173927 0.692578 0.123542
O O10 0.859630 0.502098 0.950647
O O11 0.500000 0.500000 0.500000
O O12 0.584261 0.379271 0.725223
O O13 0.326889 0.441636 0.529287
O O14 0.500000 0.500000 0.000000
O O15 0.672275 0.570871 0.961418
O O16 0.412520 0.035606 0.044345
O O17 0.000000 0.000000 0.000000
O O18 0.000000 0.000000 0.500000
#
# Coordination Sequence:
#
# PCOD9022683 Si02
#       8
#     2   2   2   2   2   2   2   2
#     4  11  24  46  66  97 134 181 228 276 334 398
#     4  11  23  42  74  94 137 181 225 282 338 399
#     4  10  24  38  66  98 132 177 219 277 336 408
#     4  11  24  43  71  94 131 179 224 282 336 398
#     4  11  21  41  66  99 135 171 216 276 344 401
#     4  12  25  41  69  99 138 177 222 277 343 403
#     4  10  22  39  63  94 136 167 226 268 342 397
#     4  10  24  44  67  95 128 178 232 274 330 397
#
# _framework density 21.287061999999999
#
# number of rings (size 3 to 8) (size 9 to 14) (size 15 to 20)
#    0.000    1.250    2.500    2.625   10.500    1.000 
#    0.000    0.625    0.000    0.000    0.000    0.000 
#    0.000    0.000    0.000    0.000    0.000    0.000 
#
# Total GULP energy -89330.168274 kJ/mol
# GULP energy per Si atom -5583.135517 kJ/mol
# Density = 2.123861 g / cm^3
# Si number density = 21.287062 Si / 1000 Ang^3
#
#
#
# Elastic Constant Matrix: (Units=GPa)
#
#
# Indices 1 2 3 4 5 6 
#
# 1 158.6041 38.8169 40.1715 13.7916 11.6015 10.3724
# 2 38.8169 63.9797 15.9640 0.6491 8.7422 13.3296
# 3 40.1715 15.9640 105.1605 21.7651 7.2289 5.4112
# 4 13.7916 0.6491 21.7651 32.8079 4.4513 1.6067
# 5 11.6015 8.7422 7.2289 4.4513 45.1654 8.3951
# 6 10.3724 13.3296 5.4112 1.6067 8.3951 36.7674
#
#
#
# Elastic Compliance Matrix: (Units=1/GPa)
#
#
# Indices 1 2 3 4 5 6 
#
# 1 0.008078 -0.004245 -0.001992 -0.001884 -0.000711 -0.000202
# 2 -0.004245 0.019975 -0.001620 0.002977 -0.001782 -0.005529
# 3 -0.001992 -0.001620 0.012009 -0.007037 -0.000361 -0.000228
# 4 -0.001884 0.002977 -0.007037 0.036239 -0.002437 -0.000539
# 5 -0.000711 -0.001782 -0.000361 -0.002437 0.023789 -0.004425
# 6 -0.000202 -0.005529 -0.000228 -0.000539 -0.004425 0.030327
#
#
# Mechanical properties :
#
#
# Convention : Reuss Voigt Hill
#
# Bulk Modulus (GPa) = 41.07160 57.51656 49.29408
# Shear Modulus (GPa) = 32.41557 38.46762 35.44159
#
# Velocity S-wave (km/s) = 3.90652 4.25560 4.08479
# Velocity P-wave (km/s) = 6.29952 7.15716 6.74199
#
# Compressibility (1/GPa) = 0.02434773
#
# Stress axis : x y z
#
# Youngs Moduli (GPa) = 123.79945 50.06263 83.26941
#
# Poissons Ratio (x) = 0.21253 0.16588
# Poissons Ratio (y) = 0.52557 0.13487
# Poissons Ratio (z) = 0.24661 0.08108
#
# Static dielectric constant tensor:
#      x y z
#    x 1.780990 -0.044170 0.042730 
#    y -0.044170 1.799900 0.017830 
#    z 0.042730 0.017830 1.780530 
# 
# From -- ./inp_files/515073.got.cif
#   From: 2010.05.17/outbox.cif.g08.bks.cpg/sg2_258_cif.got.tgz:515073.got - 2010.06.03 11:33:40.
