data_PCOD9022202
_publ_section_title
;
Structure prediction by ZEFSAII (Michael W. Deem and Ramdas Pophale) SiO2 
 PCOD9022202
Probable space group: P -1
;
_chemical_formula_sum "Si O2"
_cell_formula_units_Z 14
_cell_length_a 6.827119
_cell_length_b 18.263758
_cell_length_c 14.500152
_cell_angle_alpha 24.079371
_cell_angle_beta 49.154354
_cell_angle_gamma 58.653882
_cell_volume 540.428210
_symmetry_space_group_name_H-M "P -1"
_symmetry_group_IT_number 2
_symmetry_cell_setting 'triclinic'
loop_
_space_group_symop_operation_xyz
x,y,z
-x,-y,-z
loop_
_atom_site_type_symbol
_atom_site_label
_atom_site_fract_x
_atom_site_fract_y
_atom_site_fract_z
Si Si1 0.729031 0.468311 0.898875
Si Si2 0.859175 0.074396 0.322807
Si Si3 0.660975 0.828874 0.037376
Si Si4 0.456432 0.990659 0.689398
Si Si5 0.336782 0.269646 0.527784
Si Si6 0.036773 0.308268 0.747674
Si Si7 0.179217 0.790657 0.343688
O O1 0.642906 0.527891 0.755400
O O2 0.015683 0.616583 0.653159
O O3 0.500000 0.500000 0.000000
O O4 0.770251 0.266722 0.129415
O O5 0.736556 0.978002 0.374504
O O6 0.707031 0.963216 0.584184
O O7 0.180612 0.125510 0.159509
O O8 0.839631 0.707617 0.172205
O O9 0.365608 0.736395 0.270146
O O10 0.695516 0.034617 0.833149
O O11 0.530124 0.167934 0.531521
O O12 0.260020 0.828653 0.995195
O O13 0.273989 0.264815 0.659945
O O14 0.050699 0.153576 0.709550
O O15 0.000000 0.500000 0.500000
#
# Coordination Sequence:
#
# PCOD9022202 Si02
#       7
#     2   2   2   2   2   2   2
#     4  10  18  31  53  85 106 134 180 230 267 307
#     4  10  17  31  50  81 110 134 178 229 269 311
#     4  10  20  37  56  80 111 143 178 222 274 323
#     4  10  19  30  52  79 108 141 178 225 269 310
#     4  10  18  34  55  82 104 138 182 223 265 321
#     4  11  21  35  52  83 110 144 181 223 269 321
#     4   9  20  35  55  86 103 143 181 222 274 314
#
# _framework density 25.905383
#
# number of rings (size 3 to 8) (size 9 to 14) (size 15 to 20)
#    0.857    1.143    4.286    2.143    2.000    0.571 
#    0.000    0.000    0.000    1.714    0.000    0.000 
#    0.000    0.000    0.000    0.000    0.000    0.000 
#
# Total GULP energy -78071.836368 kJ/mol
# GULP energy per Si atom -5576.559741 kJ/mol
# Density = 2.584642 g / cm^3
# Si number density = 25.905383 Si / 1000 Ang^3
#
#
#
# Elastic Constant Matrix: (Units=GPa)
#
#
# Indices 1 2 3 4 5 6 
#
# 1 31.8835 20.6532 18.7784 7.8802 17.4750 1.0039
# 2 20.6532 146.0940 59.1415 44.2183 2.6509 -11.2454
# 3 18.7784 59.1415 168.1428 27.0046 11.0201 -4.8501
# 4 7.8802 44.2183 27.0046 71.3117 -3.6549 1.5530
# 5 17.4750 2.6509 11.0201 -3.6549 37.0285 14.6765
# 6 1.0039 -11.2454 -4.8501 1.5530 14.6765 41.5111
#
#
#
# Elastic Compliance Matrix: (Units=1/GPa)
#
#
# Indices 1 2 3 4 5 6 
#
# 1 0.049945 -0.004312 -0.001579 -0.003717 -0.025817 0.006706
# 2 -0.004312 0.010036 -0.002210 -0.004942 0.000461 0.002587
# 3 -0.001579 -0.002210 0.007256 -0.001314 -0.001767 0.000961
# 4 -0.003717 -0.004942 -0.001314 0.018394 0.005981 -0.004205
# 5 -0.025817 0.000461 -0.001767 0.005981 0.046690 -0.016188
# 6 0.006706 0.002587 0.000961 -0.004205 -0.016188 0.030622
#
#
# Mechanical properties :
#
#
# Convention : Reuss Voigt Hill
#
# Bulk Modulus (GPa) = 19.59472 60.36297 39.97884
# Shear Modulus (GPa) = 25.49011 46.47339 35.98175
#
# Velocity S-wave (km/s) = 3.14023 4.24012 3.73093
# Velocity P-wave (km/s) = 4.55285 6.87920 5.83317
#
# Compressibility (1/GPa) = 0.05103415
#
# Stress axis : x y z
#
# Youngs Moduli (GPa) = 20.02214 99.64331 137.82416
#
# Poissons Ratio (x) = 0.42965 0.21760
# Poissons Ratio (y) = 0.08633 0.30463
# Poissons Ratio (z) = 0.03161 0.22024
#
# Static dielectric constant tensor:
#      x y z
#    x 2.168420 -0.000460 -0.055270 
#    y -0.000460 2.106680 0.038750 
#    z -0.055270 0.038750 2.084800 
# 
# From -- ./inp_files/421965.got.cif
#   From: 2010.05.17/outbox.cif.g08.bks.cpg/sg2_211_cif.got.tgz:421965.got - 2010.06.03 11:33:40.
