data_PCOD9022190
_publ_section_title
;
Structure prediction by ZEFSAII (Michael W. Deem and Ramdas Pophale) SiO2 
 PCOD9022190
Probable space group: P -1
;
_chemical_formula_sum "Si O2"
_cell_formula_units_Z 12
_cell_length_a 8.071167
_cell_length_b 5.320787
_cell_length_c 14.349667
_cell_angle_alpha 98.406187
_cell_angle_beta 115.123977
_cell_angle_gamma 53.659874
_cell_volume 444.712317
_symmetry_space_group_name_H-M "P -1"
_symmetry_group_IT_number 2
_symmetry_cell_setting 'triclinic'
loop_
_space_group_symop_operation_xyz
x,y,z
-x,-y,-z
loop_
_atom_site_type_symbol
_atom_site_label
_atom_site_fract_x
_atom_site_fract_y
_atom_site_fract_z
Si Si1 0.188244 0.609153 0.112934
Si Si2 0.357300 0.855885 0.409748
Si Si3 0.803394 0.497302 0.614210
Si Si4 0.249658 0.298230 0.924226
Si Si5 0.515469 0.127139 0.798645
Si Si6 0.197236 0.178663 0.577912
O O1 0.319094 0.767707 0.160972
O O2 0.944948 0.758168 0.113182
O O3 0.347738 0.241496 0.163388
O O4 0.165612 0.577945 0.993594
O O5 0.618948 0.674653 0.494062
O O6 0.303983 0.619471 0.348562
O O7 0.209915 0.196823 0.344166
O O8 0.263172 0.929457 0.500016
O O9 0.052174 0.194596 0.631476
O O10 0.313811 0.335374 0.837696
O O11 0.500000 0.000000 0.000000
O O12 0.395850 0.173752 0.673557
O O13 0.000000 0.500000 0.500000
#
# Coordination Sequence:
#
# PCOD9022190 Si02
#       6
#     2   2   2   2   2   2
#     4  10  23  42  67  98 132 166 208 270 331 392
#     4   9  18  33  52  75 102 142 199 255 302 346
#     4   9  18  33  53  74 101 145 199 251 300 348
#     4   9  21  43  71  99 130 166 210 263 332 402
#     4  11  24  40  63  97 133 172 217 265 323 386
#     4  10  22  39  59  85 124 172 218 263 310 368
#
# _framework density 26.983737999999999
#
# number of rings (size 3 to 8) (size 9 to 14) (size 15 to 20)
#    0.000    2.333    0.000    1.000    0.000   15.333 
#    0.000    5.000    0.000    0.000    0.000    0.000 
#    0.000    0.000    0.000    0.000    0.000    0.000 
#
# Total GULP energy -66991.743540 kJ/mol
# GULP energy per Si atom -5582.645295 kJ/mol
# Density = 2.692232 g / cm^3
# Si number density = 26.983738 Si / 1000 Ang^3
#
#
#
# Elastic Constant Matrix: (Units=GPa)
#
#
# Indices 1 2 3 4 5 6 
#
# 1 172.2987 51.1092 43.7529 20.2073 28.6445 -22.4879
# 2 51.1092 100.6411 19.8231 8.7091 14.1458 12.1544
# 3 43.7529 19.8231 121.1152 7.6312 6.5727 3.4886
# 4 20.2073 8.7091 7.6312 30.3376 1.6318 6.8514
# 5 28.6445 14.1458 6.5727 1.6318 60.7085 12.0751
# 6 -22.4879 12.1544 3.4886 6.8514 12.0751 67.6017
#
#
#
# Elastic Compliance Matrix: (Units=1/GPa)
#
#
# Indices 1 2 3 4 5 6 
#
# 1 0.009693 -0.004004 -0.002410 -0.005692 -0.004304 0.005415
# 2 -0.004004 0.012529 -0.000488 0.000001 -0.000279 -0.003510
# 3 -0.002410 -0.000488 0.009236 -0.000323 0.000508 -0.001249
# 4 -0.005692 0.000001 -0.000323 0.038091 0.002942 -0.006263
# 5 -0.004304 -0.000279 0.000508 0.002942 0.019465 -0.005183
# 6 0.005415 -0.003510 -0.001249 -0.006263 -0.005183 0.018850
#
#
# Mechanical properties :
#
#
# Convention : Reuss Voigt Hill
#
# Bulk Modulus (GPa) = 56.64576 69.26950 62.95763
# Shear Modulus (GPa) = 39.19939 50.35420 44.77680
#
# Velocity S-wave (km/s) = 3.81557 4.32452 4.07799
# Velocity P-wave (km/s) = 6.36000 7.11771 6.74950
#
# Compressibility (1/GPa) = 0.01765357
#
# Stress axis : x y z
#
# Youngs Moduli (GPa) = 103.16216 79.81480 108.27353
#
# Poissons Ratio (x) = 0.31961 0.26095
# Poissons Ratio (y) = 0.41310 0.05282
# Poissons Ratio (z) = 0.24863 0.03894
#
# Static dielectric constant tensor:
#      x y z
#    x 2.638310 -0.045740 -0.053050 
#    y -0.045740 2.125220 0.026380 
#    z -0.053050 0.026380 2.180830 
# 
# From -- ./inp_files/486679.got.cif
#   From: 2010.05.17/outbox.cif.g08.bks.cpg/sg2_244_cif.got.tgz:486679.got - 2010.06.03 11:33:40.
