data_PCOD9022717
_publ_section_title
;
Structure prediction by ZEFSAII (Michael W. Deem and Ramdas Pophale) SiO2 
 PCOD9022717
Probable space group: P -1
;
_chemical_formula_sum "Si O2"
_cell_formula_units_Z 14
_cell_length_a 16.095405
_cell_length_b 12.568417
_cell_length_c 5.291449
_cell_angle_alpha 109.001813
_cell_angle_beta 73.902047
_cell_angle_gamma 143.293994
_cell_volume 604.690146
_symmetry_space_group_name_H-M "P -1"
_symmetry_group_IT_number 2
_symmetry_cell_setting 'triclinic'
loop_
_space_group_symop_operation_xyz
x,y,z
-x,-y,-z
loop_
_atom_site_type_symbol
_atom_site_label
_atom_site_fract_x
_atom_site_fract_y
_atom_site_fract_z
Si Si1 0.615881 0.525292 0.859472
Si Si2 0.150029 0.128419 0.777751
Si Si3 0.930530 0.343512 0.631016
Si Si4 0.001291 0.817499 0.022557
Si Si5 0.248038 0.023129 0.349217
Si Si6 0.567074 0.331588 0.248218
Si Si7 0.175201 0.550270 0.936345
O O1 0.601487 0.452170 0.543255
O O2 0.500000 0.500000 0.000000
O O3 0.761316 0.734197 0.955146
O O4 0.597379 0.416547 0.016018
O O5 0.250535 0.154527 0.543823
O O6 0.078653 0.164512 0.741625
O O7 0.041859 0.928011 0.824872
O O8 0.000000 0.500000 0.500000
O O9 0.063690 0.422601 0.709220
O O10 0.821835 0.133233 0.508517
O O11 0.843975 0.340323 0.882595
O O12 0.893305 0.605444 0.921972
O O13 0.140163 0.917102 0.123986
O O14 0.402872 0.141164 0.252467
O O15 0.672204 0.333555 0.177175
#
# Coordination Sequence:
#
# PCOD9022717 Si02
#       7
#     2   2   2   2   2   2   2
#     4  12  25  43  67 101 150 189 230 272 349 417
#     4  11  22  37  66  99 134 186 232 282 336 421
#     4  10  23  45  73  95 132 181 236 296 349 413
#     4  10  22  39  63  97 136 179 232 283 343 407
#     4  11  24  41  66  98 138 178 231 289 351 408
#     4  12  27  44  70 105 141 189 228 291 348 421
#     4  10  23  44  67 101 135 180 235 289 353 413
#
# _framework density 23.152352
#
# number of rings (size 3 to 8) (size 9 to 14) (size 15 to 20)
#    0.000    1.143    2.857    2.571    4.000    5.143 
#    0.000    0.714    0.000    0.000    0.000    0.000 
#    0.000    0.000    0.000    0.000    0.000    0.000 
#
# Total GULP energy -78196.922392 kJ/mol
# GULP energy per Si atom -5585.494457 kJ/mol
# Density = 2.309966 g / cm^3
# Si number density = 23.152352 Si / 1000 Ang^3
#
#
#
# Elastic Constant Matrix: (Units=GPa)
#
#
# Indices 1 2 3 4 5 6 
#
# 1 155.6487 55.3215 24.7363 -7.3560 -27.5232 35.0117
# 2 55.3215 104.2786 18.9514 -2.6650 -7.1252 12.1948
# 3 24.7363 18.9514 52.4018 8.1652 -4.6712 8.7407
# 4 -7.3560 -2.6650 8.1652 26.1650 -5.8021 -1.4381
# 5 -27.5232 -7.1252 -4.6712 -5.8021 32.4530 -13.9979
# 6 35.0117 12.1948 8.7407 -1.4381 -13.9979 49.7361
#
#
#
# Elastic Compliance Matrix: (Units=1/GPa)
#
#
# Indices 1 2 3 4 5 6 
#
# 1 0.010685 -0.004058 -0.003068 0.004868 0.006918 -0.003900
# 2 -0.004058 0.012175 -0.002704 0.000729 -0.000989 0.000089
# 3 -0.003068 -0.002704 0.023056 -0.008989 -0.002420 -0.002170
# 4 0.004868 0.000729 -0.008989 0.045341 0.012284 0.002743
# 5 0.006918 -0.000989 -0.002420 0.012284 0.041716 0.007894
# 6 -0.003900 0.000089 -0.002170 0.002743 0.007894 0.025512
#
#
# Mechanical properties :
#
#
# Convention : Reuss Voigt Hill
#
# Bulk Modulus (GPa) = 38.08557 56.70527 47.39542
# Shear Modulus (GPa) = 26.75274 35.89216 31.32245
#
# Velocity S-wave (km/s) = 3.40297 3.94161 3.68215
# Velocity P-wave (km/s) = 5.65030 6.72759 6.21234
#
# Compressibility (1/GPa) = 0.02625666
#
# Stress axis : x y z
#
# Youngs Moduli (GPa) = 93.58839 82.13876 43.37221
#
# Poissons Ratio (x) = 0.33332 0.13305
# Poissons Ratio (y) = 0.37978 0.11728
# Poissons Ratio (z) = 0.28709 0.22211
#
# Static dielectric constant tensor:
#      x y z
#    x 1.919960 -0.036740 0.000700 
#    y -0.036740 1.914340 -0.064700 
#    z 0.000700 -0.064700 1.986440 
# 
# From -- ./inp_files/95252.got.cif
#   From: 2010.05.17/outbox.cif.g08.bks.cpg/sg2_48_cif.got.tgz:95252.got - 2010.06.03 11:33:40.
