data_PCOD9022511
_publ_section_title
;
Structure prediction by ZEFSAII (Michael W. Deem and Ramdas Pophale) SiO2 
 PCOD9022511
Probable space group: P -1
;
_chemical_formula_sum "Si O2"
_cell_formula_units_Z 13
_cell_length_a 6.582548
_cell_length_b 22.469345
_cell_length_c 6.927568
_cell_angle_alpha 131.951205
_cell_angle_beta 117.442441
_cell_angle_gamma 44.526054
_cell_volume 534.116914
_symmetry_space_group_name_H-M "P -1"
_symmetry_group_IT_number 2
_symmetry_cell_setting 'triclinic'
loop_
_space_group_symop_operation_xyz
x,y,z
-x,-y,-z
loop_
_atom_site_type_symbol
_atom_site_label
_atom_site_fract_x
_atom_site_fract_y
_atom_site_fract_z
Si Si1 0.500000 0.000000 0.000000
Si Si2 0.009764 0.263891 0.282955
Si Si3 0.915263 0.428063 0.849275
Si Si4 0.714523 0.395696 0.059552
Si Si5 0.542012 0.908668 0.432101
Si Si6 0.207187 0.762062 0.502555
Si Si7 0.383286 0.896988 0.944744
O O1 0.420214 0.952406 0.684090
O O2 0.244912 0.008656 0.050160
O O3 0.288270 0.149294 0.097618
O O4 0.086977 0.324557 0.579175
O O5 0.801776 0.258578 0.319986
O O6 0.870597 0.327982 0.167963
O O7 0.914545 0.405742 0.027096
O O8 0.576716 0.493697 0.780397
O O9 0.000000 0.500000 0.000000
O O10 0.617870 0.340961 0.765856
O O11 0.880332 0.817281 0.404535
O O12 0.500000 0.000000 0.500000
O O13 0.405400 0.880385 0.147970
O O14 0.308261 0.830289 0.669037
#
# Coordination Sequence:
#
# PCOD9022511 Si02
#       7
#     1   2   2   2   2   2   2
#     4  10  22  42  64  86 128 158 208 258 306 370
#     4  11  22  40  63  92 129 162 210 257 303 376
#     4  10  22  39  62  92 127 164 205 254 306 367
#     4  10  22  40  62  92 128 161 208 255 302 373
#     4  10  22  42  62  91 124 159 212 258 303 376
#     4  11  23  41  65  92 127 166 207 257 313 365
#     4  11  23  41  65  92 125 168 205 258 314 363
#
# _framework density 24.339238999999999
#
# number of rings (size 3 to 8) (size 9 to 14) (size 15 to 20)
#    0.000    1.538    3.077    1.385    0.000    5.538 
#    0.000    2.308    0.000    0.000    0.000    0.000 
#    0.000    0.000    0.000    0.000    0.000    0.000 
#
# Total GULP energy -72395.463624 kJ/mol
# GULP energy per Si atom -5568.881817 kJ/mol
# Density = 2.428384 g / cm^3
# Si number density = 24.339239 Si / 1000 Ang^3
#
#
#
# Elastic Constant Matrix: (Units=GPa)
#
#
# Indices 1 2 3 4 5 6 
#
# 1 69.5609 15.6203 35.4584 2.9315 8.8875 34.8653
# 2 15.6203 82.9801 15.6796 -22.1384 -12.9880 14.3026
# 3 35.4584 15.6796 121.2342 -5.0878 -12.6291 4.6545
# 4 2.9315 -22.1384 -5.0878 60.5659 13.3806 -11.2901
# 5 8.8875 -12.9880 -12.6291 13.3806 42.5495 16.4154
# 6 34.8653 14.3026 4.6545 -11.2901 16.4154 52.4317
#
#
#
# Elastic Compliance Matrix: (Units=1/GPa)
#
#
# Indices 1 2 3 4 5 6 
#
# 1 0.028649 -0.002291 -0.007551 -0.006609 0.000629 -0.019375
# 2 -0.002291 0.014921 -0.000461 0.003835 0.004934 -0.003225
# 3 -0.007551 -0.000461 0.010732 0.001111 0.002914 0.003521
# 4 -0.006609 0.003835 0.001111 0.022091 -0.008138 0.010555
# 5 0.000629 0.004934 0.002914 -0.008138 0.033846 -0.014372
# 6 -0.019375 -0.003225 0.003521 0.010555 -0.014372 0.039296
#
#
# Mechanical properties :
#
#
# Convention : Reuss Voigt Hill
#
# Bulk Modulus (GPa) = 29.67800 45.25466 37.46633
# Shear Modulus (GPa) = 27.56768 44.91054 36.23911
#
# Velocity S-wave (km/s) = 3.36913 4.30023 3.86283
# Velocity P-wave (km/s) = 5.23017 6.57948 5.94324
#
# Compressibility (1/GPa) = 0.03369500
#
# Stress axis : x y z
#
# Youngs Moduli (GPa) = 34.90537 67.02070 93.18320
#
# Poissons Ratio (x) = 0.15358 0.70361
# Poissons Ratio (y) = 0.07998 0.04294
# Poissons Ratio (z) = 0.26357 0.03088
#
# Static dielectric constant tensor:
#      x y z
#    x 1.949900 -0.175440 -0.016760 
#    y -0.175440 1.567530 -0.046890 
#    z -0.016760 -0.046890 2.021580 
# 
# From -- ./inp_files/4547.got.cif
#   From: 2010.05.17/outbox.cif.g08.bks.cpg/sg2_3_cif.got.tgz:4547.got - 2010.06.03 11:33:40.
