data_PCOD9022377
_publ_section_title
;
Structure prediction by ZEFSAII (Michael W. Deem and Ramdas Pophale) SiO2 
 PCOD9022377
Probable space group: P -1
;
_chemical_formula_sum "Si O2"
_cell_formula_units_Z 14
_cell_length_a 13.945319
_cell_length_b 7.935885
_cell_length_c 15.341747
_cell_angle_alpha 85.902775
_cell_angle_beta 27.494383
_cell_angle_gamma 101.842010
_cell_volume 635.052083
_symmetry_space_group_name_H-M "P -1"
_symmetry_group_IT_number 2
_symmetry_cell_setting 'triclinic'
loop_
_space_group_symop_operation_xyz
x,y,z
-x,-y,-z
loop_
_atom_site_type_symbol
_atom_site_label
_atom_site_fract_x
_atom_site_fract_y
_atom_site_fract_z
Si Si1 0.754020 0.222382 0.104827
Si Si2 0.211553 0.233151 0.462457
Si Si3 0.726973 0.723788 0.272158
Si Si4 0.514628 0.117615 0.117419
Si Si5 0.232985 0.010113 0.616895
Si Si6 0.800391 0.287033 0.717856
Si Si7 0.730220 0.605115 0.089415
O O1 0.703555 0.179113 0.043872
O O2 0.492959 0.048634 0.371395
O O3 0.774787 0.435108 0.095475
O O4 0.003099 0.241423 0.931263
O O5 0.283463 0.115041 0.344583
O O6 0.183043 0.139913 0.584855
O O7 0.968703 0.216900 0.626474
O O8 0.468068 0.469529 0.251795
O O9 0.500000 0.500000 0.500000
O O10 0.726910 0.892064 0.323580
O O11 0.694264 0.715580 0.195008
O O12 0.403594 0.892334 0.176382
O O13 0.648021 0.282941 0.924956
O O14 0.983615 0.776122 0.827456
O O15 0.000000 0.500000 0.500000
#
# Coordination Sequence:
#
# PCOD9022377 Si02
#       7
#     2   2   2   2   2   2   2
#     4  10  23  41  61  85 123 160 194 251 294 344
#     4  10  22  41  61  85 124 156 190 252 294 345
#     4  12  21  39  62  88 126 159 197 249 294 344
#     4   9  22  40  59  88 117 156 196 238 299 351
#     4  10  22  41  59  87 122 160 203 240 294 349
#     4  11  23  39  63  91 116 151 197 243 299 358
#     4  10  22  39  61  91 118 163 203 238 295 348
#
# _framework density 22.045435000000001
#
# number of rings (size 3 to 8) (size 9 to 14) (size 15 to 20)
#    0.000    2.000    2.857    2.143    0.000    9.143 
#    2.571    0.000    0.000    0.000    0.000    0.000 
#    0.000    0.000    0.000    0.000    0.000    0.000 
#
# Total GULP energy -78277.500070 kJ/mol
# GULP energy per Si atom -5591.250005 kJ/mol
# Density = 2.199526 g / cm^3
# Si number density = 22.045435 Si / 1000 Ang^3
#
#
#
# Elastic Constant Matrix: (Units=GPa)
#
#
# Indices 1 2 3 4 5 6 
#
# 1 51.7237 25.1503 12.6597 3.3587 -1.0367 12.5497
# 2 25.1503 49.5462 18.5051 1.9545 15.3352 29.1810
# 3 12.6597 18.5051 128.9089 -21.8149 21.9335 4.3070
# 4 3.3587 1.9545 -21.8149 42.0950 -4.5631 3.8345
# 5 -1.0367 15.3352 21.9335 -4.5631 32.3883 3.7697
# 6 12.5497 29.1810 4.3070 3.8345 3.7697 30.4464
#
#
#
# Elastic Compliance Matrix: (Units=1/GPa)
#
#
# Indices 1 2 3 4 5 6 
#
# 1 0.029217 -0.022941 -0.002249 -0.001953 0.011995 0.009024
# 2 -0.022941 0.077320 -0.001945 -0.000380 -0.029011 -0.060735
# 3 -0.002249 -0.001945 0.009918 0.004693 -0.005376 0.001463
# 4 -0.001953 -0.000380 0.004693 0.026749 0.001056 -0.002994
# 5 0.011995 -0.029011 -0.005376 0.001056 0.046724 0.017703
# 6 0.009024 -0.060735 0.001463 -0.002994 0.017703 0.085314
#
#
# Mechanical properties :
#
#
# Convention : Reuss Voigt Hill
#
# Bulk Modulus (GPa) = 16.08133 38.08989 27.08561
# Shear Modulus (GPa) = 14.27593 32.57686 23.42639
#
# Velocity S-wave (km/s) = 2.54750 3.84828 3.26335
# Velocity P-wave (km/s) = 3.99543 6.08778 5.14900
#
# Compressibility (1/GPa) = 0.06218392
#
# Stress axis : x y z
#
# Youngs Moduli (GPa) = 34.22717 12.93327 100.83029
#
# Poissons Ratio (x) = 0.29670 0.22677
# Poissons Ratio (y) = 0.78520 0.19616
# Poissons Ratio (z) = 0.07698 0.02516
#
# Static dielectric constant tensor:
#      x y z
#    x 1.816580 -0.012360 0.017530 
#    y -0.012360 1.815370 0.003390 
#    z 0.017530 0.003390 1.798480 
# 
# From -- ./inp_files/315312.got.cif
#   From: 2010.05.17/outbox.cif.g08.bks.cpg/sg2_158_cif.got.tgz:315312.got - 2010.06.03 11:33:40.
