data_PCOD9022362
_publ_section_title
;
Structure prediction by ZEFSAII (Michael W. Deem and Ramdas Pophale) SiO2 
 PCOD9022362
Probable space group: P -1
;
_chemical_formula_sum "Si O2"
_cell_formula_units_Z 16
_cell_length_a 14.993933
_cell_length_b 11.271647
_cell_length_c 11.831333
_cell_angle_alpha 141.517249
_cell_angle_beta 35.707303
_cell_angle_gamma 123.740535
_cell_volume 708.294300
_symmetry_space_group_name_H-M "P -1"
_symmetry_group_IT_number 2
_symmetry_cell_setting 'triclinic'
loop_
_space_group_symop_operation_xyz
x,y,z
-x,-y,-z
loop_
_atom_site_type_symbol
_atom_site_label
_atom_site_fract_x
_atom_site_fract_y
_atom_site_fract_z
Si Si1 0.884187 0.359690 0.496995
Si Si2 0.080145 0.681728 0.822773
Si Si3 0.829065 0.931091 0.956402
Si Si4 0.702489 0.593659 0.458743
Si Si5 0.377456 0.115156 0.056894
Si Si6 0.406752 0.689901 0.171098
Si Si7 0.464281 0.310778 0.514097
Si Si8 0.280412 0.121410 0.730265
O O1 0.837744 0.381220 0.430108
O O2 0.752154 0.382085 0.743644
O O3 0.000000 0.500000 0.500000
O O4 0.995569 0.150199 0.243122
O O5 0.132679 0.512874 0.734938
O O6 0.169469 0.845731 0.895362
O O7 0.895174 0.770565 0.053539
O O8 0.724618 0.885715 0.134037
O O9 0.777334 0.840224 0.829220
O O10 0.658858 0.805938 0.721555
O O11 0.570425 0.469408 0.533048
O O12 0.685084 0.608589 0.353250
O O13 0.494957 0.238952 0.974835
O O14 0.445681 0.886146 0.791432
O O15 0.338318 0.893552 0.462230
O O16 0.500000 0.500000 0.000000
O O17 0.403537 0.236227 0.637049
#
# Coordination Sequence:
#
# PCOD9022362 Si02
#       8
#     2   2   2   2   2   2   2   2
#     4  11  21  35  54  88 126 160 196 236 305 372
#     4  11  20  38  62  85 121 163 198 248 300 362
#     4  11  20  38  61  90 123 160 193 243 313 364
#     4  11  23  43  65  87 119 161 218 246 298 362
#     4  11  24  38  64  92 123 159 201 255 302 361
#     4  11  21  34  53  88 125 161 195 242 296 366
#     4  10  24  43  64  88 120 165 202 260 300 348
#     4  10  22  39  61  89 127 159 199 250 304 365
#
# _framework density 22.589480999999999
#
# number of rings (size 3 to 8) (size 9 to 14) (size 15 to 20)
#    0.000    1.250    3.750    3.375    0.000    6.500 
#    0.000    0.000    0.000    0.750    0.000    0.000 
#    0.000    0.000    0.000    0.000    0.000    0.000 
#
# Total GULP energy -89276.530635 kJ/mol
# GULP energy per Si atom -5579.783165 kJ/mol
# Density = 2.253807 g / cm^3
# Si number density = 22.589481 Si / 1000 Ang^3
#
#
#
# Elastic Constant Matrix: (Units=GPa)
#
#
# Indices 1 2 3 4 5 6 
#
# 1 72.4116 -12.9185 14.3691 3.3329 -5.6321 -1.8743
# 2 -12.9185 49.9188 -3.2755 0.8192 4.8426 19.4032
# 3 14.3691 -3.2755 53.7128 15.9673 -0.2317 -0.8881
# 4 3.3329 0.8192 15.9673 28.2476 0.6345 -3.4850
# 5 -5.6321 4.8426 -0.2317 0.6345 29.5881 10.5973
# 6 -1.8743 19.4032 -0.8881 -3.4850 10.5973 30.4484
#
#
#
# Elastic Compliance Matrix: (Units=1/GPa)
#
#
# Indices 1 2 3 4 5 6 
#
# 1 0.015616 0.004796 -0.003834 -0.000313 0.003390 -0.003423
# 2 0.004796 0.028802 0.001592 -0.004813 0.003385 -0.019742
# 3 -0.003834 0.001592 0.023638 -0.013228 0.000253 -0.002163
# 4 -0.000313 -0.004813 -0.013228 0.044239 -0.003531 0.008954
# 5 0.003390 0.003385 0.000253 -0.003531 0.039763 -0.016184
# 6 -0.003423 -0.019742 -0.002163 0.008954 -0.016184 0.051807
#
#
# Mechanical properties :
#
#
# Convention : Reuss Voigt Hill
#
# Bulk Modulus (GPa) = 13.66769 19.15484 16.41127
# Shear Modulus (GPa) = 22.40703 29.51470 25.96087
#
# Velocity S-wave (km/s) = 3.15290 3.61857 3.39373
# Velocity P-wave (km/s) = 4.39522 5.09477 4.75787
#
# Compressibility (1/GPa) = 0.07316523
#
# Stress axis : x y z
#
# Youngs Moduli (GPa) = 64.03726 34.71947 42.30483
#
# Poissons Ratio (x) = -0.16653 0.16220
# Poissons Ratio (y) = -0.30714 -0.06736
# Poissons Ratio (z) = 0.24552 -0.05528
#
# Static dielectric constant tensor:
#      x y z
#    x 1.858730 -0.002360 -0.084720 
#    y -0.002360 1.886950 0.089270 
#    z -0.084720 0.089270 2.023460 
# 
# From -- ./inp_files/179279.got.cif
#   From: 2010.05.17/outbox.cif.g08.bks.cpg/sg2_90_cif.got.tgz:179279.got - 2010.06.03 11:33:40.
