data_PCOD9022201
_publ_section_title
;
Structure prediction by ZEFSAII (Michael W. Deem and Ramdas Pophale) SiO2 
 PCOD9022201
Probable space group: P -1
;
_chemical_formula_sum "Si O2"
_cell_formula_units_Z 16
_cell_length_a 13.222613
_cell_length_b 11.493286
_cell_length_c 20.193170
_cell_angle_alpha 28.396481
_cell_angle_beta 29.517015
_cell_angle_gamma 36.785880
_cell_volume 710.788263
_symmetry_space_group_name_H-M "P -1"
_symmetry_group_IT_number 2
_symmetry_cell_setting 'triclinic'
loop_
_space_group_symop_operation_xyz
x,y,z
-x,-y,-z
loop_
_atom_site_type_symbol
_atom_site_label
_atom_site_fract_x
_atom_site_fract_y
_atom_site_fract_z
Si Si1 0.667962 0.178162 0.897222
Si Si2 0.024884 0.442374 0.093099
Si Si3 0.255542 0.725965 0.556606
Si Si4 0.002899 0.276051 0.413532
Si Si5 0.313339 0.917595 0.213740
Si Si6 0.989566 0.964563 0.917169
Si Si7 0.404690 0.413151 0.164688
Si Si8 0.325571 0.098985 0.752509
O O1 0.563668 0.412534 0.880077
O O2 0.668097 0.215976 0.800258
O O3 0.536838 0.953356 0.095798
O O4 0.893590 0.097486 0.839204
O O5 0.821304 0.359373 0.285962
O O6 0.071438 0.683873 0.986367
O O7 0.195448 0.197726 0.128421
O O8 0.000000 0.500000 0.000000
O O9 0.112812 0.601526 0.646952
O O10 0.155435 0.011132 0.451296
O O11 0.503367 0.722557 0.417904
O O12 0.160689 0.429101 0.282113
O O13 0.818427 0.218046 0.593760
O O14 0.798979 0.955135 0.082687
O O15 0.151341 0.112798 0.787699
O O16 0.519242 0.138147 0.244928
O O17 0.500000 0.500000 0.000000
#
# Coordination Sequence:
#
# PCOD9022201 Si02
#       8
#     2   2   2   2   2   2   2   2
#     4  11  22  38  63  88 118 162 202 248 295 355
#     4  11  22  39  63  88 123 161 196 241 301 362
#     4   9  20  38  62  89 120 156 199 248 296 353
#     4   9  20  36  63  91 117 153 201 254 294 345
#     4  10  22  41  64  87 120 159 205 247 295 354
#     4  11  22  37  61  88 124 158 198 247 299 356
#     4  11  22  36  62  89 120 157 201 247 300 355
#     4  10  22  39  59  89 122 155 199 251 300 349
#
# _framework density 22.51022
#
# number of rings (size 3 to 8) (size 9 to 14) (size 15 to 20)
#    0.000    1.750    2.500    1.500    7.000    1.000 
#    0.000    1.875    2.750    0.000    0.000    0.000 
#    0.000    0.000    0.000    0.000    0.000    0.000 
#
# Total GULP energy -89322.736759 kJ/mol
# GULP energy per Si atom -5582.671047 kJ/mol
# Density = 2.245899 g / cm^3
# Si number density = 22.510220 Si / 1000 Ang^3
#
#
#
# Elastic Constant Matrix: (Units=GPa)
#
#
# Indices 1 2 3 4 5 6 
#
# 1 146.0304 36.5796 61.2638 8.8226 -25.2291 14.1474
# 2 36.5796 77.4346 2.3637 -5.6069 -3.8172 14.0083
# 3 61.2638 2.3637 87.4976 18.8064 -10.4507 -1.6920
# 4 8.8226 -5.6069 18.8064 33.8207 0.0055 -8.6342
# 5 -25.2291 -3.8172 -10.4507 0.0055 31.9644 -0.5371
# 6 14.1474 14.0083 -1.6920 -8.6342 -0.5371 46.3658
#
#
#
# Elastic Compliance Matrix: (Units=1/GPa)
#
#
# Indices 1 2 3 4 5 6 
#
# 1 0.013020 -0.005097 -0.008106 -0.000432 0.006972 -0.002728
# 2 -0.005097 0.015818 0.002533 0.001827 -0.001354 -0.002807
# 3 -0.008106 0.002533 0.018695 -0.007613 0.000035 0.000973
# 4 -0.000432 0.001827 -0.007613 0.035730 -0.002518 0.005926
# 5 0.006972 -0.001354 0.000035 -0.002518 0.036608 -0.001762
# 6 -0.002728 -0.002807 0.000973 0.005926 -0.001762 0.024367
#
#
# Mechanical properties :
#
#
# Convention : Reuss Voigt Hill
#
# Bulk Modulus (GPa) = 38.17807 56.81963 47.49885
# Shear Modulus (GPa) = 28.68444 36.48054 32.58249
#
# Velocity S-wave (km/s) = 3.57359 4.03006 3.80867
# Velocity P-wave (km/s) = 5.83305 6.85213 6.36303
#
# Compressibility (1/GPa) = 0.02619305
#
# Stress axis : x y z
#
# Youngs Moduli (GPa) = 76.80249 63.21878 53.48915
#
# Poissons Ratio (x) = 0.32225 0.43359
# Poissons Ratio (y) = 0.39149 -0.13549
# Poissons Ratio (z) = 0.62257 -0.16013
#
# Static dielectric constant tensor:
#      x y z
#    x 1.823480 -0.087160 -0.023740 
#    y -0.087160 2.558240 -0.185250 
#    z -0.023740 -0.185250 1.857200 
# 
# From -- ./inp_files/595037.got.cif
#   From: 2010.05.17/outbox.cif.g08.bks.cpg/sg2_298_cif.got.tgz:595037.got - 2010.06.03 11:33:40.
