data_PCOD9022109
_publ_section_title
;
Structure prediction by ZEFSAII (Michael W. Deem and Ramdas Pophale) SiO2 
 PCOD9022109
Probable space group: P -1
;
_chemical_formula_sum "Si O2"
_cell_formula_units_Z 14
_cell_length_a 14.550354
_cell_length_b 8.736495
_cell_length_c 9.145592
_cell_angle_alpha 99.267911
_cell_angle_beta 59.656758
_cell_angle_gamma 141.793066
_cell_volume 556.662018
_symmetry_space_group_name_H-M "P -1"
_symmetry_group_IT_number 2
_symmetry_cell_setting 'triclinic'
loop_
_space_group_symop_operation_xyz
x,y,z
-x,-y,-z
loop_
_atom_site_type_symbol
_atom_site_label
_atom_site_fract_x
_atom_site_fract_y
_atom_site_fract_z
Si Si1 0.426629 0.364579 0.302304
Si Si2 0.367489 0.665732 0.899560
Si Si3 0.064915 0.523210 0.114369
Si Si4 0.814149 0.736904 0.751640
Si Si5 0.255987 0.113050 0.704045
Si Si6 0.588430 0.271907 0.453940
Si Si7 0.041628 0.290088 0.614570
O O1 0.428249 0.179531 0.243734
O O2 0.344611 0.369978 0.239803
O O3 0.304617 0.249288 0.529672
O O4 0.648230 0.667723 0.211382
O O5 0.312927 0.584259 0.759143
O O6 0.286754 0.744706 0.992976
O O7 0.278597 0.472958 0.079488
O O8 0.015612 0.604385 0.278628
O O9 0.943783 0.216063 0.182445
O O10 0.000000 0.500000 0.000000
O O11 0.955646 0.788030 0.559423
O O12 0.928215 0.025822 0.758903
O O13 0.408802 0.161542 0.595489
O O14 0.740122 0.463293 0.486058
O O15 0.500000 0.000000 0.500000
#
# Coordination Sequence:
#
# PCOD9022109 Si02
#       7
#     2   2   2   2   2   2   2
#     4  10  23  44  69 104 136 184 231 292 342 415
#     4  11  26  43  72 106 136 183 235 286 350 411
#     4  12  25  44  70 108 136 180 236 296 341 406
#     4  11  26  47  68 102 145 185 230 286 355 413
#     4  10  22  38  75  98 134 181 240 280 346 406
#     4  11  20  45  71 102 135 180 235 286 339 409
#     4  11  25  44  73  98 147 184 224 291 351 410
#
# _framework density 25.149908
#
# number of rings (size 3 to 8) (size 9 to 14) (size 15 to 20)
#    0.000    1.143    4.286    0.429    6.000    1.714 
#    0.000    1.429    0.000    0.000    0.000    0.000 
#    0.000    0.000    0.000    0.000    0.000    0.000 
#
# Total GULP energy -77966.897873 kJ/mol
# GULP energy per Si atom -5569.064134 kJ/mol
# Density = 2.509267 g / cm^3
# Si number density = 25.149908 Si / 1000 Ang^3
#
#
#
# Elastic Constant Matrix: (Units=GPa)
#
#
# Indices 1 2 3 4 5 6 
#
# 1 155.0394 23.6761 24.2160 21.0805 -16.4856 -3.4826
# 2 23.6761 93.4879 -4.3433 4.4037 6.5764 4.1373
# 3 24.2160 -4.3433 72.1878 10.1682 -11.2032 -6.8401
# 4 21.0805 4.4037 10.1682 26.7302 -21.3096 -5.1648
# 5 -16.4856 6.5764 -11.2032 -21.3096 42.8977 4.0295
# 6 -3.4826 4.1373 -6.8401 -5.1648 4.0295 33.6848
#
#
#
# Elastic Compliance Matrix: (Units=1/GPa)
#
#
# Indices 1 2 3 4 5 6 
#
# 1 0.007726 -0.001845 -0.001988 -0.004756 0.000385 -0.000153
# 2 -0.001845 0.011828 0.001163 -0.004793 -0.004448 -0.001610
# 3 -0.001988 0.001163 0.015430 -0.002940 0.001424 0.002164
# 4 -0.004756 -0.004793 -0.002940 0.070103 0.032364 0.006377
# 5 0.000385 -0.004448 0.001424 0.032364 0.040497 0.000993
# 6 -0.000153 -0.001610 0.002164 0.006377 0.000993 0.031167
#
#
# Mechanical properties :
#
#
# Convention : Reuss Voigt Hill
#
# Bulk Modulus (GPa) = 33.73429 45.31253 39.52341
# Shear Modulus (GPa) = 26.04539 39.14027 32.59283
#
# Velocity S-wave (km/s) = 3.22157 3.94925 3.60383
# Velocity P-wave (km/s) = 5.22307 6.23310 5.75030
#
# Compressibility (1/GPa) = 0.02964343
#
# Stress axis : x y z
#
# Youngs Moduli (GPa) = 129.42642 84.54591 64.81017
#
# Poissons Ratio (x) = 0.15602 0.12883
# Poissons Ratio (y) = 0.23884 -0.07537
# Poissons Ratio (z) = 0.25727 -0.09832
#
# Static dielectric constant tensor:
#      x y z
#    x 1.992620 -0.045940 -0.013420 
#    y -0.045940 2.116080 -0.000320 
#    z -0.013420 -0.000320 2.041020 
# 
# From -- ./inp_files/189832.got.cif
#   From: 2010.05.17/outbox.cif.g08.bks.cpg/sg2_95_cif.got.tgz:189832.got - 2010.06.03 11:33:40.
