data_PCOD9022547
_publ_section_title
;
Structure prediction by ZEFSAII (Michael W. Deem and Ramdas Pophale) SiO2 
 PCOD9022547
Probable space group: P -1
;
_chemical_formula_sum "Si O2"
_cell_formula_units_Z 14
_cell_length_a 6.251056
_cell_length_b 19.802324
_cell_length_c 7.664896
_cell_angle_alpha 50.101978
_cell_angle_beta 56.986809
_cell_angle_gamma 68.598147
_cell_volume 610.208951
_symmetry_space_group_name_H-M "P -1"
_symmetry_group_IT_number 2
_symmetry_cell_setting 'triclinic'
loop_
_space_group_symop_operation_xyz
x,y,z
-x,-y,-z
loop_
_atom_site_type_symbol
_atom_site_label
_atom_site_fract_x
_atom_site_fract_y
_atom_site_fract_z
Si Si1 0.458622 0.796233 0.187375
Si Si2 0.050407 0.637357 0.294980
Si Si3 0.134453 0.263049 0.118638
Si Si4 0.154555 0.641823 0.633945
Si Si5 0.026059 0.098430 0.670097
Si Si6 0.736765 0.934742 0.038023
Si Si7 0.431728 0.490970 0.249645
O O1 0.362401 0.714037 0.478219
O O2 0.218104 0.863255 0.174434
O O3 0.570723 0.753289 0.034223
O O4 0.684534 0.850394 0.084736
O O5 0.064231 0.667983 0.437933
O O6 0.306500 0.580431 0.231508
O O7 0.799820 0.576160 0.504232
O O8 0.007729 0.707211 0.044260
O O9 0.070344 0.340156 0.158706
O O10 0.056734 0.169820 0.388671
O O11 0.306687 0.549219 0.717385
O O12 0.971469 0.999744 0.794543
O O13 0.250324 0.093947 0.718550
O O14 0.500000 0.000000 0.000000
O O15 0.500000 0.500000 0.000000
#
# Coordination Sequence:
#
# PCOD9022547 Si02
#       7
#     2   2   2   2   2   2   2
#     4  10  22  39  62  95 132 163 217 265 314 382
#     4  11  25  43  66  93 134 167 219 272 317 389
#     4  11  23  41  63 100 127 172 219 259 323 387
#     4  11  24  43  64  95 131 173 214 271 326 373
#     4   9  21  41  66  95 133 170 213 267 324 373
#     4   9  19  43  68  93 133 169 212 271 311 384
#     4  11  23  45  67  95 128 172 220 269 322 384
#
# _framework density 22.942959999999999
#
# number of rings (size 3 to 8) (size 9 to 14) (size 15 to 20)
#    0.000    1.714    2.857    0.429    4.000    2.286 
#    7.714    6.429    0.000    0.000    0.000    0.000 
#    0.000    0.000    0.000    0.000    0.000    0.000 
#
# Total GULP energy -78113.920750 kJ/mol
# GULP energy per Si atom -5579.565768 kJ/mol
# Density = 2.289074 g / cm^3
# Si number density = 22.942960 Si / 1000 Ang^3
#
#
#
# Elastic Constant Matrix: (Units=GPa)
#
#
# Indices 1 2 3 4 5 6 
#
# 1 65.7071 32.8341 43.5663 3.3863 18.7315 -5.1607
# 2 32.8341 83.7454 28.2015 0.6280 1.1501 -1.3906
# 3 43.5663 28.2015 124.4232 -1.1340 27.4171 -9.2749
# 4 3.3863 0.6280 -1.1340 43.8177 -7.7819 -1.8573
# 5 18.7315 1.1501 27.4171 -7.7819 45.4099 2.4675
# 6 -5.1607 -1.3906 -9.2749 -1.8573 2.4675 21.4995
#
#
#
# Elastic Compliance Matrix: (Units=1/GPa)
#
#
# Indices 1 2 3 4 5 6 
#
# 1 0.025318 -0.008038 -0.005012 -0.003218 -0.007984 0.004033
# 2 -0.008038 0.015603 -0.001820 0.001026 0.004310 -0.002111
# 3 -0.005012 -0.001820 0.011663 -0.000020 -0.005165 0.004302
# 4 -0.003218 0.001026 -0.000020 0.024045 0.005393 0.000744
# 5 -0.007984 0.004310 -0.005165 0.005393 0.029618 -0.006799
# 6 0.004033 -0.002111 0.004302 0.000744 -0.006799 0.050045
#
#
# Mechanical properties :
#
#
# Convention : Reuss Voigt Hill
#
# Bulk Modulus (GPa) = 43.77456 53.67548 48.72502
# Shear Modulus (GPa) = 25.82021 33.43033 29.62527
#
# Velocity S-wave (km/s) = 3.35835 3.82135 3.59731
# Velocity P-wave (km/s) = 5.84459 6.55105 6.20787
#
# Compressibility (1/GPa) = 0.02284432
#
# Stress axis : x y z
#
# Youngs Moduli (GPa) = 39.49819 64.08948 85.73842
#
# Poissons Ratio (x) = 0.51512 0.42976
# Poissons Ratio (y) = 0.31747 0.15604
# Poissons Ratio (z) = 0.19798 0.11664
#
# Static dielectric constant tensor:
#      x y z
#    x 1.892530 0.013950 -0.034830 
#    y 0.013950 1.903090 -0.000410 
#    z -0.034830 -0.000410 1.876190 
# 
# From -- ./inp_files/10164.got.cif
#   From: 2010.05.17/outbox.cif.g08.bks.cpg/sg2_6_cif.got.tgz:10164.got - 2010.06.03 11:33:40.
