data_PCOD9022582
_publ_section_title
;
Structure prediction by ZEFSAII (Michael W. Deem and Ramdas Pophale) SiO2 
 PCOD9022582
Probable space group: P -1
;
_chemical_formula_sum "Si O2"
_cell_formula_units_Z 16
_cell_length_a 12.887615
_cell_length_b 12.360765
_cell_length_c 9.416966
_cell_angle_alpha 59.882673
_cell_angle_beta 136.768751
_cell_angle_gamma 131.754741
_cell_volume 766.118659
_symmetry_space_group_name_H-M "P -1"
_symmetry_group_IT_number 2
_symmetry_cell_setting 'triclinic'
loop_
_space_group_symop_operation_xyz
x,y,z
-x,-y,-z
loop_
_atom_site_type_symbol
_atom_site_label
_atom_site_fract_x
_atom_site_fract_y
_atom_site_fract_z
Si Si1 0.306520 0.289686 0.537675
Si Si2 0.112866 0.862809 0.236911
Si Si3 0.036205 0.391004 0.520995
Si Si4 0.247428 0.197004 0.212306
Si Si5 0.603595 0.939973 0.230517
Si Si6 0.613018 0.438224 0.393403
Si Si7 0.083170 0.779417 0.746198
Si Si8 0.301552 0.786500 0.236789
O O1 0.295058 0.255758 0.381458
O O2 0.394327 0.198428 0.741057
O O3 0.405732 0.450567 0.594389
O O4 0.104514 0.233883 0.411471
O O5 0.243711 0.842030 0.278338
O O6 0.051227 0.756539 0.379569
O O7 0.197627 0.031042 0.251262
O O8 0.930252 0.808526 0.006841
O O9 0.244200 0.466734 0.646629
O O10 0.000000 0.500000 0.500000
O O11 0.946095 0.349196 0.303800
O O12 0.424906 0.312241 0.231818
O O13 0.498022 0.894726 0.302860
O O14 0.799553 0.071364 0.320445
O O15 0.500000 0.000000 0.000000
O O16 0.696254 0.357505 0.619444
O O17 0.173582 0.771044 0.987859
#
# Coordination Sequence:
#
# PCOD9022582 Si02
#       8
#     2   2   2   2   2   2   2   2
#     4  11  21  42  68  96 136 176 224 274 337 402
#     4  11  25  45  70  96 134 183 229 273 330 408
#     4  11  24  43  64  99 140 174 220 277 345 393
#     4  11  24  44  70  96 132 183 229 274 333 397
#     4  10  22  39  63 102 133 167 223 281 330 386
#     4  11  25  42  70 102 135 180 219 283 338 397
#     4  10  23  41  68  98 135 179 222 280 329 399
#     4  11  22  42  68 102 129 176 232 269 336 396
#
# _framework density 20.884494
#
# number of rings (size 3 to 8) (size 9 to 14) (size 15 to 20)
#    0.000    1.250    3.750    1.500    0.000    6.000 
#    6.750    0.000    0.000    0.000    0.000    0.000 
#    0.000    0.000    0.000    0.000    0.000    0.000 
#
# Total GULP energy -89259.009853 kJ/mol
# GULP energy per Si atom -5578.688116 kJ/mol
# Density = 2.083696 g / cm^3
# Si number density = 20.884494 Si / 1000 Ang^3
#
#
#
# Elastic Constant Matrix: (Units=GPa)
#
#
# Indices 1 2 3 4 5 6 
#
# 1 124.9400 56.6628 27.0509 -1.1203 3.8472 0.2298
# 2 56.6628 116.1190 17.5674 2.3077 6.2794 0.8809
# 3 27.0509 17.5674 62.0092 -8.0176 12.5766 -9.8473
# 4 -1.1203 2.3077 -8.0176 26.1086 -1.7937 8.7197
# 5 3.8472 6.2794 12.5766 -1.7937 28.3150 -2.2905
# 6 0.2298 0.8809 -9.8473 8.7197 -2.2905 47.2132
#
#
#
# Elastic Compliance Matrix: (Units=1/GPa)
#
#
# Indices 1 2 3 4 5 6 
#
# 1 0.010984 -0.004851 -0.003765 0.000061 0.001203 -0.000701
# 2 -0.004851 0.011243 -0.000992 -0.001550 -0.001506 -0.000180
# 3 -0.003765 -0.000992 0.020765 0.004718 -0.007941 0.003111
# 4 0.000061 -0.001550 0.004718 0.042172 0.000365 -0.006758
# 5 0.001203 -0.001506 -0.007941 0.000365 0.039053 0.000193
# 6 -0.000701 -0.000180 0.003111 -0.006758 0.000193 0.023094
#
#
# Mechanical properties :
#
#
# Convention : Reuss Voigt Hill
#
# Bulk Modulus (GPa) = 42.06090 56.18114 49.12102
# Shear Modulus (GPa) = 28.66114 33.77982 31.22048
#
# Velocity S-wave (km/s) = 3.70856 4.02613 3.87060
# Velocity P-wave (km/s) = 6.20656 6.96938 6.59900
#
# Compressibility (1/GPa) = 0.02377505
#
# Stress axis : x y z
#
# Youngs Moduli (GPa) = 91.04289 88.94542 48.15857
#
# Poissons Ratio (x) = 0.43149 0.18130
# Poissons Ratio (y) = 0.44167 0.04779
# Poissons Ratio (z) = 0.34274 0.08827
#
# Static dielectric constant tensor:
#      x y z
#    x 1.780550 0.052920 -0.011360 
#    y 0.052920 1.773700 -0.009250 
#    z -0.011360 -0.009250 1.777070 
# 
# From -- ./inp_files/262189.got.cif
#   From: 2010.05.17/outbox.cif.g08.bks.cpg/sg2_132_cif.got.tgz:262189.got - 2010.06.03 11:33:40.
