data_PCOD9022249
_publ_section_title
;
Structure prediction by ZEFSAII (Michael W. Deem and Ramdas Pophale) SiO2 
 PCOD9022249
Probable space group: P -1
;
_chemical_formula_sum "Si O2"
_cell_formula_units_Z 10
_cell_length_a 7.334653
_cell_length_b 5.081485
_cell_length_c 19.600949
_cell_angle_alpha 127.223680
_cell_angle_beta 130.575344
_cell_angle_gamma 47.649233
_cell_volume 391.570607
_symmetry_space_group_name_H-M "P -1"
_symmetry_group_IT_number 2
_symmetry_cell_setting 'triclinic'
loop_
_space_group_symop_operation_xyz
x,y,z
-x,-y,-z
loop_
_atom_site_type_symbol
_atom_site_label
_atom_site_fract_x
_atom_site_fract_y
_atom_site_fract_z
Si Si1 0.415715 0.669404 0.931447
Si Si2 0.199542 0.277689 0.574331
Si Si3 0.689114 0.415084 0.719502
Si Si4 0.868150 0.302411 0.889564
Si Si5 0.247914 0.362554 0.381257
O O1 0.591110 0.373474 0.870346
O O2 0.500000 0.500000 0.000000
O O3 0.095582 0.875124 0.874402
O O4 0.500000 0.000000 0.000000
O O5 0.381760 0.485093 0.667195
O O6 0.000000 0.500000 0.500000
O O7 0.003514 0.294143 0.590689
O O8 0.440979 0.864030 0.549017
O O9 0.800156 0.492014 0.828803
O O10 0.715343 0.578248 0.679783
O O11 0.838453 0.965325 0.680544
O O12 0.000000 0.500000 0.000000
#
# Coordination Sequence:
#
# PCOD9022249 Si02
#       5
#     2   2   2   2   2
#     4  10  22  39  60  88 118 161 213 259 307 369
#     4  10  24  45  69  98 131 171 215 266 326 394
#     4  10  26  42  67  96 137 168 219 269 322 382
#     4  10  23  42  64  93 127 172 215 262 317 376
#     4  10  25  41  67  98 133 169 216 266 326 384
#
# _framework density 25.538177000000001
#
# number of rings (size 3 to 8) (size 9 to 14) (size 15 to 20)
#    1.200    0.800    0.000    1.200    5.600    8.000 
#    0.000    0.000    0.000    0.000    0.000    0.000 
#    0.000    0.000    0.000    0.000    0.000    0.000 
#
# Total GULP energy -55869.122420 kJ/mol
# GULP energy per Si atom -5586.912242 kJ/mol
# Density = 2.548005 g / cm^3
# Si number density = 25.538177 Si / 1000 Ang^3
#
#
#
# Elastic Constant Matrix: (Units=GPa)
#
#
# Indices 1 2 3 4 5 6 
#
# 1 140.9502 68.1816 52.2304 -12.6224 -28.5867 -37.9114
# 2 68.1816 137.1167 43.4537 -30.0403 -17.9013 -36.4366
# 3 52.2304 43.4537 138.9688 -46.2316 -8.9482 -21.8575
# 4 -12.6224 -30.0403 -46.2316 37.5726 12.2748 -11.3633
# 5 -28.5867 -17.9013 -8.9482 12.2748 47.7252 2.5426
# 6 -37.9114 -36.4366 -21.8575 -11.3633 2.5426 65.4880
#
#
#
# Elastic Compliance Matrix: (Units=1/GPa)
#
#
# Indices 1 2 3 4 5 6 
#
# 1 0.012389 -0.005298 -0.005301 -0.008536 0.006596 0.000717
# 2 -0.005298 0.015906 0.006650 0.023700 -0.002707 0.012220
# 3 -0.005301 0.006650 0.020578 0.035211 -0.006618 0.013866
# 4 -0.008536 0.023700 0.035211 0.103728 -0.018362 0.038709
# 5 0.006596 -0.002707 -0.006618 -0.018362 0.027592 -0.004154
# 6 0.000717 0.012220 0.013866 0.038709 -0.004154 0.033990
#
#
# Mechanical properties :
#
#
# Convention : Reuss Voigt Hill
#
# Bulk Modulus (GPa) = 24.40675 82.75192 53.57934
# Shear Modulus (GPa) = 21.20972 47.03515 34.12244
#
# Velocity S-wave (km/s) = 2.88498 4.29623 3.65928
# Velocity P-wave (km/s) = 4.54700 7.55537 6.23534
#
# Compressibility (1/GPa) = 0.04097227
#
# Stress axis : x y z
#
# Youngs Moduli (GPa) = 80.71958 62.86761 48.59623
#
# Poissons Ratio (x) = 0.33310 0.25763
# Poissons Ratio (y) = 0.42769 -0.32315
# Poissons Ratio (z) = 0.42793 -0.41805
#
# Static dielectric constant tensor:
#      x y z
#    x 2.046900 0.011390 0.057170 
#    y 0.011390 1.576880 -0.021400 
#    z 0.057170 -0.021400 1.989480 
# 
# From -- ./inp_files/2646.got.cif
#   From: 2010.05.17/outbox.cif.g08.bks.cpg/sg2_2_cif.got.tgz:2646.got - 2010.06.03 11:33:40.
