data_PCOD9022468
_publ_section_title
;
Structure prediction by ZEFSAII (Michael W. Deem and Ramdas Pophale) SiO2 
 PCOD9022468
Probable space group: P -1
;
_chemical_formula_sum "Si O2"
_cell_formula_units_Z 14
_cell_length_a 8.424602
_cell_length_b 8.668395
_cell_length_c 12.471426
_cell_angle_alpha 134.238972
_cell_angle_beta 107.478001
_cell_angle_gamma 76.154290
_cell_volume 621.786279
_symmetry_space_group_name_H-M "P -1"
_symmetry_group_IT_number 2
_symmetry_cell_setting 'triclinic'
loop_
_space_group_symop_operation_xyz
x,y,z
-x,-y,-z
loop_
_atom_site_type_symbol
_atom_site_label
_atom_site_fract_x
_atom_site_fract_y
_atom_site_fract_z
Si Si1 0.757753 0.230348 0.303538
Si Si2 0.817180 0.315382 0.124137
Si Si3 0.826514 0.125658 0.498997
Si Si4 0.466481 0.983407 0.110482
Si Si5 0.940227 0.788608 0.046717
Si Si6 0.606088 0.727915 0.208522
Si Si7 0.242453 0.643591 0.183613
O O1 0.791897 0.370763 0.272607
O O2 0.832414 0.252188 0.447845
O O3 0.559431 0.199034 0.268854
O O4 0.843063 0.006434 0.166984
O O5 0.733121 0.522486 0.146466
O O6 0.718789 0.101034 0.968727
O O7 0.998306 0.259738 0.085757
O O8 0.779969 0.280207 0.662225
O O9 0.693534 0.937975 0.372870
O O10 0.000000 0.000000 0.500000
O O11 0.555521 0.800819 0.113980
O O12 0.500000 0.000000 0.000000
O O13 0.108221 0.776100 0.146561
O O14 0.822409 0.595067 0.954407
O O15 0.431985 0.677094 0.204667
#
# Coordination Sequence:
#
# PCOD9022468 Si02
#       7
#     2   2   2   2   2   2   2
#     4  10  22  39  62  89 126 160 203 256 308 360
#     4  11  21  37  62  95 123 159 205 253 309 360
#     4  11  22  42  63  89 123 164 206 253 305 366
#     4   9  19  34  57  89 122 154 196 251 302 354
#     4  11  22  37  63  92 123 158 209 257 301 358
#     4  11  22  38  64  91 124 164 203 246 308 372
#     4  11  23  38  63  93 121 161 210 252 304 362
#
# _framework density 22.515774
#
# number of rings (size 3 to 8) (size 9 to 14) (size 15 to 20)
#    0.000    1.429    2.857    3.000    6.000    0.000 
#    0.000    3.571    0.000    0.000    0.000    0.000 
#    0.000    0.000    0.000    0.000    0.000    0.000 
#
# Total GULP energy -78058.372249 kJ/mol
# GULP energy per Si atom -5575.598018 kJ/mol
# Density = 2.246453 g / cm^3
# Si number density = 22.515774 Si / 1000 Ang^3
#
#
#
# Elastic Constant Matrix: (Units=GPa)
#
#
# Indices 1 2 3 4 5 6 
#
# 1 101.8654 25.6610 23.8887 -5.8715 0.7299 17.3722
# 2 25.6610 106.2398 28.2731 -34.7256 -9.6399 11.6254
# 3 23.8887 28.2731 78.6258 -30.2266 -1.2014 -3.4761
# 4 -5.8715 -34.7256 -30.2266 41.1559 4.8873 -5.8246
# 5 0.7299 -9.6399 -1.2014 4.8873 33.0772 -4.2855
# 6 17.3722 11.6254 -3.4761 -5.8246 -4.2855 35.4547
#
#
#
# Elastic Compliance Matrix: (Units=1/GPa)
#
#
# Indices 1 2 3 4 5 6 
#
# 1 0.012568 -0.002708 -0.005098 -0.005029 -0.001385 -0.006764
# 2 -0.002708 0.013999 -0.000009 0.010971 0.002366 -0.001176
# 3 -0.005098 -0.000009 0.020471 0.015346 -0.000511 0.006967
# 4 -0.005029 0.010971 0.015346 0.045405 -0.001858 0.007606
# 5 -0.001385 0.002366 -0.000511 -0.001858 0.031645 0.003373
# 6 -0.006764 -0.001176 0.006967 0.007606 0.003373 0.034245
#
#
# Mechanical properties :
#
#
# Convention : Reuss Voigt Hill
#
# Bulk Modulus (GPa) = 31.84108 49.15297 40.49702
# Shear Modulus (GPa) = 27.11014 35.86478 31.48746
#
# Velocity S-wave (km/s) = 3.47371 3.99541 3.74366
# Velocity P-wave (km/s) = 5.50102 6.56980 6.05902
#
# Compressibility (1/GPa) = 0.03140597
#
# Stress axis : x y z
#
# Youngs Moduli (GPa) = 79.56542 71.43591 48.85054
#
# Poissons Ratio (x) = 0.19347 0.24906
# Poissons Ratio (y) = 0.21549 0.00044
# Poissons Ratio (z) = 0.40565 0.00065
#
# Static dielectric constant tensor:
#      x y z
#    x 1.871560 0.010890 0.045080 
#    y 0.010890 1.903040 -0.031000 
#    z 0.045080 -0.031000 1.854160 
# 
# From -- ./inp_files/153799.got.cif
#   From: 2010.05.17/outbox.cif.g08.bks.cpg/sg2_77_cif.got.tgz:153799.got - 2010.06.03 11:33:40.
