data_PCOD9022443
_publ_section_title
;
Structure prediction by ZEFSAII (Michael W. Deem and Ramdas Pophale) SiO2 
 PCOD9022443
Probable space group: P -1
;
_chemical_formula_sum "Si O2"
_cell_formula_units_Z 15
_cell_length_a 10.684424
_cell_length_b 13.431408
_cell_length_c 6.844842
_cell_angle_alpha 68.075143
_cell_angle_beta 89.678737
_cell_angle_gamma 47.495456
_cell_volume 626.566608
_symmetry_space_group_name_H-M "P -1"
_symmetry_group_IT_number 2
_symmetry_cell_setting 'triclinic'
loop_
_space_group_symop_operation_xyz
x,y,z
-x,-y,-z
loop_
_atom_site_type_symbol
_atom_site_label
_atom_site_fract_x
_atom_site_fract_y
_atom_site_fract_z
Si Si1 0.684390 0.087535 0.206223
Si Si2 0.490900 0.516716 0.757136
Si Si3 0.439667 0.933817 0.170538
Si Si4 0.976383 0.092080 0.166461
Si Si5 0.771036 0.239733 0.690660
Si Si6 0.866458 0.820676 0.686934
Si Si7 0.365358 0.336061 0.332695
Si Si8 0.000000 0.500000 0.000000
O O1 0.504731 0.221125 0.238411
O O2 0.824311 0.099501 0.217769
O O3 0.781431 0.921953 0.416606
O O4 0.633601 0.097667 0.976575
O O5 0.605860 0.355510 0.760870
O O6 0.293172 0.642892 0.566898
O O7 0.581214 0.576579 0.667488
O O8 0.500000 0.500000 0.000000
O O9 0.588917 0.776041 0.411683
O O10 0.289487 0.068835 0.226515
O O11 0.500000 0.000000 0.000000
O O12 0.938525 0.155367 0.898745
O O13 0.983032 0.188654 0.234258
O O14 0.167136 0.908939 0.303049
O O15 0.934025 0.658597 0.800991
O O16 0.162996 0.456161 0.163318
#
# Coordination Sequence:
#
# PCOD9022443 Si02
#       8
#     2   2   2   2   2   2   2   1
#     4  11  23  43  73 102 131 177 228 279 341 405
#     4  11  23  41  66 100 143 181 213 272 350 410
#     4  11  23  45  72  96 131 185 235 277 328 396
#     4  11  21  42  71 100 136 177 223 284 340 397
#     4  10  22  39  62 100 140 172 217 266 326 407
#     4  11  25  44  68 100 137 175 226 281 334 407
#     4  11  25  44  67  98 135 176 228 278 333 409
#     4  12  26  46  64  92 138 176 216 284 338 390
#
# _framework density 23.939993000000001
#
# number of rings (size 3 to 8) (size 9 to 14) (size 15 to 20)
#    0.000    1.067    0.000    7.600    0.000    5.333 
#    0.000   10.667    0.000    0.000    0.000    0.000 
#    0.000    0.000    0.000    0.000    0.000    0.000 
#
# Total GULP energy -83691.874255 kJ/mol
# GULP energy per Si atom -5579.458284 kJ/mol
# Density = 2.388550 g / cm^3
# Si number density = 23.939993 Si / 1000 Ang^3
#
#
#
# Elastic Constant Matrix: (Units=GPa)
#
#
# Indices 1 2 3 4 5 6 
#
# 1 68.7887 20.0858 25.7091 -3.5506 -6.1739 11.8523
# 2 20.0858 76.5452 46.3808 -14.2945 -6.8235 10.3891
# 3 25.7091 46.3808 179.5519 -7.8450 5.6755 -14.8375
# 4 -3.5506 -14.2945 -7.8450 47.7091 1.4370 -9.9381
# 5 -6.1739 -6.8235 5.6755 1.4370 36.6515 -3.2491
# 6 11.8523 10.3891 -14.8375 -9.9381 -3.2491 28.6972
#
#
#
# Elastic Compliance Matrix: (Units=1/GPa)
#
#
# Indices 1 2 3 4 5 6 
#
# 1 0.017747 -0.001819 -0.002911 -0.001533 0.002414 -0.008434
# 2 -0.001819 0.018409 -0.005055 0.002966 0.003154 -0.007143
# 3 -0.002911 -0.005055 0.008017 0.001181 -0.002067 0.007352
# 4 -0.001533 0.002966 0.001181 0.023673 -0.000076 0.008359
# 5 0.002414 0.003154 -0.002067 -0.000076 0.028601 0.000004
# 6 -0.008434 -0.007143 0.007352 0.008359 0.000004 0.047612
#
#
# Mechanical properties :
#
#
# Convention : Reuss Voigt Hill
#
# Bulk Modulus (GPa) = 40.64790 56.58189 48.61490
# Shear Modulus (GPa) = 29.09821 38.12556 33.61189
#
# Velocity S-wave (km/s) = 3.49013 3.99500 3.75107
# Velocity P-wave (km/s) = 5.76692 6.70569 6.25394
#
# Compressibility (1/GPa) = 0.02460151
#
# Stress axis : x y z
#
# Youngs Moduli (GPa) = 56.34648 54.32075 124.74056
#
# Poissons Ratio (x) = 0.09882 0.36318
# Poissons Ratio (y) = 0.10250 0.63059
# Poissons Ratio (z) = 0.16405 0.27460
#
# Static dielectric constant tensor:
#      x y z
#    x 1.978850 -0.043090 -0.009720 
#    y -0.043090 1.922790 -0.003960 
#    z -0.009720 -0.003960 1.920190 
# 
# From -- ./inp_files/97721.got.cif
#   From: 2010.05.17/outbox.cif.g08.bks.cpg/sg2_49_cif.got.tgz:97721.got - 2010.06.03 11:33:40.
