data_PCOD9022171
_publ_section_title
;
Structure prediction by ZEFSAII (Michael W. Deem and Ramdas Pophale) SiO2 
 PCOD9022171
Probable space group: P -1
;
_chemical_formula_sum "Si O2"
_cell_formula_units_Z 16
_cell_length_a 5.981017
_cell_length_b 17.439008
_cell_length_c 21.703787
_cell_angle_alpha 162.828749
_cell_angle_beta 96.630571
_cell_angle_gamma 83.793230
_cell_volume 663.840894
_symmetry_space_group_name_H-M "P -1"
_symmetry_group_IT_number 2
_symmetry_cell_setting 'triclinic'
loop_
_space_group_symop_operation_xyz
x,y,z
-x,-y,-z
loop_
_atom_site_type_symbol
_atom_site_label
_atom_site_fract_x
_atom_site_fract_y
_atom_site_fract_z
Si Si1 0.690426 0.043780 0.849557
Si Si2 0.005423 0.718137 0.531558
Si Si3 0.424698 0.155240 0.695174
Si Si4 0.775890 0.307864 0.603186
Si Si5 0.794919 0.518418 0.960585
Si Si6 0.866985 0.522848 0.161302
Si Si7 0.426962 0.523008 0.445415
Si Si8 0.604474 0.343586 0.194917
O O1 0.507118 0.819457 0.659279
O O2 0.684663 0.309414 0.013848
O O3 0.688379 0.120223 0.980254
O O4 0.916428 0.915853 0.731451
O O5 0.145721 0.826302 0.560957
O O6 0.163530 0.517400 0.418739
O O7 0.796144 0.565969 0.377179
O O8 0.666770 0.241171 0.743880
O O9 0.250500 0.270217 0.728179
O O10 0.375987 0.861146 0.485120
O O11 0.380370 0.294131 0.866789
O O12 0.623225 0.547067 0.760096
O O13 0.006884 0.367055 0.690999
O O14 0.919277 0.587970 0.955228
O O15 0.000000 0.500000 0.000000
O O16 0.500000 0.500000 0.500000
O O17 0.542067 0.317913 0.245486
#
# Coordination Sequence:
#
# PCOD9022171 Si02
#       8
#     2   2   2   2   2   2   2   2
#     4  11  24  42  69  99 135 178 221 269 331 404
#     4  10  23  44  70  96 138 175 218 272 338 392
#     4  10  22  39  58  89 127 175 230 288 327 380
#     4  11  23  40  64  93 135 175 234 282 326 389
#     4   9  21  37  54  82 121 161 225 277 341 383
#     4  11  23  37  62  90 127 179 230 276 335 386
#     4  10  25  47  74 105 135 168 214 270 336 406
#     4  10  24  43  66 103 135 177 225 266 332 403
#
# _framework density 24.102160000000001
#
# number of rings (size 3 to 8) (size 9 to 14) (size 15 to 20)
#    0.000    1.750    1.250    1.125    3.500   14.000 
#    0.000    1.250    0.000    0.000    0.000    0.000 
#    0.000    0.000    0.000    0.000    0.000    0.000 
#
# Total GULP energy -89326.548717 kJ/mol
# GULP energy per Si atom -5582.909295 kJ/mol
# Density = 2.404730 g / cm^3
# Si number density = 24.102160 Si / 1000 Ang^3
#
#
#
# Elastic Constant Matrix: (Units=GPa)
#
#
# Indices 1 2 3 4 5 6 
#
# 1 80.4222 38.1043 25.3171 -16.7713 2.3887 0.0425
# 2 38.1043 113.0050 37.0125 -45.0411 -4.7778 -4.8280
# 3 25.3171 37.0125 100.9884 -37.0724 -16.2674 12.7508
# 4 -16.7713 -45.0411 -37.0724 40.9936 18.4697 -4.8523
# 5 2.3887 -4.7778 -16.2674 18.4697 38.7547 -15.8307
# 6 0.0425 -4.8280 12.7508 -4.8523 -15.8307 24.7077
#
#
#
# Elastic Compliance Matrix: (Units=1/GPa)
#
#
# Indices 1 2 3 4 5 6 
#
# 1 0.015522 -0.004348 -0.002324 0.000897 -0.003646 -0.001837
# 2 -0.004348 0.019418 0.001346 0.024317 -0.006965 0.003420
# 3 -0.002324 0.001346 0.016150 0.015799 -0.003345 -0.007107
# 4 0.000897 0.024317 0.015799 0.078920 -0.031285 -0.007949
# 5 -0.003646 -0.006965 -0.003345 -0.031285 0.049192 0.025745
# 6 -0.001837 0.003420 -0.007107 -0.007949 0.025745 0.059747
#
#
# Mechanical properties :
#
#
# Convention : Reuss Voigt Hill
#
# Bulk Modulus (GPa) = 24.72911 55.03150 39.88030
# Shear Modulus (GPa) = 19.00558 33.82332 26.41445
#
# Velocity S-wave (km/s) = 2.81115 3.75017 3.31409
# Velocity P-wave (km/s) = 4.56280 6.45243 5.58807
#
# Compressibility (1/GPa) = 0.04043817
#
# Stress axis : x y z
#
# Youngs Moduli (GPa) = 64.42322 51.49843 61.92084
#
# Poissons Ratio (x) = 0.22392 0.14390
# Poissons Ratio (y) = 0.28011 -0.08335
# Poissons Ratio (z) = 0.14972 -0.06932
#
# Static dielectric constant tensor:
#      x y z
#    x 1.947780 0.037680 -0.031960 
#    y 0.037680 1.931460 0.018570 
#    z -0.031960 0.018570 2.026290 
# 
# From -- ./inp_files/584088.got.cif
#   From: 2010.05.17/outbox.cif.g08.bks.cpg/sg2_293_cif.got.tgz:584088.got - 2010.06.03 11:33:40.
