data_PCOD9022507
_publ_section_title
;
Structure prediction by ZEFSAII (Michael W. Deem and Ramdas Pophale) SiO2 
 PCOD9022507
Probable space group: P -1
;
_chemical_formula_sum "Si O2"
_cell_formula_units_Z 14
_cell_length_a 14.920592
_cell_length_b 9.351163
_cell_length_c 9.334379
_cell_angle_alpha 135.806707
_cell_angle_beta 130.177295
_cell_angle_gamma 40.790712
_cell_volume 577.941080
_symmetry_space_group_name_H-M "P -1"
_symmetry_group_IT_number 2
_symmetry_cell_setting 'triclinic'
loop_
_space_group_symop_operation_xyz
x,y,z
-x,-y,-z
loop_
_atom_site_type_symbol
_atom_site_label
_atom_site_fract_x
_atom_site_fract_y
_atom_site_fract_z
Si Si1 0.393240 0.246505 0.473748
Si Si2 0.894146 0.389919 0.906682
Si Si3 0.645156 0.241225 0.171067
Si Si4 0.201460 0.942290 0.378577
Si Si5 0.908596 0.829270 0.301846
Si Si6 0.479959 0.762972 0.686811
Si Si7 0.191842 0.105233 0.168721
O O1 0.405274 0.474851 0.692040
O O2 0.416380 0.226680 0.310103
O O3 0.242396 0.289294 0.375617
O O4 0.500000 0.000000 0.500000
O O5 0.787706 0.313147 0.778140
O O6 0.951383 0.306948 0.745621
O O7 0.844795 0.665505 0.087314
O O8 0.038477 0.230503 0.032107
O O9 0.540731 0.205503 0.139632
O O10 0.791594 0.095708 0.308032
O O11 0.692010 0.104230 0.969042
O O12 0.330334 0.940173 0.579866
O O13 0.073574 0.134964 0.488081
O O14 0.188957 0.003112 0.245248
O O15 0.500000 0.500000 0.500000
#
# Coordination Sequence:
#
# PCOD9022507 Si02
#       7
#     2   2   2   2   2   2   2
#     4  11  22  42  64  88 125 160 204 255 306 362
#     4  10  22  39  62  92 123 158 212 248 303 368
#     4   9  22  41  63  91 123 159 208 253 303 360
#     4  11  21  39  61  88 129 160 200 256 309 357
#     4   9  21  39  62  90 120 166 205 247 303 367
#     4   9  20  40  62  87 118 163 204 247 301 358
#     4  11  24  39  61  94 125 160 203 254 310 363
#
# _framework density 24.223922999999999
#
# number of rings (size 3 to 8) (size 9 to 14) (size 15 to 20)
#    0.000    2.000    1.429    0.857    0.000   15.429 
#    0.000    0.000    0.000    0.000    0.000    0.000 
#    0.000    0.000    0.000    0.000    0.000    0.000 
#
# Total GULP energy -78213.991554 kJ/mol
# GULP energy per Si atom -5586.713682 kJ/mol
# Density = 2.416879 g / cm^3
# Si number density = 24.223923 Si / 1000 Ang^3
#
#
#
# Elastic Constant Matrix: (Units=GPa)
#
#
# Indices 1 2 3 4 5 6 
#
# 1 99.5688 39.4476 40.2285 -3.8722 -7.8679 38.1618
# 2 39.4476 106.7918 28.9818 5.9536 -21.0496 22.2897
# 3 40.2285 28.9818 70.8077 -7.9673 -22.3513 15.8432
# 4 -3.8722 5.9536 -7.9673 29.9493 7.3578 -1.6880
# 5 -7.8679 -21.0496 -22.3513 7.3578 52.6017 -6.3023
# 6 38.1618 22.2897 15.8432 -1.6880 -6.3023 40.6221
#
#
#
# Elastic Compliance Matrix: (Units=1/GPa)
#
#
# Indices 1 2 3 4 5 6 
#
# 1 0.019511 -0.002876 -0.007656 0.001076 -0.003342 -0.014239
# 2 -0.002876 0.012681 -0.002137 -0.004618 0.004024 -0.002990
# 3 -0.007656 -0.002137 0.021655 0.003580 0.006836 0.001128
# 4 0.001076 -0.004618 0.003580 0.036725 -0.005202 0.000846
# 5 -0.003342 0.004024 0.006836 -0.005202 0.023965 0.001767
# 6 -0.014239 -0.002990 0.001128 0.000846 0.001767 0.039504
#
#
# Mechanical properties :
#
#
# Convention : Reuss Voigt Hill
#
# Bulk Modulus (GPa) = 35.07500 54.94267 45.00883
# Shear Modulus (GPa) = 26.47152 35.86864 31.17008
#
# Velocity S-wave (km/s) = 3.30931 3.85218 3.59102
# Velocity P-wave (km/s) = 5.39565 6.52044 5.98453
#
# Compressibility (1/GPa) = 0.02851033
#
# Stress axis : x y z
#
# Youngs Moduli (GPa) = 51.25271 78.85698 46.17876
#
# Poissons Ratio (x) = 0.22682 0.35353
# Poissons Ratio (y) = 0.14742 0.09866
# Poissons Ratio (z) = 0.39237 0.16848
#
# Static dielectric constant tensor:
#      x y z
#    x 2.008970 -0.039050 -0.003560 
#    y -0.039050 1.962970 0.000770 
#    z -0.003560 0.000770 1.944830 
# 
# From -- ./inp_files/137159.got.cif
#   From: 2010.05.17/outbox.cif.g08.bks.cpg/sg2_69_cif.got.tgz:137159.got - 2010.06.03 11:33:40.
