data_PCOD9022449
_publ_section_title
;
Structure prediction by ZEFSAII (Michael W. Deem and Ramdas Pophale) SiO2 
 PCOD9022449
Probable space group: P -1
;
_chemical_formula_sum "Si O2"
_cell_formula_units_Z 12
_cell_length_a 11.516070
_cell_length_b 8.839883
_cell_length_c 21.770026
_cell_angle_alpha 56.419977
_cell_angle_beta 20.787181
_cell_angle_gamma 52.442533
_cell_volume 622.402915
_symmetry_space_group_name_H-M "P -1"
_symmetry_group_IT_number 2
_symmetry_cell_setting 'triclinic'
loop_
_space_group_symop_operation_xyz
x,y,z
-x,-y,-z
loop_
_atom_site_type_symbol
_atom_site_label
_atom_site_fract_x
_atom_site_fract_y
_atom_site_fract_z
Si Si1 0.235812 0.137579 0.685714
Si Si2 0.630084 0.482073 0.760195
Si Si3 0.768898 0.314317 0.339234
Si Si4 0.437720 0.304441 0.377581
Si Si5 0.228141 0.921972 0.185157
Si Si6 0.771022 0.408014 0.940080
O O1 0.416188 0.302042 0.547228
O O2 0.010020 0.128987 0.738641
O O3 0.993588 0.201336 0.850453
O O4 0.499672 0.923098 0.609735
O O5 0.488924 0.609474 0.742043
O O6 0.593912 0.270187 0.822962
O O7 0.048542 0.428292 0.562059
O O8 0.439466 0.576203 0.895833
O O9 0.689180 0.314107 0.306208
O O10 0.966447 0.467652 0.214137
O O11 0.015752 0.108014 0.285209
O O12 0.500000 0.000000 0.000000
O O13 0.500000 0.500000 0.000000
#
# Coordination Sequence:
#
# PCOD9022449 Si02
#       6
#     2   2   2   2   2   2
#     4  11  21  38  59  88 118 150 195 234 290 341
#     4  11  21  38  61  85 119 149 197 232 295 332
#     4  11  20  37  63  86 112 154 199 233 284 340
#     4  10  22  39  62  83 117 155 191 242 277 348
#     4  11  18  36  61  87 110 151 199 237 275 340
#     4  12  23  37  60  89 118 149 192 244 290 340
#
# _framework density 19.280114999999999
#
# number of rings (size 3 to 8) (size 9 to 14) (size 15 to 20)
#    0.000    1.000    6.667    1.500    0.000    1.333 
#    0.000    0.000    3.667    3.000    0.000    0.000 
#    0.000    0.000    0.000    0.000    0.000    0.000 
#
# Total GULP energy -66837.992293 kJ/mol
# GULP energy per Si atom -5569.832691 kJ/mol
# Density = 1.923623 g / cm^3
# Si number density = 19.280115 Si / 1000 Ang^3
#
#
#
# Elastic Constant Matrix: (Units=GPa)
#
#
# Indices 1 2 3 4 5 6 
#
# 1 73.2182 35.4112 40.4878 -7.0030 19.8990 -7.6906
# 2 35.4112 67.3105 21.3398 2.7009 14.9648 -5.0977
# 3 40.4878 21.3398 96.7902 -2.2092 17.2494 3.7080
# 4 -7.0030 2.7009 -2.2092 41.0868 7.1173 11.5800
# 5 19.8990 14.9648 17.2494 7.1173 40.8102 -5.5247
# 6 -7.6906 -5.0977 3.7080 11.5800 -5.5247 29.0895
#
#
#
# Elastic Compliance Matrix: (Units=1/GPa)
#
#
# Indices 1 2 3 4 5 6 
#
# 1 0.024410 -0.009242 -0.007115 0.004634 -0.005940 0.002768
# 2 -0.009242 0.020604 -0.000475 -0.003207 -0.002001 0.002124
# 3 -0.007115 -0.000475 0.014236 0.001582 -0.003332 -0.005041
# 4 0.004634 -0.003207 0.001582 0.030776 -0.008946 -0.013489
# 5 -0.005940 -0.002001 -0.003332 -0.008946 0.032210 0.008182
# 6 0.002768 0.002124 -0.005041 -0.013489 0.008182 0.043047
#
#
# Mechanical properties :
#
#
# Convention : Reuss Voigt Hill
#
# Bulk Modulus (GPa) = 39.08347 47.97740 43.53044
# Shear Modulus (GPa) = 24.09936 31.53596 27.81766
#
# Velocity S-wave (km/s) = 3.53931 4.04873 3.80256
# Velocity P-wave (km/s) = 6.08422 6.84067 6.47350
#
# Compressibility (1/GPa) = 0.02558627
#
# Stress axis : x y z
#
# Youngs Moduli (GPa) = 40.96622 48.53518 70.24651
#
# Poissons Ratio (x) = 0.44857 0.49981
# Poissons Ratio (y) = 0.37861 0.03333
# Poissons Ratio (z) = 0.29148 0.02303
#
# Static dielectric constant tensor:
#      x y z
#    x 1.642590 0.005310 -0.016680 
#    y 0.005310 1.718400 0.060640 
#    z -0.016680 0.060640 1.785380 
# 
# From -- ./inp_files/144955.got.cif
#   From: 2010.05.17/outbox.cif.g08.bks.cpg/sg2_73_cif.got.tgz:144955.got - 2010.06.03 11:33:40.
