data_PCOD9022684
_publ_section_title
;
Structure prediction by ZEFSAII (Michael W. Deem and Ramdas Pophale) SiO2 
 PCOD9022684
Probable space group: P -1
;
_chemical_formula_sum "Si O2"
_cell_formula_units_Z 16
_cell_length_a 13.413490
_cell_length_b 5.762768
_cell_length_c 18.273795
_cell_angle_alpha 123.284501
_cell_angle_beta 45.253833
_cell_angle_gamma 93.140055
_cell_volume 695.706125
_symmetry_space_group_name_H-M "P -1"
_symmetry_group_IT_number 2
_symmetry_cell_setting 'triclinic'
loop_
_space_group_symop_operation_xyz
x,y,z
-x,-y,-z
loop_
_atom_site_type_symbol
_atom_site_label
_atom_site_fract_x
_atom_site_fract_y
_atom_site_fract_z
Si Si1 0.129648 0.855448 0.115680
Si Si2 0.225909 0.195815 0.340803
Si Si3 0.066882 0.104833 0.913536
Si Si4 0.525510 0.748925 0.209416
Si Si5 0.312793 0.702648 0.421594
Si Si6 0.531242 0.339925 0.376778
Si Si7 0.699279 0.796039 0.865361
Si Si8 0.034682 0.922663 0.344780
O O1 0.046238 0.932533 0.252072
O O2 0.994547 0.982800 0.143302
O O3 0.234125 0.023544 0.089980
O O4 0.281030 0.469893 0.954255
O O5 0.226727 0.492806 0.431289
O O6 0.243863 0.220963 0.249965
O O7 0.401200 0.881362 0.227527
O O8 0.070937 0.151991 0.417721
O O9 0.268541 0.867016 0.776447
O O10 0.000000 0.500000 0.000000
O O11 0.000000 0.000000 0.000000
O O12 0.458361 0.570657 0.263250
O O13 0.492832 0.057639 0.330165
O O14 0.409280 0.643085 0.436768
O O15 0.141443 0.049500 0.545748
O O16 0.500000 0.500000 0.500000
O O17 0.796147 0.429800 0.783978
O O18 0.500000 0.000000 0.000000
#
# Coordination Sequence:
#
# PCOD9022684 Si02
#       8
#     2   2   2   2   2   2   2   2
#     4  11  24  43  68  99 137 182 238 290 359 427
#     4  10  22  39  63  94 136 177 228 281 356 424
#     4  12  27  49  79 110 145 194 252 308 368 437
#     4  11  23  43  68  96 134 181 230 290 358 434
#     4  11  24  42  67  96 134 183 232 289 362 436
#     4  11  26  48  70 102 141 181 241 306 370 437
#     4  11  23  39  65 100 137 180 228 290 354 430
#     4  11  24  40  65 100 139 180 233 294 352 430
#
# _framework density 22.998217
#
# number of rings (size 3 to 8) (size 9 to 14) (size 15 to 20)
#    0.000    1.000    1.250    4.875    1.750   11.500 
#    0.000    0.000    0.000    0.000    0.000    0.000 
#    0.000    0.000    0.000    0.000    0.000    0.000 
#
# Total GULP energy -89274.795342 kJ/mol
# GULP energy per Si atom -5579.674709 kJ/mol
# Density = 2.294587 g / cm^3
# Si number density = 22.998217 Si / 1000 Ang^3
#
#
#
# Elastic Constant Matrix: (Units=GPa)
#
#
# Indices 1 2 3 4 5 6 
#
# 1 189.8959 39.6851 41.7994 -5.9504 -14.1626 -13.1221
# 2 39.6851 52.8448 13.7279 -6.0324 7.2212 -8.1162
# 3 41.7994 13.7279 104.9989 -9.5086 -12.1239 4.0038
# 4 -5.9504 -6.0324 -9.5086 23.1732 3.1831 3.4934
# 5 -14.1626 7.2212 -12.1239 3.1831 52.8474 3.4889
# 6 -13.1221 -8.1162 4.0038 3.4934 3.4889 34.3096
#
#
#
# Elastic Compliance Matrix: (Units=1/GPa)
#
#
# Indices 1 2 3 4 5 6 
#
# 1 0.006958 -0.004807 -0.002049 -0.000827 0.001993 0.001645
# 2 -0.004807 0.024967 -0.001750 0.004667 -0.005671 0.004373
# 3 -0.002049 -0.001750 0.011294 0.003815 0.002258 -0.003134
# 4 -0.000827 0.004667 0.003815 0.046694 -0.002522 -0.004156
# 5 0.001993 -0.005671 0.002258 -0.002522 0.021082 -0.002730
# 6 0.001645 0.004373 -0.003134 -0.004156 -0.002730 0.031876
#
#
# Mechanical properties :
#
#
# Convention : Reuss Voigt Hill
#
# Bulk Modulus (GPa) = 38.44981 59.79604 49.12293
# Shear Modulus (GPa) = 29.62930 38.90119 34.26525
#
# Velocity S-wave (km/s) = 3.59323 4.11723 3.86412
# Velocity P-wave (km/s) = 5.82837 6.97559 6.42763
#
# Compressibility (1/GPa) = 0.02600793
#
# Stress axis : x y z
#
# Youngs Moduli (GPa) = 143.71910 40.05254 88.54239
#
# Poissons Ratio (x) = 0.19254 0.18142
# Poissons Ratio (y) = 0.69088 0.15491
# Poissons Ratio (z) = 0.29448 0.07007
#
# Static dielectric constant tensor:
#      x y z
#    x 1.852730 0.012020 -0.052600 
#    y 0.012020 2.098060 0.199860 
#    z -0.052600 0.199860 2.061310 
# 
# From -- ./inp_files/81594.got.cif
#   From: 2010.05.17/outbox.cif.g08.bks.cpg/sg2_41_cif.got.tgz:81594.got - 2010.06.03 11:33:40.
