data_PCOD9022838
_publ_section_title
;
Structure prediction by ZEFSAII (Michael W. Deem and Ramdas Pophale) SiO2 
 PCOD9022838
Probable space group: P -1
;
_chemical_formula_sum "Si O2"
_cell_formula_units_Z 16
_cell_length_a 21.339932
_cell_length_b 8.825698
_cell_length_c 22.837686
_cell_angle_alpha 137.491602
_cell_angle_beta 20.176792
_cell_angle_gamma 147.983987
_cell_volume 744.918207
_symmetry_space_group_name_H-M "P -1"
_symmetry_group_IT_number 2
_symmetry_cell_setting 'triclinic'
loop_
_space_group_symop_operation_xyz
x,y,z
-x,-y,-z
loop_
_atom_site_type_symbol
_atom_site_label
_atom_site_fract_x
_atom_site_fract_y
_atom_site_fract_z
Si Si1 0.363726 0.708309 0.154290
Si Si2 0.448051 0.305289 0.901781
Si Si3 0.279729 0.791908 0.694808
Si Si4 0.634257 0.790476 0.420888
Si Si5 0.484282 0.608754 0.271595
Si Si6 0.951774 0.673460 0.130635
Si Si7 0.223326 0.607811 0.047838
Si Si8 0.958009 0.476491 0.362810
O O1 0.359620 0.645580 0.208497
O O2 0.121122 0.627759 0.320584
O O3 0.394629 0.506386 0.031986
O O4 0.605149 0.050836 0.027091
O O5 0.511333 0.349790 0.790650
O O6 0.194570 0.962804 0.030363
O O7 0.512127 0.823449 0.481812
O O8 0.214088 0.567839 0.741771
O O9 0.038379 0.617222 0.818993
O O10 0.363386 0.086746 0.737041
O O11 0.500000 0.500000 0.500000
O O12 0.848440 0.792584 0.215704
O O13 0.769960 0.108412 0.426267
O O14 0.203856 0.437968 0.484920
O O15 0.611569 0.475548 0.130508
O O16 0.000000 0.500000 0.000000
O O17 0.146560 0.581859 0.175062
#
# Coordination Sequence:
#
# PCOD9022838 Si02
#       8
#     2   2   2   2   2   2   2   2
#     4  11  24  43  70  91 130 180 221 262 324 383
#     4  11  22  41  67  96 125 170 222 272 321 382
#     4  10  22  39  64  95 129 167 213 263 331 387
#     4   9  20  37  61  93 126 164 206 267 323 383
#     4  11  24  42  68  97 130 167 218 275 328 382
#     4  11  18  36  66  94 125 163 210 272 329 374
#     4  12  24  45  66  96 134 179 215 263 323 395
#     4  11  24  43  66  94 134 176 214 268 325 384
#
# _framework density 21.478869
#
# number of rings (size 3 to 8) (size 9 to 14) (size 15 to 20)
#    0.000    1.250    5.000    0.750    0.000    3.000 
#    2.250    0.000    0.000    0.000    0.000    0.000 
#    0.000    0.000    0.000    0.000    0.000    0.000 
#
# Total GULP energy -89163.428357 kJ/mol
# GULP energy per Si atom -5572.714272 kJ/mol
# Density = 2.142998 g / cm^3
# Si number density = 21.478869 Si / 1000 Ang^3
#
#
#
# Elastic Constant Matrix: (Units=GPa)
#
#
# Indices 1 2 3 4 5 6 
#
# 1 97.6510 30.8309 30.4007 11.6399 -39.0804 20.6001
# 2 30.8309 83.2520 36.9853 5.4963 -5.9781 17.9259
# 3 30.4007 36.9853 101.8513 28.1880 -48.0681 11.5122
# 4 11.6399 5.4963 28.1880 36.5879 -4.7346 -0.7864
# 5 -39.0804 -5.9781 -48.0681 -4.7346 46.7423 -7.5929
# 6 20.6001 17.9259 11.5122 -0.7864 -7.5929 20.8660
#
#
#
# Elastic Compliance Matrix: (Units=1/GPa)
#
#
# Indices 1 2 3 4 5 6 
#
# 1 0.031053 -0.014403 0.025013 -0.021521 0.044978 -0.016528
# 2 -0.014403 0.026113 -0.024233 0.014903 -0.033143 -0.006344
# 3 0.025013 -0.024233 0.055961 -0.038646 0.069685 -0.010849
# 4 -0.021521 0.014903 -0.038646 0.055835 -0.047824 0.014466
# 5 0.044978 -0.033143 0.069685 -0.047824 0.119516 -0.012690
# 6 -0.016528 -0.006344 -0.010849 0.014466 -0.012690 0.071605
#
#
# Mechanical properties :
#
#
# Convention : Reuss Voigt Hill
#
# Bulk Modulus (GPa) = 11.64389 53.24311 32.44350
# Shear Modulus (GPa) = 12.02045 33.14175 22.58110
#
# Velocity S-wave (km/s) = 2.36824 3.93236 3.24592
# Velocity P-wave (km/s) = 3.59318 6.74243 5.40237
#
# Compressibility (1/GPa) = 0.08588197
#
# Stress axis : x y z
#
# Youngs Moduli (GPa) = 32.20257 38.29479 17.86950
#
# Poissons Ratio (x) = 0.55155 -0.44696
# Poissons Ratio (y) = 0.46380 0.43303
# Poissons Ratio (z) = -0.80547 0.92799
#
# Static dielectric constant tensor:
#      x y z
#    x 1.800010 -0.037270 0.044880 
#    y -0.037270 1.786770 -0.378790 
#    z 0.044880 -0.378790 4.121670 
# 
# From -- ./inp_files/182546.got.cif
#   From: 2010.05.17/outbox.cif.g08.bks.cpg/sg2_92_cif.got.tgz:182546.got - 2010.06.03 11:33:40.
