data_PCOD9022000
_publ_section_title
;
Structure prediction by ZEFSAII (Michael W. Deem and Ramdas Pophale) SiO2 
 PCOD9022000
Probable space group: P -1
;
_chemical_formula_sum "Si O2"
_cell_formula_units_Z 14
_cell_length_a 17.090592
_cell_length_b 26.604379
_cell_length_c 5.524858
_cell_angle_alpha 100.324095
_cell_angle_beta 90.918756
_cell_angle_gamma 17.526189
_cell_volume 634.471847
_symmetry_space_group_name_H-M "P -1"
_symmetry_group_IT_number 2
_symmetry_cell_setting 'triclinic'
loop_
_space_group_symop_operation_xyz
x,y,z
-x,-y,-z
loop_
_atom_site_type_symbol
_atom_site_label
_atom_site_fract_x
_atom_site_fract_y
_atom_site_fract_z
Si Si1 0.639419 0.060326 0.756737
Si Si2 0.281829 0.517068 0.805167
Si Si3 0.733265 0.180303 0.902850
Si Si4 0.889661 0.150112 0.304622
Si Si5 0.879187 0.446788 0.552579
Si Si6 0.278650 0.291505 0.444465
Si Si7 0.202417 0.152798 0.584304
O O1 0.438196 0.206062 0.635878
O O2 0.720291 0.950803 0.606443
O O3 0.492947 0.153590 0.099129
O O4 0.932887 0.911216 0.672229
O O5 0.525259 0.387516 0.520135
O O6 0.144640 0.550201 0.729373
O O7 0.526282 0.344920 0.863718
O O8 0.001806 0.724971 0.077794
O O9 0.920249 0.103579 0.003818
O O10 0.459954 0.326755 0.177644
O O11 0.940918 0.002533 0.670575
O O12 0.124456 0.334171 0.528441
O O13 0.992622 0.320785 0.550293
O O14 0.000000 0.500000 0.500000
O O15 0.500000 0.000000 0.500000
#
# Coordination Sequence:
#
# PCOD9022000 Si02
#       7
#     2   2   2   2   2   2   2
#     4  12  28  43  71 101 140 185 220 287 338 406
#     4  10  22  38  68  93 128 179 226 284 333 401
#     4   9  20  40  66  96 130 174 227 281 341 407
#     4  10  22  41  63  97 135 176 227 278 344 405
#     4  10  22  40  68  97 131 179 228 283 338 406
#     4  12  27  45  69 104 140 178 226 285 349 403
#     4  11  23  44  65  97 135 179 235 272 337 407
#
# _framework density 22.065594999999998
#
# number of rings (size 3 to 8) (size 9 to 14) (size 15 to 20)
#    0.000    1.429    1.429    2.571    8.000    1.714 
#    0.000    6.429    0.000    0.000    0.000    0.000 
#    0.000    0.000    0.000    0.000    0.000    0.000 
#
# Total GULP energy -77971.271955 kJ/mol
# GULP energy per Si atom -5569.376568 kJ/mol
# Density = 2.201537 g / cm^3
# Si number density = 22.065595 Si / 1000 Ang^3
#
#
#
# Elastic Constant Matrix: (Units=GPa)
#
#
# Indices 1 2 3 4 5 6 
#
# 1 103.8197 37.5216 17.8874 2.1493 14.4522 -28.4343
# 2 37.5216 100.4131 19.3385 6.4100 -5.7300 -25.0593
# 3 17.8874 19.3385 85.2248 22.6447 -2.2200 -12.6999
# 4 2.1493 6.4100 22.6447 35.5784 1.7352 4.1465
# 5 14.4522 -5.7300 -2.2200 1.7352 13.8397 -1.9958
# 6 -28.4343 -25.0593 -12.6999 4.1465 -1.9958 47.8951
#
#
#
# Elastic Compliance Matrix: (Units=1/GPa)
#
#
# Indices 1 2 3 4 5 6 
#
# 1 0.015970 -0.005441 -0.002337 0.001829 -0.018802 0.005073
# 2 -0.005441 0.014196 -0.000114 -0.003356 0.012681 0.004986
# 3 -0.002337 -0.000114 0.015875 -0.010741 0.006860 0.003978
# 4 0.001829 -0.003356 -0.010741 0.036790 -0.010666 -0.007148
# 5 -0.018802 0.012681 0.006860 -0.010666 0.099922 0.002378
# 6 0.005073 0.004986 0.003978 -0.007148 0.002378 0.028272
#
#
# Mechanical properties :
#
#
# Convention : Reuss Voigt Hill
#
# Bulk Modulus (GPa) = 33.05049 48.77251 40.91150
# Shear Modulus (GPa) = 21.10627 33.77665 27.44146
#
# Velocity S-wave (km/s) = 3.09613 3.91671 3.53034
# Velocity P-wave (km/s) = 5.27183 6.52729 5.93286
#
# Compressibility (1/GPa) = 0.03025673
#
# Stress axis : x y z
#
# Youngs Moduli (GPa) = 62.61711 70.44101 62.99027
#
# Poissons Ratio (x) = 0.38329 0.14721
# Poissons Ratio (y) = 0.34071 0.00720
# Poissons Ratio (z) = 0.14634 0.00805
#
# Static dielectric constant tensor:
#      x y z
#    x 1.829430 0.060780 -0.110330 
#    y 0.060780 1.923000 -0.088110 
#    z -0.110330 -0.088110 2.052830 
# 
# From -- ./inp_files/66549.got.cif
#   From: 2010.05.17/outbox.cif.g08.bks.cpg/sg2_34_cif.got.tgz:66549.got - 2010.06.03 11:33:40.
