data_PCOD9022691
_publ_section_title
;
Structure prediction by ZEFSAII (Michael W. Deem and Ramdas Pophale) SiO2 
 PCOD9022691
Probable space group: P -1
;
_chemical_formula_sum "Si O2"
_cell_formula_units_Z 16
_cell_length_a 7.200590
_cell_length_b 12.855307
_cell_length_c 11.742818
_cell_angle_alpha 134.102775
_cell_angle_beta 97.334232
_cell_angle_gamma 111.814742
_cell_volume 590.623098
_symmetry_space_group_name_H-M "P -1"
_symmetry_group_IT_number 2
_symmetry_cell_setting 'triclinic'
loop_
_space_group_symop_operation_xyz
x,y,z
-x,-y,-z
loop_
_atom_site_type_symbol
_atom_site_label
_atom_site_fract_x
_atom_site_fract_y
_atom_site_fract_z
Si Si1 0.744753 0.465752 0.378286
Si Si2 0.148533 0.343646 0.045257
Si Si3 0.533401 0.397702 0.556325
Si Si4 0.172377 0.472111 0.920179
Si Si5 0.007129 0.032052 0.196416
Si Si6 0.244422 0.825613 0.753738
Si Si7 0.109225 0.921911 0.521305
Si Si8 0.588970 0.136371 0.830796
O O1 0.683328 0.482280 0.516522
O O2 0.596124 0.518602 0.346059
O O3 0.687916 0.266021 0.220266
O O4 0.033531 0.638839 0.520863
O O5 0.267188 0.528048 0.273188
O O6 0.278319 0.427020 0.997328
O O7 0.857079 0.203708 0.888299
O O8 0.139544 0.188964 0.995445
O O9 0.302106 0.182087 0.339204
O O10 0.021353 0.288163 0.690187
O O11 0.348055 0.660674 0.001320
O O12 0.000000 0.500000 0.000000
O O13 0.892364 0.097537 0.154811
O O14 0.941360 0.055169 0.335767
O O15 0.457041 0.987149 0.810348
O O16 0.401456 0.040148 0.636675
O O17 0.000000 0.000000 0.500000
#
# Coordination Sequence:
#
# PCOD9022691 Si02
#       8
#     2   2   2   2   2   2   2   2
#     4   9  19  42  70  93 124 171 223 270 345 401
#     4  11  23  40  61  95 135 171 218 272 320 397
#     4  10  22  40  68  95 127 170 215 277 332 394
#     4  10  24  41  64  99 135 179 221 265 321 394
#     4  10  22  39  63  95 129 171 219 264 330 391
#     4   9  19  40  64  92 127 162 214 278 321 396
#     4  11  23  43  67  94 133 182 218 269 325 386
#     4  10  24  41  65  96 133 174 225 267 329 398
#
# _framework density 27.090036000000001
#
# number of rings (size 3 to 8) (size 9 to 14) (size 15 to 20)
#    0.000    2.000    1.250    0.750    1.750   10.500 
#    0.000   16.250    0.000    0.000    0.000    0.000 
#    0.000    0.000    0.000    0.000    0.000    0.000 
#
# Total GULP energy -89344.322890 kJ/mol
# GULP energy per Si atom -5584.020181 kJ/mol
# Density = 2.702838 g / cm^3
# Si number density = 27.090036 Si / 1000 Ang^3
#
#
#
# Elastic Constant Matrix: (Units=GPa)
#
#
# Indices 1 2 3 4 5 6 
#
# 1 81.1918 32.7464 39.8826 17.0697 -1.7307 -6.1503
# 2 32.7464 71.3362 32.6297 43.1442 1.5865 2.0334
# 3 39.8826 32.6297 146.6834 28.0377 15.9139 -1.9911
# 4 17.0697 43.1442 28.0377 62.5784 -2.7358 -10.1435
# 5 -1.7307 1.5865 15.9139 -2.7358 35.8512 12.0215
# 6 -6.1503 2.0334 -1.9911 -10.1435 12.0215 50.4216
#
#
#
# Elastic Compliance Matrix: (Units=1/GPa)
#
#
# Indices 1 2 3 4 5 6 
#
# 1 0.016926 -0.008079 -0.003595 0.003038 0.002221 0.002330
# 2 -0.008079 0.029702 -0.000784 -0.018902 -0.000849 -0.005815
# 3 -0.003595 -0.000784 0.008961 -0.002610 -0.004480 0.000490
# 4 0.003038 -0.018902 -0.002610 0.030526 0.002246 0.006635
# 5 0.002221 -0.000849 -0.004480 0.002246 0.032610 -0.007195
# 6 0.002330 -0.005815 0.000490 0.006635 -0.007195 0.023421
#
#
# Mechanical properties :
#
#
# Convention : Reuss Voigt Hill
#
# Bulk Modulus (GPa) = 32.60239 56.63654 44.61946
# Shear Modulus (GPa) = 28.20278 42.70043 35.45160
#
# Velocity S-wave (km/s) = 3.23007 3.97450 3.62146
# Velocity P-wave (km/s) = 5.09628 6.48185 5.83037
#
# Compressibility (1/GPa) = 0.03067260
#
# Stress axis : x y z
#
# Youngs Moduli (GPa) = 59.08129 33.66744 111.59584
#
# Poissons Ratio (x) = 0.27199 0.40119
# Poissons Ratio (y) = 0.47730 0.08754
# Poissons Ratio (z) = 0.21240 0.02641
#
# Static dielectric constant tensor:
#      x y z
#    x 2.345460 -0.152540 0.041200 
#    y -0.152540 2.241580 0.046830 
#    z 0.041200 0.046830 2.047480 
# 
# From -- ./inp_files/504469.got.cif
#   From: 2010.05.17/outbox.cif.g08.bks.cpg/sg2_253_cif.got.tgz:504469.got - 2010.06.03 11:33:40.
