data_PCOD9022397
_publ_section_title
;
Structure prediction by ZEFSAII (Michael W. Deem and Ramdas Pophale) SiO2 
 PCOD9022397
Probable space group: P -1
;
_chemical_formula_sum "Si O2"
_cell_formula_units_Z 14
_cell_length_a 15.716817
_cell_length_b 6.443801
_cell_length_c 23.584178
_cell_angle_alpha 80.982156
_cell_angle_beta 158.665301
_cell_angle_gamma 111.917688
_cell_volume 664.747154
_symmetry_space_group_name_H-M "P -1"
_symmetry_group_IT_number 2
_symmetry_cell_setting 'triclinic'
loop_
_space_group_symop_operation_xyz
x,y,z
-x,-y,-z
loop_
_atom_site_type_symbol
_atom_site_label
_atom_site_fract_x
_atom_site_fract_y
_atom_site_fract_z
Si Si1 0.920421 0.879141 0.046489
Si Si2 0.788874 0.410045 0.044485
Si Si3 0.164478 0.402789 0.806488
Si Si4 0.764208 0.172613 0.859533
Si Si5 0.695674 0.105506 0.176183
Si Si6 0.759625 0.876531 0.512322
Si Si7 0.696341 0.601483 0.673441
O O1 0.710686 0.573873 0.953304
O O2 0.130207 0.891788 0.128390
O O3 0.123655 0.084546 0.214794
O O4 0.777423 0.005756 0.924222
O O5 0.860346 0.526206 0.148091
O O6 0.071439 0.457482 0.188999
O O7 0.534100 0.087999 0.908939
O O8 0.146186 0.579934 0.741691
O O9 0.500000 0.500000 0.000000
O O10 0.903776 0.090088 0.644344
O O11 0.435641 0.085603 0.650695
O O12 0.000000 0.500000 0.000000
O O13 0.952515 0.076007 0.336536
O O14 0.500000 0.000000 0.000000
O O15 0.524297 0.574753 0.403964
O O16 0.500000 0.500000 0.500000
#
# Coordination Sequence:
#
# PCOD9022397 Si02
#       7
#     2   2   2   2   2   2   2
#     4  11  24  43  69  95 137 179 220 282 342 376
#     4  11  23  40  63  98 139 173 212 279 336 396
#     4  11  23  40  66  96 137 181 217 264 343 406
#     4  11  24  46  68  97 135 179 231 281 326 394
#     4  10  22  39  61  92 138 178 212 271 330 408
#     4  12  23  40  66 100 129 178 226 267 337 401
#     4  12  25  37  65 105 139 165 222 283 339 404
#
# _framework density 21.060641
#
# number of rings (size 3 to 8) (size 9 to 14) (size 15 to 20)
#    0.000    0.857    5.714    2.571    6.000    1.143 
#    0.000    0.714    0.000    4.286    0.000    0.000 
#    0.000    0.000    0.000    0.000    0.000    0.000 
#
# Total GULP energy -78199.700474 kJ/mol
# GULP energy per Si atom -5585.692891 kJ/mol
# Density = 2.101271 g / cm^3
# Si number density = 21.060641 Si / 1000 Ang^3
#
#
#
# Elastic Constant Matrix: (Units=GPa)
#
#
# Indices 1 2 3 4 5 6 
#
# 1 43.2384 11.2511 14.5936 -5.2552 -9.2219 1.7984
# 2 11.2511 98.4213 14.5804 -15.3869 -5.6945 21.7418
# 3 14.5936 14.5804 94.8968 -27.4315 3.6976 1.2894
# 4 -5.2552 -15.3869 -27.4315 33.2431 6.3502 -1.0198
# 5 -9.2219 -5.6945 3.6976 6.3502 16.3787 4.3757
# 6 1.7984 21.7418 1.2894 -1.0198 4.3757 46.5751
#
#
#
# Elastic Compliance Matrix: (Units=1/GPa)
#
#
# Indices 1 2 3 4 5 6 
#
# 1 0.029542 -0.001579 -0.006652 -0.005500 0.020319 -0.002249
# 2 -0.001579 0.012637 -0.000509 0.004312 0.003568 -0.006065
# 3 -0.006652 -0.000509 0.016509 0.015048 -0.013931 0.001676
# 4 -0.005500 0.004312 0.015048 0.048242 -0.023991 0.001093
# 5 0.020319 0.003568 -0.013931 -0.023991 0.089111 -0.010961
# 6 -0.002249 -0.006065 0.001676 0.001093 -0.010961 0.025396
#
#
# Mechanical properties :
#
#
# Convention : Reuss Voigt Hill
#
# Bulk Modulus (GPa) = 24.26686 35.26741 29.76713
# Shear Modulus (GPa) = 19.79008 32.31480 26.05244
#
# Velocity S-wave (km/s) = 3.06873 3.92135 3.52095
# Velocity P-wave (km/s) = 4.90954 6.10612 5.54023
#
# Compressibility (1/GPa) = 0.04120847
#
# Stress axis : x y z
#
# Youngs Moduli (GPa) = 33.84976 79.13558 60.57344
#
# Poissons Ratio (x) = 0.12497 0.40291
# Poissons Ratio (y) = 0.05346 0.03082
# Poissons Ratio (z) = 0.22515 0.04027
#
# Static dielectric constant tensor:
#      x y z
#    x 1.755910 0.001280 -0.020400 
#    y 0.001280 1.807200 -0.002120 
#    z -0.020400 -0.002120 1.741970 
# 
# From -- ./inp_files/108906.got.cif
#   From: 2010.05.17/outbox.cif.g08.bks.cpg/sg2_55_cif.got.tgz:108906.got - 2010.06.03 11:33:40.
