data_PCOD9022610
_publ_section_title
;
Structure prediction by ZEFSAII (Michael W. Deem and Ramdas Pophale) SiO2 
 PCOD9022610
Probable space group: P -1
;
_chemical_formula_sum "Si O2"
_cell_formula_units_Z 14
_cell_length_a 7.469030
_cell_length_b 7.820137
_cell_length_c 11.541491
_cell_angle_alpha 80.528097
_cell_angle_beta 104.064895
_cell_angle_gamma 81.281571
_cell_volume 631.939499
_symmetry_space_group_name_H-M "P -1"
_symmetry_group_IT_number 2
_symmetry_cell_setting 'triclinic'
loop_
_space_group_symop_operation_xyz
x,y,z
-x,-y,-z
loop_
_atom_site_type_symbol
_atom_site_label
_atom_site_fract_x
_atom_site_fract_y
_atom_site_fract_z
Si Si1 0.219126 0.630548 0.530307
Si Si2 0.672410 0.342261 0.063114
Si Si3 0.370848 0.412827 0.363024
Si Si4 0.008312 0.694303 0.719430
Si Si5 0.959556 0.900616 0.289017
Si Si6 0.734235 0.219523 0.827332
Si Si7 0.548177 0.006441 0.144679
O O1 0.301265 0.466134 0.477642
O O2 0.413797 0.690834 0.590380
O O3 0.102897 0.600551 0.628348
O O4 0.076783 0.771580 0.416029
O O5 0.852422 0.390915 0.147351
O O6 0.585972 0.203025 0.142425
O O7 0.500000 0.500000 0.000000
O O8 0.739221 0.256990 0.959807
O O9 0.360292 0.597636 0.271660
O O10 0.206155 0.323545 0.297212
O O11 0.023527 0.900192 0.696863
O O12 0.064805 0.848298 0.190263
O O13 0.744638 0.889017 0.233206
O O14 0.614573 0.066913 0.808511
O O15 0.500000 0.000000 0.000000
#
# Coordination Sequence:
#
# PCOD9022610 Si02
#       7
#     2   2   2   2   2   2   2
#     4  10  22  41  59  86 123 157 201 244 292 356
#     4  10  22  39  63  91 119 157 197 245 302 349
#     4  10  23  39  62  90 117 159 199 244 301 346
#     4  11  23  39  61  90 122 155 199 248 296 352
#     4  10  23  39  63  91 116 160 200 241 300 348
#     4  10  22  41  61  87 124 157 198 242 291 358
#     4   9  21  40  62  86 119 157 194 240 293 352
#
# _framework density 22.154022999999999
#
# number of rings (size 3 to 8) (size 9 to 14) (size 15 to 20)
#    0.000    2.000    0.000    1.714    0.000   20.000 
#    0.000    1.429    0.000    0.000    0.000    0.000 
#    0.000    0.000    0.000    0.000    0.000    0.000 
#
# Total GULP energy -78201.902505 kJ/mol
# GULP energy per Si atom -5585.850179 kJ/mol
# Density = 2.210360 g / cm^3
# Si number density = 22.154023 Si / 1000 Ang^3
#
#
#
# Elastic Constant Matrix: (Units=GPa)
#
#
# Indices 1 2 3 4 5 6 
#
# 1 102.6534 3.1159 43.5399 -2.7784 31.2263 5.0512
# 2 3.1159 34.7710 17.3989 -3.4023 4.2143 -2.1805
# 3 43.5399 17.3989 90.3985 3.0912 14.5333 -0.9344
# 4 -2.7784 -3.4023 3.0912 18.0288 -6.7178 7.9339
# 5 31.2263 4.2143 14.5333 -6.7178 48.0474 1.4844
# 6 5.0512 -2.1805 -0.9344 7.9339 1.4844 26.5717
#
#
#
# Elastic Compliance Matrix: (Units=1/GPa)
#
#
# Indices 1 2 3 4 5 6 
#
# 1 0.015020 0.002987 -0.006724 0.002644 -0.007521 -0.003216
# 2 0.002987 0.033351 -0.007904 0.007746 -0.001382 -0.000345
# 3 -0.006724 -0.007904 0.016257 -0.007167 -0.000961 0.003395
# 4 0.002644 0.007746 -0.007167 0.072319 0.010570 -0.022303
# 5 -0.007521 -0.001382 -0.000961 0.010570 0.027696 -0.003421
# 6 -0.003216 -0.000345 0.003395 -0.022303 -0.003421 0.045187
#
#
# Mechanical properties :
#
#
# Convention : Reuss Voigt Hill
#
# Bulk Modulus (GPa) = 24.18596 39.54804 31.86700
# Shear Modulus (GPa) = 20.25169 29.44746 24.84957
#
# Velocity S-wave (km/s) = 3.02674 3.64980 3.35277
# Velocity P-wave (km/s) = 4.81204 5.97089 5.42251
#
# Compressibility (1/GPa) = 0.04134630
#
# Stress axis : x y z
#
# Youngs Moduli (GPa) = 66.57620 29.98432 61.51342
#
# Poissons Ratio (x) = -0.08957 0.41361
# Poissons Ratio (y) = -0.19887 0.48620
# Poissons Ratio (z) = 0.44765 0.23699
#
# Static dielectric constant tensor:
#      x y z
#    x 1.819110 -0.002490 0.026780 
#    y -0.002490 1.872130 0.011270 
#    z 0.026780 0.011270 1.853760 
# 
# From -- ./inp_files/28118.got.cif
#   From: 2010.05.17/outbox.cif.g08.bks.cpg/sg2_15_cif.got.tgz:28118.got - 2010.06.03 11:33:40.
