data_PCOD9022546
_publ_section_title
;
Structure prediction by ZEFSAII (Michael W. Deem and Ramdas Pophale) SiO2 
 PCOD9022546
Probable space group: P -1
;
_chemical_formula_sum "Si O2"
_cell_formula_units_Z 16
_cell_length_a 11.832436
_cell_length_b 4.970471
_cell_length_c 12.721821
_cell_angle_alpha 104.379106
_cell_angle_beta 96.179906
_cell_angle_gamma 68.565865
_cell_volume 674.522536
_symmetry_space_group_name_H-M "P -1"
_symmetry_group_IT_number 2
_symmetry_cell_setting 'triclinic'
loop_
_space_group_symop_operation_xyz
x,y,z
-x,-y,-z
loop_
_atom_site_type_symbol
_atom_site_label
_atom_site_fract_x
_atom_site_fract_y
_atom_site_fract_z
Si Si1 0.877236 0.246744 0.912346
Si Si2 0.189478 0.931957 0.583373
Si Si3 0.400637 0.747078 0.445605
Si Si4 0.656326 0.267245 0.229694
Si Si5 0.489985 0.917492 0.263226
Si Si6 0.852833 0.862875 0.054624
Si Si7 0.045487 0.601811 0.407794
Si Si8 0.742875 0.600413 0.735199
O O1 0.858228 0.525895 0.016020
O O2 0.798227 0.388260 0.817678
O O3 0.849435 0.993067 0.949222
O O4 0.019652 0.133369 0.887189
O O5 0.297190 0.975632 0.530001
O O6 0.255191 0.715572 0.663981
O O7 0.119332 0.800833 0.480149
O O8 0.080990 0.215256 0.644432
O O9 0.500000 0.500000 0.500000
O O10 0.460493 0.900497 0.382261
O O11 0.332739 0.562910 0.354944
O O12 0.567349 0.580394 0.209623
O O13 0.572957 0.102114 0.256373
O O14 0.740637 0.067674 0.129521
O O15 0.358031 0.083988 0.216186
O O16 0.144934 0.375906 0.320550
O O17 0.000000 0.500000 0.500000
#
# Coordination Sequence:
#
# PCOD9022546 Si02
#       8
#     2   2   2   2   2   2   2   2
#     4  10  23  46  74 101 131 175 219 281 341 406
#     4  10  22  39  62  95 131 172 225 269 338 395
#     4  11  22  43  65  97 136 186 223 273 321 406
#     4  12  25  43  69  97 134 174 226 279 335 393
#     4  12  25  43  65  99 133 180 225 268 329 399
#     4  10  23  47  72 103 132 168 227 280 343 398
#     4  10  22  40  60  99 133 171 218 278 335 400
#     4  11  24  42  69  98 139 179 228 272 341 396
#
# _framework density 23.720483000000002
#
# number of rings (size 3 to 8) (size 9 to 14) (size 15 to 20)
#    0.000    1.250    2.500    2.250    3.500    2.000 
#    6.750    3.750    0.000    0.000    0.000    0.000 
#    0.000    0.000    0.000    0.000    0.000    0.000 
#
# Total GULP energy -89513.577963 kJ/mol
# GULP energy per Si atom -5594.598623 kJ/mol
# Density = 2.366649 g / cm^3
# Si number density = 23.720483 Si / 1000 Ang^3
#
#
#
# Elastic Constant Matrix: (Units=GPa)
#
#
# Indices 1 2 3 4 5 6 
#
# 1 126.7247 61.9032 34.2445 -1.3901 -10.7567 -41.6421
# 2 61.9032 134.3702 16.7834 -10.7308 -7.0932 -34.4157
# 3 34.2445 16.7834 52.0858 -14.7495 -0.2248 -32.5760
# 4 -1.3901 -10.7308 -14.7495 45.3336 -16.6853 -2.5653
# 5 -10.7567 -7.0932 -0.2248 -16.6853 30.7676 7.3496
# 6 -41.6421 -34.4157 -32.5760 -2.5653 7.3496 46.7071
#
#
#
# Elastic Compliance Matrix: (Units=1/GPa)
#
#
# Indices 1 2 3 4 5 6 
#
# 1 0.012847 -0.004033 -0.004093 -0.000948 0.001752 0.005300
# 2 -0.004033 0.011518 0.006624 0.006168 0.002375 0.009476
# 3 -0.004093 0.006624 0.047066 0.019778 0.002879 0.034690
# 4 -0.000948 0.006168 0.019778 0.037297 0.017449 0.016797
# 5 0.001752 0.002375 0.002879 0.017449 0.043272 -0.000531
# 6 0.005300 0.009476 0.034690 0.016797 -0.000531 0.058318
#
#
# Mechanical properties :
#
#
# Convention : Reuss Voigt Hill
#
# Bulk Modulus (GPa) = 14.61458 59.89367 37.25412
# Shear Modulus (GPa) = 21.17459 37.91163 29.54311
#
# Velocity S-wave (km/s) = 2.99100 4.00217 3.53295
# Velocity P-wave (km/s) = 4.25472 6.83089 5.69051
#
# Compressibility (1/GPa) = 0.06842484
#
# Stress axis : x y z
#
# Youngs Moduli (GPa) = 77.83833 86.82230 21.24698
#
# Poissons Ratio (x) = 0.35017 0.08697
# Poissons Ratio (y) = 0.31393 -0.14073
# Poissons Ratio (z) = 0.31861 -0.57508
#
# Static dielectric constant tensor:
#      x y z
#    x 2.054620 -0.019520 -0.085930 
#    y -0.019520 1.944520 0.041620 
#    z -0.085930 0.041620 2.001960 
# 
# From -- ./inp_files/410535.got.cif
#   From: 2010.05.17/outbox.cif.g08.bks.cpg/sg2_206_cif.got.tgz:410535.got - 2010.06.03 11:33:40.
