data_PCOD9022759
_publ_section_title
;
Structure prediction by ZEFSAII (Michael W. Deem and Ramdas Pophale) SiO2 
 PCOD9022759
Probable space group: P -1
;
_chemical_formula_sum "Si O2"
_cell_formula_units_Z 16
_cell_length_a 14.062126
_cell_length_b 9.781779
_cell_length_c 19.916126
_cell_angle_alpha 150.609179
_cell_angle_beta 28.007342
_cell_angle_gamma 151.207331
_cell_volume 558.995408
_symmetry_space_group_name_H-M "P -1"
_symmetry_group_IT_number 2
_symmetry_cell_setting 'triclinic'
loop_
_space_group_symop_operation_xyz
x,y,z
-x,-y,-z
loop_
_atom_site_type_symbol
_atom_site_label
_atom_site_fract_x
_atom_site_fract_y
_atom_site_fract_z
Si Si1 0.185711 0.827632 0.157884
Si Si2 0.958212 0.818322 0.083006
Si Si3 0.524554 0.271135 0.791556
Si Si4 0.662753 0.416756 0.409076
Si Si5 0.695186 0.280820 0.542765
Si Si6 0.220972 0.210716 0.675375
Si Si7 0.576482 0.920771 0.027307
Si Si8 0.007711 0.519327 0.338220
O O1 0.926844 0.765884 0.283673
O O2 0.302261 0.004930 0.090636
O O3 0.156133 0.472004 0.019847
O O4 0.363726 0.987297 0.175171
O O5 0.823241 0.679463 0.178134
O O6 0.959537 0.148895 0.206146
O O7 0.216939 0.889630 0.969579
O O8 0.588421 0.334322 0.699282
O O9 0.482733 0.564174 0.959944
O O10 0.735622 0.296526 0.716216
O O11 0.344702 0.907434 0.751106
O O12 0.500000 0.500000 0.500000
O O13 0.483421 0.330030 0.546099
O O14 0.913274 0.603427 0.365748
O O15 0.850993 0.544458 0.506627
O O16 0.500000 0.000000 0.500000
O O17 0.867638 0.155803 0.410338
#
# Coordination Sequence:
#
# PCOD9022759 Si02
#       8
#     2   2   2   2   2   2   2   2
#     4  10  18  30  49  78 116 137 157 204 261 325
#     4   9  18  32  52  80 111 132 165 207 260 330
#     4  10  20  34  54  77 103 135 177 220 263 320
#     4  11  23  38  53  72 103 143 186 229 263 297
#     4  10  17  31  51  77 109 133 165 208 270 328
#     4   9  18  31  49  76 104 135 172 205 255 321
#     4   9  18  29  48  78 106 138 164 193 259 321
#     4  10  19  33  55  78 102 139 173 216 268 316
#
# _framework density 28.622776999999999
#
# number of rings (size 3 to 8) (size 9 to 14) (size 15 to 20)
#    0.000    2.250    2.500    3.375    1.750    2.500 
#    0.000    5.000    0.000    3.000    0.000    6.125 
#    0.000    0.000    0.000    0.000    0.000    0.000 
#
# Total GULP energy -89400.163194 kJ/mol
# GULP energy per Si atom -5587.510200 kJ/mol
# Density = 2.855763 g / cm^3
# Si number density = 28.622777 Si / 1000 Ang^3
#
#
#
# Elastic Constant Matrix: (Units=GPa)
#
#
# Indices 1 2 3 4 5 6 
#
# 1 197.3314 26.6462 22.2568 -11.4842 -26.8819 30.6569
# 2 26.6462 72.2391 25.7720 7.1146 -2.7401 28.3721
# 3 22.2568 25.7720 61.6192 -4.9369 -10.9037 0.6283
# 4 -11.4842 7.1146 -4.9369 52.3422 3.1554 -9.3883
# 5 -26.8819 -2.7401 -10.9037 3.1554 45.7215 -12.1188
# 6 30.6569 28.3721 0.6283 -9.3883 -12.1188 35.9718
#
#
#
# Elastic Compliance Matrix: (Units=1/GPa)
#
#
# Indices 1 2 3 4 5 6 
#
# 1 0.006281 0.000439 -0.002057 0.000114 0.001897 -0.004995
# 2 0.000439 0.032612 -0.015996 -0.010992 -0.009275 -0.031811
# 3 -0.002057 -0.015996 0.025508 0.006953 0.008353 0.018553
# 4 0.000114 -0.010992 0.006953 0.023916 0.003635 0.015917
# 5 0.001897 -0.009275 0.008353 0.003635 0.028435 0.016081
# 6 -0.004995 -0.031811 0.018553 0.015917 0.016081 0.066395
#
#
# Mechanical properties :
#
#
# Convention : Reuss Voigt Hill
#
# Bulk Modulus (GPa) = 34.27685 53.39329 43.83507
# Shear Modulus (GPa) = 21.92024 43.90807 32.91416
#
# Velocity S-wave (km/s) = 2.77037 3.92091 3.39474
# Velocity P-wave (km/s) = 4.71536 6.26041 5.54199
#
# Compressibility (1/GPa) = 0.02917421
#
# Stress axis : x y z
#
# Youngs Moduli (GPa) = 159.20121 30.66322 39.20332
#
# Poissons Ratio (x) = -0.01347 0.08063
# Poissons Ratio (y) = -0.06994 0.62711
# Poissons Ratio (z) = 0.32744 0.49050
#
# Static dielectric constant tensor:
#      x y z
#    x 2.242890 -0.099890 0.052230 
#    y -0.099890 2.312680 -0.013790 
#    z 0.052230 -0.013790 2.290390 
# 
# From -- ./inp_files/611992.got.cif
#   From: 2010.05.17/outbox.cif.g08.bks.cpg/sg2_306_cif.got.tgz:611992.got - 2010.06.03 11:33:40.
