data_PCOD9022028
_publ_section_title
;
Structure prediction by ZEFSAII (Michael W. Deem and Ramdas Pophale) SiO2 
 PCOD9022028
Probable space group: P -1
;
_chemical_formula_sum "Si O2"
_cell_formula_units_Z 15
_cell_length_a 20.806649
_cell_length_b 9.909162
_cell_length_c 20.575842
_cell_angle_alpha 25.720111
_cell_angle_beta 160.140288
_cell_angle_gamma 142.234380
_cell_volume 577.113738
_symmetry_space_group_name_H-M "P -1"
_symmetry_group_IT_number 2
_symmetry_cell_setting 'triclinic'
loop_
_space_group_symop_operation_xyz
x,y,z
-x,-y,-z
loop_
_atom_site_type_symbol
_atom_site_label
_atom_site_fract_x
_atom_site_fract_y
_atom_site_fract_z
Si Si1 0.063573 0.317762 0.412307
Si Si2 0.345470 0.017294 0.688376
Si Si3 0.500000 0.500000 0.500000
Si Si4 0.118618 0.744420 0.514153
Si Si5 0.242609 0.721639 0.495045
Si Si6 0.687753 0.240180 0.922470
Si Si7 0.904968 0.367527 0.908081
Si Si8 0.621306 0.664669 0.800731
O O1 0.228736 0.199238 0.562759
O O2 0.163805 0.445382 0.511063
O O3 0.847963 0.616243 0.059511
O O4 0.000000 0.000000 0.500000
O O5 0.580719 0.968831 0.933471
O O6 0.254609 0.297097 0.423491
O O7 0.287231 0.707715 0.745632
O O8 0.573276 0.521509 0.637027
O O9 0.736781 0.217741 0.835429
O O10 0.209330 0.765393 0.521145
O O11 0.000000 0.500000 0.500000
O O12 0.929243 0.083004 0.210121
O O13 0.472914 0.639684 0.727468
O O14 0.086274 0.091853 0.160416
O O15 0.648282 0.378267 0.897418
O O16 0.000000 0.500000 0.000000
O O17 0.500000 0.000000 0.500000
#
# Coordination Sequence:
#
# PCOD9022028 Si02
#       8
#     2   2   1   2   2   2   2   2
#     4  12  28  49  72 103 152 202 245 300 372 446
#     4  11  23  44  72 101 140 191 236 301 370 431
#     4  10  22  38  68  98 134 178 228 278 368 422
#     4  12  26  46  72 103 144 192 247 297 361 443
#     4  12  27  44  72 113 144 189 250 310 364 451
#     4  11  24  45  70 103 142 188 235 300 366 440
#     4  11  22  40  70 101 145 176 231 304 371 420
#     4  12  29  45  76 110 150 193 250 307 383 442
#
# _framework density 25.991409000000001
#
# number of rings (size 3 to 8) (size 9 to 14) (size 15 to 20)
#    0.000    0.533    5.333    1.600    5.600    4.267 
#    0.000    0.000    0.000    0.000    0.000    0.000 
#    0.000    0.000    0.000    0.000    0.000    0.000 
#
# Total GULP energy -83727.886311 kJ/mol
# GULP energy per Si atom -5581.859087 kJ/mol
# Density = 2.593225 g / cm^3
# Si number density = 25.991409 Si / 1000 Ang^3
#
#
#
# Elastic Constant Matrix: (Units=GPa)
#
#
# Indices 1 2 3 4 5 6 
#
# 1 109.3951 22.4152 32.0365 14.3097 36.8664 -25.6504
# 2 22.4152 122.2646 17.8137 11.7319 14.6664 -16.8032
# 3 32.0365 17.8137 108.4410 23.6288 18.4908 -4.7747
# 4 14.3097 11.7319 23.6288 44.8371 11.6847 4.6527
# 5 36.8664 14.6664 18.4908 11.6847 43.2860 -4.4485
# 6 -25.6504 -16.8032 -4.7747 4.6527 -4.4485 35.7214
#
#
#
# Elastic Compliance Matrix: (Units=1/GPa)
#
#
# Indices 1 2 3 4 5 6 
#
# 1 0.016243 0.000335 -0.001933 -0.002364 -0.011410 0.010450
# 2 0.000335 0.009290 -0.000595 -0.002140 -0.002135 0.004544
# 3 -0.001933 -0.000595 0.011212 -0.004734 -0.001639 0.000243
# 4 -0.002364 -0.002140 -0.004734 0.027792 -0.003501 -0.007393
# 5 -0.011410 -0.002135 -0.001639 -0.003501 0.034712 -0.004638
# 6 0.010450 0.004544 0.000243 -0.007393 -0.004638 0.038054
#
#
# Mechanical properties :
#
#
# Convention : Reuss Voigt Hill
#
# Bulk Modulus (GPa) = 30.90180 53.84793 42.37486
# Shear Modulus (GPa) = 32.79235 42.62461 37.70848
#
# Velocity S-wave (km/s) = 3.55584 4.05402 3.81308
# Velocity P-wave (km/s) = 5.36411 6.53269 5.97703
#
# Compressibility (1/GPa) = 0.03236057
#
# Stress axis : x y z
#
# Youngs Moduli (GPa) = 61.56387 107.64190 89.18933
#
# Poissons Ratio (x) = -0.03611 0.17240
# Poissons Ratio (y) = -0.02065 0.05306
# Poissons Ratio (z) = 0.11900 0.06404
#
# Static dielectric constant tensor:
#      x y z
#    x 2.039500 -0.008380 -0.104560 
#    y -0.008380 1.942440 -0.105710 
#    z -0.104560 -0.105710 2.058960 
# 
# From -- ./inp_files/600956.got.cif
#   From: 2010.05.17/outbox.cif.g08.bks.cpg/sg2_301_cif.got.tgz:600956.got - 2010.06.03 11:33:40.
