data_PCOD9022179
_publ_section_title
;
Structure prediction by ZEFSAII (Michael W. Deem and Ramdas Pophale) SiO2 
 PCOD9022179
Probable space group: P -1
;
_chemical_formula_sum "Si O2"
_cell_formula_units_Z 12
_cell_length_a 13.658460
_cell_length_b 7.449536
_cell_length_c 9.302660
_cell_angle_alpha 67.263650
_cell_angle_beta 139.087662
_cell_angle_gamma 90.833388
_cell_volume 507.796351
_symmetry_space_group_name_H-M "P -1"
_symmetry_group_IT_number 2
_symmetry_cell_setting 'triclinic'
loop_
_space_group_symop_operation_xyz
x,y,z
-x,-y,-z
loop_
_atom_site_type_symbol
_atom_site_label
_atom_site_fract_x
_atom_site_fract_y
_atom_site_fract_z
Si Si1 0.204736 0.415519 0.675160
Si Si2 0.411406 0.934424 0.131024
Si Si3 0.207282 0.919735 0.147297
Si Si4 0.417025 0.801870 0.868738
Si Si5 0.961026 0.367971 0.870669
Si Si6 0.940533 0.132683 0.537415
O O1 0.114539 0.480337 0.401083
O O2 0.098622 0.615404 0.599991
O O3 0.252010 0.173479 0.854631
O O4 0.396852 0.389049 0.898226
O O5 0.563256 0.989424 0.239683
O O6 0.383981 0.864158 0.280761
O O7 0.407039 0.794298 0.034188
O O8 0.181755 0.715757 0.238166
O O9 0.130396 0.139408 0.092469
O O10 0.073665 0.999067 0.845541
O O11 0.236373 0.842032 0.607254
O O12 0.000000 0.500000 0.000000
O O13 0.000000 0.000000 0.500000
#
# Coordination Sequence:
#
# PCOD9022179 Si02
#       6
#     2   2   2   2   2   2
#     4   9  21  38  59  89 119 157 201 250 299 363
#     4   9  19  37  61  86 122 150 197 253 303 351
#     4  10  22  39  58  94 121 155 207 249 295 363
#     4   9  19  37  60  89 125 151 189 255 314 349
#     4  10  23  39  60  85 127 165 203 247 299 357
#     4  11  20  33  62  94 117 154 201 253 306 357
#
# _framework density 23.631520999999999
#
# number of rings (size 3 to 8) (size 9 to 14) (size 15 to 20)
#    1.000    1.333    1.667    0.500    2.333    4.000 
#    0.000    0.833    0.000   14.000    0.000    0.000 
#    0.000    0.000    0.000    0.000    0.000    0.000 
#
# Total GULP energy -66826.932458 kJ/mol
# GULP energy per Si atom -5568.911038 kJ/mol
# Density = 2.357773 g / cm^3
# Si number density = 23.631521 Si / 1000 Ang^3
#
#
#
# Elastic Constant Matrix: (Units=GPa)
#
#
# Indices 1 2 3 4 5 6 
#
# 1 121.2023 15.8733 6.1468 2.2996 -9.1548 8.8750
# 2 15.8733 98.5243 17.8896 9.7925 -12.9450 -24.3448
# 3 6.1468 17.8896 50.1172 10.1680 -1.7666 5.9643
# 4 2.2996 9.7925 10.1680 21.8800 -0.5910 2.2751
# 5 -9.1548 -12.9450 -1.7666 -0.5910 34.1337 -4.3811
# 6 8.8750 -24.3448 5.9643 2.2751 -4.3811 41.4647
#
#
#
# Elastic Compliance Matrix: (Units=1/GPa)
#
#
# Indices 1 2 3 4 5 6 
#
# 1 0.008819 -0.002017 -0.000034 0.000332 0.001225 -0.002956
# 2 -0.002017 0.015637 -0.005385 -0.005290 0.006477 0.011361
# 3 -0.000034 -0.005385 0.024248 -0.008240 -0.001757 -0.006376
# 4 0.000332 -0.005290 -0.008240 0.052338 -0.002090 -0.005085
# 5 0.001225 0.006477 -0.001757 -0.002090 0.032902 0.007384
# 6 -0.002956 0.011361 -0.006376 -0.005085 0.007384 0.033396
#
#
# Mechanical properties :
#
#
# Convention : Reuss Voigt Hill
#
# Bulk Modulus (GPa) = 29.55767 38.85147 34.20457
# Shear Modulus (GPa) = 25.84120 34.82463 30.33292
#
# Velocity S-wave (km/s) = 3.31041 3.84298 3.58659
# Velocity P-wave (km/s) = 5.21024 6.01395 5.62646
#
# Compressibility (1/GPa) = 0.03383217
#
# Stress axis : x y z
#
# Youngs Moduli (GPa) = 113.38859 63.95226 41.24062
#
# Poissons Ratio (x) = 0.12900 0.00141
# Poissons Ratio (y) = 0.22872 0.22207
# Poissons Ratio (z) = 0.00387 0.34436
#
# Static dielectric constant tensor:
#      x y z
#    x 2.094460 0.094780 -0.004420 
#    y 0.094780 2.021850 0.007460 
#    z -0.004420 0.007460 2.104200 
# 
# From -- ./inp_files/294968.got.cif
#   From: 2010.05.17/outbox.cif.g08.bks.cpg/sg2_148_cif.got.tgz:294968.got - 2010.06.03 11:33:40.
