data_PCOD9022675
_publ_section_title
;
Structure prediction by ZEFSAII (Michael W. Deem and Ramdas Pophale) SiO2 
 PCOD9022675
Probable space group: P -1
;
_chemical_formula_sum "Si O2"
_cell_formula_units_Z 14
_cell_length_a 13.005243
_cell_length_b 11.127825
_cell_length_c 7.637424
_cell_angle_alpha 65.299062
_cell_angle_beta 101.484287
_cell_angle_gamma 51.421047
_cell_volume 598.389862
_symmetry_space_group_name_H-M "P -1"
_symmetry_group_IT_number 2
_symmetry_cell_setting 'triclinic'
loop_
_space_group_symop_operation_xyz
x,y,z
-x,-y,-z
loop_
_atom_site_type_symbol
_atom_site_label
_atom_site_fract_x
_atom_site_fract_y
_atom_site_fract_z
Si Si1 0.985823 0.376484 0.463537
Si Si2 0.678544 0.494692 0.234323
Si Si3 0.367246 0.049764 0.212808
Si Si4 0.316163 0.912339 0.007709
Si Si5 0.019544 0.302725 0.109489
Si Si6 0.355855 0.330942 0.218495
Si Si7 0.143292 0.913089 0.236204
O O1 0.020442 0.346522 0.284693
O O2 0.000000 0.500000 0.500000
O O3 0.796833 0.498984 0.341376
O O4 0.131763 0.127556 0.729057
O O5 0.476127 0.701198 0.081204
O O6 0.765909 0.283801 0.488235
O O7 0.682506 0.505884 0.017458
O O8 0.172350 0.220114 0.107548
O O9 0.409589 0.156645 0.212894
O O10 0.374468 0.997090 0.049757
O O11 0.492615 0.824739 0.497032
O O12 0.279317 0.850258 0.193367
O O13 0.058818 0.109305 0.211040
O O14 0.826031 0.520531 0.842835
O O15 0.000000 0.000000 0.000000
#
# Coordination Sequence:
#
# PCOD9022675 Si02
#       7
#     2   2   2   2   2   2   2
#     4  11  24  42  68 102 134 169 212 267 331 391
#     4  11  24  43  64  97 131 172 219 267 325 382
#     4  10  22  39  63  98 128 168 212 260 327 390
#     4  11  23  41  67  95 130 173 215 272 324 381
#     4  10  23  42  67  92 131 171 214 267 320 383
#     4  10  22  39  63  94 130 167 209 263 326 388
#     4  11  24  46  67  93 128 175 225 270 320 380
#
# _framework density 23.396118000000001
#
# number of rings (size 3 to 8) (size 9 to 14) (size 15 to 20)
#    0.000    1.429    1.429    3.429    2.000    8.000 
#    0.000    3.571    0.000    0.000    0.000    0.000 
#    0.000    0.000    0.000    0.000    0.000    0.000 
#
# Total GULP energy -78229.284662 kJ/mol
# GULP energy per Si atom -5587.806047 kJ/mol
# Density = 2.334287 g / cm^3
# Si number density = 23.396118 Si / 1000 Ang^3
#
#
#
# Elastic Constant Matrix: (Units=GPa)
#
#
# Indices 1 2 3 4 5 6 
#
# 1 59.1001 17.3132 27.4363 -10.4114 2.4803 -6.2227
# 2 17.3132 66.8591 11.9478 -7.8358 1.6833 -2.6762
# 3 27.4363 11.9478 174.0357 -15.0181 2.6588 -6.9787
# 4 -10.4114 -7.8358 -15.0181 25.5153 1.9234 5.4596
# 5 2.4803 1.6833 2.6588 1.9234 34.8432 -6.9624
# 6 -6.2227 -2.6762 -6.9787 5.4596 -6.9624 30.6599
#
#
#
# Elastic Compliance Matrix: (Units=1/GPa)
#
#
# Indices 1 2 3 4 5 6 
#
# 1 0.020429 -0.004137 -0.002382 0.005288 -0.000948 0.002086
# 2 -0.004137 0.016464 -0.000186 0.003356 -0.000713 -0.000204
# 3 -0.002382 -0.000186 0.006387 0.002675 -0.000378 0.000392
# 4 0.005288 0.003356 0.002675 0.045866 -0.004726 -0.007266
# 5 -0.000948 -0.000713 -0.000378 -0.004726 0.030579 0.007445
# 6 0.002086 -0.000204 0.000392 -0.007266 0.007445 0.036095
#
#
# Mechanical properties :
#
#
# Convention : Reuss Voigt Hill
#
# Bulk Modulus (GPa) = 33.47843 45.93217 39.70530
# Shear Modulus (GPa) = 27.90364 34.42350 31.16357
#
# Velocity S-wave (km/s) = 3.45724 3.83996 3.65361
# Velocity P-wave (km/s) = 5.50247 6.27179 5.89968
#
# Compressibility (1/GPa) = 0.02986998
#
# Stress axis : x y z
#
# Youngs Moduli (GPa) = 48.94910 60.73674 156.57945
#
# Poissons Ratio (x) = 0.25129 0.37299
# Poissons Ratio (y) = 0.20252 0.02909
# Poissons Ratio (z) = 0.11660 0.01128
#
# Static dielectric constant tensor:
#      x y z
#    x 1.918840 0.021740 -0.036610 
#    y 0.021740 1.895580 -0.004720 
#    z -0.036610 -0.004720 1.887790 
# 
# From -- ./inp_files/256061.got.cif
#   From: 2010.05.17/outbox.cif.g08.bks.cpg/sg2_129_cif.got.tgz:256061.got - 2010.06.03 11:33:40.
