data_PCOD9022131
_publ_section_title
;
Structure prediction by ZEFSAII (Michael W. Deem and Ramdas Pophale) SiO2 
 PCOD9022131
Probable space group: P -1
;
_chemical_formula_sum "Si O2"
_cell_formula_units_Z 16
_cell_length_a 16.557038
_cell_length_b 6.628129
_cell_length_c 10.550360
_cell_angle_alpha 69.511955
_cell_angle_beta 125.523920
_cell_angle_gamma 124.883519
_cell_volume 772.727052
_symmetry_space_group_name_H-M "P -1"
_symmetry_group_IT_number 2
_symmetry_cell_setting 'triclinic'
loop_
_space_group_symop_operation_xyz
x,y,z
-x,-y,-z
loop_
_atom_site_type_symbol
_atom_site_label
_atom_site_fract_x
_atom_site_fract_y
_atom_site_fract_z
Si Si1 0.996393 0.639780 0.093084
Si Si2 0.792366 0.976971 0.279453
Si Si3 0.537868 0.196786 0.105508
Si Si4 0.956624 0.707725 0.606981
Si Si5 0.650803 0.731950 0.966514
Si Si6 0.771177 0.289098 0.376863
Si Si7 0.805680 0.789863 0.860636
Si Si8 0.210104 0.167562 0.437844
O O1 0.010792 0.482278 0.252793
O O2 0.100118 0.919922 0.124201
O O3 0.000000 0.500000 0.000000
O O4 0.880113 0.656167 0.990446
O O5 0.641187 0.220631 0.281165
O O6 0.777890 0.210367 0.255892
O O7 0.925916 0.082245 0.386121
O O8 0.749789 0.876431 0.126520
O O9 0.435243 0.161326 0.110870
O O10 0.584780 0.453246 0.016726
O O11 0.500000 0.000000 0.000000
O O12 0.864140 0.555795 0.447643
O O13 0.900083 0.802928 0.639928
O O14 0.710270 0.751620 0.883364
O O15 0.730052 0.776202 0.379931
O O16 0.801086 0.102585 0.522291
O O17 0.749158 0.708510 0.687407
#
# Coordination Sequence:
#
# PCOD9022131 Si02
#       8
#     2   2   2   2   2   2   2   2
#     4  11  22  37  61  89 139 179 211 250 318 394
#     4  10  22  39  64  99 130 170 217 259 325 384
#     4  11  23  47  69  95 121 169 225 282 320 377
#     4  12  21  38  64  97 134 178 213 259 321 389
#     4  11  25  42  71  96 129 165 222 277 325 379
#     4  10  23  38  65  91 130 168 213 271 320 373
#     4  11  24  40  59  97 133 171 212 264 322 390
#     4  10  22  39  56  91 135 168 210 261 314 389
#
# _framework density 20.705888999999999
#
# number of rings (size 3 to 8) (size 9 to 14) (size 15 to 20)
#    0.750    0.500    3.750    2.250    3.500    1.000 
#    0.000    0.625    0.000   10.500    0.000    0.000 
#    0.000    0.000    0.000    0.000    0.000    0.000 
#
# Total GULP energy -89118.968072 kJ/mol
# GULP energy per Si atom -5569.935504 kJ/mol
# Density = 2.065876 g / cm^3
# Si number density = 20.705889 Si / 1000 Ang^3
#
#
#
# Elastic Constant Matrix: (Units=GPa)
#
#
# Indices 1 2 3 4 5 6 
#
# 1 158.4758 30.0473 44.4684 -4.2706 -4.0306 -18.0573
# 2 30.0473 69.9553 34.9646 0.5611 12.4058 -15.4539
# 3 44.4684 34.9646 73.9199 2.3973 -6.0503 -7.7514
# 4 -4.2706 0.5611 2.3973 30.4989 -1.8882 1.6941
# 5 -4.0306 12.4058 -6.0503 -1.8882 42.0093 -3.0308
# 6 -18.0573 -15.4539 -7.7514 1.6941 -3.0308 24.4950
#
#
#
# Elastic Compliance Matrix: (Units=1/GPa)
#
#
# Indices 1 2 3 4 5 6 
#
# 1 0.008129 -0.000620 -0.004127 0.001281 0.000736 0.004298
# 2 -0.000620 0.023243 -0.010168 -0.000752 -0.007694 0.010089
# 3 -0.004127 -0.010168 0.021108 -0.001603 0.005431 -0.001995
# 4 0.001281 -0.000752 -0.001603 0.033317 0.001456 -0.002161
# 5 0.000736 -0.007694 0.005431 0.001456 0.027042 0.000653
# 6 0.004298 0.010089 -0.001995 -0.002161 0.000653 0.049957
#
#
# Mechanical properties :
#
#
# Convention : Reuss Voigt Hill
#
# Bulk Modulus (GPa) = 44.15412 57.92352 51.03882
# Shear Modulus (GPa) = 24.97801 32.25869 28.61835
#
# Velocity S-wave (km/s) = 3.47699 3.95137 3.72174
# Velocity P-wave (km/s) = 6.12290 6.98948 6.57050
#
# Compressibility (1/GPa) = 0.02264794
#
# Stress axis : x y z
#
# Youngs Moduli (GPa) = 123.02023 43.02444 47.37527
#
# Poissons Ratio (x) = 0.02667 0.19554
# Poissons Ratio (y) = 0.07627 0.48173
# Poissons Ratio (z) = 0.50776 0.43749
#
# Static dielectric constant tensor:
#      x y z
#    x 1.764740 -0.047690 0.013840 
#    y -0.047690 1.796960 -0.027810 
#    z 0.013840 -0.027810 1.805630 
# 
# From -- ./inp_files/441835.got.cif
#   From: 2010.05.17/outbox.cif.g08.bks.cpg/sg2_221_cif.got.tgz:441835.got - 2010.06.03 11:33:40.
