data_PCOD9022681
_publ_section_title
;
Structure prediction by ZEFSAII (Michael W. Deem and Ramdas Pophale) SiO2 
 PCOD9022681
Probable space group: P -1
;
_chemical_formula_sum "Si O2"
_cell_formula_units_Z 16
_cell_length_a 6.348776
_cell_length_b 8.691818
_cell_length_c 23.516178
_cell_angle_alpha 130.551883
_cell_angle_beta 40.940418
_cell_angle_gamma 118.647651
_cell_volume 645.921710
_symmetry_space_group_name_H-M "P -1"
_symmetry_group_IT_number 2
_symmetry_cell_setting 'triclinic'
loop_
_space_group_symop_operation_xyz
x,y,z
-x,-y,-z
loop_
_atom_site_type_symbol
_atom_site_label
_atom_site_fract_x
_atom_site_fract_y
_atom_site_fract_z
Si Si1 0.632087 0.997675 0.909885
Si Si2 0.736946 0.854617 0.136234
Si Si3 0.785857 0.654034 0.968216
Si Si4 0.277822 0.247109 0.329343
Si Si5 0.520588 0.711347 0.579252
Si Si6 0.851213 0.606546 0.722835
Si Si7 0.927510 0.383798 0.769172
Si Si8 0.368008 0.006768 0.592674
O O1 0.981435 0.102559 0.865475
O O2 0.612683 0.768769 0.838095
O O3 0.388156 0.133301 0.957268
O O4 0.500000 0.000000 0.000000
O O5 0.419831 0.724587 0.183301
O O6 0.564754 0.080373 0.216880
O O7 0.922259 0.715760 0.016892
O O8 0.942567 0.563034 0.856529
O O9 0.500000 0.500000 0.000000
O O10 0.289355 0.319918 0.409142
O O11 0.260498 0.421366 0.326242
O O12 0.946636 0.128233 0.369530
O O13 0.500000 0.500000 0.500000
O O14 0.164682 0.740097 0.683099
O O15 0.600198 0.897824 0.566276
O O16 0.943885 0.447060 0.714374
O O17 0.219412 0.229243 0.687699
O O18 0.500000 0.000000 0.500000
#
# Coordination Sequence:
#
# PCOD9022681 Si02
#       8
#     2   2   2   2   2   2   2   2
#     4  12  23  41  65  94 134 179 225 275 320 387
#     4  10  22  42  66  92 134 183 221 268 337 384
#     4  10  22  39  63  94 135 173 224 273 322 391
#     4  10  22  42  72  96 130 179 218 272 332 394
#     4  11  24  44  72  95 130 171 221 280 336 393
#     4  11  22  42  66  99 137 170 229 275 322 397
#     4  10  22  43  66 102 137 177 223 276 328 397
#     4  10  23  44  71  98 135 171 219 275 336 394
#
# _framework density 24.770803000000001
#
# number of rings (size 3 to 8) (size 9 to 14) (size 15 to 20)
#    0.000    1.500    3.750    0.750    1.750    5.000 
#    2.250    7.500    0.000    0.000    0.000    0.000 
#    0.000    0.000    0.000    0.000    0.000    0.000 
#
# Total GULP energy -89170.448703 kJ/mol
# GULP energy per Si atom -5573.153044 kJ/mol
# Density = 2.471442 g / cm^3
# Si number density = 24.770803 Si / 1000 Ang^3
#
#
#
# Elastic Constant Matrix: (Units=GPa)
#
#
# Indices 1 2 3 4 5 6 
#
# 1 81.0320 37.8448 37.2002 6.0487 40.7725 -15.8379
# 2 37.8448 91.6898 26.0880 -8.5987 14.8432 -26.9233
# 3 37.2002 26.0880 104.0982 3.1502 20.1347 -8.8563
# 4 6.0487 -8.5987 3.1502 36.6533 2.8151 -0.2515
# 5 40.7725 14.8432 20.1347 2.8151 39.0920 -10.9195
# 6 -15.8379 -26.9233 -8.8563 -0.2515 -10.9195 45.3991
#
#
#
# Elastic Compliance Matrix: (Units=1/GPa)
#
#
# Indices 1 2 3 4 5 6 
#
# 1 0.032867 -0.008622 -0.003945 -0.004888 -0.029020 -0.001424
# 2 -0.008622 0.016916 -0.001656 0.005183 0.005284 0.008001
# 3 -0.003945 -0.001656 0.011675 -0.000641 -0.001337 -0.000406
# 4 -0.004888 0.005183 -0.000641 0.029229 0.001875 0.001856
# 5 -0.029020 0.005284 -0.001337 0.001875 0.056145 0.006264
# 6 -0.001424 0.008001 -0.000406 0.001856 0.006264 0.027712
#
#
# Mechanical properties :
#
#
# Convention : Reuss Voigt Hill
#
# Bulk Modulus (GPa) = 30.29242 53.23177 41.76209
# Shear Modulus (GPa) = 23.36503 35.94135 29.65319
#
# Velocity S-wave (km/s) = 3.07457 3.81327 3.46367
# Velocity P-wave (km/s) = 4.98594 6.39722 5.73516
#
# Compressibility (1/GPa) = 0.03301156
#
# Stress axis : x y z
#
# Youngs Moduli (GPa) = 30.42550 59.11490 85.65622
#
# Poissons Ratio (x) = 0.50969 0.33788
# Poissons Ratio (y) = 0.26233 0.14189
# Poissons Ratio (z) = 0.12002 0.09792
#
# Static dielectric constant tensor:
#      x y z
#    x 1.913430 0.005440 0.009200 
#    y 0.005440 1.909320 0.039720 
#    z 0.009200 0.039720 2.086780 
# 
# From -- ./inp_files/135280.got.cif
#   From: 2010.05.17/outbox.cif.g08.bks.cpg/sg2_68_cif.got.tgz:135280.got - 2010.06.03 11:33:40.
