data_PCOD9022805
_publ_section_title
;
Structure prediction by ZEFSAII (Michael W. Deem and Ramdas Pophale) SiO2 
 PCOD9022805
Probable space group: P -1
;
_chemical_formula_sum "Si O2"
_cell_formula_units_Z 12
_cell_length_a 16.643316
_cell_length_b 6.799947
_cell_length_c 5.917979
_cell_angle_alpha 71.017852
_cell_angle_beta 63.068001
_cell_angle_gamma 57.811826
_cell_volume 502.203779
_symmetry_space_group_name_H-M "P -1"
_symmetry_group_IT_number 2
_symmetry_cell_setting 'triclinic'
loop_
_space_group_symop_operation_xyz
x,y,z
-x,-y,-z
loop_
_atom_site_type_symbol
_atom_site_label
_atom_site_fract_x
_atom_site_fract_y
_atom_site_fract_z
Si Si1 0.117944 0.903623 0.323389
Si Si2 0.007946 0.227651 0.986846
Si Si3 0.415595 0.637705 0.741947
Si Si4 0.731460 0.064056 0.516605
Si Si5 0.528339 0.184742 0.006486
Si Si6 0.129223 0.447871 0.582275
O O1 0.186304 0.911958 0.438062
O O2 0.144766 0.634907 0.335490
O O3 0.105389 0.097175 0.079940
O O4 0.000000 0.000000 0.500000
O O5 0.909821 0.409022 0.183199
O O6 0.040311 0.364679 0.710490
O O7 0.000000 0.000000 0.000000
O O8 0.500000 0.500000 0.500000
O O9 0.307757 0.763415 0.712923
O O10 0.444944 0.820545 0.762270
O O11 0.434735 0.438831 0.976315
O O12 0.772639 0.798538 0.479018
O O13 0.631971 0.141689 0.766801
O O14 0.500000 0.000000 0.000000
#
# Coordination Sequence:
#
# PCOD9022805 Si02
#       6
#     2   2   2   2   2   2
#     4  10  23  42  62  93 142 181 226 283 331 400
#     4  10  22  41  63  92 135 187 234 283 336 395
#     4   9  22  44  69  94 140 172 219 291 345 411
#     4  11  24  41  66 103 134 175 235 279 341 418
#     4  10  23  45  71 100 134 178 224 285 360 419
#     4  10  22  39  64  92 133 180 227 279 342 393
#
# _framework density 23.894682
#
# number of rings (size 3 to 8) (size 9 to 14) (size 15 to 20)
#    0.000    2.000    0.000    2.000    2.333   15.333 
#    0.000    0.000    0.000    0.000    0.000    0.000 
#    0.000    0.000    0.000    0.000    0.000    0.000 
#
# Total GULP energy -66887.625465 kJ/mol
# GULP energy per Si atom -5573.968789 kJ/mol
# Density = 2.384030 g / cm^3
# Si number density = 23.894682 Si / 1000 Ang^3
#
#
#
# Elastic Constant Matrix: (Units=GPa)
#
#
# Indices 1 2 3 4 5 6 
#
# 1 157.2065 61.0304 32.7555 -3.8122 33.9307 2.6823
# 2 61.0304 181.3672 35.0867 5.2436 11.5874 0.3988
# 3 32.7555 35.0867 67.2759 1.4550 8.0020 -4.0951
# 4 -3.8122 5.2436 1.4550 46.7189 -7.9006 0.3777
# 5 33.9307 11.5874 8.0020 -7.9006 42.1096 2.7625
# 6 2.6823 0.3988 -4.0951 0.3777 2.7625 50.7970
#
#
#
# Elastic Compliance Matrix: (Units=1/GPa)
#
#
# Indices 1 2 3 4 5 6 
#
# 1 0.009083 -0.002161 -0.002578 0.000017 -0.006210 -0.000333
# 2 -0.002161 0.006730 -0.002474 -0.000817 0.000216 -0.000144
# 3 -0.002578 -0.002474 0.017619 -0.000632 -0.000816 0.001625
# 4 0.000017 -0.000817 -0.000632 0.022289 0.004544 -0.000458
# 5 -0.006210 0.000216 -0.000816 0.004544 0.029791 -0.001393
# 6 -0.000333 -0.000144 0.001625 -0.000458 -0.001393 0.019915
#
#
# Mechanical properties :
#
#
# Convention : Reuss Voigt Hill
#
# Bulk Modulus (GPa) = 52.61357 73.73277 63.17317
# Shear Modulus (GPa) = 39.62317 46.39024 43.00671
#
# Velocity S-wave (km/s) = 4.07657 4.41096 4.24706
# Velocity P-wave (km/s) = 6.65016 7.54099 7.10954
#
# Compressibility (1/GPa) = 0.01900650
#
# Stress axis : x y z
#
# Youngs Moduli (GPa) = 110.09085 148.59555 56.75620
#
# Poissons Ratio (x) = 0.32111 0.14629
# Poissons Ratio (y) = 0.23790 0.14044
# Poissons Ratio (z) = 0.28377 0.36768
#
# Static dielectric constant tensor:
#      x y z
#    x 1.955450 0.014600 0.085240 
#    y 0.014600 1.952450 -0.045060 
#    z 0.085240 -0.045060 2.126700 
# 
# From -- ./inp_files/102375.got.cif
#   From: 2010.05.17/outbox.cif.g08.bks.cpg/sg2_52_cif.got.tgz:102375.got - 2010.06.03 11:33:40.
