data_PCOD9022549
_publ_section_title
;
Structure prediction by ZEFSAII (Michael W. Deem and Ramdas Pophale) SiO2 
 PCOD9022549
Probable space group: P -1
;
_chemical_formula_sum "Si O2"
_cell_formula_units_Z 10
_cell_length_a 6.736611
_cell_length_b 5.235668
_cell_length_c 13.933270
_cell_angle_alpha 110.977617
_cell_angle_beta 60.910375
_cell_angle_gamma 85.418372
_cell_volume 381.069678
_symmetry_space_group_name_H-M "P -1"
_symmetry_group_IT_number 2
_symmetry_cell_setting 'triclinic'
loop_
_space_group_symop_operation_xyz
x,y,z
-x,-y,-z
loop_
_atom_site_type_symbol
_atom_site_label
_atom_site_fract_x
_atom_site_fract_y
_atom_site_fract_z
Si Si1 0.892392 0.305401 0.803507
Si Si2 0.650370 0.617815 0.633274
Si Si3 0.753863 0.963473 0.484893
Si Si4 0.882481 0.179601 0.168017
Si Si5 0.501680 0.227560 0.110842
O O1 0.736996 0.275787 0.570726
O O2 0.613342 0.453251 0.863198
O O3 0.042043 0.140075 0.656176
O O4 0.957365 0.100563 0.852267
O O5 0.769453 0.741286 0.537504
O O6 0.362818 0.708104 0.695482
O O7 0.666866 0.755307 0.752549
O O8 0.007473 0.425467 0.165914
O O9 0.500000 0.000000 0.500000
O O10 0.757737 0.155022 0.092363
O O11 0.500000 0.000000 0.000000
#
# Coordination Sequence:
#
# PCOD9022549 Si02
#       5
#     2   2   2   2   2
#     4  12  24  41  74  97 130 184 205 268 351 375
#     4  10  22  39  62  95 134 165 208 277 312 385
#     4  12  18  37  67  97 134 165 211 265 330 398
#     4  10  23  44  63 105 130 165 230 260 324 404
#     4  10  26  48  66  96 135 173 229 277 314 386
#
# _framework density 26.24192
#
# number of rings (size 3 to 8) (size 9 to 14) (size 15 to 20)
#    1.200    0.000    4.000    1.800    0.000    6.400 
#    0.000    7.000    0.000    0.000    0.000    0.000 
#    0.000    0.000    0.000    0.000    0.000    0.000 
#
# Total GULP energy -56073.261761 kJ/mol
# GULP energy per Si atom -5607.326176 kJ/mol
# Density = 2.618219 g / cm^3
# Si number density = 26.241920 Si / 1000 Ang^3
#
#
#
# Elastic Constant Matrix: (Units=GPa)
#
#
# Indices 1 2 3 4 5 6 
#
# 1 130.5330 56.0253 34.7441 -10.3698 19.1207 -24.7631
# 2 56.0253 216.6472 85.0832 -14.1332 19.8614 -9.3393
# 3 34.7441 85.0832 206.9941 -7.7506 14.9577 2.0043
# 4 -10.3698 -14.1332 -7.7506 46.7251 2.0467 -5.4507
# 5 19.1207 19.8614 14.9577 2.0467 46.2060 -6.5727
# 6 -24.7631 -9.3393 2.0043 -5.4507 -6.5727 51.6133
#
#
#
# Elastic Compliance Matrix: (Units=1/GPa)
#
#
# Indices 1 2 3 4 5 6 
#
# 1 0.009992 -0.001718 -0.000741 0.002204 -0.002627 0.004410
# 2 -0.001718 0.006083 -0.002081 0.001206 -0.001237 0.000327
# 3 -0.000741 -0.002081 0.005887 0.000097 -0.000860 -0.001060
# 4 0.002204 0.001206 0.000097 0.022758 -0.001983 0.003423
# 5 -0.002627 -0.001237 -0.000860 -0.001983 0.023822 0.001374
# 6 0.004410 0.000327 -0.001060 0.003423 0.001374 0.022128
#
#
# Mechanical properties :
#
#
# Convention : Reuss Voigt Hill
#
# Bulk Modulus (GPa) = 77.62774 100.65327 89.14051
# Shear Modulus (GPa) = 48.05613 54.13032 51.09322
#
# Velocity S-wave (km/s) = 4.28398 4.54667 4.41728
# Velocity P-wave (km/s) = 7.35634 8.12417 7.74977
#
# Compressibility (1/GPa) = 0.01288199
#
# Stress axis : x y z
#
# Youngs Moduli (GPa) = 100.07808 164.37932 169.87254
#
# Poissons Ratio (x) = 0.28242 0.12593
# Poissons Ratio (y) = 0.17195 0.35347
# Poissons Ratio (z) = 0.07419 0.34204
#
# Static dielectric constant tensor:
#      x y z
#    x 2.099960 -0.074310 0.003480 
#    y -0.074310 1.988580 0.006850 
#    z 0.003480 0.006850 2.057230 
# 
# From -- ./inp_files/372233.got.cif
#   From: 2010.05.17/outbox.cif.g08.bks.cpg/sg2_187_cif.got.tgz:372233.got - 2010.06.03 11:33:40.
