data_PCOD9022957
_publ_section_title
;
Structure prediction by ZEFSAII (Michael W. Deem and Ramdas Pophale) SiO2 
 PCOD9022957
Probable space group: P -1
;
_chemical_formula_sum "Si O2"
_cell_formula_units_Z 14
_cell_length_a 6.048163
_cell_length_b 10.180278
_cell_length_c 18.489637
_cell_angle_alpha 135.658116
_cell_angle_beta 57.505455
_cell_angle_gamma 131.604961
_cell_volume 590.729921
_symmetry_space_group_name_H-M "P -1"
_symmetry_group_IT_number 2
_symmetry_cell_setting 'triclinic'
loop_
_space_group_symop_operation_xyz
x,y,z
-x,-y,-z
loop_
_atom_site_type_symbol
_atom_site_label
_atom_site_fract_x
_atom_site_fract_y
_atom_site_fract_z
Si Si1 0.319075 0.369944 0.113635
Si Si2 0.290518 0.069346 0.109792
Si Si3 0.849822 0.756320 0.266321
Si Si4 0.228788 0.722569 0.079631
Si Si5 0.739862 0.415485 0.422665
Si Si6 0.719142 0.138780 0.449140
Si Si7 0.211324 0.562233 0.744521
O O1 0.156492 0.167019 0.115839
O O2 0.579844 0.569789 0.191824
O O3 0.060295 0.425239 0.162243
O O4 0.464943 0.283638 0.993393
O O5 0.490268 0.259838 0.202819
O O6 0.125824 0.870690 0.110632
O O7 0.500000 0.000000 0.000000
O O8 0.804433 0.662851 0.319277
O O9 0.157580 0.769238 0.189763
O O10 0.856860 0.981316 0.345671
O O11 0.000000 0.500000 0.000000
O O12 0.500000 0.500000 0.500000
O O13 0.637580 0.213620 0.415928
O O14 0.784189 0.382157 0.317751
O O15 0.050168 0.624929 0.470535
O O16 0.500000 0.000000 0.500000
#
# Coordination Sequence:
#
# PCOD9022957 Si02
#       7
#     2   2   2   2   2   2   2
#     4   9  20  39  62  90 132 170 220 265 326 389
#     4   9  20  38  61  86 130 171 212 264 323 381
#     4  10  22  39  65  93 131 170 217 272 333 392
#     4   9  19  37  58  90 126 171 209 264 320 387
#     4  11  27  45  69 103 138 172 229 288 342 405
#     4  11  25  47  72  96 135 182 224 282 349 403
#     4  11  23  40  65  98 127 173 222 272 329 397
#
# _framework density 23.699491999999999
#
# number of rings (size 3 to 8) (size 9 to 14) (size 15 to 20)
#    0.000    2.000    0.000    2.571    4.000    8.571 
#    0.000    0.000    0.000    0.000    0.000    0.000 
#    0.000    0.000    0.000    0.000    0.000    0.000 
#
# Total GULP energy -77980.393372 kJ/mol
# GULP energy per Si atom -5570.028098 kJ/mol
# Density = 2.364555 g / cm^3
# Si number density = 23.699492 Si / 1000 Ang^3
#
#
#
# Elastic Constant Matrix: (Units=GPa)
#
#
# Indices 1 2 3 4 5 6 
#
# 1 36.0018 38.0741 14.9221 1.0521 -12.1920 -20.4298
# 2 38.0741 174.9201 46.6629 6.8816 -9.9381 -46.5792
# 3 14.9221 46.6629 107.8237 -10.3617 -15.3698 -20.6221
# 4 1.0521 6.8816 -10.3617 37.7217 -3.3104 -8.2237
# 5 -12.1920 -9.9381 -15.3698 -3.3104 37.2377 7.3358
# 6 -20.4298 -46.5792 -20.6221 -8.2237 7.3358 45.9672
#
#
#
# Elastic Compliance Matrix: (Units=1/GPa)
#
#
# Indices 1 2 3 4 5 6 
#
# 1 0.044952 -0.006029 0.000890 0.003950 0.011230 0.013183
# 2 -0.006029 0.009085 -0.002389 -0.001090 -0.001723 0.005535
# 3 0.000890 -0.002389 0.011936 0.004833 0.004319 0.003504
# 4 0.003950 -0.001090 0.004833 0.029929 0.004179 0.007507
# 5 0.011230 -0.001723 0.004319 0.004179 0.032066 0.000814
# 6 0.013183 0.005535 0.003504 0.007507 0.000814 0.036008
#
#
# Mechanical properties :
#
#
# Convention : Reuss Voigt Hill
#
# Bulk Modulus (GPa) = 19.63994 57.56266 38.60130
# Shear Modulus (GPa) = 25.50966 38.79109 32.15038
#
# Velocity S-wave (km/s) = 3.28438 4.05012 3.68718
# Velocity P-wave (km/s) = 4.76319 6.79798 5.86943
#
# Compressibility (1/GPa) = 0.05091665
#
# Stress axis : x y z
#
# Youngs Moduli (GPa) = 22.24599 110.06634 83.78300
#
# Poissons Ratio (x) = 0.66355 -0.07455
# Poissons Ratio (y) = 0.13411 0.20018
# Poissons Ratio (z) = -0.01979 0.26298
#
# Static dielectric constant tensor:
#      x y z
#    x 1.915770 0.006900 -0.020460 
#    y 0.006900 1.946590 -0.020280 
#    z -0.020460 -0.020280 1.923970 
# 
# From -- ./inp_files/548388.got.cif
#   From: 2010.05.17/outbox.cif.g08.bks.cpg/sg2_275_cif.got.tgz:548388.got - 2010.06.03 11:33:40.
