data_PCOD9022426
_publ_section_title
;
Structure prediction by ZEFSAII (Michael W. Deem and Ramdas Pophale) SiO2 
 PCOD9022426
Probable space group: P -1
;
_chemical_formula_sum "Si O2"
_cell_formula_units_Z 14
_cell_length_a 23.992445
_cell_length_b 17.760410
_cell_length_c 13.348716
_cell_angle_alpha 19.914154
_cell_angle_beta 18.531910
_cell_angle_gamma 18.878087
_cell_volume 531.199288
_symmetry_space_group_name_H-M "P -1"
_symmetry_group_IT_number 2
_symmetry_cell_setting 'triclinic'
loop_
_space_group_symop_operation_xyz
x,y,z
-x,-y,-z
loop_
_atom_site_type_symbol
_atom_site_label
_atom_site_fract_x
_atom_site_fract_y
_atom_site_fract_z
Si Si1 0.413292 0.973336 0.073678
Si Si2 0.064052 0.717112 0.716869
Si Si3 0.310071 0.025435 0.672966
Si Si4 0.323444 0.343617 0.593785
Si Si5 0.300276 0.455213 0.014958
Si Si6 0.944177 0.975097 0.276611
Si Si7 0.009122 0.539261 0.226681
O O1 0.179021 0.051122 0.387251
O O2 0.518144 0.702771 0.175604
O O3 0.500000 0.000000 0.000000
O O4 0.441237 0.154169 0.722136
O O5 0.219959 0.617022 0.482977
O O6 0.867592 0.691834 0.060017
O O7 0.000000 0.000000 0.500000
O O8 0.143972 0.548995 0.893224
O O9 0.336368 0.248842 0.295732
O O10 0.194465 0.181116 0.774764
O O11 0.521504 0.759065 0.634308
O O12 0.147066 0.975860 0.955541
O O13 0.113265 0.511678 0.190275
O O14 0.228640 0.739420 0.823026
O O15 0.004366 0.715985 0.439179
#
# Coordination Sequence:
#
# PCOD9022426 Si02
#       7
#     2   2   2   2   2   2   2
#     4  11  20  41  64  96 128 169 215 259 311 384
#     4  11  25  44  72  89 123 170 221 266 316 371
#     4  10  25  41  62  97 136 163 203 261 324 378
#     4  10  24  46  62  97 130 158 219 270 307 379
#     4  10  22  39  61  97 133 164 208 257 315 379
#     4  11  21  37  65  91 130 172 200 256 318 372
#     4  11  22  41  64  95 126 166 217 256 313 381
#
# _framework density 26.355457000000001
#
# number of rings (size 3 to 8) (size 9 to 14) (size 15 to 20)
#    0.000    1.429    2.857    2.143    4.000    4.000 
#    5.143    1.429    0.000    0.000    0.000    0.000 
#    0.000    0.000    0.000    0.000    0.000    0.000 
#
# Total GULP energy -78184.847372 kJ/mol
# GULP energy per Si atom -5584.631955 kJ/mol
# Density = 2.629547 g / cm^3
# Si number density = 26.355457 Si / 1000 Ang^3
#
#
#
# Elastic Constant Matrix: (Units=GPa)
#
#
# Indices 1 2 3 4 5 6 
#
# 1 50.3540 -4.2596 -5.0187 -6.2820 11.6188 1.5378
# 2 -4.2596 224.1826 42.7487 -9.6680 -9.6463 31.6848
# 3 -5.0187 42.7487 60.2395 -26.6592 -3.2758 8.0784
# 4 -6.2820 -9.6680 -26.6592 64.9183 4.4220 2.3961
# 5 11.6188 -9.6463 -3.2758 4.4220 24.9093 2.6488
# 6 1.5378 31.6848 8.0784 2.3961 2.6488 27.4539
#
#
#
# Elastic Compliance Matrix: (Units=1/GPa)
#
#
# Indices 1 2 3 4 5 6 
#
# 1 0.023415 -0.000384 0.003819 0.004591 -0.011244 -0.001308
# 2 -0.000384 0.006121 -0.003653 -0.000590 0.002832 -0.006190
# 3 0.003819 -0.003653 0.024434 0.010097 -0.001357 -0.003938
# 4 0.004591 -0.000590 0.010097 0.020340 -0.004237 -0.003914
# 5 -0.011244 0.002832 -0.001357 -0.004237 0.047750 -0.006477
# 6 -0.001308 -0.006190 -0.003938 -0.003914 -0.006477 0.045767
#
#
# Mechanical properties :
#
#
# Convention : Reuss Voigt Hill
#
# Bulk Modulus (GPa) = 18.67994 44.63523 31.65758
# Shear Modulus (GPa) = 26.86625 43.54335 35.20480
#
# Velocity S-wave (km/s) = 3.19624 4.06908 3.65878
# Velocity P-wave (km/s) = 4.55240 6.24894 5.46688
#
# Compressibility (1/GPa) = 0.05353337
#
# Stress axis : x y z
#
# Youngs Moduli (GPa) = 42.70815 163.36714 40.92691
#
# Poissons Ratio (x) = 0.06280 -0.15631
# Poissons Ratio (y) = 0.01642 0.14951
# Poissons Ratio (z) = -0.16311 0.59678
#
# Static dielectric constant tensor:
#      x y z
#    x 2.119540 -0.049720 0.055310 
#    y -0.049720 2.238540 -0.004870 
#    z 0.055310 -0.004870 2.067520 
# 
# From -- ./inp_files/544305.got.cif
#   From: 2010.05.17/outbox.cif.g08.bks.cpg/sg2_273_cif.got.tgz:544305.got - 2010.06.03 11:33:40.
