data_PCOD9022391
_publ_section_title
;
Structure prediction by ZEFSAII (Michael W. Deem and Ramdas Pophale) SiO2 
 PCOD9022391
Probable space group: P -1
;
_chemical_formula_sum "Si O2"
_cell_formula_units_Z 14
_cell_length_a 5.564999
_cell_length_b 14.524857
_cell_length_c 6.992342
_cell_angle_alpha 113.127788
_cell_angle_beta 88.743335
_cell_angle_gamma 95.398929
_cell_volume 517.396922
_symmetry_space_group_name_H-M "P -1"
_symmetry_group_IT_number 2
_symmetry_cell_setting 'triclinic'
loop_
_space_group_symop_operation_xyz
x,y,z
-x,-y,-z
loop_
_atom_site_type_symbol
_atom_site_label
_atom_site_fract_x
_atom_site_fract_y
_atom_site_fract_z
Si Si1 0.239798 0.646801 0.553507
Si Si2 0.346766 0.985648 0.254958
Si Si3 0.152864 0.106779 0.926859
Si Si4 0.645849 0.163155 0.540282
Si Si5 0.762527 0.700326 0.654234
Si Si6 0.241502 0.479559 0.093310
Si Si7 0.717919 0.728758 0.219477
O O1 0.229143 0.758978 0.548922
O O2 0.488280 0.657051 0.674655
O O3 0.257946 0.557614 0.330829
O O4 0.979041 0.632043 0.641226
O O5 0.592856 0.944114 0.133600
O O6 0.282234 0.930987 0.415708
O O7 0.103622 0.960482 0.118816
O O8 0.421365 0.102721 0.384245
O O9 0.138812 0.171326 0.782333
O O10 0.178926 0.192897 0.156947
O O11 0.556041 0.241146 0.760381
O O12 0.752002 0.702526 0.420455
O O13 0.500000 0.500000 0.000000
O O14 0.225209 0.359018 0.990924
O O15 0.000000 0.500000 0.000000
#
# Coordination Sequence:
#
# PCOD9022391 Si02
#       7
#     2   2   2   2   2   2   2
#     4  11  21  39  61  91 124 161 205 256 306 363
#     4  10  22  39  61  92 128 159 211 254 301 367
#     4  11  24  42  62  92 127 164 204 256 303 365
#     4   9  20  38  66  92 121 168 204 254 310 363
#     4  11  22  40  63  89 126 163 204 253 305 362
#     4  12  21  38  64  96 120 158 210 251 303 374
#     4  10  22  41  66  90 123 165 203 251 314 359
#
# _framework density 27.058529
#
# number of rings (size 3 to 8) (size 9 to 14) (size 15 to 20)
#    0.000    1.429    4.286    1.714    0.000    7.429 
#    0.000   11.429    0.000    0.000    0.000    0.000 
#    0.000    0.000    0.000    0.000    0.000    0.000 
#
# Total GULP energy -78195.892623 kJ/mol
# GULP energy per Si atom -5585.420902 kJ/mol
# Density = 2.699694 g / cm^3
# Si number density = 27.058529 Si / 1000 Ang^3
#
#
#
# Elastic Constant Matrix: (Units=GPa)
#
#
# Indices 1 2 3 4 5 6 
#
# 1 198.1012 29.0737 68.3848 18.0992 10.0022 6.4027
# 2 29.0737 93.9194 21.0740 18.5047 1.4958 6.0380
# 3 68.3848 21.0740 171.5188 23.9699 -11.2706 -1.6692
# 4 18.0992 18.5047 23.9699 44.0581 2.2916 -6.4881
# 5 10.0022 1.4958 -11.2706 2.2916 57.3964 6.9630
# 6 6.4027 6.0380 -1.6692 -6.4881 6.9630 23.7875
#
#
#
# Elastic Compliance Matrix: (Units=1/GPa)
#
#
# Indices 1 2 3 4 5 6 
#
# 1 0.006205 -0.001098 -0.002301 -0.000982 -0.001290 -0.001443
# 2 -0.001098 0.012378 -0.000358 -0.005238 0.000549 -0.004461
# 3 -0.002301 -0.000358 0.007345 -0.003031 0.001996 -0.000185
# 4 -0.000982 -0.005238 -0.003031 0.028550 -0.002633 0.009939
# 5 -0.001290 0.000549 0.001996 -0.002633 0.018844 -0.005886
# 6 -0.001443 -0.004461 -0.000185 0.009939 -0.005886 0.047981
#
#
# Mechanical properties :
#
#
# Convention : Reuss Voigt Hill
#
# Bulk Modulus (GPa) = 54.30835 77.84494 66.07665
# Shear Modulus (GPa) = 37.04971 48.04884 42.54927
#
# Velocity S-wave (km/s) = 3.70434 4.21852 3.96977
# Velocity P-wave (km/s) = 6.19762 7.24979 6.74425
#
# Compressibility (1/GPa) = 0.01841338
#
# Stress axis : x y z
#
# Youngs Moduli (GPa) = 161.16934 80.78980 136.15580
#
# Poissons Ratio (x) = 0.08869 0.31324
# Poissons Ratio (y) = 0.17693 0.04880
# Poissons Ratio (z) = 0.37078 0.02896
#
# Static dielectric constant tensor:
#      x y z
#    x 2.187990 -0.009260 -0.004610 
#    y -0.009260 2.210170 -0.093320 
#    z -0.004610 -0.093320 2.078590 
# 
# From -- ./inp_files/51315.got.cif
#   From: 2010.05.17/outbox.cif.g08.bks.cpg/sg2_26_cif.got.tgz:51315.got - 2010.06.03 11:33:40.
