data_PCOD9022868
_publ_section_title
;
Structure prediction by ZEFSAII (Michael W. Deem and Ramdas Pophale) SiO2 
 PCOD9022868
Probable space group: P -1
;
_chemical_formula_sum "Si O2"
_cell_formula_units_Z 15
_cell_length_a 8.258298
_cell_length_b 18.851795
_cell_length_c 9.796417
_cell_angle_alpha 36.808383
_cell_angle_beta 61.243837
_cell_angle_gamma 83.034429
_cell_volume 692.630579
_symmetry_space_group_name_H-M "P -1"
_symmetry_group_IT_number 2
_symmetry_cell_setting 'triclinic'
loop_
_space_group_symop_operation_xyz
x,y,z
-x,-y,-z
loop_
_atom_site_type_symbol
_atom_site_label
_atom_site_fract_x
_atom_site_fract_y
_atom_site_fract_z
Si Si1 0.500000 0.500000 0.500000
Si Si2 0.008826 0.127860 0.721037
Si Si3 0.330953 0.010680 0.150782
Si Si4 0.324311 0.015037 0.463477
Si Si5 0.494599 0.359119 0.190360
Si Si6 0.367937 0.675638 0.095495
Si Si7 0.561497 0.689762 0.421299
Si Si8 0.954471 0.221161 0.869790
O O1 0.386181 0.566019 0.348906
O O2 0.448584 0.564314 0.558816
O O3 0.895731 0.175079 0.806936
O O4 0.253019 0.244160 0.428279
O O5 0.889653 0.081909 0.697366
O O6 0.000000 0.000000 0.000000
O O7 0.317910 0.972644 0.373942
O O8 0.389272 0.168159 0.883725
O O9 0.500000 0.000000 0.000000
O O10 0.500000 0.000000 0.500000
O O11 0.415117 0.177232 0.188264
O O12 0.117612 0.906428 0.798988
O O13 0.550895 0.321073 0.372251
O O14 0.500000 0.500000 0.000000
O O15 0.634959 0.362354 0.002913
O O16 0.167569 0.697981 0.168309
O O17 0.790466 0.702626 0.343268
#
# Coordination Sequence:
#
# PCOD9022868 Si02
#       8
#     1   2   2   2   2   2   2   2
#     4  12  24  44  60  98 130 182 226 270 330 410
#     4  11  22  43  70  99 137 175 229 287 346 410
#     4  12  24  40  69 104 137 177 227 293 349 403
#     4  10  22  39  64  98 132 170 217 281 342 401
#     4  11  23  43  67  95 132 182 226 272 348 408
#     4  11  23  40  70  91 132 178 223 275 333 414
#     4  11  25  44  66  94 135 175 229 279 340 410
#     4  10  23  43  65 100 128 174 224 280 348 397
#
# _framework density 21.656563999999999
#
# number of rings (size 3 to 8) (size 9 to 14) (size 15 to 20)
#    0.000    1.067    5.333    2.400    3.733    2.133 
#    0.000    0.000    0.000    4.800    0.000    0.000 
#    0.000    0.000    0.000    0.000    0.000    0.000 
#
# Total GULP energy -83509.674531 kJ/mol
# GULP energy per Si atom -5567.311635 kJ/mol
# Density = 2.160727 g / cm^3
# Si number density = 21.656564 Si / 1000 Ang^3
#
#
#
# Elastic Constant Matrix: (Units=GPa)
#
#
# Indices 1 2 3 4 5 6 
#
# 1 61.1023 46.0298 27.3863 14.4616 24.1956 4.7590
# 2 46.0298 156.8866 15.6829 36.0360 19.2811 2.4763
# 3 27.3863 15.6829 40.4636 16.7921 17.7102 2.0586
# 4 14.4616 36.0360 16.7921 47.3352 10.1767 13.1858
# 5 24.1956 19.2811 17.7102 10.1767 27.2650 9.7877
# 6 4.7590 2.4763 2.0586 13.1858 9.7877 51.0805
#
#
#
# Elastic Compliance Matrix: (Units=1/GPa)
#
#
# Indices 1 2 3 4 5 6 
#
# 1 0.034355 -0.007421 -0.014435 0.003998 -0.017369 0.000037
# 2 -0.007421 0.009897 0.004777 -0.007227 -0.001606 0.002192
# 3 -0.014435 0.004777 0.045396 -0.013299 -0.017254 0.006023
# 4 0.003998 -0.007227 -0.013299 0.032116 0.001080 -0.007983
# 5 -0.017369 -0.001606 -0.017254 0.001080 0.067946 -0.010907
# 6 0.000037 0.002192 0.006023 -0.007983 -0.010907 0.023375
#
#
# Mechanical properties :
#
#
# Convention : Reuss Voigt Hill
#
# Bulk Modulus (GPa) = 18.02095 48.51673 33.26884
# Shear Modulus (GPa) = 18.81557 36.42638 27.62098
#
# Velocity S-wave (km/s) = 2.95077 4.10567 3.57516
# Velocity P-wave (km/s) = 4.46639 6.70274 5.69541
#
# Compressibility (1/GPa) = 0.05549096
#
# Stress axis : x y z
#
# Youngs Moduli (GPa) = 29.10825 101.04567 22.02833
#
# Poissons Ratio (x) = 0.74985 0.31797
# Poissons Ratio (y) = 0.21601 -0.10524
# Poissons Ratio (z) = 0.42016 -0.48273
#
# Static dielectric constant tensor:
#      x y z
#    x 1.822960 0.005320 -0.021110 
#    y 0.005320 1.816150 -0.001440 
#    z -0.021110 -0.001440 1.847950 
# 
# From -- ./inp_files/216411.got.cif
#   From: 2010.05.17/outbox.cif.g08.bks.cpg/sg2_109_cif.got.tgz:216411.got - 2010.06.03 11:33:40.
