data_PCOD9022774
_publ_section_title
;
Structure prediction by ZEFSAII (Michael W. Deem and Ramdas Pophale) SiO2 
 PCOD9022774
Probable space group: P -1
;
_chemical_formula_sum "Si O2"
_cell_formula_units_Z 12
_cell_length_a 16.503723
_cell_length_b 8.123519
_cell_length_c 9.302341
_cell_angle_alpha 51.280945
_cell_angle_beta 137.734592
_cell_angle_gamma 145.288448
_cell_volume 477.164704
_symmetry_space_group_name_H-M "P -1"
_symmetry_group_IT_number 2
_symmetry_cell_setting 'triclinic'
loop_
_space_group_symop_operation_xyz
x,y,z
-x,-y,-z
loop_
_atom_site_type_symbol
_atom_site_label
_atom_site_fract_x
_atom_site_fract_y
_atom_site_fract_z
Si Si1 0.870630 0.674919 0.080281
Si Si2 0.607609 0.184512 0.400560
Si Si3 0.945458 0.002698 0.234773
Si Si4 0.496188 0.283905 0.711390
Si Si5 0.265537 0.248016 0.638522
Si Si6 0.074104 0.662029 0.159651
O O1 0.679938 0.474833 0.906565
O O2 0.934397 0.543467 0.156365
O O3 0.902264 0.721971 0.266679
O O4 0.000000 0.000000 0.000000
O O5 0.621512 0.455078 0.282723
O O6 0.787422 0.310260 0.604329
O O7 0.500000 0.000000 0.500000
O O8 0.547841 0.976915 0.298278
O O9 0.146003 0.237237 0.376692
O O10 0.871181 0.984778 0.297615
O O11 0.851990 0.032199 0.976485
O O12 0.500000 0.500000 0.500000
O O13 0.367020 0.193748 0.716601
O O14 0.000000 0.500000 0.000000
#
# Coordination Sequence:
#
# PCOD9022774 Si02
#       6
#     2   2   2   2   2   2
#     4  10  22  39  64  90 121 173 214 256 318 384
#     4  12  24  40  67  99 126 168 219 267 316 385
#     4  10  22  44  64  93 131 170 210 266 322 381
#     4  12  22  41  65  93 133 168 214 269 318 379
#     4  11  24  43  66  97 131 168 214 264 329 376
#     4  11  20  40  66  94 125 164 219 260 312 384
#
# _framework density 25.148548000000002
#
# number of rings (size 3 to 8) (size 9 to 14) (size 15 to 20)
#    0.000    1.000    3.333    6.000    0.000    0.667 
#    3.000    3.333    0.000    0.000    0.000    0.000 
#    0.000    0.000    0.000    0.000    0.000    0.000 
#
# Total GULP energy -66962.942289 kJ/mol
# GULP energy per Si atom -5580.245191 kJ/mol
# Density = 2.509131 g / cm^3
# Si number density = 25.148548 Si / 1000 Ang^3
#
#
#
# Elastic Constant Matrix: (Units=GPa)
#
#
# Indices 1 2 3 4 5 6 
#
# 1 254.8858 56.3840 61.2669 42.4093 -3.9908 -1.0442
# 2 56.3840 77.3936 33.4139 34.4912 -3.0870 -16.9079
# 3 61.2669 33.4139 86.6236 33.7972 4.0169 -3.7347
# 4 42.4093 34.4912 33.7972 50.2162 -1.4031 -12.0371
# 5 -3.9908 -3.0870 4.0169 -1.4031 38.6198 18.3202
# 6 -1.0442 -16.9079 -3.7347 -12.0371 18.3202 48.3428
#
#
#
# Elastic Compliance Matrix: (Units=1/GPa)
#
#
# Indices 1 2 3 4 5 6 
#
# 1 0.005318 -0.002508 -0.002306 -0.001629 0.001424 -0.001886
# 2 -0.002508 0.021132 -0.002356 -0.009597 -0.001139 0.005197
# 3 -0.002306 -0.002356 0.017436 -0.008422 -0.002165 -0.000804
# 4 -0.001629 -0.009597 -0.008422 0.034729 -0.001197 0.005059
# 5 0.001424 -0.001139 -0.002165 -0.001197 0.032340 -0.013089
# 6 -0.001886 0.005197 -0.000804 0.005059 -0.013089 0.028620
#
#
# Mechanical properties :
#
#
# Convention : Reuss Voigt Hill
#
# Bulk Modulus (GPa) = 33.84586 80.11474 56.98030
# Shear Modulus (GPa) = 30.53177 45.29165 37.91171
#
# Velocity S-wave (km/s) = 3.48811 4.24838 3.88688
# Velocity P-wave (km/s) = 5.45070 7.48270 6.54603
#
# Compressibility (1/GPa) = 0.02954571
#
# Stress axis : x y z
#
# Youngs Moduli (GPa) = 188.04213 47.32071 57.35389
#
# Poissons Ratio (x) = 0.11869 0.13223
# Poissons Ratio (y) = 0.47163 0.13515
# Poissons Ratio (z) = 0.43355 0.11151
#
# Static dielectric constant tensor:
#      x y z
#    x 2.243790 -0.256230 -0.031280 
#    y -0.256230 2.440540 -0.173260 
#    z -0.031280 -0.173260 2.028620 
# 
# From -- ./inp_files/292238.got.cif
#   From: 2010.05.17/outbox.cif.g08.bks.cpg/sg2_147_cif.got.tgz:292238.got - 2010.06.03 11:33:40.
