data_PCOD9022520
_publ_section_title
;
Structure prediction by ZEFSAII (Michael W. Deem and Ramdas Pophale) SiO2 
 PCOD9022520
Probable space group: P -1
;
_chemical_formula_sum "Si O2"
_cell_formula_units_Z 16
_cell_length_a 25.790820
_cell_length_b 13.923715
_cell_length_c 8.654526
_cell_angle_alpha 132.526745
_cell_angle_beta 150.744847
_cell_angle_gamma 30.195163
_cell_volume 724.253047
_symmetry_space_group_name_H-M "P -1"
_symmetry_group_IT_number 2
_symmetry_cell_setting 'triclinic'
loop_
_space_group_symop_operation_xyz
x,y,z
-x,-y,-z
loop_
_atom_site_type_symbol
_atom_site_label
_atom_site_fract_x
_atom_site_fract_y
_atom_site_fract_z
Si Si1 0.937746 0.731430 0.166325
Si Si2 0.387806 0.089916 0.453347
Si Si3 0.439359 0.323652 0.419280
Si Si4 0.181092 0.142291 0.353804
Si Si5 0.974163 0.096595 0.278808
Si Si6 0.096103 0.724076 0.050432
Si Si7 0.354024 0.708903 0.257953
Si Si8 0.702491 0.691457 0.250901
O O1 0.914750 0.898953 0.349623
O O2 0.116201 0.521211 0.457195
O O3 0.802861 0.758804 0.912495
O O4 0.913093 0.759895 0.949324
O O5 0.394520 0.192480 0.715833
O O6 0.500000 0.000000 0.500000
O O7 0.450226 0.898123 0.481982
O O8 0.278672 0.497980 0.292519
O O9 0.557865 0.335804 0.721084
O O10 0.370689 0.344204 0.095037
O O11 0.280271 0.185311 0.659666
O O12 0.291547 0.907325 0.381334
O O13 0.045280 0.248286 0.248384
O O14 0.923996 0.199280 0.091272
O O15 0.809493 0.224502 0.088492
O O16 0.062628 0.876544 0.242490
O O17 0.500000 0.500000 0.500000
#
# Coordination Sequence:
#
# PCOD9022520 Si02
#       8
#     2   2   2   2   2   2   2   2
#     4  11  22  45  66  93 128 176 210 259 328 389
#     4  11  26  43  64  98 136 159 210 275 323 377
#     4  12  23  43  66  95 130 169 215 266 322 378
#     4  10  23  38  65  92 130 165 218 262 317 388
#     4  10  22  42  63  90 126 169 217 259 311 382
#     4  10  22  39  62  93 125 162 218 263 306 375
#     4  11  20  39  62  89 126 171 211 263 312 370
#     4  11  23  43  67  94 127 176 213 253 326 399
#
# _framework density 22.091726999999999
#
# number of rings (size 3 to 8) (size 9 to 14) (size 15 to 20)
#    0.000    1.250    5.000    1.875    3.500    3.500 
#    4.500    0.625    0.000    0.000    0.000    0.000 
#    0.000    0.000    0.000    0.000    0.000    0.000 
#
# Total GULP energy -89407.900222 kJ/mol
# GULP energy per Si atom -5587.993764 kJ/mol
# Density = 2.204145 g / cm^3
# Si number density = 22.091727 Si / 1000 Ang^3
#
#
#
# Elastic Constant Matrix: (Units=GPa)
#
#
# Indices 1 2 3 4 5 6 
#
# 1 90.7506 11.0184 15.8141 -5.0162 26.2561 -11.3356
# 2 11.0184 71.6119 12.5486 -10.6856 2.8200 -5.3272
# 3 15.8141 12.5486 66.8633 -1.6921 4.2447 -6.3467
# 4 -5.0162 -10.6856 -1.6921 43.9232 1.7240 4.2259
# 5 26.2561 2.8200 4.2447 1.7240 23.0992 -11.1032
# 6 -11.3356 -5.3272 -6.3467 4.2259 -11.1032 30.8617
#
#
#
# Elastic Compliance Matrix: (Units=1/GPa)
#
#
# Indices 1 2 3 4 5 6 
#
# 1 0.017401 -0.001163 -0.002736 0.002591 -0.020305 -0.002032
# 2 -0.001163 0.015143 -0.002374 0.003317 0.000314 0.001357
# 3 -0.002736 -0.002374 0.016172 -0.000586 0.001727 0.002613
# 4 0.002591 0.003317 -0.000586 0.024574 -0.007278 -0.004580
# 5 -0.020305 0.000314 0.001727 -0.007278 0.076959 0.021636
# 6 -0.002032 0.001357 0.002613 -0.004580 0.021636 0.040839
#
#
# Mechanical properties :
#
#
# Convention : Reuss Voigt Hill
#
# Bulk Modulus (GPa) = 27.64677 34.22089 30.93383
# Shear Modulus (GPa) = 23.18150 32.23311 27.70731
#
# Velocity S-wave (km/s) = 3.24285 3.82391 3.54530
# Velocity P-wave (km/s) = 5.15394 5.91780 5.54903
#
# Compressibility (1/GPa) = 0.03617059
#
# Stress axis : x y z
#
# Youngs Moduli (GPa) = 57.46739 66.03884 61.83532
#
# Poissons Ratio (x) = 0.07680 0.16916
# Poissons Ratio (y) = 0.06683 0.14680
# Poissons Ratio (z) = 0.15721 0.15678
#
# Static dielectric constant tensor:
#      x y z
#    x 1.863460 0.009350 0.037620 
#    y 0.009350 1.830750 -0.006940 
#    z 0.037620 -0.006940 1.833670 
# 
# From -- ./inp_files/357349.got.cif
#   From: 2010.05.17/outbox.cif.g08.bks.cpg/sg2_179_cif.got.tgz:357349.got - 2010.06.03 11:33:40.
