data_PCOD9022302
_publ_section_title
;
Structure prediction by ZEFSAII (Michael W. Deem and Ramdas Pophale) SiO2 
 PCOD9022302
Probable space group: P -1
;
_chemical_formula_sum "Si O2"
_cell_formula_units_Z 16
_cell_length_a 16.284610
_cell_length_b 9.921162
_cell_length_c 6.819940
_cell_angle_alpha 50.997547
_cell_angle_beta 103.183721
_cell_angle_gamma 124.987467
_cell_volume 686.089228
_symmetry_space_group_name_H-M "P -1"
_symmetry_group_IT_number 2
_symmetry_cell_setting 'triclinic'
loop_
_space_group_symop_operation_xyz
x,y,z
-x,-y,-z
loop_
_atom_site_type_symbol
_atom_site_label
_atom_site_fract_x
_atom_site_fract_y
_atom_site_fract_z
Si Si1 0.079710 0.506379 0.382082
Si Si2 0.510592 0.034070 0.743406
Si Si3 0.046831 0.239107 0.246963
Si Si4 0.754809 0.691006 0.596948
Si Si5 0.734449 0.805987 0.883672
Si Si6 0.460581 0.253023 0.206755
Si Si7 0.715373 0.444162 0.452250
Si Si8 0.879225 0.083388 0.011014
O O1 0.025866 0.352006 0.306908
O O2 0.166363 0.479195 0.539324
O O3 0.000000 0.500000 0.500000
O O4 0.146484 0.747185 0.123818
O O5 0.459268 0.145538 0.512140
O O6 0.630290 0.201301 0.597318
O O7 0.477148 0.812761 0.830233
O O8 0.500000 0.000000 0.000000
O O9 0.167638 0.350957 0.214017
O O10 0.995838 0.212459 0.033863
O O11 0.000000 0.000000 0.500000
O O12 0.684904 0.496432 0.596797
O O13 0.816465 0.882587 0.300606
O O14 0.719644 0.772857 0.674610
O O15 0.708849 0.590248 0.159058
O O16 0.846044 0.990129 0.859671
O O17 0.651168 0.850136 0.857383
O O18 0.500000 0.500000 0.000000
#
# Coordination Sequence:
#
# PCOD9022302 Si02
#       8
#     2   2   2   2   2   2   2   2
#     4  11  24  39  65  97 137 182 220 289 347 393
#     4  11  26  46  77 107 142 184 228 297 361 416
#     4   9  20  41  59  90 130 169 232 274 327 415
#     4   9  22  39  66  93 129 180 221 285 345 402
#     4  11  23  42  71  96 133 185 221 287 354 407
#     4  11  25  46  70 108 142 175 239 286 347 443
#     4  10  23  45  62 101 140 173 240 281 335 435
#     4  10  22  39  60  93 132 166 234 277 327 418
#
# _framework density 23.320578999999999
#
# number of rings (size 3 to 8) (size 9 to 14) (size 15 to 20)
#    0.000    1.750    1.250    1.875    7.000    4.000 
#    0.000    0.000    0.000    0.000    0.000    0.000 
#    0.000    0.000    0.000    0.000    0.000    0.000 
#
# Total GULP energy -89168.609762 kJ/mol
# GULP energy per Si atom -5573.038110 kJ/mol
# Density = 2.326750 g / cm^3
# Si number density = 23.320579 Si / 1000 Ang^3
#
#
#
# Elastic Constant Matrix: (Units=GPa)
#
#
# Indices 1 2 3 4 5 6 
#
# 1 68.5580 24.7293 39.9199 4.2100 17.6225 -7.9283
# 2 24.7293 138.3732 33.2698 -6.0891 5.2464 -20.8351
# 3 39.9199 33.2698 107.7757 -0.7417 26.4005 -9.5406
# 4 4.2100 -6.0891 -0.7417 31.1876 -6.3590 9.7574
# 5 17.6225 5.2464 26.4005 -6.3590 33.7659 -1.8921
# 6 -7.9283 -20.8351 -9.5406 9.7574 -1.8921 32.0291
#
#
#
# Elastic Compliance Matrix: (Units=1/GPa)
#
#
# Indices 1 2 3 4 5 6 
#
# 1 0.020991 -0.001949 -0.004993 -0.006102 -0.007682 0.003846
# 2 -0.001949 0.008688 -0.001956 0.000857 0.001606 0.004420
# 3 -0.004993 -0.001956 0.013853 -0.001537 -0.008120 0.001606
# 4 -0.006102 0.000857 -0.001537 0.039225 0.010928 -0.012714
# 5 -0.007682 0.001606 -0.008120 0.010928 0.041550 -0.004150
# 6 0.003846 0.004420 0.001606 -0.012714 -0.004150 0.039155
#
#
# Mechanical properties :
#
#
# Convention : Reuss Voigt Hill
#
# Bulk Modulus (GPa) = 38.85804 56.72723 47.79263
# Shear Modulus (GPa) = 26.33853 33.84906 30.09380
#
# Velocity S-wave (km/s) = 3.36432 3.81395 3.59617
# Velocity P-wave (km/s) = 5.63828 6.61609 6.14666
#
# Compressibility (1/GPa) = 0.02573470
#
# Stress axis : x y z
#
# Youngs Moduli (GPa) = 47.64014 115.10315 72.18860
#
# Poissons Ratio (x) = 0.22434 0.36044
# Poissons Ratio (y) = 0.09285 0.14122
# Poissons Ratio (z) = 0.23787 0.22517
#
# Static dielectric constant tensor:
#      x y z
#    x 1.978460 -0.008670 -0.002120 
#    y -0.008670 1.941320 0.029960 
#    z -0.002120 0.029960 1.923490 
# 
# From -- ./inp_files/106307.got.cif
#   From: 2010.05.17/outbox.cif.g08.bks.cpg/sg2_54_cif.got.tgz:106307.got - 2010.06.03 11:33:40.
