data_PCOD9022704
_publ_section_title
;
Structure prediction by ZEFSAII (Michael W. Deem and Ramdas Pophale) SiO2 
 PCOD9022704
Probable space group: P -1
;
_chemical_formula_sum "Si O2"
_cell_formula_units_Z 16
_cell_length_a 8.291071
_cell_length_b 12.821640
_cell_length_c 7.723595
_cell_angle_alpha 103.055529
_cell_angle_beta 87.979274
_cell_angle_gamma 54.741945
_cell_volume 638.792848
_symmetry_space_group_name_H-M "P -1"
_symmetry_group_IT_number 2
_symmetry_cell_setting 'triclinic'
loop_
_space_group_symop_operation_xyz
x,y,z
-x,-y,-z
loop_
_atom_site_type_symbol
_atom_site_label
_atom_site_fract_x
_atom_site_fract_y
_atom_site_fract_z
Si Si1 0.498642 0.622705 0.114860
Si Si2 0.318497 0.237932 0.351771
Si Si3 0.265682 0.495308 0.356561
Si Si4 0.570486 0.141036 0.988228
Si Si5 0.719669 0.403789 0.255229
Si Si6 0.053780 0.137887 0.229113
Si Si7 0.655875 0.869340 0.332048
Si Si8 0.079038 0.769265 0.350080
O O1 0.507558 0.709580 0.005072
O O2 0.685244 0.527026 0.197284
O O3 0.288835 0.732955 0.259701
O O4 0.500000 0.500000 0.000000
O O5 0.230656 0.385287 0.343671
O O6 0.198271 0.182671 0.269332
O O7 0.318145 0.234496 0.560072
O O8 0.523847 0.146429 0.195606
O O9 0.502425 0.435223 0.311794
O O10 0.199402 0.583097 0.564455
O O11 0.136955 0.617931 0.275855
O O12 0.437045 0.126937 0.846982
O O13 0.801034 0.015802 0.893514
O O14 0.879205 0.247462 0.144023
O O15 0.959121 0.160766 0.433772
O O16 0.862092 0.854109 0.299544
O O17 0.500000 0.000000 0.500000
#
# Coordination Sequence:
#
# PCOD9022704 Si02
#       8
#     2   2   2   2   2   2   2   2
#     4  11  24  43  63  95 134 174 220 275 324 392
#     4  11  23  41  64  93 138 166 217 274 324 389
#     4   9  18  37  64  89 120 171 208 267 323 380
#     4  12  24  43  67  97 133 175 218 271 332 385
#     4   9  19  39  62  88 126 165 222 261 321 386
#     4  10  22  39  63  96 124 172 218 270 330 387
#     4  11  23  42  65  97 128 176 216 261 333 386
#     4   9  20  41  64  91 133 165 219 272 321 390
#
# _framework density 25.047242000000001
#
# number of rings (size 3 to 8) (size 9 to 14) (size 15 to 20)
#    0.000    1.750    2.500    3.375    0.000    7.000 
#    2.250    3.125    0.000    0.000    0.000    0.000 
#    0.000    0.000    0.000    0.000    0.000    0.000 
#
# Total GULP energy -89135.821473 kJ/mol
# GULP energy per Si atom -5570.988842 kJ/mol
# Density = 2.499023 g / cm^3
# Si number density = 25.047242 Si / 1000 Ang^3
#
#
#
# Elastic Constant Matrix: (Units=GPa)
#
#
# Indices 1 2 3 4 5 6 
#
# 1 13.1279 17.3992 2.0477 -0.1614 2.0414 -6.1455
# 2 17.3992 105.2069 -10.1630 9.2154 -11.2203 -17.8371
# 3 2.0477 -10.1630 81.6942 8.2889 -18.7126 -16.4140
# 4 -0.1614 9.2154 8.2889 29.8729 6.2276 -4.3638
# 5 2.0414 -11.2203 -18.7126 6.2276 31.8318 6.5690
# 6 -6.1455 -17.8371 -16.4140 -4.3638 6.5690 42.1140
#
#
#
# Elastic Compliance Matrix: (Units=1/GPa)
#
#
# Indices 1 2 3 4 5 6 
#
# 1 0.119251 -0.024315 -0.012944 0.019113 -0.029345 0.008616
# 2 -0.024315 0.017092 0.007434 -0.009685 0.013119 0.003539
# 3 -0.012944 0.007434 0.019151 -0.010168 0.015618 0.005234
# 4 0.019113 -0.009685 -0.010168 0.043830 -0.019674 0.002334
# 5 -0.029345 0.013119 0.015618 -0.019674 0.051511 -0.002712
# 6 0.008616 0.003539 0.005234 0.002334 -0.002712 0.029206
#
#
# Mechanical properties :
#
#
# Convention : Reuss Voigt Hill
#
# Bulk Modulus (GPa) = 10.43355 24.28852 17.36103
# Shear Modulus (GPa) = 13.45397 33.48007 23.46702
#
# Velocity S-wave (km/s) = 2.32015 3.66003 3.06422
# Velocity P-wave (km/s) = 3.36928 5.25159 4.41199
#
# Compressibility (1/GPa) = 0.09584466
#
# Stress axis : x y z
#
# Youngs Moduli (GPa) = 8.38569 58.50729 52.21721
#
# Poissons Ratio (x) = 1.42261 0.67588
# Poissons Ratio (y) = 0.20390 -0.38820
# Poissons Ratio (z) = 0.10854 -0.43496
#
# Static dielectric constant tensor:
#      x y z
#    x 2.078660 -0.118190 0.101230 
#    y -0.118190 2.617250 -0.483850 
#    z 0.101230 -0.483850 2.439950 
# 
# From -- ./inp_files/207743.got.cif
#   From: 2010.05.17/outbox.cif.g08.bks.cpg/sg2_104_cif.got.tgz:207743.got - 2010.06.03 11:33:40.
