data_PCOD9022567
_publ_section_title
;
Structure prediction by ZEFSAII (Michael W. Deem and Ramdas Pophale) SiO2 
 PCOD9022567
Probable space group: P -1
;
_chemical_formula_sum "Si O2"
_cell_formula_units_Z 12
_cell_length_a 11.403726
_cell_length_b 13.801729
_cell_length_c 5.696513
_cell_angle_alpha 35.578179
_cell_angle_beta 88.476377
_cell_angle_gamma 70.262117
_cell_volume 437.723402
_symmetry_space_group_name_H-M "P -1"
_symmetry_group_IT_number 2
_symmetry_cell_setting 'triclinic'
loop_
_space_group_symop_operation_xyz
x,y,z
-x,-y,-z
loop_
_atom_site_type_symbol
_atom_site_label
_atom_site_fract_x
_atom_site_fract_y
_atom_site_fract_z
Si Si1 0.113768 0.964409 0.752510
Si Si2 0.502742 0.295434 0.381357
Si Si3 0.032607 0.724617 0.499882
Si Si4 0.401528 0.410800 0.657920
Si Si5 0.846352 0.572049 0.270589
Si Si6 0.749693 0.957456 0.763107
O O1 0.043690 0.183862 0.434011
O O2 0.249619 0.903855 0.715859
O O3 0.000000 0.000000 0.500000
O O4 0.123661 0.819547 0.242430
O O5 0.449213 0.286393 0.658438
O O6 0.647377 0.093967 0.704760
O O7 0.500000 0.500000 0.000000
O O8 0.420817 0.317566 0.100995
O O9 0.123757 0.496038 0.871203
O O10 0.900831 0.831799 0.121947
O O11 0.500000 0.500000 0.500000
O O12 0.230743 0.535467 0.408187
O O13 0.000000 0.500000 0.500000
O O14 0.742936 0.793782 0.936236
#
# Coordination Sequence:
#
# PCOD9022567 Si02
#       6
#     2   2   2   2   2   2
#     4   9  19  34  59  93 128 175 230 283 344 417
#     4  10  24  43  72 100 139 186 243 293 350 423
#     4   9  20  38  64  94 134 180 231 289 350 424
#     4  10  24  46  71 103 136 191 240 293 351 426
#     4  10  23  46  67 102 142 183 232 292 365 424
#     4  10  22  39  62  98 134 181 231 291 358 420
#
# _framework density 27.414570999999999
#
# number of rings (size 3 to 8) (size 9 to 14) (size 15 to 20)
#    0.000    2.333    0.000    0.000    7.000    8.667 
#   12.000    0.000    0.000    0.000    0.000    0.000 
#    0.000    0.000    0.000    0.000    0.000    0.000 
#
# Total GULP energy -66910.942879 kJ/mol
# GULP energy per Si atom -5575.911907 kJ/mol
# Density = 2.735217 g / cm^3
# Si number density = 27.414571 Si / 1000 Ang^3
#
#
#
# Elastic Constant Matrix: (Units=GPa)
#
#
# Indices 1 2 3 4 5 6 
#
# 1 125.2062 55.6649 29.4523 -2.1349 6.0866 -15.0959
# 2 55.6649 288.1701 37.1211 3.6814 -1.3962 -22.5517
# 3 29.4523 37.1211 62.9652 -1.4622 4.4103 -1.1673
# 4 -2.1349 3.6814 -1.4622 56.5644 -1.3501 -2.5238
# 5 6.0866 -1.3962 4.4103 -1.3501 27.2789 -1.8423
# 6 -15.0959 -22.5517 -1.1673 -2.5238 -1.8423 58.0226
#
#
#
# Elastic Compliance Matrix: (Units=1/GPa)
#
#
# Indices 1 2 3 4 5 6 
#
# 1 0.009722 -0.001269 -0.003650 0.000406 -0.001494 0.001933
# 2 -0.001269 0.004056 -0.001842 -0.000284 0.000857 0.001224
# 3 -0.003650 -0.001842 0.018826 0.000351 -0.002397 -0.001347
# 4 0.000406 -0.000284 0.000351 0.017776 0.000772 0.000800
# 5 -0.001494 0.000857 -0.002397 0.000772 0.037537 0.001122
# 6 0.001933 0.001224 -0.001347 0.000800 0.001122 0.018257
#
#
# Mechanical properties :
#
#
# Convention : Reuss Voigt Hill
#
# Bulk Modulus (GPa) = 52.40121 80.09090 66.24606
# Shear Modulus (GPa) = 39.66520 51.98006 45.82263
#
# Velocity S-wave (km/s) = 3.80790 4.35912 4.09280
# Velocity P-wave (km/s) = 6.20397 7.39013 6.82288
#
# Compressibility (1/GPa) = 0.01908353
#
# Stress axis : x y z
#
# Youngs Moduli (GPa) = 102.85873 246.54095 53.11884
#
# Poissons Ratio (x) = 0.31286 0.19386
# Poissons Ratio (y) = 0.13053 0.09783
# Poissons Ratio (z) = 0.37539 0.45404
#
# Static dielectric constant tensor:
#      x y z
#    x 2.366150 0.021890 -0.057830 
#    y 0.021890 2.112740 -0.042710 
#    z -0.057830 -0.042710 2.212500 
# 
# From -- ./inp_files/68608.got.cif
#   From: 2010.05.17/outbox.cif.g08.bks.cpg/sg2_35_cif.got.tgz:68608.got - 2010.06.03 11:33:40.
