data_PCOD9022459
_publ_section_title
;
Structure prediction by ZEFSAII (Michael W. Deem and Ramdas Pophale) SiO2 
 PCOD9022459
Probable space group: P -1
;
_chemical_formula_sum "Si O2"
_cell_formula_units_Z 14
_cell_length_a 12.767572
_cell_length_b 7.580822
_cell_length_c 9.941643
_cell_angle_alpha 133.736563
_cell_angle_beta 86.668048
_cell_angle_gamma 112.908854
_cell_volume 607.370207
_symmetry_space_group_name_H-M "P -1"
_symmetry_group_IT_number 2
_symmetry_cell_setting 'triclinic'
loop_
_space_group_symop_operation_xyz
x,y,z
-x,-y,-z
loop_
_atom_site_type_symbol
_atom_site_label
_atom_site_fract_x
_atom_site_fract_y
_atom_site_fract_z
Si Si1 0.872645 0.565153 0.364482
Si Si2 0.326426 0.883797 0.694121
Si Si3 0.919641 0.127786 0.025569
Si Si4 0.685326 0.651413 0.888296
Si Si5 0.512994 0.720179 0.502204
Si Si6 0.762280 0.202560 0.642633
Si Si7 0.017685 0.817952 0.246252
O O1 0.740448 0.372209 0.330215
O O2 0.925610 0.352124 0.250569
O O3 0.893718 0.658691 0.254617
O O4 0.943715 0.853441 0.588742
O O5 0.451877 0.900835 0.655450
O O6 0.248392 0.798620 0.518711
O O7 0.336208 0.165766 0.902349
O O8 0.967521 0.257201 0.945235
O O9 0.782157 0.884855 0.903132
O O10 0.000000 0.000000 0.000000
O O11 0.566111 0.449435 0.709643
O O12 0.746025 0.464985 0.831337
O O13 0.500000 0.500000 0.500000
O O14 0.648195 0.924920 0.558804
O O15 0.879476 0.196136 0.680040
#
# Coordination Sequence:
#
# PCOD9022459 Si02
#       7
#     2   2   2   2   2   2   2
#     4  10  23  38  61  89 120 159 198 246 299 355
#     4  10  22  40  60  90 122 156 207 246 296 361
#     4  11  23  40  61  88 123 160 202 246 298 363
#     4  10  22  39  62  88 120 161 197 250 305 346
#     4  11  23  41  62  88 121 159 204 250 298 355
#     4  11  23  39  64  89 119 161 202 247 298 359
#     4  11  23  40  61  90 125 159 199 248 302 353
#
# _framework density 23.050193
#
# number of rings (size 3 to 8) (size 9 to 14) (size 15 to 20)
#    0.000    1.429    0.000    6.429    0.000    9.714 
#    0.000    0.000    0.000    0.000    0.000    0.000 
#    0.000    0.000    0.000    0.000    0.000    0.000 
#
# Total GULP energy -78313.077693 kJ/mol
# GULP energy per Si atom -5593.791264 kJ/mol
# Density = 2.299773 g / cm^3
# Si number density = 23.050193 Si / 1000 Ang^3
#
#
#
# Elastic Constant Matrix: (Units=GPa)
#
#
# Indices 1 2 3 4 5 6 
#
# 1 62.7058 22.8919 32.0282 -2.8824 0.8299 -1.4003
# 2 22.8919 104.0661 20.9517 12.3722 15.9519 16.4963
# 3 32.0282 20.9517 113.9696 7.8981 -31.2828 9.9007
# 4 -2.8824 12.3722 7.8981 41.4262 2.0493 0.2438
# 5 0.8299 15.9519 -31.2828 2.0493 29.4455 10.9687
# 6 -1.4003 16.4963 9.9007 0.2438 10.9687 43.2611
#
#
#
# Elastic Compliance Matrix: (Units=1/GPa)
#
#
# Indices 1 2 3 4 5 6 
#
# 1 0.023040 -0.002548 -0.010903 0.005094 -0.014097 0.007758
# 2 -0.002548 0.013347 -0.004557 -0.002726 -0.011349 -0.001236
# 3 -0.010903 -0.004557 0.022789 -0.005244 0.031768 -0.011856
# 4 0.005094 -0.002726 -0.005244 0.026662 -0.007657 0.004196
# 5 -0.014097 -0.011349 0.031768 -0.007657 0.083971 -0.024647
# 6 0.007758 -0.001236 -0.011856 0.004196 -0.024647 0.032777
#
#
# Mechanical properties :
#
#
# Convention : Reuss Voigt Hill
#
# Bulk Modulus (GPa) = 43.17423 48.05389 45.61406
# Shear Modulus (GPa) = 20.29866 36.48455 28.39161
#
# Velocity S-wave (km/s) = 2.97076 3.98280 3.51341
# Velocity P-wave (km/s) = 5.52616 6.48406 6.02418
#
# Compressibility (1/GPa) = 0.02316197
#
# Stress axis : x y z
#
# Youngs Moduli (GPa) = 43.40193 74.92401 43.88045
#
# Poissons Ratio (x) = 0.19090 0.47842
# Poissons Ratio (y) = 0.11058 0.19994
# Poissons Ratio (z) = 0.47320 0.34140
#
# Static dielectric constant tensor:
#      x y z
#    x 1.838960 0.007170 -0.029100 
#    y 0.007170 1.905540 0.056600 
#    z -0.029100 0.056600 1.882680 
# 
# From -- ./inp_files/445341.got.cif
#   From: 2010.05.17/outbox.cif.g08.bks.cpg/sg2_223_cif.got.tgz:445341.got - 2010.06.03 11:33:40.
