data_PCOD9022160
_publ_section_title
;
Structure prediction by ZEFSAII (Michael W. Deem and Ramdas Pophale) SiO2 
 PCOD9022160
Probable space group: P -1
;
_chemical_formula_sum "Si O2"
_cell_formula_units_Z 12
_cell_length_a 10.221448
_cell_length_b 12.511682
_cell_length_c 10.809168
_cell_angle_alpha 36.395599
_cell_angle_beta 84.451497
_cell_angle_gamma 58.351802
_cell_volume 533.749146
_symmetry_space_group_name_H-M "P -1"
_symmetry_group_IT_number 2
_symmetry_cell_setting 'triclinic'
loop_
_space_group_symop_operation_xyz
x,y,z
-x,-y,-z
loop_
_atom_site_type_symbol
_atom_site_label
_atom_site_fract_x
_atom_site_fract_y
_atom_site_fract_z
Si Si1 0.260843 0.722155 0.309738
Si Si2 0.315192 0.293696 0.799231
Si Si3 0.615010 0.681060 0.693050
Si Si4 0.870161 0.091227 0.120942
Si Si5 0.662640 0.736670 0.903644
Si Si6 0.046849 0.373265 0.332629
O O1 0.500000 0.500000 0.500000
O O2 0.247042 0.519133 0.502862
O O3 0.187288 0.885045 0.038164
O O4 0.099025 0.935684 0.233813
O O5 0.116638 0.392335 0.767513
O O6 0.389900 0.287998 0.933131
O O7 0.500000 0.000000 0.000000
O O8 0.707639 0.400420 0.898444
O O9 0.584947 0.710890 0.815947
O O10 0.782681 0.660559 0.672618
O O11 0.422246 0.971238 0.374366
O O12 0.876840 0.899642 0.374369
O O13 0.903657 0.488494 0.120530
#
# Coordination Sequence:
#
# PCOD9022160 Si02
#       6
#     2   2   2   2   2   2
#     4  10  22  39  58  86 128 152 195 254 295 358
#     4   9  19  37  58  86 117 153 201 238 293 362
#     4  11  21  40  66  83 124 162 197 250 305 342
#     4  10  23  39  59  96 114 156 209 242 295 369
#     4   9  22  39  58  93 120 155 210 247 284 376
#     4   9  22  39  60  90 123 153 201 249 296 360
#
# _framework density 22.482469999999999
#
# number of rings (size 3 to 8) (size 9 to 14) (size 15 to 20)
#    1.000    1.333    0.000    1.500    4.667    0.667 
#    0.000    6.667    0.000    0.000    0.000    0.000 
#    0.000    0.000    0.000    0.000    0.000    0.000 
#
# Total GULP energy -66867.809576 kJ/mol
# GULP energy per Si atom -5572.317465 kJ/mol
# Density = 2.243130 g / cm^3
# Si number density = 22.482470 Si / 1000 Ang^3
#
#
#
# Elastic Constant Matrix: (Units=GPa)
#
#
# Indices 1 2 3 4 5 6 
#
# 1 33.3990 2.8544 10.2328 10.5089 7.7582 -12.9334
# 2 2.8544 77.8713 21.9842 -11.3700 -5.6008 -6.2534
# 3 10.2328 21.9842 157.1534 -4.6438 12.0136 9.2642
# 4 10.5089 -11.3700 -4.6438 36.1026 5.0795 -3.2204
# 5 7.7582 -5.6008 12.0136 5.0795 23.7590 -6.0401
# 6 -12.9334 -6.2534 9.2642 -3.2204 -6.0401 16.6610
#
#
#
# Elastic Compliance Matrix: (Units=1/GPa)
#
#
# Indices 1 2 3 4 5 6 
#
# 1 0.051716 0.001580 -0.006399 -0.011616 -0.000116 0.042010
# 2 0.001580 0.015929 -0.003511 0.004200 0.007326 0.012626
# 3 -0.006399 -0.003511 0.008620 0.001644 -0.006812 -0.013231
# 4 -0.011616 0.004200 0.001644 0.032863 -0.003947 -0.003433
# 5 -0.000116 0.007326 -0.006812 -0.003947 0.054622 0.025487
# 6 0.042010 0.012626 -0.013231 -0.003433 0.025487 0.113303
#
#
# Mechanical properties :
#
#
# Convention : Reuss Voigt Hill
#
# Bulk Modulus (GPa) = 16.77725 37.61851 27.19788
# Shear Modulus (GPa) = 15.94473 30.86133 23.40303
#
# Velocity S-wave (km/s) = 2.66598 3.70899 3.22987
# Velocity P-wave (km/s) = 4.11767 5.92544 5.10226
#
# Compressibility (1/GPa) = 0.05960452
#
# Stress axis : x y z
#
# Youngs Moduli (GPa) = 19.33635 62.77752 116.00416
#
# Poissons Ratio (x) = -0.09920 0.74235
# Poissons Ratio (y) = -0.03056 0.40735
# Poissons Ratio (z) = 0.12374 0.22044
#
# Static dielectric constant tensor:
#      x y z
#    x 1.892160 -0.025570 0.049780 
#    y -0.025570 1.898560 -0.023260 
#    z 0.049780 -0.023260 1.829890 
# 
# From -- ./inp_files/430722.got.cif
#   From: 2010.05.17/outbox.cif.g08.bks.cpg/sg2_216_cif.got.tgz:430722.got - 2010.06.03 11:33:40.
