data_PCOD9022533
_publ_section_title
;
Structure prediction by ZEFSAII (Michael W. Deem and Ramdas Pophale) SiO2 
 PCOD9022533
Probable space group: P -1
;
_chemical_formula_sum "Si O2"
_cell_formula_units_Z 16
_cell_length_a 7.495101
_cell_length_b 11.477739
_cell_length_c 10.777198
_cell_angle_alpha 68.381627
_cell_angle_beta 58.283929
_cell_angle_gamma 100.365608
_cell_volume 646.215933
_symmetry_space_group_name_H-M "P -1"
_symmetry_group_IT_number 2
_symmetry_cell_setting 'triclinic'
loop_
_space_group_symop_operation_xyz
x,y,z
-x,-y,-z
loop_
_atom_site_type_symbol
_atom_site_label
_atom_site_fract_x
_atom_site_fract_y
_atom_site_fract_z
Si Si1 0.508748 0.060757 0.109876
Si Si2 0.761507 0.025180 0.259989
Si Si3 0.742646 0.740891 0.046100
Si Si4 0.601304 0.481907 0.340001
Si Si5 0.889539 0.639901 0.583379
Si Si6 0.283726 0.218035 0.232583
Si Si7 0.767403 0.325149 0.767037
Si Si8 0.426854 0.776079 0.642264
O O1 0.706204 0.225348 0.947800
O O2 0.596483 0.995129 0.211566
O O3 0.276328 0.073734 0.236140
O O4 0.500000 0.000000 0.000000
O O5 0.726189 0.143912 0.305124
O O6 0.661525 0.888079 0.437431
O O7 0.035474 0.103292 0.089568
O O8 0.785302 0.631633 0.156179
O O9 0.488759 0.724064 0.185436
O O10 0.689759 0.695961 0.937842
O O11 0.500000 0.500000 0.500000
O O12 0.370258 0.420715 0.359735
O O13 0.688797 0.364532 0.342934
O O14 0.908969 0.756796 0.629779
O O15 0.886514 0.493384 0.685490
O O16 0.074102 0.701760 0.379926
O O17 0.493297 0.255854 0.241212
#
# Coordination Sequence:
#
# PCOD9022533 Si02
#       8
#     2   2   2   2   2   2   2   2
#     4  10  22  41  64  91 126 169 212 261 314 395
#     4  10  22  42  65  95 132 167 216 267 326 385
#     4  10  22  40  64 101 124 163 223 272 320 378
#     4  10  22  39  62  94 133 166 217 269 327 382
#     4   9  19  40  66  89 122 173 212 266 323 387
#     4   9  20  42  65  92 124 168 215 262 317 394
#     4   9  20  40  61  92 124 162 221 258 326 373
#     4   9  21  43  64  91 132 176 206 264 330 391
#
# _framework density 24.759526000000001
#
# number of rings (size 3 to 8) (size 9 to 14) (size 15 to 20)
#    0.000    2.500    0.000    0.000    1.750   13.000 
#   22.500    3.125    0.000    0.000    0.000    0.000 
#    0.000    0.000    0.000    0.000    0.000    0.000 
#
# Total GULP energy -89279.682205 kJ/mol
# GULP energy per Si atom -5579.980138 kJ/mol
# Density = 2.470317 g / cm^3
# Si number density = 24.759526 Si / 1000 Ang^3
#
#
#
# Elastic Constant Matrix: (Units=GPa)
#
#
# Indices 1 2 3 4 5 6 
#
# 1 52.9208 33.7185 14.8475 1.9343 3.9733 12.5552
# 2 33.7185 124.0236 39.3959 36.3392 14.3818 -1.8545
# 3 14.8475 39.3959 112.2714 4.7880 16.0043 4.4909
# 4 1.9343 36.3392 4.7880 34.7450 1.1180 -3.9538
# 5 3.9733 14.3818 16.0043 1.1180 39.3685 6.6984
# 6 12.5552 -1.8545 4.4909 -3.9538 6.6984 19.3641
#
#
#
# Elastic Compliance Matrix: (Units=1/GPa)
#
#
# Indices 1 2 3 4 5 6 
#
# 1 0.030445 -0.011271 -0.000199 0.007616 0.004440 -0.020754
# 2 -0.011271 0.017773 -0.003694 -0.016367 -0.004780 0.008178
# 3 -0.000199 -0.003694 0.010575 0.002367 -0.002788 -0.001230
# 4 0.007616 -0.016367 0.002367 0.045199 0.002757 0.001221
# 5 0.004440 -0.004780 -0.002788 0.002757 0.029874 -0.012461
# 6 -0.020754 0.008178 -0.001230 0.001221 -0.012461 0.070727
#
#
# Mechanical properties :
#
#
# Convention : Reuss Voigt Hill
#
# Bulk Modulus (GPa) = 35.12914 51.68217 43.40566
# Shear Modulus (GPa) = 20.45754 32.11245 26.28499
#
# Velocity S-wave (km/s) = 2.87757 3.60526 3.26177
# Velocity P-wave (km/s) = 5.02588 6.18462 5.63511
#
# Compressibility (1/GPa) = 0.02846639
#
# Stress axis : x y z
#
# Youngs Moduli (GPa) = 32.84597 56.26631 94.56250
#
# Poissons Ratio (x) = 0.63415 0.01882
# Poissons Ratio (y) = 0.37019 0.34928
# Poissons Ratio (z) = 0.00654 0.20783
#
# Static dielectric constant tensor:
#      x y z
#    x 2.005600 -0.058160 0.007250 
#    y -0.058160 2.071440 -0.044510 
#    z 0.007250 -0.044510 1.973510 
# 
# From -- ./inp_files/389716.got.cif
#   From: 2010.05.17/outbox.cif.g08.bks.cpg/sg2_195_cif.got.tgz:389716.got - 2010.06.03 11:33:40.
