data_PCOD9022072
_publ_section_title
;
Structure prediction by ZEFSAII (Michael W. Deem and Ramdas Pophale) SiO2 
 PCOD9022072
Probable space group: P -1
;
_chemical_formula_sum "Si O2"
_cell_formula_units_Z 13
_cell_length_a 9.162491
_cell_length_b 11.188963
_cell_length_c 14.755893
_cell_angle_alpha 120.533593
_cell_angle_beta 147.316652
_cell_angle_gamma 50.620276
_cell_volume 630.193151
_symmetry_space_group_name_H-M "P -1"
_symmetry_group_IT_number 2
_symmetry_cell_setting 'triclinic'
loop_
_space_group_symop_operation_xyz
x,y,z
-x,-y,-z
loop_
_atom_site_type_symbol
_atom_site_label
_atom_site_fract_x
_atom_site_fract_y
_atom_site_fract_z
Si Si1 0.853343 0.385464 0.862464
Si Si2 0.503848 0.919263 0.224648
Si Si3 0.500000 0.500000 0.000000
Si Si4 0.197099 0.086809 0.435097
Si Si5 0.201242 0.095872 0.819434
Si Si6 0.772717 0.436052 0.320675
Si Si7 0.067509 0.763685 0.962325
O O1 0.498017 0.497288 0.721592
O O2 0.918872 0.265876 0.934804
O O3 0.017657 0.273788 0.822439
O O4 0.000000 0.500000 0.000000
O O5 0.704174 0.875410 0.401639
O O6 0.687561 0.909234 0.226667
O O7 0.323318 0.815116 0.082098
O O8 0.249470 0.094945 0.171544
O O9 0.387846 0.503524 0.836476
O O10 0.850562 0.393022 0.108815
O O11 0.954411 0.251245 0.333941
O O12 0.500000 0.000000 0.500000
O O13 0.025393 0.980931 0.316578
O O14 0.500000 0.000000 0.000000
O O15 0.000000 0.500000 0.500000
#
# Coordination Sequence:
#
# PCOD9022072 Si02
#       7
#     2   2   1   2   2   2   2
#     4  11  24  44  67 101 140 180 230 291 353 415
#     4  11  24  42  69 101 139 174 237 285 345 411
#     4  10  22  38  70  96 134 178 234 270 356 404
#     4  12  25  44  71 101 140 180 230 288 346 420
#     4  12  25  43  69 100 136 182 233 288 347 414
#     4  11  24  44  68 102 139 180 232 287 348 420
#     4  10  22  40  68 100 132 181 230 283 343 420
#
# _framework density 20.628596000000002
#
# number of rings (size 3 to 8) (size 9 to 14) (size 15 to 20)
#    0.000    0.923    1.538    6.000    8.615    0.000 
#    0.000    0.769    0.000    0.000    0.000    0.000 
#    0.000    0.000    0.000    0.000    0.000    0.000 
#
# Total GULP energy -72399.407928 kJ/mol
# GULP energy per Si atom -5569.185225 kJ/mol
# Density = 2.058164 g / cm^3
# Si number density = 20.628596 Si / 1000 Ang^3
#
#
#
# Elastic Constant Matrix: (Units=GPa)
#
#
# Indices 1 2 3 4 5 6 
#
# 1 127.9946 37.8409 48.1251 -0.4268 12.7980 -21.8780
# 2 37.8409 101.3908 20.4710 -18.1377 17.6051 -15.3022
# 3 48.1251 20.4710 97.4852 1.8492 17.7807 -4.4726
# 4 -0.4268 -18.1377 1.8492 38.7957 3.5230 8.4302
# 5 12.7980 17.6051 17.7807 3.5230 47.6423 -1.2947
# 6 -21.8780 -15.3022 -4.4726 8.4302 -1.2947 34.7538
#
#
#
# Elastic Compliance Matrix: (Units=1/GPa)
#
#
# Indices 1 2 3 4 5 6 
#
# 1 0.011426 -0.002836 -0.004747 -0.002259 0.000077 0.005885
# 2 -0.002836 0.013223 -0.000604 0.006062 -0.004284 0.002329
# 3 -0.004747 -0.000604 0.013296 -0.000304 -0.003485 -0.001599
# 4 -0.002259 0.006062 -0.000304 0.030325 -0.003933 -0.006295
# 5 0.000077 -0.004284 -0.003485 -0.003933 0.024132 -0.000433
# 6 0.005885 0.002329 -0.001599 -0.006295 -0.000433 0.034809
#
#
# Mechanical properties :
#
#
# Convention : Reuss Voigt Hill
#
# Bulk Modulus (GPa) = 46.35232 59.97165 53.16198
# Shear Modulus (GPa) = 33.16220 38.93393 36.04806
#
# Velocity S-wave (km/s) = 4.01382 4.34911 4.18482
# Velocity P-wave (km/s) = 6.63323 7.37257 7.01265
#
# Compressibility (1/GPa) = 0.02157389
#
# Stress axis : x y z
#
# Youngs Moduli (GPa) = 87.51592 75.62613 75.21051
#
# Poissons Ratio (x) = 0.21445 0.35699
# Poissons Ratio (y) = 0.24816 0.04539
# Poissons Ratio (z) = 0.41540 0.04564
#
# Static dielectric constant tensor:
#      x y z
#    x 1.682950 -0.044890 -0.038730 
#    y -0.044890 1.847120 -0.017570 
#    z -0.038730 -0.017570 1.627470 
# 
# From -- ./inp_files/150961.got.cif
#   From: 2010.05.17/outbox.cif.g08.bks.cpg/sg2_76_cif.got.tgz:150961.got - 2010.06.03 11:33:40.
