data_PCOD9022869
_publ_section_title
;
Structure prediction by ZEFSAII (Michael W. Deem and Ramdas Pophale) SiO2 
 PCOD9022869
Probable space group: P -1
;
_chemical_formula_sum "Si O2"
_cell_formula_units_Z 16
_cell_length_a 9.644122
_cell_length_b 16.563972
_cell_length_c 11.217976
_cell_angle_alpha 33.338944
_cell_angle_beta 126.417123
_cell_angle_gamma 115.112558
_cell_volume 782.100174
_symmetry_space_group_name_H-M "P -1"
_symmetry_group_IT_number 2
_symmetry_cell_setting 'triclinic'
loop_
_space_group_symop_operation_xyz
x,y,z
-x,-y,-z
loop_
_atom_site_type_symbol
_atom_site_label
_atom_site_fract_x
_atom_site_fract_y
_atom_site_fract_z
Si Si1 0.232206 0.366505 0.868067
Si Si2 0.579157 0.428820 0.001569
Si Si3 0.939191 0.307008 0.611800
Si Si4 0.286874 0.145354 0.384909
Si Si5 0.672731 0.084876 0.747128
Si Si6 0.164878 0.369270 0.227006
Si Si7 0.842717 0.848648 0.301948
Si Si8 0.203228 0.904185 0.466703
O O1 0.140755 0.526373 0.670010
O O2 0.084402 0.312318 0.779944
O O3 0.416898 0.399301 0.872193
O O4 0.291366 0.249505 0.144679
O O5 0.705151 0.269339 0.277342
O O6 0.500000 0.500000 0.000000
O O7 0.685606 0.545185 0.852706
O O8 0.785064 0.214333 0.677590
O O9 0.043343 0.233753 0.644129
O O10 0.468360 0.132172 0.564015
O O11 0.141236 0.240214 0.277886
O O12 0.268450 0.988708 0.508577
O O13 0.747986 0.033312 0.715986
O O14 0.703671 0.965709 0.016363
O O15 0.214339 0.274002 0.489400
O O16 0.000000 0.500000 0.000000
O O17 0.993907 0.924187 0.348999
#
# Coordination Sequence:
#
# PCOD9022869 Si02
#       8
#     2   2   2   2   2   2   2   2
#     4  11  21  38  67  97 132 165 233 276 324 384
#     4  12  22  42  71 100 130 173 228 277 324 390
#     4  10  22  39  64  98 132 179 214 278 329 400
#     4  12  24  38  68 101 129 174 228 278 327 391
#     4  11  22  39  67  98 136 173 217 275 340 394
#     4  12  25  45  67  96 134 184 221 271 339 401
#     4  11  23  41  62  90 140 175 218 262 347 400
#     4  11  22  40  67 101 132 170 226 282 324 392
#
# _framework density 20.457737999999999
#
# number of rings (size 3 to 8) (size 9 to 14) (size 15 to 20)
#    0.000    0.750    3.750    6.375    1.750    1.000 
#    0.000    0.625    0.000    0.000    0.000    0.000 
#    0.000    0.000    0.000    0.000    0.000    0.000 
#
# Total GULP energy -89284.122145 kJ/mol
# GULP energy per Si atom -5580.257634 kJ/mol
# Density = 2.041118 g / cm^3
# Si number density = 20.457738 Si / 1000 Ang^3
#
#
#
# Elastic Constant Matrix: (Units=GPa)
#
#
# Indices 1 2 3 4 5 6 
#
# 1 61.3874 27.5554 44.1723 0.1799 -3.7587 5.9396
# 2 27.5554 124.2262 64.6058 6.6599 13.8379 2.4127
# 3 44.1723 64.6058 142.1040 -5.2359 -6.2698 13.9532
# 4 0.1799 6.6599 -5.2359 31.1415 6.0945 16.0113
# 5 -3.7587 13.8379 -6.2698 6.0945 31.5569 -0.3232
# 6 5.9396 2.4127 13.9532 16.0113 -0.3232 18.2616
#
#
#
# Elastic Compliance Matrix: (Units=1/GPa)
#
#
# Indices 1 2 3 4 5 6 
#
# 1 0.021523 -0.002329 -0.005165 0.000786 0.002372 -0.003393
# 2 -0.002329 0.013096 -0.007040 -0.009306 -0.005494 0.012468
# 3 -0.005165 -0.007040 0.014538 0.014314 0.002381 -0.021006
# 4 0.000786 -0.009306 0.014314 0.079183 -0.009088 -0.079549
# 5 0.002372 -0.005494 0.002381 -0.009088 0.036678 0.006753
# 6 -0.003393 0.012468 -0.021006 -0.079549 0.006753 0.140133
#
#
# Mechanical properties :
#
#
# Convention : Reuss Voigt Hill
#
# Bulk Modulus (GPa) = 49.77343 66.70938 58.24140
# Shear Modulus (GPa) = 14.66645 28.95094 21.80869
#
# Velocity S-wave (km/s) = 2.68043 3.76594 3.26856
# Velocity P-wave (km/s) = 5.82772 7.18254 6.54031
#
# Compressibility (1/GPa) = 0.02009104
#
# Stress axis : x y z
#
# Youngs Moduli (GPa) = 46.46207 76.35793 68.78432
#
# Poissons Ratio (x) = 0.17780 0.35526
# Poissons Ratio (y) = 0.10819 0.48423
# Poissons Ratio (z) = 0.23997 0.53754
#
# Static dielectric constant tensor:
#      x y z
#    x 1.741340 0.030610 0.016730 
#    y 0.030610 1.855960 0.007250 
#    z 0.016730 0.007250 1.773360 
# 
# From -- ./inp_files/402718.got.cif
#   From: 2010.05.17/outbox.cif.g08.bks.cpg/sg2_202_cif.got.tgz:402718.got - 2010.06.03 11:33:40.
