data_PCOD9022569
_publ_section_title
;
Structure prediction by ZEFSAII (Michael W. Deem and Ramdas Pophale) SiO2 
 PCOD9022569
Probable space group: P -1
;
_chemical_formula_sum "Si O2"
_cell_formula_units_Z 16
_cell_length_a 5.290932
_cell_length_b 15.200897
_cell_length_c 13.008363
_cell_angle_alpha 138.034042
_cell_angle_beta 115.731602
_cell_angle_gamma 72.974969
_cell_volume 629.440419
_symmetry_space_group_name_H-M "P -1"
_symmetry_group_IT_number 2
_symmetry_cell_setting 'triclinic'
loop_
_space_group_symop_operation_xyz
x,y,z
-x,-y,-z
loop_
_atom_site_type_symbol
_atom_site_label
_atom_site_fract_x
_atom_site_fract_y
_atom_site_fract_z
Si Si1 0.454177 0.550657 0.264889
Si Si2 0.137012 0.355531 0.399903
Si Si3 0.884720 0.654983 0.276141
Si Si4 0.756668 0.706527 0.877271
Si Si5 0.303311 0.076060 0.610879
Si Si6 0.424842 0.966732 0.071847
Si Si7 0.175645 0.910348 0.157904
Si Si8 0.855699 0.168694 0.346716
O O1 0.616195 0.628759 0.456271
O O2 0.661459 0.555719 0.207711
O O3 0.374155 0.413979 0.186958
O O4 0.152836 0.601121 0.219249
O O5 0.221936 0.326893 0.270656
O O6 0.923374 0.241945 0.313533
O O7 0.000000 0.500000 0.500000
O O8 0.738992 0.773046 0.295536
O O9 0.041765 0.726545 0.461831
O O10 0.578658 0.829941 0.983373
O O11 0.054759 0.763345 0.025510
O O12 0.497539 0.076748 0.746430
O O13 0.500000 0.000000 0.500000
O O14 0.000000 0.000000 0.500000
O O15 0.138175 0.933798 0.050057
O O16 0.544249 0.108281 0.260548
O O17 0.500000 0.000000 0.000000
O O18 0.027538 0.036910 0.284314
#
# Coordination Sequence:
#
# PCOD9022569 Si02
#       8
#     2   2   2   2   2   2   2   2
#     4  11  26  44  70 100 141 186 235 288 345 419
#     4  11  24  42  70 101 139 190 238 287 346 421
#     4  11  24  44  71 104 136 178 234 299 354 410
#     4  11  25  43  63  97 141 184 237 280 350 424
#     4  12  25  46  78 108 141 177 240 298 362 422
#     4  11  24  37  67  95 141 187 227 284 353 424
#     4  11  25  44  68 101 140 184 229 297 356 421
#     4  10  22  39  62  98 136 173 229 287 352 413
#
# _framework density 25.419402999999999
#
# number of rings (size 3 to 8) (size 9 to 14) (size 15 to 20)
#    0.000    1.000    1.250    4.875   14.000    2.000 
#    0.000    1.250    0.000    0.000    0.000    0.000 
#    0.000    0.000    0.000    0.000    0.000    0.000 
#
# Total GULP energy -89291.789119 kJ/mol
# GULP energy per Si atom -5580.736820 kJ/mol
# Density = 2.536155 g / cm^3
# Si number density = 25.419403 Si / 1000 Ang^3
#
#
#
# Elastic Constant Matrix: (Units=GPa)
#
#
# Indices 1 2 3 4 5 6 
#
# 1 107.4952 17.8109 30.8468 11.1682 15.2977 1.9434
# 2 17.8109 102.0303 15.0973 21.0302 13.9671 1.7449
# 3 30.8468 15.0973 65.9174 19.9544 17.8156 6.6922
# 4 11.1682 21.0302 19.9544 35.3722 8.9750 8.5546
# 5 15.2977 13.9671 17.8156 8.9750 44.9237 12.6542
# 6 1.9434 1.7449 6.6922 8.5546 12.6542 41.9753
#
#
#
# Elastic Compliance Matrix: (Units=1/GPa)
#
#
# Indices 1 2 3 4 5 6 
#
# 1 0.011014 -0.001000 -0.004476 -0.000081 -0.001882 0.000829
# 2 -0.001000 0.011588 0.000301 -0.006488 -0.002537 0.001604
# 3 -0.004476 0.000301 0.021504 -0.009638 -0.005261 0.000317
# 4 -0.000081 -0.006488 -0.009638 0.039123 -0.000233 -0.006093
# 5 -0.001882 -0.002537 -0.005261 -0.000233 0.027887 -0.007328
# 6 0.000829 0.001604 0.000317 -0.006093 -0.007328 0.027119
#
#
# Mechanical properties :
#
#
# Convention : Reuss Voigt Hill
#
# Bulk Modulus (GPa) = 29.62559 44.77254 37.19906
# Shear Modulus (GPa) = 31.28175 38.56679 34.92427
#
# Velocity S-wave (km/s) = 3.51183 3.89937 3.71067
# Velocity P-wave (km/s) = 5.30320 6.15835 5.74670
#
# Compressibility (1/GPa) = 0.03375460
#
# Stress axis : x y z
#
# Youngs Moduli (GPa) = 90.79202 86.29470 46.50388
#
# Poissons Ratio (x) = 0.08632 0.20816
# Poissons Ratio (y) = 0.09082 -0.01399
# Poissons Ratio (z) = 0.40641 -0.02596
#
# Static dielectric constant tensor:
#      x y z
#    x 2.345190 -0.018340 0.275750 
#    y -0.018340 2.178620 -0.174960 
#    z 0.275750 -0.174960 2.341860 
# 
# From -- ./inp_files/98609.got.cif
#   From: 2010.05.17/outbox.cif.g08.bks.cpg/sg2_50_cif.got.tgz:98609.got - 2010.06.03 11:33:40.
