data_PCOD9022048
_publ_section_title
;
Structure prediction by ZEFSAII (Michael W. Deem and Ramdas Pophale) SiO2 
 PCOD9022048
Probable space group: P -1
;
_chemical_formula_sum "Si O2"
_cell_formula_units_Z 16
_cell_length_a 5.235925
_cell_length_b 8.761997
_cell_length_c 18.020573
_cell_angle_alpha 122.596081
_cell_angle_beta 112.020023
_cell_angle_gamma 77.627202
_cell_volume 645.624796
_symmetry_space_group_name_H-M "P -1"
_symmetry_group_IT_number 2
_symmetry_cell_setting 'triclinic'
loop_
_space_group_symop_operation_xyz
x,y,z
-x,-y,-z
loop_
_atom_site_type_symbol
_atom_site_label
_atom_site_fract_x
_atom_site_fract_y
_atom_site_fract_z
Si Si1 0.865615 0.502013 0.405578
Si Si2 0.667026 0.225329 0.871103
Si Si3 0.803534 0.918706 0.518462
Si Si4 0.160737 0.061224 0.729679
Si Si5 0.716179 0.615938 0.710807
Si Si6 0.101983 0.939681 0.850313
Si Si7 0.878419 0.453686 0.836139
Si Si8 0.214585 0.823312 0.975718
O O1 0.773118 0.709296 0.442302
O O2 0.593631 0.383032 0.350155
O O3 0.000000 0.500000 0.500000
O O4 0.075650 0.456302 0.349495
O O5 0.482231 0.107602 0.763666
O O6 0.706091 0.413417 0.881833
O O7 0.968718 0.139141 0.896646
O O8 0.566985 0.197914 0.938394
O O9 0.500000 0.000000 0.500000
O O10 0.000000 0.000000 0.500000
O O11 0.964673 0.966891 0.624538
O O12 0.040767 0.264195 0.787781
O O13 0.170352 0.938307 0.771522
O O14 0.841951 0.807078 0.797040
O O15 0.713736 0.496007 0.753995
O O16 0.320165 0.857830 0.911515
O O17 0.068091 0.628442 0.911782
O O18 0.000000 0.000000 0.000000
#
# Coordination Sequence:
#
# PCOD9022048 Si02
#       8
#     2   2   2   2   2   2   2   2
#     4  12  26  45  69 102 139 182 238 298 354 416
#     4  10  22  38  69  95 134 178 226 285 339 420
#     4  12  28  46  71 101 142 187 237 295 353 419
#     4  11  24  40  66  96 132 178 231 281 350 409
#     4  11  25  43  70  99 140 181 234 285 353 414
#     4   9  22  41  65  95 137 177 224 284 340 421
#     4  10  22  41  64  96 135 174 226 280 340 417
#     4   9  19  42  65  97 131 178 221 280 348 411
#
# _framework density 24.782191999999998
#
# number of rings (size 3 to 8) (size 9 to 14) (size 15 to 20)
#    0.000    1.500    0.000    3.750   10.500    1.000 
#    0.000    0.000    0.000    0.000    0.000    0.000 
#    0.000    0.000    0.000    0.000    0.000    0.000 
#
# Total GULP energy -89315.778995 kJ/mol
# GULP energy per Si atom -5582.236187 kJ/mol
# Density = 2.472579 g / cm^3
# Si number density = 24.782192 Si / 1000 Ang^3
#
#
#
# Elastic Constant Matrix: (Units=GPa)
#
#
# Indices 1 2 3 4 5 6 
#
# 1 100.4828 28.6151 41.9565 -9.8557 12.0414 1.4972
# 2 28.6151 100.2267 32.3398 -9.1011 -8.3557 23.9794
# 3 41.9565 32.3398 156.5896 -17.9049 18.0401 7.9925
# 4 -9.8557 -9.1011 -17.9049 56.4249 0.4282 -13.7121
# 5 12.0414 -8.3557 18.0401 0.4282 39.3151 3.2219
# 6 1.4972 23.9794 7.9925 -13.7121 3.2219 35.7756
#
#
#
# Elastic Compliance Matrix: (Units=1/GPa)
#
#
# Indices 1 2 3 4 5 6 
#
# 1 0.012551 -0.003970 -0.002053 0.001820 -0.004065 0.003658
# 2 -0.003970 0.014732 -0.002362 -0.001636 0.006299 -0.010375
# 3 -0.002053 -0.002362 0.008033 0.002081 -0.003664 0.001002
# 4 0.001820 -0.001636 0.002081 0.020570 -0.002796 0.008691
# 5 -0.004065 0.006299 -0.003664 -0.002796 0.030307 -0.007034
# 6 0.003658 -0.010375 0.001002 0.008691 -0.007034 0.038494
#
#
# Mechanical properties :
#
#
# Convention : Reuss Voigt Hill
#
# Bulk Modulus (GPa) = 53.92093 62.56913 58.24503
# Shear Modulus (GPa) = 33.86653 43.26230 38.56442
#
# Velocity S-wave (km/s) = 3.70072 4.18269 3.94907
# Velocity P-wave (km/s) = 6.32974 6.97345 6.65938
#
# Compressibility (1/GPa) = 0.01854568
#
# Stress axis : x y z
#
# Youngs Moduli (GPa) = 79.67537 67.88162 124.48704
#
# Poissons Ratio (x) = 0.26946 0.25561
# Poissons Ratio (y) = 0.31628 0.29403
# Poissons Ratio (z) = 0.16360 0.16033
#
# Static dielectric constant tensor:
#      x y z
#    x 2.205090 -0.002650 -0.021060 
#    y -0.002650 1.915990 -0.067390 
#    z -0.021060 -0.067390 2.115420 
# 
# From -- ./inp_files/81539.got.cif
#   From: 2010.05.17/outbox.cif.g08.bks.cpg/sg2_41_cif.got.tgz:81539.got - 2010.06.03 11:33:40.
