data_PCOD9022290
_publ_section_title
;
Structure prediction by ZEFSAII (Michael W. Deem and Ramdas Pophale) SiO2 
 PCOD9022290
Probable space group: P -1
;
_chemical_formula_sum "Si O2"
_cell_formula_units_Z 16
_cell_length_a 11.225839
_cell_length_b 11.622806
_cell_length_c 10.573892
_cell_angle_alpha 117.698216
_cell_angle_beta 126.786120
_cell_angle_gamma 38.636769
_cell_volume 689.878094
_symmetry_space_group_name_H-M "P -1"
_symmetry_group_IT_number 2
_symmetry_cell_setting 'triclinic'
loop_
_space_group_symop_operation_xyz
x,y,z
-x,-y,-z
loop_
_atom_site_type_symbol
_atom_site_label
_atom_site_fract_x
_atom_site_fract_y
_atom_site_fract_z
Si Si1 0.369921 0.777719 0.027977
Si Si2 0.630477 0.430696 0.853435
Si Si3 0.701016 0.762247 0.144708
Si Si4 0.903645 0.818249 0.917869
Si Si5 0.028014 0.586099 0.449730
Si Si6 0.500314 0.674847 0.468872
Si Si7 0.281386 0.055405 0.410565
Si Si8 0.569386 0.819315 0.812610
O O1 0.440329 0.637665 0.889453
O O2 0.360370 0.695375 0.104303
O O3 0.553875 0.772774 0.153956
O O4 0.168583 0.993309 0.983384
O O5 0.599292 0.400059 0.675069
O O6 0.857330 0.354798 0.980899
O O7 0.934067 0.600615 0.262678
O O8 0.628810 0.957964 0.191571
O O9 0.645477 0.741397 0.961662
O O10 0.858189 0.854218 0.758086
O O11 0.749229 0.802088 0.861058
O O12 0.868790 0.795913 0.500543
O O13 0.000000 0.500000 0.500000
O O14 0.269349 0.469768 0.523151
O O15 0.524994 0.722549 0.647672
O O16 0.357311 0.868768 0.405795
O O17 0.500000 0.000000 0.500000
#
# Coordination Sequence:
#
# PCOD9022290 Si02
#       8
#     2   2   2   2   2   2   2   2
#     4  10  22  39  60  91 127 163 212 258 316 379
#     4  11  25  38  61  93 132 170 209 260 321 387
#     4  10  22  43  70  95 126 169 216 268 315 382
#     4  11  22  39  67  93 125 175 206 262 325 376
#     4  12  23  34  64  99 125 161 204 271 330 364
#     4  12  24  39  59  96 128 167 212 268 317 378
#     4  12  21  37  61  95 134 158 214 274 320 371
#     4  10  22  44  70  94 125 169 221 264 315 379
#
# _framework density 23.192502000000001
#
# number of rings (size 3 to 8) (size 9 to 14) (size 15 to 20)
#    0.000    1.000    5.000    1.875    7.000    0.500 
#    0.000    0.625    0.000    2.250    0.000    0.000 
#    0.000    0.000    0.000    0.000    0.000    0.000 
#
# Total GULP energy -89463.471631 kJ/mol
# GULP energy per Si atom -5591.466977 kJ/mol
# Density = 2.313972 g / cm^3
# Si number density = 23.192502 Si / 1000 Ang^3
#
#
#
# Elastic Constant Matrix: (Units=GPa)
#
#
# Indices 1 2 3 4 5 6 
#
# 1 25.4248 8.4596 18.9843 -8.0327 -8.2932 16.7078
# 2 8.4596 113.7797 49.9901 16.3515 -7.3886 -0.5963
# 3 18.9843 49.9901 176.5711 4.2789 -13.5239 -4.9897
# 4 -8.0327 16.3515 4.2789 44.5290 -1.0254 -1.4043
# 5 -8.2932 -7.3886 -13.5239 -1.0254 20.3429 1.5066
# 6 16.7078 -0.5963 -4.9897 -1.4043 1.5066 28.9889
#
#
#
# Elastic Compliance Matrix: (Units=1/GPa)
#
#
# Indices 1 2 3 4 5 6 
#
# 1 0.116973 -0.004868 -0.010259 0.022697 0.045467 -0.070547
# 2 -0.004868 0.010861 -0.002375 -0.004563 -0.000027 0.002401
# 3 -0.010259 -0.002375 0.007633 -0.001500 -0.000575 0.007135
# 4 0.022697 -0.004563 -0.001500 0.028182 0.008947 -0.012533
# 5 0.045467 -0.000027 -0.000575 0.008947 0.069937 -0.029506
# 6 -0.070547 0.002401 0.007135 -0.012533 -0.029506 0.077360
#
#
# Mechanical properties :
#
#
# Convention : Reuss Voigt Hill
#
# Bulk Modulus (GPa) = 9.95411 52.29372 31.12391
# Shear Modulus (GPa) = 13.17736 34.66161 23.91949
#
# Velocity S-wave (km/s) = 2.38622 3.87009 3.21494
# Velocity P-wave (km/s) = 3.44868 6.52432 5.21824
#
# Compressibility (1/GPa) = 0.10046104
#
# Stress axis : x y z
#
# Youngs Moduli (GPa) = 8.54898 92.07212 131.01205
#
# Poissons Ratio (x) = 0.44825 1.34410
# Poissons Ratio (y) = 0.04162 0.31117
# Poissons Ratio (z) = 0.08771 0.21868
#
# Static dielectric constant tensor:
#      x y z
#    x 1.866670 -0.013930 -0.019820 
#    y -0.013930 1.844450 0.065660 
#    z -0.019820 0.065660 1.954760 
# 
# From -- ./inp_files/402311.got.cif
#   From: 2010.05.17/outbox.cif.g08.bks.cpg/sg2_202_cif.got.tgz:402311.got - 2010.06.03 11:33:40.
