data_PCOD9022651
_publ_section_title
;
Structure prediction by ZEFSAII (Michael W. Deem and Ramdas Pophale) SiO2 
 PCOD9022651
Probable space group: P -1
;
_chemical_formula_sum "Si O2"
_cell_formula_units_Z 16
_cell_length_a 11.003759
_cell_length_b 11.046873
_cell_length_c 12.419634
_cell_angle_alpha 109.783210
_cell_angle_beta 78.665899
_cell_angle_gamma 47.681741
_cell_volume 832.374974
_symmetry_space_group_name_H-M "P -1"
_symmetry_group_IT_number 2
_symmetry_cell_setting 'triclinic'
loop_
_space_group_symop_operation_xyz
x,y,z
-x,-y,-z
loop_
_atom_site_type_symbol
_atom_site_label
_atom_site_fract_x
_atom_site_fract_y
_atom_site_fract_z
Si Si1 0.368907 0.228462 0.388965
Si Si2 0.222296 0.275100 0.215001
Si Si3 0.258204 0.478993 0.910193
Si Si4 0.780977 0.680417 0.323942
Si Si5 0.817222 0.869325 0.213568
Si Si6 0.754921 0.221272 0.080806
Si Si7 0.508921 0.203866 0.000238
Si Si8 0.566780 0.318485 0.371893
O O1 0.211134 0.307485 0.354130
O O2 0.347874 0.202689 0.507937
O O3 0.377119 0.375959 0.430379
O O4 0.601510 0.001407 0.236426
O O5 0.336252 0.302484 0.147570
O O6 0.000381 0.441278 0.251016
O O7 0.352625 0.038104 0.106361
O O8 0.300571 0.345553 0.764158
O O9 0.284443 0.603628 0.904753
O O10 0.396492 0.331763 0.946137
O O11 0.016942 0.672898 0.048890
O O12 0.827251 0.780275 0.294004
O O13 0.761555 0.066183 0.301469
O O14 0.658014 0.194891 0.010598
O O15 0.629150 0.305105 0.237672
O O16 0.000000 0.000000 0.000000
O O17 0.500000 0.500000 0.500000
#
# Coordination Sequence:
#
# PCOD9022651 Si02
#       8
#     2   2   2   2   2   2   2   2
#     4  10  22  41  62  92 132 165 214 261 319 375
#     4  11  23  39  66  93 133 168 212 267 319 376
#     4  12  24  40  66  98 130 167 214 264 316 380
#     4  12  23  39  69  98 128 168 213 261 326 378
#     4  10  22  39  63  93 129 163 211 260 315 375
#     4  12  22  42  67  92 126 170 218 259 315 380
#     4  11  24  40  64  96 132 167 211 267 320 370
#     4  10  22  40  63  90 126 167 212 257 316 377
#
# _framework density 19.222107000000001
#
# number of rings (size 3 to 8) (size 9 to 14) (size 15 to 20)
#    0.750    0.250    3.750    3.750    3.500    0.000 
#    0.000    0.000    0.000    1.500    0.000    0.000 
#    0.000    0.000    0.000    0.000    0.000    0.000 
#
# Total GULP energy -89223.409298 kJ/mol
# GULP energy per Si atom -5576.463081 kJ/mol
# Density = 1.917836 g / cm^3
# Si number density = 19.222107 Si / 1000 Ang^3
#
#
#
# Elastic Constant Matrix: (Units=GPa)
#
#
# Indices 1 2 3 4 5 6 
#
# 1 80.9290 35.1847 30.1010 -18.7110 8.8766 5.0587
# 2 35.1847 121.6557 28.3443 -17.3848 8.9606 4.9216
# 3 30.1010 28.3443 69.0897 -27.3945 7.5520 0.2071
# 4 -18.7110 -17.3848 -27.3945 33.6705 1.5957 -4.7616
# 5 8.8766 8.9606 7.5520 1.5957 31.3047 -7.4065
# 6 5.0587 4.9216 0.2071 -4.7616 -7.4065 40.6760
#
#
#
# Elastic Compliance Matrix: (Units=1/GPa)
#
#
# Indices 1 2 3 4 5 6 
#
# 1 0.016610 -0.002924 -0.003854 0.004498 -0.003603 -0.001822
# 2 -0.002924 0.009951 -0.001802 0.002003 -0.001910 -0.000944
# 3 -0.003854 -0.001802 0.024159 0.017048 -0.004682 0.001718
# 4 0.004498 0.002003 0.017048 0.047937 -0.007616 0.003336
# 5 -0.003603 -0.001910 -0.004682 -0.007616 0.036561 0.006469
# 6 -0.001822 -0.000944 0.001718 0.003336 0.006469 0.026485
#
#
# Mechanical properties :
#
#
# Convention : Reuss Voigt Hill
#
# Bulk Modulus (GPa) = 29.79893 50.99271 40.39582
# Shear Modulus (GPa) = 26.30882 32.99988 29.65435
#
# Velocity S-wave (km/s) = 3.70357 4.14788 3.93201
# Velocity P-wave (km/s) = 5.81590 7.03745 6.45563
#
# Compressibility (1/GPa) = 0.03355826
#
# Stress axis : x y z
#
# Youngs Moduli (GPa) = 60.20301 100.49545 41.39257
#
# Poissons Ratio (x) = 0.29386 0.15954
# Poissons Ratio (y) = 0.17604 0.07461
# Poissons Ratio (z) = 0.23205 0.18114
#
# Static dielectric constant tensor:
#      x y z
#    x 1.682870 -0.006700 -0.020390 
#    y -0.006700 1.685640 0.016190 
#    z -0.020390 0.016190 1.693440 
# 
# From -- ./inp_files/425953.got.cif
#   From: 2010.05.17/outbox.cif.g08.bks.cpg/sg2_213_cif.got.tgz:425953.got - 2010.06.03 11:33:40.
