data_PCOD9022965
_publ_section_title
;
Structure prediction by ZEFSAII (Michael W. Deem and Ramdas Pophale) SiO2 
 PCOD9022965
Probable space group: P -1
;
_chemical_formula_sum "Si O2"
_cell_formula_units_Z 16
_cell_length_a 7.989009
_cell_length_b 28.236259
_cell_length_c 15.169824
_cell_angle_alpha 161.337784
_cell_angle_beta 126.968020
_cell_angle_gamma 41.239230
_cell_volume 613.684441
_symmetry_space_group_name_H-M "P -1"
_symmetry_group_IT_number 2
_symmetry_cell_setting 'triclinic'
loop_
_space_group_symop_operation_xyz
x,y,z
-x,-y,-z
loop_
_atom_site_type_symbol
_atom_site_label
_atom_site_fract_x
_atom_site_fract_y
_atom_site_fract_z
Si Si1 0.216513 0.810723 0.905090
Si Si2 0.266482 0.080977 0.645805
Si Si3 0.643791 0.280623 0.931619
Si Si4 0.224210 0.148217 0.468931
Si Si5 0.978824 0.687284 0.494850
Si Si6 0.771957 0.583278 0.398768
Si Si7 0.883599 0.372699 0.304835
Si Si8 0.407851 0.519066 0.105144
O O1 0.063849 0.805501 0.766345
O O2 0.574178 0.602613 0.646499
O O3 0.088692 0.786927 0.906529
O O4 0.171288 0.005589 0.228348
O O5 0.187402 0.947725 0.381061
O O6 0.457743 0.979513 0.616433
O O7 0.500000 0.000000 0.500000
O O8 0.021896 0.331794 0.013114
O O9 0.306910 0.450732 0.164757
O O10 0.810988 0.341865 0.131599
O O11 0.583427 0.324197 0.884794
O O12 0.204263 0.197201 0.447500
O O13 0.929880 0.370538 0.809525
O O14 0.804259 0.684012 0.507245
O O15 0.858503 0.637702 0.608690
O O16 0.465745 0.645880 0.400061
O O17 0.500000 0.500000 0.000000
#
# Coordination Sequence:
#
# PCOD9022965 Si02
#       8
#     2   2   2   2   2   2   2   2
#     4   9  16  34  63  97 123 154 207 271 314 358
#     4  12  22  37  68  99 119 163 228 262 299 375
#     4  10  22  39  65  94 127 168 213 260 319 376
#     4  11  22  38  65  93 125 167 217 259 308 384
#     4   9  20  36  64  94 128 160 210 261 320 373
#     4  11  22  42  66  94 130 169 205 268 320 371
#     4   9  18  37  65  97 125 156 211 272 317 362
#     4  11  27  43  58  89 142 174 200 260 335 376
#
# _framework density 26.072029000000001
#
# number of rings (size 3 to 8) (size 9 to 14) (size 15 to 20)
#    0.000    1.750    2.500    2.625    1.750    2.000 
#    0.000    2.500    0.000    0.000    0.000    0.000 
#    0.000    0.000    0.000    0.000    0.000    0.000 
#
# Total GULP energy -89541.096291 kJ/mol
# GULP energy per Si atom -5596.318518 kJ/mol
# Density = 2.601269 g / cm^3
# Si number density = 26.072029 Si / 1000 Ang^3
#
#
#
# Elastic Constant Matrix: (Units=GPa)
#
#
# Indices 1 2 3 4 5 6 
#
# 1 57.3417 8.7005 8.0050 1.1161 18.8146 2.2667
# 2 8.7005 121.9406 20.8916 -15.2195 1.4023 8.5637
# 3 8.0050 20.8916 89.4248 -0.3206 27.9956 -3.3117
# 4 1.1161 -15.2195 -0.3206 23.8070 -8.3167 9.3060
# 5 18.8146 1.4023 27.9956 -8.3167 38.7497 -1.6018
# 6 2.2667 8.5637 -3.3117 9.3060 -1.6018 53.2965
#
#
#
# Elastic Compliance Matrix: (Units=1/GPa)
#
#
# Indices 1 2 3 4 5 6 
#
# 1 0.022546 -0.003165 0.003466 -0.008650 -0.015159 0.000820
# 2 -0.003165 0.010638 -0.004280 0.010468 0.006347 -0.003478
# 3 0.003466 -0.004280 0.016798 -0.009155 -0.015517 0.002716
# 4 -0.008650 0.010468 -0.009155 0.061761 0.023196 -0.011970
# 5 -0.015159 0.006347 -0.015517 0.023196 0.048964 -0.003918
# 6 0.000820 -0.003478 0.002716 -0.011970 -0.003918 0.021428
#
#
# Mechanical properties :
#
#
# Convention : Reuss Voigt Hill
#
# Bulk Modulus (GPa) = 23.79665 38.21123 31.00394
# Shear Modulus (GPa) = 24.49788 38.57801 31.53794
#
# Velocity S-wave (km/s) = 3.06865 3.85082 3.48177
# Velocity P-wave (km/s) = 4.65860 5.87023 5.29916
#
# Compressibility (1/GPa) = 0.04202272
#
# Stress axis : x y z
#
# Youngs Moduli (GPa) = 44.35455 94.00601 59.53215
#
# Poissons Ratio (x) = 0.29757 -0.20637
# Poissons Ratio (y) = 0.14040 0.25481
# Poissons Ratio (z) = -0.15375 0.40236
#
# Static dielectric constant tensor:
#      x y z
#    x 2.036930 -0.032880 -0.012240 
#    y -0.032880 2.087510 -0.055490 
#    z -0.012240 -0.055490 2.080110 
# 
# From -- ./inp_files/392109.got.cif
#   From: 2010.05.17/outbox.cif.g08.bks.cpg/sg2_197_cif.got.tgz:392109.got - 2010.06.03 11:33:40.
