data_PCOD9022145
_publ_section_title
;
Structure prediction by ZEFSAII (Michael W. Deem and Ramdas Pophale) SiO2 
 PCOD9022145
Probable space group: P -1
;
_chemical_formula_sum "Si O2"
_cell_formula_units_Z 16
_cell_length_a 14.470490
_cell_length_b 21.949232
_cell_length_c 17.904393
_cell_angle_alpha 160.312979
_cell_angle_beta 145.807637
_cell_angle_gamma 23.026792
_cell_volume 715.141616
_symmetry_space_group_name_H-M "P -1"
_symmetry_group_IT_number 2
_symmetry_cell_setting 'triclinic'
loop_
_space_group_symop_operation_xyz
x,y,z
-x,-y,-z
loop_
_atom_site_type_symbol
_atom_site_label
_atom_site_fract_x
_atom_site_fract_y
_atom_site_fract_z
Si Si1 0.950815 0.728691 0.773857
Si Si2 0.260216 0.019311 0.917942
Si Si3 0.808902 0.614009 0.831262
Si Si4 0.358040 0.009139 0.481714
Si Si5 0.612063 0.344823 0.004146
Si Si6 0.450127 0.863010 0.140203
Si Si7 0.004144 0.274351 0.806300
Si Si8 0.938649 0.063006 0.654584
O O1 0.000000 0.500000 0.500000
O O2 0.739663 0.993681 0.888153
O O3 0.842405 0.806216 0.874076
O O4 0.190096 0.659319 0.861151
O O5 0.104756 0.974859 0.734703
O O6 0.547081 0.730502 0.785522
O O7 0.218591 0.205789 0.041727
O O8 0.068836 0.301707 0.629046
O O9 0.835598 0.688791 0.016093
O O10 0.494461 0.978651 0.610376
O O11 0.500000 0.000000 0.500000
O O12 0.378507 0.783444 0.212770
O O13 0.653859 0.168413 0.896316
O O14 0.336474 0.643627 0.176416
O O15 0.717390 0.563120 0.952203
O O16 0.044316 0.092952 0.689720
O O17 0.064138 0.137515 0.609350
#
# Coordination Sequence:
#
# PCOD9022145 Si02
#       8
#     2   2   2   2   2   2   2   2
#     4  12  28  40  57  93 137 166 203 264 314 372
#     4  10  22  39  57  90 129 161 208 255 313 371
#     4   9  19  38  66  91 116 168 205 253 313 364
#     4   9  18  37  70  92 120 158 217 257 296 380
#     4  10  22  40  65  90 120 168 215 253 312 372
#     4   9  20  42  64  90 121 166 210 253 308 373
#     4   8  16  35  64  89 115 154 212 253 297 370
#     4   9  18  35  61  93 118 157 207 261 302 364
#
# _framework density 22.373190000000001
#
# number of rings (size 3 to 8) (size 9 to 14) (size 15 to 20)
#    0.000    2.500    0.000    2.625    7.000    1.500 
#    2.250    5.000    0.000    0.000    0.000    0.000 
#    0.000    0.000    0.000    0.000    0.000    0.000 
#
# Total GULP energy -89435.093782 kJ/mol
# GULP energy per Si atom -5589.693361 kJ/mol
# Density = 2.232227 g / cm^3
# Si number density = 22.373190 Si / 1000 Ang^3
#
#
#
# Elastic Constant Matrix: (Units=GPa)
#
#
# Indices 1 2 3 4 5 6 
#
# 1 62.8615 17.4236 24.3726 -12.8620 0.2953 -4.0782
# 2 17.4236 130.7530 56.5682 -24.4954 -8.8871 -20.3739
# 3 24.3726 56.5682 158.0731 -23.5808 -24.2079 -6.0694
# 4 -12.8620 -24.4954 -23.5808 25.1460 2.2147 3.4742
# 5 0.2953 -8.8871 -24.2079 2.2147 27.1070 -1.8485
# 6 -4.0782 -20.3739 -6.0694 3.4742 -1.8485 20.9646
#
#
#
# Elastic Compliance Matrix: (Units=1/GPa)
#
#
# Indices 1 2 3 4 5 6 
#
# 1 0.018342 -0.000147 -0.002011 0.007385 -0.002552 0.001394
# 2 -0.000147 0.011752 -0.002411 0.007636 0.001731 0.009581
# 3 -0.002011 -0.002411 0.009289 0.004734 0.007126 -0.000201
# 4 0.007385 0.007636 0.004734 0.055045 0.002242 0.001303
# 5 -0.002552 0.001731 0.007126 0.002242 0.044129 0.006768
# 6 0.001394 0.009581 -0.000201 0.001303 0.006768 0.057605
#
#
# Mechanical properties :
#
#
# Convention : Reuss Voigt Hill
#
# Bulk Modulus (GPa) = 33.06354 60.93514 46.99934
# Shear Modulus (GPa) = 23.21484 31.53174 27.37329
#
# Velocity S-wave (km/s) = 3.22470 3.75821 3.50163
# Velocity P-wave (km/s) = 5.35493 6.79169 6.11565
#
# Compressibility (1/GPa) = 0.03024480
#
# Stress axis : x y z
#
# Youngs Moduli (GPa) = 54.51989 85.09464 107.65634
#
# Poissons Ratio (x) = 0.01249 0.21652
# Poissons Ratio (y) = 0.00800 0.25954
# Poissons Ratio (z) = 0.10965 0.20515
#
# Static dielectric constant tensor:
#      x y z
#    x 1.902890 0.007000 0.028330 
#    y 0.007000 1.776250 -0.015360 
#    z 0.028330 -0.015360 1.844330 
# 
# From -- ./inp_files/574439.got.cif
#   From: 2010.05.17/outbox.cif.g08.bks.cpg/sg2_288_cif.got.tgz:574439.got - 2010.06.03 11:33:40.
