data_PCOD9022454
_publ_section_title
;
Structure prediction by ZEFSAII (Michael W. Deem and Ramdas Pophale) SiO2 
 PCOD9022454
Probable space group: P -1
;
_chemical_formula_sum "Si O2"
_cell_formula_units_Z 16
_cell_length_a 8.603623
_cell_length_b 14.861265
_cell_length_c 22.253318
_cell_angle_alpha 18.497957
_cell_angle_beta 113.365334
_cell_angle_gamma 102.761967
_cell_volume 701.248906
_symmetry_space_group_name_H-M "P -1"
_symmetry_group_IT_number 2
_symmetry_cell_setting 'triclinic'
loop_
_space_group_symop_operation_xyz
x,y,z
-x,-y,-z
loop_
_atom_site_type_symbol
_atom_site_label
_atom_site_fract_x
_atom_site_fract_y
_atom_site_fract_z
Si Si1 0.881331 0.482481 0.936731
Si Si2 0.258133 0.860731 0.346377
Si Si3 0.784295 0.110443 0.921388
Si Si4 0.318091 0.886427 0.823092
Si Si5 0.315050 0.085270 0.092377
Si Si6 0.085404 0.467325 0.600758
Si Si7 0.591578 0.893753 0.421916
Si Si8 0.084759 0.235606 0.353755
O O1 0.710026 0.419068 0.972245
O O2 0.857459 0.753681 0.713255
O O3 0.024344 0.144240 0.134236
O O4 0.000000 0.500000 0.000000
O O5 0.260240 0.546815 0.572706
O O6 0.360812 0.011774 0.307114
O O7 0.335889 0.827475 0.311401
O O8 0.823442 0.887249 0.127848
O O9 0.686966 0.024689 0.905787
O O10 0.677043 0.504188 0.665944
O O11 0.000000 0.000000 0.000000
O O12 0.500897 0.864010 0.901741
O O13 0.368808 0.907642 0.748532
O O14 0.107794 0.240270 0.577871
O O15 0.099181 0.414074 0.868432
O O16 0.000000 0.500000 0.500000
O O17 0.712228 0.884027 0.503798
O O18 0.000000 0.000000 0.500000
#
# Coordination Sequence:
#
# PCOD9022454 Si02
#       8
#     2   2   2   2   2   2   2   2
#     4  10  22  42  65  85 118 160 199 250 304 355
#     4   9  23  40  60  89 123 156 201 244 293 362
#     4  12  22  37  62  89 125 161 199 244 290 360
#     4  10  22  39  62  87 119 159 199 244 294 359
#     4  10  22  41  62  91 119 160 204 240 298 355
#     4  11  23  37  57  85 124 161 196 240 294 347
#     4  11  23  40  62  91 121 159 201 246 299 350
#     4  11  23  41  64  88 120 154 201 257 299 351
#
# _framework density 22.816434000000001
#
# number of rings (size 3 to 8) (size 9 to 14) (size 15 to 20)
#    0.000    1.500    2.500    1.500    5.250    4.500 
#    0.000    5.000    0.000    0.000    0.000    0.000 
#    0.000    0.000    0.000    0.000    0.000    0.000 
#
# Total GULP energy -89362.831155 kJ/mol
# GULP energy per Si atom -5585.176947 kJ/mol
# Density = 2.276450 g / cm^3
# Si number density = 22.816434 Si / 1000 Ang^3
#
#
#
# Elastic Constant Matrix: (Units=GPa)
#
#
# Indices 1 2 3 4 5 6 
#
# 1 140.6812 41.0293 47.9355 13.5413 -33.4094 21.6518
# 2 41.0293 116.2211 39.0700 41.3351 -25.6591 9.5341
# 3 47.9355 39.0700 91.3848 17.1001 -30.9172 -3.7261
# 4 13.5413 41.3351 17.1001 43.3890 -6.9647 10.5526
# 5 -33.4094 -25.6591 -30.9172 -6.9647 53.6985 -9.4841
# 6 21.6518 9.5341 -3.7261 10.5526 -9.4841 21.8700
#
#
#
# Elastic Compliance Matrix: (Units=1/GPa)
#
#
# Indices 1 2 3 4 5 6 
#
# 1 0.011773 -0.002344 -0.006298 0.004453 0.000768 -0.013522
# 2 -0.002344 0.015260 -0.001239 -0.013586 0.004022 0.003756
# 3 -0.006298 -0.001239 0.020039 -0.007618 0.009192 0.017851
# 4 0.004453 -0.013586 -0.007618 0.042124 -0.006710 -0.023019
# 5 0.000768 0.004022 0.009192 -0.006710 0.027993 0.014429
# 6 -0.013522 0.003756 0.017851 -0.023019 0.014429 0.077880
#
#
# Mechanical properties :
#
#
# Convention : Reuss Voigt Hill
#
# Bulk Modulus (GPa) = 36.61574 67.15077 51.88326
# Shear Modulus (GPa) = 22.32812 38.47498 30.40155
#
# Velocity S-wave (km/s) = 3.13165 4.11089 3.65422
# Velocity P-wave (km/s) = 5.39992 7.21300 6.37128
#
# Compressibility (1/GPa) = 0.02731066
#
# Stress axis : x y z
#
# Youngs Moduli (GPa) = 84.94245 65.53179 49.90210
#
# Poissons Ratio (x) = 0.15359 0.31429
# Poissons Ratio (y) = 0.19908 0.06181
# Poissons Ratio (z) = 0.53497 0.08118
#
# Static dielectric constant tensor:
#      x y z
#    x 2.005530 0.019890 0.149870 
#    y 0.019890 1.872360 0.053190 
#    z 0.149870 0.053190 2.154920 
# 
# From -- ./inp_files/177375.got.cif
#   From: 2010.05.17/outbox.cif.g08.bks.cpg/sg2_89_cif.got.tgz:177375.got - 2010.06.03 11:33:40.
