data_PCOD9022679
_publ_section_title
;
Structure prediction by ZEFSAII (Michael W. Deem and Ramdas Pophale) SiO2 
 PCOD9022679
Probable space group: P -1
;
_chemical_formula_sum "Si O2"
_cell_formula_units_Z 12
_cell_length_a 18.794703
_cell_length_b 6.945768
_cell_length_c 5.590134
_cell_angle_alpha 71.989448
_cell_angle_beta 117.745673
_cell_angle_gamma 133.549501
_cell_volume 468.023543
_symmetry_space_group_name_H-M "P -1"
_symmetry_group_IT_number 2
_symmetry_cell_setting 'triclinic'
loop_
_space_group_symop_operation_xyz
x,y,z
-x,-y,-z
loop_
_atom_site_type_symbol
_atom_site_label
_atom_site_fract_x
_atom_site_fract_y
_atom_site_fract_z
Si Si1 0.654160 0.232110 0.237130
Si Si2 0.392551 0.399610 0.751608
Si Si3 0.453332 0.769728 0.323627
Si Si4 0.159313 0.929384 0.631177
Si Si5 0.880638 0.663893 0.508869
Si Si6 0.964858 0.635063 0.146259
O O1 0.629560 0.414274 0.239061
O O2 0.768658 0.365083 0.454285
O O3 0.556481 0.924755 0.256349
O O4 0.644733 0.271485 0.929111
O O5 0.413664 0.496667 0.473523
O O6 0.284664 0.100771 0.734964
O O7 0.500000 0.500000 0.000000
O O8 0.500000 0.000000 0.500000
O O9 0.103298 0.681774 0.818263
O O10 0.088393 0.794133 0.330186
O O11 0.144469 0.138236 0.605305
O O12 0.929993 0.692739 0.315994
O O13 0.941131 0.705797 0.832402
#
# Coordination Sequence:
#
# PCOD9022679 Si02
#       6
#     2   2   2   2   2   2
#     4   9  21  38  62  97 127 181 224 291 336 428
#     4  10  22  39  63  94 134 179 222 289 350 412
#     4   9  19  37  61  85 130 167 225 271 341 404
#     4  10  25  46  69 108 144 184 243 299 346 432
#     4  11  25  44  77 104 142 187 239 291 366 417
#     4  11  26  47  73 108 140 192 237 294 360 422
#
# _framework density 25.639735999999999
#
# number of rings (size 3 to 8) (size 9 to 14) (size 15 to 20)
#    0.000    2.000    0.000    1.000    9.333    7.333 
#    6.000    0.000    0.000    0.000    0.000    0.000 
#    0.000    0.000    0.000    0.000    0.000    0.000 
#
# Total GULP energy -67092.964527 kJ/mol
# GULP energy per Si atom -5591.080377 kJ/mol
# Density = 2.558138 g / cm^3
# Si number density = 25.639736 Si / 1000 Ang^3
#
#
#
# Elastic Constant Matrix: (Units=GPa)
#
#
# Indices 1 2 3 4 5 6 
#
# 1 108.4401 40.2962 57.6848 10.9829 12.3635 9.6199
# 2 40.2962 168.8619 39.9573 4.6612 15.6488 15.5188
# 3 57.6848 39.9573 156.6225 4.2806 9.8315 16.3610
# 4 10.9829 4.6612 4.2806 44.3775 2.8690 18.9738
# 5 12.3635 15.6488 9.8315 2.8690 35.6361 13.6603
# 6 9.6199 15.5188 16.3610 18.9738 13.6603 40.3535
#
#
#
# Elastic Compliance Matrix: (Units=1/GPa)
#
#
# Indices 1 2 3 4 5 6 
#
# 1 0.012558 -0.001846 -0.004077 -0.003104 -0.002860 0.001797
# 2 -0.001846 0.006831 -0.000813 0.000609 -0.001565 -0.001614
# 3 -0.004077 -0.000813 0.008332 0.001534 0.000492 -0.002981
# 4 -0.003104 0.000609 0.001534 0.029349 0.003858 -0.015222
# 5 -0.002860 -0.001565 0.000492 0.003858 0.033984 -0.012234
# 6 0.001797 -0.001614 -0.002981 -0.015222 -0.012234 0.037481
#
#
# Mechanical properties :
#
#
# Convention : Reuss Voigt Hill
#
# Bulk Modulus (GPa) = 70.18021 78.86679 74.52350
# Shear Modulus (GPa) = 34.06963 43.80583 38.93773
#
# Velocity S-wave (km/s) = 3.64920 4.13790 3.90121
# Velocity P-wave (km/s) = 6.72210 7.32503 7.03003
#
# Compressibility (1/GPa) = 0.01424903
#
# Stress axis : x y z
#
# Youngs Moduli (GPa) = 79.63160 146.38135 120.01225
#
# Poissons Ratio (x) = 0.27027 0.48934
# Poissons Ratio (y) = 0.14703 0.09752
# Poissons Ratio (z) = 0.32469 0.11895
#
# Static dielectric constant tensor:
#      x y z
#    x 2.262170 -0.001770 -0.086830 
#    y -0.001770 2.046760 -0.049510 
#    z -0.086830 -0.049510 2.117790 
# 
# From -- ./inp_files/122850.got.cif
#   From: 2010.05.17/outbox.cif.g08.bks.cpg/sg2_62_cif.got.tgz:122850.got - 2010.06.03 11:33:40.
