data_PCOD9022556
_publ_section_title
;
Structure prediction by ZEFSAII (Michael W. Deem and Ramdas Pophale) SiO2 
 PCOD9022556
Probable space group: P -1
;
_chemical_formula_sum "Si O2"
_cell_formula_units_Z 15
_cell_length_a 9.317618
_cell_length_b 9.040236
_cell_length_c 23.348851
_cell_angle_alpha 38.258120
_cell_angle_beta 151.657204
_cell_angle_gamma 132.885316
_cell_volume 577.783593
_symmetry_space_group_name_H-M "P -1"
_symmetry_group_IT_number 2
_symmetry_cell_setting 'triclinic'
loop_
_space_group_symop_operation_xyz
x,y,z
-x,-y,-z
loop_
_atom_site_type_symbol
_atom_site_label
_atom_site_fract_x
_atom_site_fract_y
_atom_site_fract_z
Si Si1 0.468307 0.488447 0.212389
Si Si2 0.092525 0.919251 0.690960
Si Si3 0.000000 0.000000 0.500000
Si Si4 0.705199 0.174522 0.852571
Si Si5 0.856426 0.469812 0.593692
Si Si6 0.612063 0.211288 0.014536
Si Si7 0.270045 0.023041 0.346311
Si Si8 0.952364 0.598213 0.188088
O O1 0.283024 0.669154 0.133321
O O2 0.820940 0.545318 0.321557
O O3 0.378335 0.551485 0.095399
O O4 0.452301 0.218811 0.313534
O O5 0.798142 0.978034 0.608676
O O6 0.170852 0.640532 0.809730
O O7 0.027428 0.930915 0.597399
O O8 0.375880 0.072829 0.760140
O O9 0.203786 0.246355 0.510629
O O10 0.764037 0.347653 0.767595
O O11 0.000000 0.000000 0.000000
O O12 0.929508 0.402266 0.705523
O O13 0.673760 0.251328 0.570250
O O14 0.351886 0.237208 0.962911
O O15 0.933383 0.122974 0.177432
O O16 0.500000 0.000000 0.000000
#
# Coordination Sequence:
#
# PCOD9022556 Si02
#       8
#     2   2   1   2   2   2   2   2
#     4  11  23  40  63 105 142 179 223 266 339 419
#     4  11  24  45  68  97 135 181 231 284 338 397
#     4  10  26  52  74  90 130 182 236 300 350 378
#     4  12  24  38  66 105 145 180 217 268 341 415
#     4  10  23  46  68  94 131 172 234 291 337 401
#     4  11  20  39  61  97 148 187 217 261 333 414
#     4  12  22  39  69  97 137 180 223 278 339 408
#     4  10  22  39  62  96 142 176 223 273 329 408
#
# _framework density 25.961278
#
# number of rings (size 3 to 8) (size 9 to 14) (size 15 to 20)
#    0.000    1.067    5.333    2.000    1.867    4.800 
#    0.000    6.667    0.000    0.000    0.000    0.000 
#    0.000    0.000    0.000    0.000    0.000    0.000 
#
# Total GULP energy -83600.954151 kJ/mol
# GULP energy per Si atom -5573.396943 kJ/mol
# Density = 2.590219 g / cm^3
# Si number density = 25.961278 Si / 1000 Ang^3
#
#
#
# Elastic Constant Matrix: (Units=GPa)
#
#
# Indices 1 2 3 4 5 6 
#
# 1 134.2285 44.6205 20.4316 -4.8249 -3.5983 18.1877
# 2 44.6205 124.9393 15.0104 -23.2949 -6.2155 11.7110
# 3 20.4316 15.0104 36.0346 -18.8548 3.8541 7.9253
# 4 -4.8249 -23.2949 -18.8548 28.8234 0.6731 -1.4558
# 5 -3.5983 -6.2155 3.8541 0.6731 53.6586 0.3615
# 6 18.1877 11.7110 7.9253 -1.4558 0.3615 51.5814
#
#
#
# Elastic Compliance Matrix: (Units=1/GPa)
#
#
# Indices 1 2 3 4 5 6 
#
# 1 0.009698 -0.003519 -0.006733 -0.005733 0.000810 -0.001754
# 2 -0.003519 0.010959 0.002961 0.010117 0.000703 -0.001422
# 3 -0.006733 0.002961 0.049303 0.033364 -0.004035 -0.004903
# 4 -0.005733 0.010117 0.033364 0.063610 -0.002383 -0.003590
# 5 0.000810 0.000703 -0.004035 -0.002383 0.019092 -0.000026
# 6 -0.001754 -0.001422 -0.004903 -0.003590 -0.000026 0.020980
#
#
# Mechanical properties :
#
#
# Convention : Reuss Voigt Hill
#
# Bulk Modulus (GPa) = 18.05774 50.59193 34.32483
# Shear Modulus (GPa) = 24.19151 41.15535 32.67343
#
# Velocity S-wave (km/s) = 3.05590 3.98585 3.55145
# Velocity P-wave (km/s) = 4.40705 6.38063 5.48336
#
# Compressibility (1/GPa) = 0.05537792
#
# Stress axis : x y z
#
# Youngs Moduli (GPa) = 103.11553 91.24596 20.28277
#
# Poissons Ratio (x) = 0.32107 0.13657
# Poissons Ratio (y) = 0.36283 -0.06006
# Poissons Ratio (z) = 0.69432 -0.27018
#
# Static dielectric constant tensor:
#      x y z
#    x 2.082170 0.041750 -0.073190 
#    y 0.041750 2.027550 -0.050100 
#    z -0.073190 -0.050100 2.240400 
# 
# From -- ./inp_files/291507.got.cif
#   From: 2010.05.17/outbox.cif.g08.bks.cpg/sg2_146_cif.got.tgz:291507.got - 2010.06.03 11:33:40.
