data_PCOD9022861
_publ_section_title
;
Structure prediction by ZEFSAII (Michael W. Deem and Ramdas Pophale) SiO2 
 PCOD9022861
Probable space group: P -1
;
_chemical_formula_sum "Si O2"
_cell_formula_units_Z 16
_cell_length_a 11.311295
_cell_length_b 11.245756
_cell_length_c 11.534046
_cell_angle_alpha 85.203624
_cell_angle_beta 57.205092
_cell_angle_gamma 132.236041
_cell_volume 634.327108
_symmetry_space_group_name_H-M "P -1"
_symmetry_group_IT_number 2
_symmetry_cell_setting 'triclinic'
loop_
_space_group_symop_operation_xyz
x,y,z
-x,-y,-z
loop_
_atom_site_type_symbol
_atom_site_label
_atom_site_fract_x
_atom_site_fract_y
_atom_site_fract_z
Si Si1 0.378888 0.465459 0.704719
Si Si2 0.418328 0.269719 0.830233
Si Si3 0.062094 0.736215 0.212197
Si Si4 0.221330 0.667032 0.468264
Si Si5 0.782208 0.660793 0.781799
Si Si6 0.143695 0.443269 0.030797
Si Si7 0.011029 0.943404 0.291135
Si Si8 0.633712 0.136468 0.161429
O O1 0.323572 0.288320 0.778090
O O2 0.163285 0.370600 0.744163
O O3 0.328276 0.488423 0.853990
O O4 0.683870 0.703043 0.478463
O O5 0.520578 0.226157 0.715489
O O6 0.685839 0.522354 0.729071
O O7 0.192505 0.093640 0.065128
O O8 0.929566 0.513873 0.335663
O O9 0.097538 0.867246 0.277992
O O10 0.323271 0.899604 0.981797
O O11 0.000000 0.500000 0.500000
O O12 0.348772 0.890845 0.388933
O O13 0.936541 0.899760 0.672362
O O14 0.500000 0.500000 0.000000
O O15 0.898983 0.651028 0.814868
O O16 0.310717 0.687370 0.916775
O O17 0.865773 0.267076 0.121248
#
# Coordination Sequence:
#
# PCOD9022861 Si02
#       8
#     2   2   2   2   2   2   2   2
#     4  11  23  41  68 101 131 163 225 273 330 397
#     4  11  24  44  62  99 137 170 219 270 337 392
#     4  11  25  43  67 102 130 171 226 270 330 404
#     4  12  28  45  67  98 134 180 226 272 334 400
#     4  10  22  39  64  97 134 171 213 267 337 392
#     4  10  22  46  69  98 134 182 223 272 331 393
#     4  11  22  40  69  98 130 175 205 281 335 382
#     4  10  25  47  70  92 137 182 225 276 326 390
#
# _framework density 25.223578
#
# number of rings (size 3 to 8) (size 9 to 14) (size 15 to 20)
#    0.000    1.250    5.000    0.375    3.500    4.500 
#    0.000    1.875    0.000    0.000    0.000    0.000 
#    0.000    0.000    0.000    0.000    0.000    0.000 
#
# Total GULP energy -89417.308504 kJ/mol
# GULP energy per Si atom -5588.581782 kJ/mol
# Density = 2.516617 g / cm^3
# Si number density = 25.223578 Si / 1000 Ang^3
#
#
#
# Elastic Constant Matrix: (Units=GPa)
#
#
# Indices 1 2 3 4 5 6 
#
# 1 84.7673 16.3778 21.5052 -2.3946 16.1018 -5.5234
# 2 16.3778 83.1351 9.7811 -25.1117 17.6151 -14.9931
# 3 21.5052 9.7811 129.1037 -16.5919 22.4880 -9.0358
# 4 -2.3946 -25.1117 -16.5919 40.1679 -5.3612 8.3973
# 5 16.1018 17.6151 22.4880 -5.3612 33.4180 -3.4394
# 6 -5.5234 -14.9931 -9.0358 8.3973 -3.4394 34.3334
#
#
#
# Elastic Compliance Matrix: (Units=1/GPa)
#
#
# Indices 1 2 3 4 5 6 
#
# 1 0.013425 -0.001841 -0.001437 -0.001770 -0.004718 0.000938
# 2 -0.001841 0.017541 0.001867 0.009624 -0.007583 0.004742
# 3 -0.001437 0.001867 0.009476 0.003889 -0.005887 0.001537
# 4 -0.001770 0.009624 0.003889 0.032845 -0.001906 -0.003283
# 5 -0.004718 -0.007583 -0.005887 -0.001906 0.039730 -0.001174
# 6 0.000938 0.004742 0.001537 -0.003283 -0.001174 0.032438
#
#
# Mechanical properties :
#
#
# Convention : Reuss Voigt Hill
#
# Bulk Modulus (GPa) = 26.58143 43.59270 35.08707
# Shear Modulus (GPa) = 31.09158 38.20665 34.64912
#
# Velocity S-wave (km/s) = 3.51471 3.89616 3.71034
# Velocity P-wave (km/s) = 5.19924 6.12863 5.68297
#
# Compressibility (1/GPa) = 0.03762024
#
# Stress axis : x y z
#
# Youngs Moduli (GPa) = 74.48983 57.01051 105.52584
#
# Poissons Ratio (x) = 0.10498 0.15160
# Poissons Ratio (y) = 0.13717 -0.19706
# Poissons Ratio (z) = 0.10702 -0.10646
#
# Static dielectric constant tensor:
#      x y z
#    x 2.003880 -0.045850 0.035160 
#    y -0.045850 2.174160 -0.001120 
#    z 0.035160 -0.001120 1.990460 
# 
# From -- ./inp_files/428121.got.cif
#   From: 2010.05.17/outbox.cif.g08.bks.cpg/sg2_215_cif.got.tgz:428121.got - 2010.06.03 11:33:40.
