data_PCOD9022075
_publ_section_title
;
Structure prediction by ZEFSAII (Michael W. Deem and Ramdas Pophale) SiO2 
 PCOD9022075
Probable space group: P -1
;
_chemical_formula_sum "Si O2"
_cell_formula_units_Z 16
_cell_length_a 9.491848
_cell_length_b 25.955325
_cell_length_c 9.291559
_cell_angle_alpha 153.143419
_cell_angle_beta 57.092070
_cell_angle_gamma 131.870862
_cell_volume 760.744062
_symmetry_space_group_name_H-M "P -1"
_symmetry_group_IT_number 2
_symmetry_cell_setting 'triclinic'
loop_
_space_group_symop_operation_xyz
x,y,z
-x,-y,-z
loop_
_atom_site_type_symbol
_atom_site_label
_atom_site_fract_x
_atom_site_fract_y
_atom_site_fract_z
Si Si1 0.201691 0.122978 0.747674
Si Si2 0.938633 0.864356 0.616270
Si Si3 0.703771 0.583167 0.176246
Si Si4 0.957723 0.458447 0.754832
Si Si5 0.295394 0.414649 0.471284
Si Si6 0.313817 0.070186 0.276372
Si Si7 0.288748 0.844521 0.876586
Si Si8 0.283564 0.951623 0.457917
O O1 0.359697 0.132090 0.565067
O O2 0.251140 0.074824 0.747709
O O3 0.209883 0.261149 0.100475
O O4 0.000000 0.000000 0.500000
O O5 0.806418 0.734975 0.455364
O O6 0.814706 0.872961 0.574911
O O7 0.129219 0.868547 0.456917
O O8 0.000000 0.000000 0.000000
O O9 0.683390 0.569763 0.327828
O O10 0.500000 0.500000 0.000000
O O11 0.854790 0.532341 0.924318
O O12 0.808146 0.307167 0.463479
O O13 0.154514 0.465362 0.611294
O O14 0.000000 0.500000 0.000000
O O15 0.500000 0.500000 0.500000
O O16 0.488809 0.100319 0.149584
O O17 0.217073 0.916170 0.980241
O O18 0.252297 0.877505 0.139181
O O19 0.500000 0.000000 0.500000
#
# Coordination Sequence:
#
# PCOD9022075 Si02
#       8
#     2   2   2   2   2   2   2   2
#     4  11  22  41  71  98 132 175 235 285 342 409
#     4  12  25  41  71  97 142 177 228 283 355 407
#     4  11  27  47  69 103 142 186 229 282 357 421
#     4  10  24  42  67  92 137 177 229 272 336 409
#     4  11  26  45  71  99 136 184 236 284 340 415
#     4  10  22  38  70  98 129 175 225 282 346 402
#     4  10  22  41  66  98 133 172 229 283 333 407
#     4  11  24  41  64 104 139 175 224 291 349 407
#
# _framework density 21.032041
#
# number of rings (size 3 to 8) (size 9 to 14) (size 15 to 20)
#    0.000    1.250    1.250    3.750    8.750    2.000 
#    0.000    1.250    0.000    0.000    0.000    0.000 
#    0.000    0.000    0.000    0.000    0.000    0.000 
#
# Total GULP energy -89321.012838 kJ/mol
# GULP energy per Si atom -5582.563302 kJ/mol
# Density = 2.098417 g / cm^3
# Si number density = 21.032041 Si / 1000 Ang^3
#
#
#
# Elastic Constant Matrix: (Units=GPa)
#
#
# Indices 1 2 3 4 5 6 
#
# 1 112.0287 34.7784 35.9928 21.7807 -14.7859 8.6459
# 2 34.7784 131.5053 43.2304 3.8401 3.6087 17.1915
# 3 35.9928 43.2304 124.2982 12.0538 -4.1956 9.1217
# 4 21.7807 3.8401 12.0538 32.9499 0.5247 -1.8276
# 5 -14.7859 3.6087 -4.1956 0.5247 31.1587 -3.5842
# 6 8.6459 17.1915 9.1217 -1.8276 -3.5842 29.4409
#
#
#
# Elastic Compliance Matrix: (Units=1/GPa)
#
#
# Indices 1 2 3 4 5 6 
#
# 1 0.012657 -0.002531 -0.001737 -0.007612 0.006028 -0.001439
# 2 -0.002531 0.009751 -0.002563 0.001278 -0.003211 -0.004468
# 3 -0.001737 -0.002563 0.009754 -0.002191 0.000700 -0.001066
# 4 -0.007612 0.001278 -0.002191 0.036317 -0.004217 0.003909
# 5 0.006028 -0.003211 0.000700 -0.004217 0.035952 0.004003
# 6 -0.001439 -0.004468 -0.001066 0.003909 0.004003 0.038059
#
#
# Mechanical properties :
#
#
# Convention : Reuss Voigt Hill
#
# Bulk Modulus (GPa) = 54.05673 66.20393 60.13033
# Shear Modulus (GPa) = 30.80360 35.63193 33.21777
#
# Velocity S-wave (km/s) = 3.83117 4.12050 3.97846
# Velocity P-wave (km/s) = 6.73263 7.36098 7.05381
#
# Compressibility (1/GPa) = 0.01849908
#
# Stress axis : x y z
#
# Youngs Moduli (GPa) = 79.00900 102.55296 102.52210
#
# Poissons Ratio (x) = 0.25957 0.17813
# Poissons Ratio (y) = 0.19998 0.26275
# Poissons Ratio (z) = 0.13728 0.26283
#
# Static dielectric constant tensor:
#      x y z
#    x 1.856340 -0.020900 -0.002120 
#    y -0.020900 1.832780 -0.056820 
#    z -0.002120 -0.056820 1.781410 
# 
# From -- ./inp_files/226768.got.cif
#   From: 2010.05.17/outbox.cif.g08.bks.cpg/sg2_114_cif.got.tgz:226768.got - 2010.06.03 11:33:40.
