data_PCOD9022820
_publ_section_title
;
Structure prediction by ZEFSAII (Michael W. Deem and Ramdas Pophale) SiO2 
 PCOD9022820
Probable space group: P -1
;
_chemical_formula_sum "Si O2"
_cell_formula_units_Z 16
_cell_length_a 10.875644
_cell_length_b 10.921957
_cell_length_c 11.103610
_cell_angle_alpha 108.089310
_cell_angle_beta 147.278049
_cell_angle_gamma 67.291085
_cell_volume 657.420798
_symmetry_space_group_name_H-M "P -1"
_symmetry_group_IT_number 2
_symmetry_cell_setting 'triclinic'
loop_
_space_group_symop_operation_xyz
x,y,z
-x,-y,-z
loop_
_atom_site_type_symbol
_atom_site_label
_atom_site_fract_x
_atom_site_fract_y
_atom_site_fract_z
Si Si1 0.773647 0.170574 0.577020
Si Si2 0.508360 0.593196 0.734956
Si Si3 0.447762 0.038749 0.164371
Si Si4 0.055587 0.637687 0.548591
Si Si5 0.568504 0.297297 0.672186
Si Si6 0.199783 0.812439 0.929714
Si Si7 0.772361 0.760312 0.136858
Si Si8 0.274087 0.114804 0.305106
O O1 0.572102 0.293470 0.396293
O O2 0.752879 0.196582 0.709134
O O3 0.009307 0.193100 0.724964
O O4 0.705574 0.039088 0.429949
O O5 0.284078 0.605040 0.640577
O O6 0.568536 0.446729 0.687389
O O7 0.719450 0.628626 0.994429
O O8 0.570037 0.876677 0.947239
O O9 0.290736 0.106412 0.171500
O O10 0.350269 0.909069 0.028719
O O11 0.121626 0.721427 0.738109
O O12 0.000000 0.500000 0.500000
O O13 0.840678 0.726072 0.320235
O O14 0.329272 0.253164 0.435937
O O15 0.639093 0.273536 0.861426
O O16 0.967364 0.891518 0.833661
O O17 0.500000 0.000000 0.500000
#
# Coordination Sequence:
#
# PCOD9022820 Si02
#       8
#     2   2   2   2   2   2   2   2
#     4   9  21  39  63  94 129 162 202 260 317 370
#     4  10  22  42  64  94 124 166 214 254 310 369
#     4  10  22  39  64  94 126 161 207 253 316 380
#     4  11  25  45  64  91 126 166 215 261 303 368
#     4  11  22  37  65  96 129 165 203 259 312 376
#     4  12  25  38  65  96 123 172 212 246 319 373
#     4  10  22  42  65  85 131 168 204 267 308 356
#     4  11  23  40  63  97 132 160 200 263 316 373
#
# _framework density 24.337531999999999
#
# number of rings (size 3 to 8) (size 9 to 14) (size 15 to 20)
#    0.000    1.500    1.250    3.000    3.500    5.000 
#    0.000    5.625    0.000    0.000    0.000    0.000 
#    0.000    0.000    0.000    0.000    0.000    0.000 
#
# Total GULP energy -89456.434108 kJ/mol
# GULP energy per Si atom -5591.027132 kJ/mol
# Density = 2.428214 g / cm^3
# Si number density = 24.337532 Si / 1000 Ang^3
#
#
#
# Elastic Constant Matrix: (Units=GPa)
#
#
# Indices 1 2 3 4 5 6 
#
# 1 101.5345 24.2199 34.3189 10.3675 -5.2423 11.4841
# 2 24.2199 100.3514 44.1375 38.4860 -11.3990 13.8157
# 3 34.3189 44.1375 123.4133 37.1988 -20.2050 2.7586
# 4 10.3675 38.4860 37.1988 48.8568 7.4514 2.3559
# 5 -5.2423 -11.3990 -20.2050 7.4514 61.4242 -1.6524
# 6 11.4841 13.8157 2.7586 2.3559 -1.6524 36.5882
#
#
#
# Elastic Compliance Matrix: (Units=1/GPa)
#
#
# Indices 1 2 3 4 5 6 
#
# 1 0.011417 -0.001626 -0.003047 0.001404 -0.000577 -0.002856
# 2 -0.001626 0.016658 -0.001012 -0.012388 0.003995 -0.004725
# 3 -0.003047 -0.001012 0.012848 -0.009146 0.004920 0.001181
# 4 0.001404 -0.012388 -0.009146 0.038286 -0.009778 0.002020
# 5 -0.000577 0.003995 0.004920 -0.009778 0.019772 -0.000176
# 6 -0.002856 -0.004725 0.001181 0.002020 -0.000176 0.029785
#
#
# Mechanical properties :
#
#
# Convention : Reuss Voigt Hill
#
# Bulk Modulus (GPa) = 33.83751 58.96131 46.39941
# Shear Modulus (GPa) = 33.33672 44.21535 38.77604
#
# Velocity S-wave (km/s) = 3.70505 4.26697 3.99590
# Velocity P-wave (km/s) = 5.67775 6.96815 6.35578
#
# Compressibility (1/GPa) = 0.02955300
#
# Stress axis : x y z
#
# Youngs Moduli (GPa) = 87.59244 60.03231 77.83500
#
# Poissons Ratio (x) = 0.09761 0.23716
# Poissons Ratio (y) = 0.14242 0.07874
# Poissons Ratio (z) = 0.26689 0.06073
#
# Static dielectric constant tensor:
#      x y z
#    x 1.936240 -0.017770 -0.012880 
#    y -0.017770 1.978490 -0.006260 
#    z -0.012880 -0.006260 1.984030 
# 
# From -- ./inp_files/428825.got.cif
#   From: 2010.05.17/outbox.cif.g08.bks.cpg/sg2_215_cif.got.tgz:428825.got - 2010.06.03 11:33:40.
