data_PCOD9022291
_publ_section_title
;
Structure prediction by ZEFSAII (Michael W. Deem and Ramdas Pophale) SiO2 
 PCOD9022291
Probable space group: P -1
;
_chemical_formula_sum "Si O2"
_cell_formula_units_Z 16
_cell_length_a 14.636225
_cell_length_b 14.191421
_cell_length_c 9.929230
_cell_angle_alpha 92.821783
_cell_angle_beta 116.153471
_cell_angle_gamma 33.310486
_cell_volume 774.850376
_symmetry_space_group_name_H-M "P -1"
_symmetry_group_IT_number 2
_symmetry_cell_setting 'triclinic'
loop_
_space_group_symop_operation_xyz
x,y,z
-x,-y,-z
loop_
_atom_site_type_symbol
_atom_site_label
_atom_site_fract_x
_atom_site_fract_y
_atom_site_fract_z
Si Si1 0.234472 0.201767 0.714285
Si Si2 0.684308 0.486113 0.602125
Si Si3 0.416364 0.230133 0.958361
Si Si4 0.631424 0.870682 0.717045
Si Si5 0.730736 0.315764 0.233350
Si Si6 0.206814 0.805165 0.438186
Si Si7 0.841800 0.495656 0.925763
Si Si8 0.742183 0.518744 0.354600
O O1 0.237708 0.290988 0.817025
O O2 0.981943 0.382144 0.501431
O O3 0.434157 0.053717 0.718885
O O4 0.336300 0.027348 0.852440
O O5 0.414466 0.679416 0.477329
O O6 0.833804 0.265950 0.648723
O O7 0.792390 0.449242 0.796083
O O8 0.674802 0.558780 0.468362
O O9 0.443203 0.270202 0.846592
O O10 0.298455 0.388048 0.014559
O O11 0.728950 0.681885 0.788486
O O12 0.500000 0.000000 0.500000
O O13 0.873072 0.729271 0.880717
O O14 0.697329 0.291004 0.353407
O O15 0.781919 0.382056 0.306719
O O16 0.500000 0.500000 0.000000
O O17 0.965563 0.069739 0.303554
#
# Coordination Sequence:
#
# PCOD9022291 Si02
#       8
#     2   2   2   2   2   2   2   2
#     4  10  23  40  61  90 130 177 213 254 324 371
#     4  10  23  42  69  98 129 173 213 266 339 380
#     4  10  23  40  61  89 129 170 215 263 305 381
#     4  10  22  39  60  91 130 170 217 267 316 368
#     4  10  23  43  71  98 124 166 219 266 328 393
#     4   9  22  48  67  91 137 165 203 282 330 384
#     4  10  23  39  62  92 128 168 216 264 317 386
#     4  11  24  39  65  95 126 169 217 261 316 390
#
# _framework density 20.649148
#
# number of rings (size 3 to 8) (size 9 to 14) (size 15 to 20)
#    0.000    2.000    0.000    1.125   14.000    2.000 
#    0.000    6.875    0.000    0.000    0.000    0.000 
#    0.000    0.000    0.000    0.000    0.000    0.000 
#
# Total GULP energy -89456.698103 kJ/mol
# GULP energy per Si atom -5591.043631 kJ/mol
# Density = 2.060215 g / cm^3
# Si number density = 20.649148 Si / 1000 Ang^3
#
#
#
# Elastic Constant Matrix: (Units=GPa)
#
#
# Indices 1 2 3 4 5 6 
#
# 1 24.1915 14.0840 13.9933 4.4435 -10.5983 -3.0323
# 2 14.0840 87.2471 38.3244 19.1571 -3.9746 6.6905
# 3 13.9933 38.3244 116.1415 8.3822 -8.8593 9.4460
# 4 4.4435 19.1571 8.3822 25.8630 12.6248 6.3561
# 5 -10.5983 -3.9746 -8.8593 12.6248 27.2274 6.7539
# 6 -3.0323 6.6905 9.4460 6.3561 6.7539 13.8984
#
#
#
# Elastic Compliance Matrix: (Units=1/GPa)
#
#
# Indices 1 2 3 4 5 6 
#
# 1 0.067121 -0.002403 -0.003817 -0.028901 0.034218 0.014984
# 2 -0.002403 0.017096 -0.003419 -0.014064 0.007923 -0.003849
# 3 -0.003817 -0.003419 0.011213 -0.000240 0.003907 -0.008597
# 4 -0.028901 -0.014064 -0.000240 0.080520 -0.047458 -0.013134
# 5 0.034218 0.007923 0.003907 -0.047458 0.078286 -0.015343
# 6 0.014984 -0.003849 -0.008597 -0.013134 -0.015343 0.096378
#
#
# Mechanical properties :
#
#
# Convention : Reuss Voigt Hill
#
# Bulk Modulus (GPa) = 13.13168 40.04258 26.58713
# Shear Modulus (GPa) = 12.64938 24.14299 18.39619
#
# Velocity S-wave (km/s) = 2.47773 3.42307 2.98802
# Velocity P-wave (km/s) = 3.81560 5.92091 4.98076
#
# Compressibility (1/GPa) = 0.07615172
#
# Stress axis : x y z
#
# Youngs Moduli (GPa) = 14.89841 58.49433 89.18270
#
# Poissons Ratio (x) = 0.14056 0.34040
# Poissons Ratio (y) = 0.03580 0.30494
# Poissons Ratio (z) = 0.05687 0.20001
#
# Static dielectric constant tensor:
#      x y z
#    x 1.741540 0.012720 -0.023110 
#    y 0.012720 1.736720 0.018570 
#    z -0.023110 0.018570 1.712770 
# 
# From -- ./inp_files/315274.got.cif
#   From: 2010.05.17/outbox.cif.g08.bks.cpg/sg2_158_cif.got.tgz:315274.got - 2010.06.03 11:33:40.
