data_PCOD9022212
_publ_section_title
;
Structure prediction by ZEFSAII (Michael W. Deem and Ramdas Pophale) SiO2 
 PCOD9022212
Probable space group: P -1
;
_chemical_formula_sum "Si O2"
_cell_formula_units_Z 16
_cell_length_a 8.476745
_cell_length_b 24.836658
_cell_length_c 15.678998
_cell_angle_alpha 19.078112
_cell_angle_beta 136.135583
_cell_angle_gamma 139.438395
_cell_volume 701.528715
_symmetry_space_group_name_H-M "P -1"
_symmetry_group_IT_number 2
_symmetry_cell_setting 'triclinic'
loop_
_space_group_symop_operation_xyz
x,y,z
-x,-y,-z
loop_
_atom_site_type_symbol
_atom_site_label
_atom_site_fract_x
_atom_site_fract_y
_atom_site_fract_z
Si Si1 0.692896 0.953002 0.228960
Si Si2 0.483729 0.385081 0.862653
Si Si3 0.195919 0.692739 0.491176
Si Si4 0.677194 0.698224 0.252030
Si Si5 0.510884 0.769011 0.260607
Si Si6 0.890379 0.837629 0.639367
Si Si7 0.558557 0.600454 0.994615
Si Si8 0.030295 0.484669 0.898437
O O1 0.422902 0.859199 0.304257
O O2 0.682759 0.871372 0.253121
O O3 0.862984 0.903333 0.436138
O O4 0.709739 0.154739 0.935158
O O5 0.406834 0.263390 0.931626
O O6 0.420190 0.561635 0.556702
O O7 0.774799 0.465205 0.866895
O O8 0.386316 0.300823 0.041633
O O9 0.112442 0.650992 0.619031
O O10 0.949985 0.700714 0.343130
O O11 0.293433 0.533650 0.745201
O O12 0.500000 0.500000 0.500000
O O13 0.636991 0.796442 0.174940
O O14 0.640337 0.721000 0.762767
O O15 0.029813 0.700008 0.898234
O O16 0.000000 0.000000 0.500000
O O17 0.270584 0.500825 0.021095
#
# Coordination Sequence:
#
# PCOD9022212 Si02
#       8
#     2   2   2   2   2   2   2   2
#     4  11  22  41  64  90 126 168 218 255 319 388
#     4  11  22  41  65 100 127 163 216 268 325 372
#     4  11  19  38  64  89 125 167 220 255 309 386
#     4  10  22  39  59  90 128 164 206 267 323 365
#     4  10  22  40  63  88 128 164 208 265 312 382
#     4  11  24  40  65  97 129 168 206 268 326 372
#     4  11  22  41  68  97 124 172 222 257 309 395
#     4  11  20  40  70  91 129 170 214 266 313 385
#
# _framework density 22.807334999999998
#
# number of rings (size 3 to 8) (size 9 to 14) (size 15 to 20)
#    0.000    1.250    6.250    1.125    1.750    2.000 
#    4.500    0.625    0.000    0.000    0.000    0.000 
#    0.000    0.000    0.000    0.000    0.000    0.000 
#
# Total GULP energy -89224.725138 kJ/mol
# GULP energy per Si atom -5576.545321 kJ/mol
# Density = 2.275542 g / cm^3
# Si number density = 22.807335 Si / 1000 Ang^3
#
#
#
# Elastic Constant Matrix: (Units=GPa)
#
#
# Indices 1 2 3 4 5 6 
#
# 1 64.6759 36.5106 10.9601 14.2405 -3.1509 -20.9212
# 2 36.5106 79.2019 15.8339 8.8866 9.4089 -31.1171
# 3 10.9601 15.8339 56.3132 -3.8508 6.9306 -13.9070
# 4 14.2405 8.8866 -3.8508 28.7848 -3.0504 -7.7296
# 5 -3.1509 9.4089 6.9306 -3.0504 14.0647 10.2052
# 6 -20.9212 -31.1171 -13.9070 -7.7296 10.2052 53.5037
#
#
#
# Elastic Compliance Matrix: (Units=1/GPa)
#
#
# Indices 1 2 3 4 5 6 
#
# 1 0.025295 -0.013394 -0.004858 -0.008134 0.017991 -0.003769
# 2 -0.013394 0.032129 0.004444 -0.001201 -0.043424 0.022712
# 3 -0.004858 0.004444 0.023623 0.004939 -0.023330 0.011989
# 4 -0.008134 -0.001201 0.004939 0.040876 0.003495 0.002644
# 5 0.017991 -0.043424 -0.023330 0.003495 0.155161 -0.053374
# 6 -0.003769 0.022712 0.011989 0.002644 -0.053374 0.044105
#
#
# Mechanical properties :
#
#
# Convention : Reuss Voigt Hill
#
# Bulk Modulus (GPa) = 18.71589 36.31113 27.51351
# Shear Modulus (GPa) = 13.63828 28.39640 21.01734
#
# Velocity S-wave (km/s) = 2.44801 3.53236 3.03894
# Velocity P-wave (km/s) = 4.02669 5.70895 4.93996
#
# Compressibility (1/GPa) = 0.05343053
#
# Stress axis : x y z
#
# Youngs Moduli (GPa) = 39.53397 31.12485 42.33083
#
# Poissons Ratio (x) = 0.41690 0.20564
# Poissons Ratio (y) = 0.52954 -0.18813
# Poissons Ratio (z) = 0.19206 -0.13833
#
# Static dielectric constant tensor:
#      x y z
#    x 1.869980 -0.027210 -0.024090 
#    y -0.027210 1.902700 0.010260 
#    z -0.024090 0.010260 1.886680 
# 
# From -- ./inp_files/281987.got.cif
#   From: 2010.05.17/outbox.cif.g08.bks.cpg/sg2_141_cif.got.tgz:281987.got - 2010.06.03 11:33:40.
