data_PCOD9022630
_publ_section_title
;
Structure prediction by ZEFSAII (Michael W. Deem and Ramdas Pophale) SiO2 
 PCOD9022630
Probable space group: P -1
;
_chemical_formula_sum "Si O2"
_cell_formula_units_Z 14
_cell_length_a 13.154663
_cell_length_b 6.928504
_cell_length_c 7.086058
_cell_angle_alpha 77.465301
_cell_angle_beta 123.156186
_cell_angle_gamma 109.216546
_cell_volume 509.998588
_symmetry_space_group_name_H-M "P -1"
_symmetry_group_IT_number 2
_symmetry_cell_setting 'triclinic'
loop_
_space_group_symop_operation_xyz
x,y,z
-x,-y,-z
loop_
_atom_site_type_symbol
_atom_site_label
_atom_site_fract_x
_atom_site_fract_y
_atom_site_fract_z
Si Si1 0.914031 0.640509 0.967702
Si Si2 0.658319 0.844769 0.024709
Si Si3 0.325364 0.893638 0.694144
Si Si4 0.431789 0.677603 0.579933
Si Si5 0.819821 0.661311 0.480885
Si Si6 0.667490 0.300062 0.899446
Si Si7 0.025095 0.814673 0.430683
O O1 0.978129 0.783006 0.173822
O O2 0.053916 0.373880 0.477590
O O3 0.868250 0.752284 0.717593
O O4 0.790315 0.479013 0.951511
O O5 0.559936 0.698046 0.819948
O O6 0.694518 0.076366 0.931590
O O7 0.772834 0.762792 0.227778
O O8 0.613818 0.897366 0.178195
O O9 0.389609 0.879579 0.565676
O O10 0.175603 0.849275 0.561571
O O11 0.357328 0.721930 0.899459
O O12 0.305889 0.508357 0.551226
O O13 0.435351 0.671651 0.360284
O O14 0.000000 0.500000 0.000000
O O15 0.000000 0.000000 0.500000
#
# Coordination Sequence:
#
# PCOD9022630 Si02
#       7
#     2   2   2   2   2   2   2
#     4  11  24  42  69 100 136 179 229 275 331 410
#     4  10  22  43  60  98 135 169 223 278 332 394
#     4  10  22  39  63  92 126 170 228 265 328 393
#     4  11  21  41  70  89 130 177 226 272 327 401
#     4  11  24  42  65 101 132 176 219 284 342 392
#     4   9  21  39  61  96 122 171 221 269 330 394
#     4  12  23  44  65  98 140 176 220 283 343 399
#
# _framework density 27.451059000000001
#
# number of rings (size 3 to 8) (size 9 to 14) (size 15 to 20)
#    0.857    0.571    1.429    4.714    0.000    2.286 
#    5.143    0.000    0.000    5.143    0.000    0.000 
#    0.000    0.000    0.000    0.000    0.000    0.000 
#
# Total GULP energy -78122.270192 kJ/mol
# GULP energy per Si atom -5580.162157 kJ/mol
# Density = 2.738858 g / cm^3
# Si number density = 27.451059 Si / 1000 Ang^3
#
#
#
# Elastic Constant Matrix: (Units=GPa)
#
#
# Indices 1 2 3 4 5 6 
#
# 1 101.2032 28.9117 78.2476 6.2091 -2.2579 11.4496
# 2 28.9117 80.8296 66.8069 12.2682 -0.4667 2.5381
# 3 78.2476 66.8069 309.7746 29.6578 -8.5120 7.1097
# 4 6.2091 12.2682 29.6578 40.1998 0.7210 2.1598
# 5 -2.2579 -0.4667 -8.5120 0.7210 54.7877 11.4813
# 6 11.4496 2.5381 7.1097 2.1598 11.4813 35.5498
#
#
#
# Elastic Compliance Matrix: (Units=1/GPa)
#
#
# Indices 1 2 3 4 5 6 
#
# 1 0.013108 -0.002419 -0.002768 0.000946 0.000881 -0.003838
# 2 -0.002419 0.015721 -0.002557 -0.002555 -0.000426 0.000461
# 3 -0.002768 -0.002557 0.004712 -0.002284 0.000611 0.000073
# 4 0.000946 -0.002555 -0.002284 0.027265 -0.000450 -0.001177
# 5 0.000881 -0.000426 0.000611 -0.000450 0.019799 -0.006743
# 6 -0.003838 0.000461 0.000073 -0.001177 -0.006743 0.031567
#
#
# Mechanical properties :
#
#
# Convention : Reuss Voigt Hill
#
# Bulk Modulus (GPa) = 55.38905 93.30440 74.34672
# Shear Modulus (GPa) = 37.40319 47.29687 42.35003
#
# Velocity S-wave (km/s) = 3.69527 4.15535 3.93204
# Velocity P-wave (km/s) = 6.19902 7.55551 6.91063
#
# Compressibility (1/GPa) = 0.01805411
#
# Stress axis : x y z
#
# Youngs Moduli (GPa) = 76.29073 63.60785 212.20340
#
# Poissons Ratio (x) = 0.15387 0.58728
# Poissons Ratio (y) = 0.18455 0.54264
# Poissons Ratio (z) = 0.21114 0.16266
#
# Static dielectric constant tensor:
#      x y z
#    x 2.135390 -0.055220 0.041560 
#    y -0.055220 2.372990 0.013150 
#    z 0.041560 0.013150 2.115990 
# 
# From -- ./inp_files/295858.got.cif
#   From: 2010.05.17/outbox.cif.g08.bks.cpg/sg2_148_cif.got.tgz:295858.got - 2010.06.03 11:33:40.
