data_PCOD9022845
_publ_section_title
;
Structure prediction by ZEFSAII (Michael W. Deem and Ramdas Pophale) SiO2 
 PCOD9022845
Probable space group: P -1
;
_chemical_formula_sum "Si O2"
_cell_formula_units_Z 16
_cell_length_a 12.589292
_cell_length_b 16.447264
_cell_length_c 5.231787
_cell_angle_alpha 89.099860
_cell_angle_beta 71.502161
_cell_angle_gamma 134.292708
_cell_volume 688.955677
_symmetry_space_group_name_H-M "P -1"
_symmetry_group_IT_number 2
_symmetry_cell_setting 'triclinic'
loop_
_space_group_symop_operation_xyz
x,y,z
-x,-y,-z
loop_
_atom_site_type_symbol
_atom_site_label
_atom_site_fract_x
_atom_site_fract_y
_atom_site_fract_z
Si Si1 0.978665 0.306330 0.415554
Si Si2 0.912521 0.535669 0.165539
Si Si3 0.543404 0.295870 0.646928
Si Si4 0.940317 0.815162 0.896111
Si Si5 0.699142 0.789501 0.789896
Si Si6 0.370181 0.362549 0.540874
Si Si7 0.280551 0.056255 0.592196
Si Si8 0.387731 0.949013 0.334839
O O1 0.777695 0.196586 0.528986
O O2 0.013351 0.371396 0.655404
O O3 0.031949 0.240341 0.335177
O O4 0.075471 0.403353 0.103622
O O5 0.732098 0.409628 0.416247
O O6 0.000000 0.500000 0.000000
O O7 0.445973 0.322239 0.611592
O O8 0.446275 0.166232 0.617294
O O9 0.476743 0.264629 0.988517
O O10 0.849850 0.847899 0.859080
O O11 0.809751 0.713050 0.207997
O O12 0.119192 0.935895 0.869531
O O13 0.647322 0.672619 0.735330
O O14 0.768261 0.888312 0.522107
O O15 0.500000 0.500000 0.500000
O O16 0.323212 0.006757 0.373141
O O17 0.500000 0.000000 0.500000
O O18 0.500000 0.000000 0.000000
#
# Coordination Sequence:
#
# PCOD9022845 Si02
#       8
#     2   2   2   2   2   2   2   2
#     4  11  27  47  73 109 141 184 242 292 357 426
#     4  12  28  48  74 101 144 190 241 299 356 411
#     4  10  25  40  66  99 136 183 231 289 344 426
#     4  10  23  41  68 101 140 184 224 297 350 427
#     4  10  23  40  67 101 135 184 227 287 351 424
#     4  10  22  39  64  95 139 179 233 276 352 419
#     4  10  24  43  65 100 139 179 238 284 358 420
#     4  11  26  47  77 103 140 186 238 301 353 416
#
# _framework density 23.223555000000001
#
# number of rings (size 3 to 8) (size 9 to 14) (size 15 to 20)
#    0.000    1.500    0.000    2.250   14.000    6.500 
#    0.000    0.000    0.000    0.000    0.000    0.000 
#    0.000    0.000    0.000    0.000    0.000    0.000 
#
# Total GULP energy -89242.358103 kJ/mol
# GULP energy per Si atom -5577.647381 kJ/mol
# Density = 2.317070 g / cm^3
# Si number density = 23.223555 Si / 1000 Ang^3
#
#
#
# Elastic Constant Matrix: (Units=GPa)
#
#
# Indices 1 2 3 4 5 6 
#
# 1 51.5010 24.1718 19.1914 -0.2465 -13.9458 -0.9605
# 2 24.1718 169.0980 80.2057 -16.1840 -24.7760 9.9407
# 3 19.1914 80.2057 152.7661 -8.4618 -31.4520 17.9444
# 4 -0.2465 -16.1840 -8.4618 46.2769 8.2538 -8.3875
# 5 -13.9458 -24.7760 -31.4520 8.2538 40.6093 -3.7426
# 6 -0.9605 9.9407 17.9444 -8.3875 -3.7426 34.9447
#
#
#
# Elastic Compliance Matrix: (Units=1/GPa)
#
#
# Indices 1 2 3 4 5 6 
#
# 1 0.022451 -0.002233 -0.000653 -0.001568 0.006335 0.001890
# 2 -0.002233 0.008377 -0.003815 0.002066 0.000980 0.000116
# 3 -0.000653 -0.003815 0.010073 -0.001102 0.005122 -0.003821
# 4 -0.001568 0.002066 -0.001102 0.023864 -0.004504 0.005180
# 5 0.006335 0.000980 0.005122 -0.004504 0.032247 -0.000362
# 6 0.001890 0.000116 -0.003821 0.005180 -0.000362 0.031803
#
#
# Mechanical properties :
#
#
# Convention : Reuss Voigt Hill
#
# Bulk Modulus (GPa) = 36.36242 68.94478 52.65360
# Shear Modulus (GPa) = 33.02871 41.01927 37.02399
#
# Velocity S-wave (km/s) = 3.77531 4.20727 3.99713
# Velocity P-wave (km/s) = 5.89029 7.30434 6.63509
#
# Compressibility (1/GPa) = 0.02750092
#
# Stress axis : x y z
#
# Youngs Moduli (GPa) = 44.54046 119.37552 99.27317
#
# Poissons Ratio (x) = 0.26652 0.06480
# Poissons Ratio (y) = 0.09944 0.37872
# Poissons Ratio (z) = 0.02907 0.45541
#
# Static dielectric constant tensor:
#      x y z
#    x 1.935500 -0.009700 0.085840 
#    y -0.009700 1.948820 0.034950 
#    z 0.085840 0.034950 2.086590 
# 
# From -- ./inp_files/99390.got.cif
#   From: 2010.05.17/outbox.cif.g08.bks.cpg/sg2_50_cif.got.tgz:99390.got - 2010.06.03 11:33:40.
