data_PCOD9022544
_publ_section_title
;
Structure prediction by ZEFSAII (Michael W. Deem and Ramdas Pophale) SiO2 
 PCOD9022544
Probable space group: P -1
;
_chemical_formula_sum "Si O2"
_cell_formula_units_Z 16
_cell_length_a 11.619042
_cell_length_b 9.260068
_cell_length_c 8.367706
_cell_angle_alpha 103.840267
_cell_angle_beta 62.499456
_cell_angle_gamma 113.203144
_cell_volume 732.170250
_symmetry_space_group_name_H-M "P -1"
_symmetry_group_IT_number 2
_symmetry_cell_setting 'triclinic'
loop_
_space_group_symop_operation_xyz
x,y,z
-x,-y,-z
loop_
_atom_site_type_symbol
_atom_site_label
_atom_site_fract_x
_atom_site_fract_y
_atom_site_fract_z
Si Si1 0.271032 0.946961 0.910464
Si Si2 0.884981 0.861402 0.761897
Si Si3 0.574328 0.399956 0.738170
Si Si4 0.714708 0.593887 0.009757
Si Si5 0.155238 0.570007 0.861121
Si Si6 0.232454 0.358785 0.525982
Si Si7 0.433907 0.940863 0.354998
Si Si8 0.203590 0.054604 0.634773
O O1 0.208630 0.758490 0.883498
O O2 0.436974 0.999629 0.832126
O O3 0.234508 0.012817 0.783097
O O4 0.201298 0.021223 0.112378
O O5 0.845228 0.735501 0.899961
O O6 0.839597 0.756730 0.603907
O O7 0.044812 0.959816 0.678474
O O8 0.650861 0.484281 0.869661
O O9 0.621382 0.529474 0.603150
O O10 0.616986 0.246594 0.648423
O O11 0.411253 0.346593 0.847513
O O12 0.752083 0.490659 0.092898
O O13 0.163347 0.484797 0.665336
O O14 0.000000 0.500000 0.000000
O O15 0.231836 0.238616 0.635760
O O16 0.500000 0.000000 0.500000
O O17 0.307181 0.004933 0.437942
#
# Coordination Sequence:
#
# PCOD9022544 Si02
#       8
#     2   2   2   2   2   2   2   2
#     4  11  23  43  66  94 133 173 221 267 326 392
#     4  11  22  44  68  96 131 174 221 270 326 395
#     4  10  22  44  65  96 130 169 222 269 329 386
#     4  10  23  42  70  92 127 177 218 271 325 392
#     4  12  26  44  66  99 134 174 220 271 331 395
#     4  11  25  40  68  99 131 170 219 271 330 391
#     4  10  22  39  62  95 129 165 215 269 320 384
#     4  11  23  40  66  97 131 175 217 270 330 387
#
# _framework density 21.852838999999999
#
# number of rings (size 3 to 8) (size 9 to 14) (size 15 to 20)
#    0.000    1.250    1.250    4.500    3.500    2.500 
#    0.000    4.375    0.000    0.000    0.000    0.000 
#    0.000    0.000    0.000    0.000    0.000    0.000 
#
# Total GULP energy -89441.525046 kJ/mol
# GULP energy per Si atom -5590.095315 kJ/mol
# Density = 2.180310 g / cm^3
# Si number density = 21.852839 Si / 1000 Ang^3
#
#
#
# Elastic Constant Matrix: (Units=GPa)
#
#
# Indices 1 2 3 4 5 6 
#
# 1 55.2860 30.2680 42.0580 -0.7282 -22.4458 16.1102
# 2 30.2680 172.8371 50.3126 3.8148 -6.1748 8.6678
# 3 42.0580 50.3126 105.4005 16.5850 -17.4293 13.4710
# 4 -0.7282 3.8148 16.5850 38.3818 1.5267 -6.3901
# 5 -22.4458 -6.1748 -17.4293 1.5267 36.6068 -13.4234
# 6 16.1102 8.6678 13.4710 -6.3901 -13.4234 20.6336
#
#
#
# Elastic Compliance Matrix: (Units=1/GPa)
#
#
# Indices 1 2 3 4 5 6 
#
# 1 0.035168 -0.002339 -0.009913 0.002838 0.012237 -0.011164
# 2 -0.002339 0.006920 -0.002680 0.000446 -0.001662 -0.000274
# 3 -0.009913 -0.002680 0.016503 -0.007765 0.000091 -0.004254
# 4 0.002838 0.000446 -0.007765 0.031616 0.001796 0.013626
# 5 0.012237 -0.001662 0.000091 0.001796 0.041295 0.018505
# 6 -0.011164 -0.000274 -0.004254 0.013626 0.018505 0.076332
#
#
# Mechanical properties :
#
#
# Convention : Reuss Voigt Hill
#
# Bulk Modulus (GPa) = 34.80925 64.31121 49.56023
# Shear Modulus (GPa) = 20.22057 33.18342 26.70199
#
# Velocity S-wave (km/s) = 3.04518 3.90101 3.49936
# Velocity P-wave (km/s) = 5.32238 7.05575 6.24946
#
# Compressibility (1/GPa) = 0.02872799
#
# Stress axis : x y z
#
# Youngs Moduli (GPa) = 28.43485 144.50769 60.59502
#
# Poissons Ratio (x) = 0.33797 0.60067
# Poissons Ratio (y) = 0.06650 0.16240
# Poissons Ratio (z) = 0.28187 0.38729
#
# Static dielectric constant tensor:
#      x y z
#    x 1.767710 0.000140 -0.001050 
#    y 0.000140 1.846510 -0.000920 
#    z -0.001050 -0.000920 1.871350 
# 
# From -- ./inp_files/243195.got.cif
#   From: 2010.05.17/outbox.cif.g08.bks.cpg/sg2_122_cif.got.tgz:243195.got - 2010.06.03 11:33:40.
