data_PCOD9022837
_publ_section_title
;
Structure prediction by ZEFSAII (Michael W. Deem and Ramdas Pophale) SiO2 
 PCOD9022837
Probable space group: P -1
;
_chemical_formula_sum "Si O2"
_cell_formula_units_Z 16
_cell_length_a 9.942266
_cell_length_b 6.507645
_cell_length_c 14.565260
_cell_angle_alpha 102.887243
_cell_angle_beta 90.702017
_cell_angle_gamma 45.823331
_cell_volume 644.883827
_symmetry_space_group_name_H-M "P -1"
_symmetry_group_IT_number 2
_symmetry_cell_setting 'triclinic'
loop_
_space_group_symop_operation_xyz
x,y,z
-x,-y,-z
loop_
_atom_site_type_symbol
_atom_site_label
_atom_site_fract_x
_atom_site_fract_y
_atom_site_fract_z
Si Si1 0.681301 0.427652 0.608581
Si Si2 0.365074 0.466926 0.034006
Si Si3 0.960952 0.352962 0.708546
Si Si4 0.938887 0.965636 0.131613
Si Si5 0.151226 0.160209 0.499640
Si Si6 0.373918 0.022282 0.877880
Si Si7 0.203436 0.440726 0.756899
Si Si8 0.579745 0.642900 0.422841
O O1 0.666901 0.508321 0.510181
O O2 0.488256 0.511141 0.633734
O O3 0.754865 0.532494 0.682099
O O4 0.846931 0.061333 0.578468
O O5 0.141895 0.771752 0.065503
O O6 0.382670 0.233044 0.952622
O O7 0.500000 0.500000 0.000000
O O8 0.445407 0.314972 0.120656
O O9 0.105755 0.163670 0.605359
O O10 0.999176 0.550441 0.759232
O O11 0.009908 0.150998 0.774091
O O12 0.820118 0.313067 0.166789
O O13 0.811217 0.913139 0.089952
O O14 0.371098 0.982430 0.469087
O O15 0.000000 0.500000 0.500000
O O16 0.338274 0.130968 0.783684
O O17 0.287918 0.394909 0.653526
#
# Coordination Sequence:
#
# PCOD9022837 Si02
#       8
#     2   2   2   2   2   2   2   2
#     4   9  21  43  66  89 133 189 243 294 348 407
#     4  11  25  48  80 109 141 183 229 282 358 436
#     4  11  25  40  67  97 141 183 239 290 352 412
#     4  11  26  47  71 105 148 183 231 293 355 423
#     4  10  22  39  64  95 128 183 244 293 339 402
#     4  10  25  48  74 107 145 183 229 283 354 434
#     4  11  25  44  71 104 142 187 234 292 354 414
#     4   9  22  43  68  93 138 191 242 293 352 405
#
# _framework density 24.810669999999998
#
# number of rings (size 3 to 8) (size 9 to 14) (size 15 to 20)
#    0.750    1.000    0.000    2.250    3.500    9.500 
#    2.250    0.000    0.000    0.000    0.000    0.000 
#    0.000    0.000    0.000    0.000    0.000    0.000 
#
# Total GULP energy -89536.650889 kJ/mol
# GULP energy per Si atom -5596.040681 kJ/mol
# Density = 2.475420 g / cm^3
# Si number density = 24.810670 Si / 1000 Ang^3
#
#
#
# Elastic Constant Matrix: (Units=GPa)
#
#
# Indices 1 2 3 4 5 6 
#
# 1 166.2055 58.0527 44.9652 -7.8872 18.1373 23.2457
# 2 58.0527 118.2012 20.4309 -15.8479 -4.9199 -1.7085
# 3 44.9652 20.4309 81.6947 -24.7254 4.6399 10.0754
# 4 -7.8872 -15.8479 -24.7254 37.0206 0.1328 5.3073
# 5 18.1373 -4.9199 4.6399 0.1328 43.4132 3.8146
# 6 23.2457 -1.7085 10.0754 5.3073 3.8146 43.8258
#
#
#
# Elastic Compliance Matrix: (Units=1/GPa)
#
#
# Indices 1 2 3 4 5 6 
#
# 1 0.009493 -0.004442 -0.004068 -0.002052 -0.003703 -0.003702
# 2 -0.004442 0.011238 0.000381 0.003823 0.002902 0.001991
# 3 -0.004068 0.000381 0.018503 0.012164 0.000041 -0.003557
# 4 -0.002052 0.003823 0.012164 0.037208 0.000413 -0.006101
# 5 -0.003703 0.002902 0.000041 0.000413 0.024918 -0.000151
# 6 -0.003702 0.001991 -0.003557 -0.006101 -0.000151 0.026429
#
#
# Mechanical properties :
#
#
# Convention : Reuss Voigt Hill
#
# Bulk Modulus (GPa) = 43.52518 68.11099 55.81808
# Shear Modulus (GPa) = 32.95832 41.02877 36.99354
#
# Velocity S-wave (km/s) = 3.64867 4.07095 3.86558
# Velocity P-wave (km/s) = 5.94402 7.04335 6.51691
#
# Compressibility (1/GPa) = 0.02297521
#
# Stress axis : x y z
#
# Youngs Moduli (GPa) = 105.33582 88.98281 54.04666
#
# Poissons Ratio (x) = 0.39527 0.21989
# Poissons Ratio (y) = 0.46792 -0.02060
# Poissons Ratio (z) = 0.42856 -0.03392
#
# Static dielectric constant tensor:
#      x y z
#    x 2.000510 0.036520 0.053600 
#    y 0.036520 1.985510 0.020220 
#    z 0.053600 0.020220 1.972080 
# 
# From -- ./inp_files/42263.got.cif
#   From: 2010.05.17/outbox.cif.g08.bks.cpg/sg2_22_cif.got.tgz:42263.got - 2010.06.03 11:33:40.
