data_PCOD9022551
_publ_section_title
;
Structure prediction by ZEFSAII (Michael W. Deem and Ramdas Pophale) SiO2 
 PCOD9022551
Probable space group: P -1
;
_chemical_formula_sum "Si O2"
_cell_formula_units_Z 16
_cell_length_a 5.199781
_cell_length_b 16.490101
_cell_length_c 11.532183
_cell_angle_alpha 123.633944
_cell_angle_beta 66.280816
_cell_angle_gamma 119.960790
_cell_volume 702.368534
_symmetry_space_group_name_H-M "P -1"
_symmetry_group_IT_number 2
_symmetry_cell_setting 'triclinic'
loop_
_space_group_symop_operation_xyz
x,y,z
-x,-y,-z
loop_
_atom_site_type_symbol
_atom_site_label
_atom_site_fract_x
_atom_site_fract_y
_atom_site_fract_z
Si Si1 0.409705 0.507994 0.833367
Si Si2 0.533976 0.849498 0.300501
Si Si3 0.222437 0.437373 0.417528
Si Si4 0.280248 0.611288 0.168468
Si Si5 0.409708 0.049484 0.397039
Si Si6 0.409936 0.128429 0.092730
Si Si7 0.874774 0.062343 0.851417
Si Si8 0.112938 0.796057 0.727158
O O1 0.635097 0.566179 0.737190
O O2 0.522575 0.418667 0.793714
O O3 0.070065 0.458896 0.808637
O O4 0.393799 0.580124 0.001267
O O5 0.313330 0.731105 0.253779
O O6 0.654816 0.884095 0.436267
O O7 0.798004 0.856552 0.168075
O O8 0.410207 0.939341 0.356994
O O9 0.500000 0.500000 0.500000
O O10 0.019053 0.319083 0.393939
O O11 0.000000 0.500000 0.500000
O O12 0.723948 0.118754 0.333521
O O13 0.178750 0.019039 0.308950
O O14 0.175481 0.183284 0.154254
O O15 0.639699 0.186792 0.201945
O O16 0.207012 0.011212 0.079718
O O17 0.624409 0.115611 0.942350
#
# Coordination Sequence:
#
# PCOD9022551 Si02
#       8
#     2   2   2   2   2   2   2   2
#     4  10  24  48  68 101 135 167 241 278 340 392
#     4  11  23  41  66  99 130 186 219 272 332 405
#     4  12  27  45  72 102 134 179 226 284 347 409
#     4  10  24  45  74  97 132 183 218 296 328 392
#     4  10  24  40  63  97 144 167 230 260 336 409
#     4  10  23  40  69  92 136 173 219 270 333 392
#     4  10  22  39  62  95 136 175 219 271 323 401
#     4  11  24  46  65 101 130 180 216 282 333 404
#
# _framework density 22.780066000000001
#
# number of rings (size 3 to 8) (size 9 to 14) (size 15 to 20)
#    0.000    1.500    1.250    1.875    8.750    1.500 
#    2.250    0.000    0.000    0.000    0.000    0.000 
#    0.000    0.000    0.000    0.000    0.000    0.000 
#
# Total GULP energy -89476.206132 kJ/mol
# GULP energy per Si atom -5592.262883 kJ/mol
# Density = 2.272822 g / cm^3
# Si number density = 22.780066 Si / 1000 Ang^3
#
#
#
# Elastic Constant Matrix: (Units=GPa)
#
#
# Indices 1 2 3 4 5 6 
#
# 1 98.5117 10.0914 17.9648 1.9052 -0.6340 7.5971
# 2 10.0914 72.4677 19.1579 21.0109 -2.7981 -2.4060
# 3 17.9648 19.1579 55.3562 0.0652 -3.6878 2.1079
# 4 1.9052 21.0109 0.0652 41.6618 5.4652 -6.8956
# 5 -0.6340 -2.7981 -3.6878 5.4652 34.5093 -1.9487
# 6 7.5971 -2.4060 2.1079 -6.8956 -1.9487 19.9001
#
#
#
# Elastic Compliance Matrix: (Units=1/GPa)
#
#
# Indices 1 2 3 4 5 6 
#
# 1 0.011156 -0.000587 -0.003272 -0.000885 -0.000296 -0.004319
# 2 -0.000587 0.018307 -0.005979 -0.009502 0.002340 0.000007
# 3 -0.003272 -0.005979 0.021298 0.002867 0.001242 -0.000615
# 4 -0.000885 -0.009502 0.002867 0.030984 -0.004871 0.009145
# 5 -0.000296 0.002340 0.001242 -0.004871 0.030153 0.001529
# 6 -0.004319 0.000007 -0.000615 0.009145 0.001529 0.055284
#
#
# Mechanical properties :
#
#
# Convention : Reuss Voigt Hill
#
# Bulk Modulus (GPa) = 32.16711 35.64045 33.90378
# Shear Modulus (GPa) = 25.35258 31.15566 28.25412
#
# Velocity S-wave (km/s) = 3.33968 3.70222 3.52561
# Velocity P-wave (km/s) = 5.38727 5.82706 5.61147
#
# Compressibility (1/GPa) = 0.03108765
#
# Stress axis : x y z
#
# Youngs Moduli (GPa) = 89.63700 54.62359 46.95176
#
# Poissons Ratio (x) = 0.03205 0.15361
# Poissons Ratio (y) = 0.05260 0.28070
# Poissons Ratio (z) = 0.29326 0.32657
#
# Static dielectric constant tensor:
#      x y z
#    x 1.868190 -0.007700 0.028330 
#    y -0.007700 1.823970 -0.023040 
#    z 0.028330 -0.023040 1.883830 
# 
# From -- ./inp_files/85387.got.cif
#   From: 2010.05.17/outbox.cif.g08.bks.cpg/sg2_43_cif.got.tgz:85387.got - 2010.06.03 11:33:40.
