data_PCOD9022408
_publ_section_title
;
Structure prediction by ZEFSAII (Michael W. Deem and Ramdas Pophale) SiO2 
 PCOD9022408
Probable space group: P -1
;
_chemical_formula_sum "Si O2"
_cell_formula_units_Z 14
_cell_length_a 9.154867
_cell_length_b 11.898609
_cell_length_c 5.614271
_cell_angle_alpha 115.113391
_cell_angle_beta 95.764787
_cell_angle_gamma 84.847149
_cell_volume 550.195551
_symmetry_space_group_name_H-M "P -1"
_symmetry_group_IT_number 2
_symmetry_cell_setting 'triclinic'
loop_
_space_group_symop_operation_xyz
x,y,z
-x,-y,-z
loop_
_atom_site_type_symbol
_atom_site_label
_atom_site_fract_x
_atom_site_fract_y
_atom_site_fract_z
Si Si1 0.069023 0.546945 0.307363
Si Si2 0.666126 0.071143 0.207793
Si Si3 0.605181 0.819444 0.509575
Si Si4 0.184273 0.161410 0.834302
Si Si5 0.616300 0.285768 0.007482
Si Si6 0.342128 0.387167 0.272100
Si Si7 0.875451 0.220332 0.699356
O O1 0.242793 0.512479 0.349085
O O2 0.052380 0.694948 0.411502
O O3 0.000000 0.500000 0.500000
O O4 0.000000 0.500000 0.000000
O O5 0.500704 0.075117 0.286972
O O6 0.775226 0.123412 0.471857
O O7 0.737097 0.934332 0.054965
O O8 0.658440 0.176104 0.100451
O O9 0.744299 0.868119 0.438733
O O10 0.494250 0.771076 0.248919
O O11 0.643184 0.696471 0.562706
O O12 0.010503 0.159291 0.811662
O O13 0.238928 0.297594 0.020685
O O14 0.767314 0.310768 0.923070
O O15 0.508422 0.391722 0.204686
#
# Coordination Sequence:
#
# PCOD9022408 Si02
#       7
#     2   2   2   2   2   2   2
#     4  12  27  47  74 103 134 174 227 286 340 402
#     4  10  22  39  61  94 132 177 215 275 334 404
#     4   9  20  39  62  92 129 173 223 273 327 399
#     4  11  21  37  64  95 131 172 223 272 334 399
#     4   9  22  41  61  93 134 170 224 268 338 397
#     4  10  22  41  67  95 128 175 223 275 332 399
#     4  11  24  41  64  95 134 173 219 281 336 403
#
# _framework density 25.445499999999999
#
# number of rings (size 3 to 8) (size 9 to 14) (size 15 to 20)
#    0.000    1.714    1.429    1.714    4.000    9.714 
#    0.000    6.429    0.000    0.000    0.000    0.000 
#    0.000    0.000    0.000    0.000    0.000    0.000 
#
# Total GULP energy -78268.597815 kJ/mol
# GULP energy per Si atom -5590.614130 kJ/mol
# Density = 2.538758 g / cm^3
# Si number density = 25.445500 Si / 1000 Ang^3
#
#
#
# Elastic Constant Matrix: (Units=GPa)
#
#
# Indices 1 2 3 4 5 6 
#
# 1 167.5633 26.6663 39.2442 -22.6835 9.8420 -36.5277
# 2 26.6663 74.8727 -0.1801 -18.9797 3.6261 -28.0823
# 3 39.2442 -0.1801 65.1502 -22.3090 3.2019 -10.9434
# 4 -22.6835 -18.9797 -22.3090 30.7857 5.2912 7.5359
# 5 9.8420 3.6261 3.2019 5.2912 32.7377 -11.0392
# 6 -36.5277 -28.0823 -10.9434 7.5359 -11.0392 49.6616
#
#
#
# Elastic Compliance Matrix: (Units=1/GPa)
#
#
# Indices 1 2 3 4 5 6 
#
# 1 0.008172 -0.000674 -0.003375 0.002265 -0.000958 0.004329
# 2 -0.000674 0.021939 0.008053 0.016604 -0.002090 0.010700
# 3 -0.003375 0.008053 0.025318 0.020748 -0.004528 0.003496
# 4 0.002265 0.016604 0.020748 0.060850 -0.013219 0.003456
# 5 -0.000958 -0.002090 -0.004528 -0.013219 0.036051 0.007135
# 6 0.004329 0.010700 0.003496 0.003456 0.007135 0.031203
#
#
# Mechanical properties :
#
#
# Convention : Reuss Voigt Hill
#
# Bulk Modulus (GPa) = 15.76353 48.78299 32.27326
# Shear Modulus (GPa) = 25.42308 38.76073 32.09190
#
# Velocity S-wave (km/s) = 3.16431 3.90716 3.55519
# Velocity P-wave (km/s) = 4.42255 6.29029 5.43722
#
# Compressibility (1/GPa) = 0.06343759
#
# Stress axis : x y z
#
# Youngs Moduli (GPa) = 122.36546 45.58060 39.49690
#
# Poissons Ratio (x) = 0.03073 0.13328
# Poissons Ratio (y) = 0.08251 -0.31805
# Poissons Ratio (z) = 0.41292 -0.36704
#
# Static dielectric constant tensor:
#      x y z
#    x 2.009400 -0.011480 -0.051620 
#    y -0.011480 1.959630 0.088480 
#    z -0.051620 0.088480 2.171730 
# 
# From -- ./inp_files/26732.got.cif
#   From: 2010.05.17/outbox.cif.g08.bks.cpg/sg2_14_cif.got.tgz:26732.got - 2010.06.03 11:33:40.
