data_PCOD9022495
_publ_section_title
;
Structure prediction by ZEFSAII (Michael W. Deem and Ramdas Pophale) SiO2 
 PCOD9022495
Probable space group: P -1
;
_chemical_formula_sum "Si O2"
_cell_formula_units_Z 16
_cell_length_a 5.362480
_cell_length_b 9.001328
_cell_length_c 18.238916
_cell_angle_alpha 78.182315
_cell_angle_beta 126.955726
_cell_angle_gamma 111.021387
_cell_volume 656.622900
_symmetry_space_group_name_H-M "P -1"
_symmetry_group_IT_number 2
_symmetry_cell_setting 'triclinic'
loop_
_space_group_symop_operation_xyz
x,y,z
-x,-y,-z
loop_
_atom_site_type_symbol
_atom_site_label
_atom_site_fract_x
_atom_site_fract_y
_atom_site_fract_z
Si Si1 0.421405 0.211068 0.519702
Si Si2 0.802672 0.366985 0.036638
Si Si3 0.343624 0.552669 0.194501
Si Si4 0.642882 0.137658 0.409745
Si Si5 0.078189 0.072784 0.086833
Si Si6 0.768687 0.436953 0.679796
Si Si7 0.364662 0.719417 0.759457
Si Si8 0.224227 0.246011 0.853579
O O1 0.530688 0.211872 0.454638
O O2 0.626681 0.363883 0.585826
O O3 0.037285 0.185927 0.467462
O O4 0.483294 0.052890 0.581767
O O5 0.958667 0.454886 0.130279
O O6 0.894969 0.205004 0.056322
O O7 0.421434 0.325211 0.954142
O O8 0.000000 0.500000 0.000000
O O9 0.488264 0.572220 0.299552
O O10 0.483212 0.425351 0.192364
O O11 0.482133 0.716587 0.158620
O O12 0.526633 0.192641 0.307522
O O13 0.466210 0.157561 0.159971
O O14 0.949697 0.933278 0.137279
O O15 0.000000 0.000000 0.000000
O O16 0.985843 0.620268 0.696741
O O17 0.965128 0.324030 0.763896
#
# Coordination Sequence:
#
# PCOD9022495 Si02
#       8
#     2   2   2   2   2   2   2   2
#     4  10  24  44  72 103 138 179 233 290 352 420
#     4   9  20  41  60  88 130 171 220 277 337 398
#     4   9  22  41  61  90 133 175 223 279 343 410
#     4  10  23  47  70 102 138 180 229 291 354 421
#     4  11  24  41  65  99 132 175 233 278 340 411
#     4  11  24  41  67  98 129 180 224 281 346 415
#     4  10  24  44  62  97 134 178 225 280 350 414
#     4  10  22  39  62  91 126 176 222 279 329 409
#
# _framework density 24.367104999999999
#
# number of rings (size 3 to 8) (size 9 to 14) (size 15 to 20)
#    0.000    2.000    0.000    1.875   10.500    1.500 
#    2.250    0.000    0.000    0.000    0.000    0.000 
#    0.000    0.000    0.000    0.000    0.000    0.000 
#
# Total GULP energy -89351.925110 kJ/mol
# GULP energy per Si atom -5584.495319 kJ/mol
# Density = 2.431164 g / cm^3
# Si number density = 24.367105 Si / 1000 Ang^3
#
#
#
# Elastic Constant Matrix: (Units=GPa)
#
#
# Indices 1 2 3 4 5 6 
#
# 1 70.6857 37.6455 24.2940 13.4973 -15.0557 0.3345
# 2 37.6455 138.7461 61.0759 -0.2480 -8.2461 17.4775
# 3 24.2940 61.0759 107.7723 19.4553 -26.9233 2.4408
# 4 13.4973 -0.2480 19.4553 52.5259 -5.0554 -0.1482
# 5 -15.0557 -8.2461 -26.9233 -5.0554 37.5253 -5.4315
# 6 0.3345 17.4775 2.4408 -0.1482 -5.4315 30.4737
#
#
#
# Elastic Compliance Matrix: (Units=1/GPa)
#
#
# Indices 1 2 3 4 5 6 
#
# 1 0.019381 -0.006205 0.001873 -0.004945 0.007749 0.004553
# 2 -0.006205 0.013078 -0.008061 0.004043 -0.005988 -0.007834
# 3 0.001873 -0.008061 0.017166 -0.005778 0.011271 0.005209
# 4 -0.004945 0.004043 -0.005778 0.022216 -0.002559 -0.002150
# 5 0.007749 -0.005988 0.011271 -0.002559 0.037504 0.009119
# 6 0.004553 -0.007834 0.005209 -0.002150 0.009119 0.038456
#
#
# Mechanical properties :
#
#
# Convention : Reuss Voigt Hill
#
# Bulk Modulus (GPa) = 40.26035 62.58166 51.42100
# Shear Modulus (GPa) = 27.64481 37.05089 32.34785
#
# Velocity S-wave (km/s) = 3.37191 3.90363 3.64747
# Velocity P-wave (km/s) = 5.63187 6.78648 6.23596
#
# Compressibility (1/GPa) = 0.02483833
#
# Stress axis : x y z
#
# Youngs Moduli (GPa) = 51.59657 76.46654 58.25519
#
# Poissons Ratio (x) = 0.47446 -0.10910
# Poissons Ratio (y) = 0.32015 0.46960
# Poissons Ratio (z) = -0.09663 0.61640
#
# Static dielectric constant tensor:
#      x y z
#    x 2.110360 0.027910 0.028020 
#    y 0.027910 1.911860 -0.008870 
#    z 0.028020 -0.008870 2.039330 
# 
# From -- ./inp_files/106308.got.cif
#   From: 2010.05.17/outbox.cif.g08.bks.cpg/sg2_54_cif.got.tgz:106308.got - 2010.06.03 11:33:40.
