data_PCOD9022793
_publ_section_title
;
Structure prediction by ZEFSAII (Michael W. Deem and Ramdas Pophale) SiO2 
 PCOD9022793
Probable space group: P -1
;
_chemical_formula_sum "Si O2"
_cell_formula_units_Z 16
_cell_length_a 20.530330
_cell_length_b 6.516990
_cell_length_c 24.271920
_cell_angle_alpha 48.933255
_cell_angle_beta 16.579171
_cell_angle_gamma 58.041263
_cell_volume 618.025015
_symmetry_space_group_name_H-M "P -1"
_symmetry_group_IT_number 2
_symmetry_cell_setting 'triclinic'
loop_
_space_group_symop_operation_xyz
x,y,z
-x,-y,-z
loop_
_atom_site_type_symbol
_atom_site_label
_atom_site_fract_x
_atom_site_fract_y
_atom_site_fract_z
Si Si1 0.323643 0.029953 0.435989
Si Si2 0.221183 0.885524 0.017629
Si Si3 0.150373 0.392297 0.940804
Si Si4 0.537977 0.739514 0.485657
Si Si5 0.872576 0.771010 0.777622
Si Si6 0.108345 0.469753 0.787631
Si Si7 0.108906 0.812499 0.401208
Si Si8 0.460032 0.667019 0.224340
O O1 0.609858 0.104204 0.174295
O O2 0.333949 0.316937 0.409732
O O3 0.162169 0.702252 0.653283
O O4 0.164744 0.017456 0.511779
O O5 0.053941 0.054203 0.104826
O O6 0.419413 0.108470 0.862421
O O7 0.114235 0.544551 0.188647
O O8 0.410090 0.473871 0.682478
O O9 0.000000 0.500000 0.000000
O O10 0.144701 0.588770 0.963757
O O11 0.357895 0.655409 0.592800
O O12 0.830356 0.808866 0.225992
O O13 0.500000 0.000000 0.500000
O O14 0.765456 0.908912 0.793263
O O15 0.694965 0.722538 0.983169
O O16 0.267527 0.728487 0.331518
O O17 0.000000 0.500000 0.500000
O O18 0.000000 0.000000 0.500000
#
# Coordination Sequence:
#
# PCOD9022793 Si02
#       8
#     2   2   2   2   2   2   2   2
#     4  11  23  44  69 103 145 190 242 307 375 447
#     4  11  25  44  71 106 146 195 248 315 370 458
#     4  10  22  42  65  99 139 186 250 304 382 450
#     4  10  22  40  61  93 129 180 231 298 364 444
#     4  11  26  46  74 107 147 197 250 302 381 453
#     4  10  22  39  64  91 134 177 233 300 371 432
#     4  12  27  49  80 114 156 204 251 314 390 466
#     4  11  26  45  75 107 148 194 249 305 375 455
#
# _framework density 25.888922000000001
#
# number of rings (size 3 to 8) (size 9 to 14) (size 15 to 20)
#    0.000    1.250    2.500    1.875    5.250    6.000 
#    0.000    0.000    0.000    0.000    0.000    0.000 
#    0.000    0.000    0.000    0.000    0.000    0.000 
#
# Total GULP energy -89177.573087 kJ/mol
# GULP energy per Si atom -5573.598318 kJ/mol
# Density = 2.583000 g / cm^3
# Si number density = 25.888922 Si / 1000 Ang^3
#
#
#
# Elastic Constant Matrix: (Units=GPa)
#
#
# Indices 1 2 3 4 5 6 
#
# 1 134.4146 59.5985 4.9768 -9.8816 -6.3025 -3.9604
# 2 59.5985 190.0334 27.0217 -7.5280 -6.6811 -18.6193
# 3 4.9768 27.0217 37.0316 0.8307 10.4388 -11.5007
# 4 -9.8816 -7.5280 0.8307 53.7700 2.7439 1.2039
# 5 -6.3025 -6.6811 10.4388 2.7439 44.3573 -10.7164
# 6 -3.9604 -18.6193 -11.5007 1.2039 -10.7164 50.1975
#
#
#
# Elastic Compliance Matrix: (Units=1/GPa)
#
#
# Indices 1 2 3 4 5 6 
#
# 1 0.008760 -0.002779 0.000630 0.001184 0.000581 -0.000100
# 2 -0.002779 0.007096 -0.004896 0.000406 0.002225 0.001757
# 3 0.000630 -0.004896 0.034011 -0.000810 -0.007529 0.004438
# 4 0.001184 0.000406 -0.000810 0.018943 -0.000894 -0.000587
# 5 0.000581 0.002225 -0.007529 -0.000894 0.025925 0.004702
# 6 -0.000100 0.001757 0.004438 -0.000587 0.004702 0.022600
#
#
# Mechanical properties :
#
#
# Convention : Reuss Voigt Hill
#
# Bulk Modulus (GPa) = 27.95150 60.51931 44.23541
# Shear Modulus (GPa) = 34.87938 47.65714 41.26826
#
# Velocity S-wave (km/s) = 3.67450 4.29515 3.99689
# Velocity P-wave (km/s) = 5.36868 6.93001 6.19870
#
# Compressibility (1/GPa) = 0.03577625
#
# Stress axis : x y z
#
# Youngs Moduli (GPa) = 114.15545 140.91586 29.40264
#
# Poissons Ratio (x) = 0.39165 -0.01851
# Poissons Ratio (y) = 0.31728 0.14394
# Poissons Ratio (z) = -0.07186 0.68986
#
# Static dielectric constant tensor:
#      x y z
#    x 2.047370 0.098050 0.011010 
#    y 0.098050 2.159760 0.003270 
#    z 0.011010 0.003270 2.226880 
# 
# From -- ./inp_files/613413.got.cif
#   From: 2010.05.17/outbox.cif.g08.bks.cpg/sg2_307_cif.got.tgz:613413.got - 2010.06.03 11:33:40.
