data_PCOD9022802
_publ_section_title
;
Structure prediction by ZEFSAII (Michael W. Deem and Ramdas Pophale) SiO2 
 PCOD9022802
Probable space group: P -1
;
_chemical_formula_sum "Si O2"
_cell_formula_units_Z 16
_cell_length_a 11.869476
_cell_length_b 25.328252
_cell_length_c 5.125717
_cell_angle_alpha 98.438474
_cell_angle_beta 72.727229
_cell_angle_gamma 150.288692
_cell_volume 708.909338
_symmetry_space_group_name_H-M "P -1"
_symmetry_group_IT_number 2
_symmetry_cell_setting 'triclinic'
loop_
_space_group_symop_operation_xyz
x,y,z
-x,-y,-z
loop_
_atom_site_type_symbol
_atom_site_label
_atom_site_fract_x
_atom_site_fract_y
_atom_site_fract_z
Si Si1 0.736928 0.720344 0.533398
Si Si2 0.242035 0.754168 0.419669
Si Si3 0.007191 0.241646 0.218102
Si Si4 0.484486 0.254954 0.142969
Si Si5 0.742945 0.062230 0.937387
Si Si6 0.401720 0.429545 0.765014
Si Si7 0.556425 0.873055 0.799017
Si Si8 0.189293 0.621601 0.495349
O O1 0.765534 0.694426 0.747191
O O2 0.649535 0.743647 0.693483
O O3 0.566662 0.620833 0.374617
O O4 0.011618 0.832318 0.319531
O O5 0.464424 0.841833 0.541789
O O6 0.089127 0.641624 0.523763
O O7 0.116155 0.760823 0.537913
O O8 0.328457 0.781202 0.085807
O O9 0.112897 0.313183 0.941216
O O10 0.826713 0.121844 0.194666
O O11 0.329922 0.140229 0.229564
O O12 0.704837 0.338623 0.258453
O O13 0.591411 0.297744 0.807929
O O14 0.690708 0.979119 0.880015
O O15 0.500000 0.000000 0.000000
O O16 0.500000 0.500000 0.500000
O O17 0.500000 0.500000 0.000000
O O18 0.000000 0.500000 0.500000
#
# Coordination Sequence:
#
# PCOD9022802 Si02
#       8
#     2   2   2   2   2   2   2   2
#     4  11  26  42  67 103 137 179 223 275 342 406
#     4  10  22  39  64  92 129 165 219 279 330 388
#     4  11  24  40  67 101 134 168 229 273 341 400
#     4  10  24  43  67  92 139 172 220 278 329 405
#     4  11  23  40  68  99 136 178 229 280 337 397
#     4  11  24  44  63  92 133 174 213 263 333 400
#     4  10  22  42  63  93 127 175 218 271 332 388
#     4  10  22  43  68  97 122 174 228 277 333 392
#
# _framework density 22.569883999999998
#
# number of rings (size 3 to 8) (size 9 to 14) (size 15 to 20)
#    0.000    1.500    2.500    1.125    7.000    3.500 
#    0.000    0.625    0.000    0.000    0.000    0.000 
#    0.000    0.000    0.000    0.000    0.000    0.000 
#
# Total GULP energy -89203.547914 kJ/mol
# GULP energy per Si atom -5575.221745 kJ/mol
# Density = 2.251851 g / cm^3
# Si number density = 22.569884 Si / 1000 Ang^3
#
#
#
# Elastic Constant Matrix: (Units=GPa)
#
#
# Indices 1 2 3 4 5 6 
#
# 1 97.8168 50.2943 39.5322 22.5069 -19.1187 -32.4269
# 2 50.2943 150.0138 21.3251 31.9728 -7.8219 -43.7201
# 3 39.5322 21.3251 96.5724 29.0150 -6.3735 -10.2774
# 4 22.5069 31.9728 29.0150 39.2215 -11.8176 -5.4519
# 5 -19.1187 -7.8219 -6.3735 -11.8176 36.4582 15.0256
# 6 -32.4269 -43.7201 -10.2774 -5.4519 15.0256 37.1652
#
#
#
# Elastic Compliance Matrix: (Units=1/GPa)
#
#
# Indices 1 2 3 4 5 6 
#
# 1 0.017696 -0.001049 -0.004545 -0.003634 0.002358 0.011464
# 2 -0.001049 0.014297 0.002557 -0.013056 -0.008788 0.018248
# 3 -0.004545 0.002557 0.015185 -0.011541 -0.004271 0.003275
# 4 -0.003634 -0.013056 -0.011541 0.049219 0.018246 -0.021877
# 5 0.002358 -0.008788 -0.004271 0.018246 0.041690 -0.023640
# 6 0.011464 0.018248 0.003275 -0.021877 -0.023640 0.065630
#
#
# Mechanical properties :
#
#
# Convention : Reuss Voigt Hill
#
# Bulk Modulus (GPa) = 24.32824 62.96736 43.64780
# Shear Modulus (GPa) = 22.37210 38.11907 30.24558
#
# Velocity S-wave (km/s) = 3.15181 4.11412 3.66469
# Velocity P-wave (km/s) = 4.90384 7.10826 6.10635
#
# Compressibility (1/GPa) = 0.04110449
#
# Stress axis : x y z
#
# Youngs Moduli (GPa) = 56.50839 69.94585 65.85396
#
# Poissons Ratio (x) = 0.07334 0.29932
# Poissons Ratio (y) = 0.05925 -0.16837
# Poissons Ratio (z) = 0.25684 -0.17883
#
# Static dielectric constant tensor:
#      x y z
#    x 1.908820 -0.034990 0.036020 
#    y -0.034990 1.885900 0.015550 
#    z 0.036020 0.015550 1.868430 
# 
# From -- ./inp_files/84415.got.cif
#   From: 2010.05.17/outbox.cif.g08.bks.cpg/sg2_43_cif.got.tgz:84415.got - 2010.06.03 11:33:40.
