data_PCOD9022707
_publ_section_title
;
Structure prediction by ZEFSAII (Michael W. Deem and Ramdas Pophale) SiO2 
 PCOD9022707
Probable space group: P -1
;
_chemical_formula_sum "Si O2"
_cell_formula_units_Z 13
_cell_length_a 14.190289
_cell_length_b 7.857525
_cell_length_c 7.039716
_cell_angle_alpha 77.289042
_cell_angle_beta 100.023742
_cell_angle_gamma 143.609897
_cell_volume 454.265299
_symmetry_space_group_name_H-M "P -1"
_symmetry_group_IT_number 2
_symmetry_cell_setting 'triclinic'
loop_
_space_group_symop_operation_xyz
x,y,z
-x,-y,-z
loop_
_atom_site_type_symbol
_atom_site_label
_atom_site_fract_x
_atom_site_fract_y
_atom_site_fract_z
Si Si1 0.365861 0.004094 0.999666
Si Si2 0.924146 0.651543 0.174342
Si Si3 0.729849 0.787576 0.664648
Si Si4 0.590329 0.187347 0.293752
Si Si5 0.160724 0.412621 0.249409
Si Si6 0.102288 0.748959 0.637010
Si Si7 0.500000 0.500000 0.000000
O O1 0.270034 0.742335 0.177007
O O2 0.525987 0.265508 0.134682
O O3 0.418151 0.973095 0.838874
O O4 0.328303 0.151154 0.943794
O O5 0.780350 0.480726 0.311899
O O6 0.891060 0.397088 0.172380
O O7 0.884602 0.694365 0.958586
O O8 0.098247 0.931977 0.243380
O O9 0.746774 0.617645 0.631123
O O10 0.585627 0.586806 0.802947
O O11 0.735703 0.950287 0.472725
O O12 0.500000 0.000000 0.500000
O O13 0.000317 0.237827 0.335427
O O14 0.000000 0.500000 0.500000
#
# Coordination Sequence:
#
# PCOD9022707 Si02
#       7
#     2   2   2   2   2   2   1
#     4  10  23  43  67  97 133 187 219 279 350 396
#     4  10  22  41  66 100 129 176 223 273 341 397
#     4  11  24  40  68  98 131 179 221 277 336 400
#     4  10  22  40  70  98 137 175 225 276 337 409
#     4  11  22  44  71  92 134 177 224 272 342 404
#     4  10  22  39  63  96 130 167 217 278 325 393
#     4  12  24  44  68  94 142 176 226 280 342 408
#
# _framework density 28.617636999999998
#
# number of rings (size 3 to 8) (size 9 to 14) (size 15 to 20)
#    0.000    1.538    0.000    6.000    6.462    1.231 
#    2.769    0.769    0.000    0.000    0.000    0.000 
#    0.000    0.000    0.000    0.000    0.000    0.000 
#
# Total GULP energy -72553.359759 kJ/mol
# GULP energy per Si atom -5581.027674 kJ/mol
# Density = 2.855250 g / cm^3
# Si number density = 28.617637 Si / 1000 Ang^3
#
#
#
# Elastic Constant Matrix: (Units=GPa)
#
#
# Indices 1 2 3 4 5 6 
#
# 1 109.5899 -4.0167 50.9643 -11.6358 -25.7977 -7.1217
# 2 -4.0167 86.7732 22.0482 -25.3656 -11.1035 -17.6278
# 3 50.9643 22.0482 162.4023 -23.8527 -16.6646 -3.2523
# 4 -11.6358 -25.3656 -23.8527 47.6874 5.1079 5.2820
# 5 -25.7977 -11.1035 -16.6646 5.1079 64.3545 -4.8386
# 6 -7.1217 -17.6278 -3.2523 5.2820 -4.8386 58.0779
#
#
#
# Elastic Compliance Matrix: (Units=1/GPa)
#
#
# Indices 1 2 3 4 5 6 
#
# 1 0.012327 0.003184 -0.003455 0.002207 0.004607 0.002468
# 2 0.003184 0.015612 -0.001597 0.007413 0.003317 0.004642
# 3 -0.003455 -0.001597 0.007791 0.002265 0.000127 -0.000667
# 4 0.002207 0.007413 0.002265 0.026480 0.000671 0.000295
# 5 0.004607 0.003317 0.000127 0.000671 0.018166 0.003031
# 6 0.002468 0.004642 -0.000667 0.000295 0.003031 0.019118
#
#
# Mechanical properties :
#
#
# Convention : Reuss Voigt Hill
#
# Bulk Modulus (GPa) = 31.25370 55.19521 43.22445
# Shear Modulus (GPa) = 43.90102 53.34192 48.62147
#
# Velocity S-wave (km/s) = 3.92095 4.32204 4.12637
# Velocity P-wave (km/s) = 5.60743 6.65099 6.15138
#
# Compressibility (1/GPa) = 0.03199621
#
# Stress axis : x y z
#
# Youngs Moduli (GPa) = 81.12063 64.05403 128.35747
#
# Poissons Ratio (x) = -0.20397 0.44341
# Poissons Ratio (y) = -0.25832 0.20494
# Poissons Ratio (z) = 0.28023 0.10227
#
# Static dielectric constant tensor:
#      x y z
#    x 2.088450 0.600370 0.098260 
#    y 0.600370 2.241990 0.327800 
#    z 0.098260 0.327800 2.197160 
# 
# From -- ./inp_files/292135.got.cif
#   From: 2010.05.17/outbox.cif.g08.bks.cpg/sg2_147_cif.got.tgz:292135.got - 2010.06.03 11:33:40.
