data_PCOD9022652
_publ_section_title
;
Structure prediction by ZEFSAII (Michael W. Deem and Ramdas Pophale) SiO2 
 PCOD9022652
Probable space group: P -1
;
_chemical_formula_sum "Si O2"
_cell_formula_units_Z 14
_cell_length_a 8.034703
_cell_length_b 9.613739
_cell_length_c 9.227626
_cell_angle_alpha 99.737762
_cell_angle_beta 79.779814
_cell_angle_gamma 94.025421
_cell_volume 690.764743
_symmetry_space_group_name_H-M "P -1"
_symmetry_group_IT_number 2
_symmetry_cell_setting 'triclinic'
loop_
_space_group_symop_operation_xyz
x,y,z
-x,-y,-z
loop_
_atom_site_type_symbol
_atom_site_label
_atom_site_fract_x
_atom_site_fract_y
_atom_site_fract_z
Si Si1 0.874895 0.310817 0.474821
Si Si2 0.135709 0.179876 0.611858
Si Si3 0.339584 0.926522 0.438857
Si Si4 0.823238 0.747809 0.795122
Si Si5 0.997359 0.848238 0.053114
Si Si6 0.330360 0.418418 0.459727
Si Si7 0.339211 0.950185 0.114312
O O1 0.707442 0.211527 0.485428
O O2 0.817398 0.468704 0.498372
O O3 0.969002 0.256586 0.594631
O O4 0.005740 0.270294 0.324882
O O5 0.281282 0.293643 0.558563
O O6 0.100996 0.148433 0.779124
O O7 0.187154 0.035041 0.501326
O O8 0.500000 0.000000 0.500000
O O9 0.380611 0.898001 0.259892
O O10 0.685155 0.647623 0.712723
O O11 0.755204 0.904002 0.819380
O O12 0.890667 0.738389 0.947781
O O13 0.199712 0.838086 0.047948
O O14 0.000000 0.000000 0.000000
O O15 0.500000 0.500000 0.500000
O O16 0.500000 0.000000 0.000000
#
# Coordination Sequence:
#
# PCOD9022652 Si02
#       7
#     2   2   2   2   2   2   2
#     4  11  22  41  68  92 125 171 222 262 313 389
#     4  11  21  43  67  92 125 173 222 263 315 393
#     4  12  23  35  64  99 127 163 218 271 325 372
#     4  10  22  41  64  88 128 172 212 257 323 381
#     4  10  22  39  63  93 129 168 210 263 318 382
#     4  11  24  44  67  97 129 166 218 274 323 383
#     4  11  23  38  59  98 135 164 206 270 328 373
#
# _framework density 20.267391
#
# number of rings (size 3 to 8) (size 9 to 14) (size 15 to 20)
#    0.000    1.143    4.286    4.714    6.000    0.000 
#    0.000    3.571    0.000    0.000    0.000    0.000 
#    0.000    0.000    0.000    0.000    0.000    0.000 
#
# Total GULP energy -77992.471071 kJ/mol
# GULP energy per Si atom -5570.890791 kJ/mol
# Density = 2.022126 g / cm^3
# Si number density = 20.267391 Si / 1000 Ang^3
#
#
#
# Elastic Constant Matrix: (Units=GPa)
#
#
# Indices 1 2 3 4 5 6 
#
# 1 82.8177 7.6319 28.8030 10.5180 17.3237 21.0058
# 2 7.6319 81.1782 17.4790 0.5956 -6.7854 2.7570
# 3 28.8030 17.4790 136.2493 -7.5320 8.7249 10.4087
# 4 10.5180 0.5956 -7.5320 25.4663 3.7318 0.3951
# 5 17.3237 -6.7854 8.7249 3.7318 32.7097 10.4726
# 6 21.0058 2.7570 10.4087 0.3951 10.4726 46.1588
#
#
#
# Elastic Compliance Matrix: (Units=1/GPa)
#
#
# Indices 1 2 3 4 5 6 
#
# 1 0.016672 -0.001174 -0.002963 -0.006807 -0.005750 -0.005486
# 2 -0.001174 0.013178 -0.001699 -0.000925 0.004173 -0.000809
# 3 -0.002963 -0.001699 0.008511 0.003996 -0.001454 -0.000174
# 4 -0.006807 -0.000925 0.003996 0.043754 -0.003500 0.002671
# 5 -0.005750 0.004173 -0.001454 -0.003500 0.037092 -0.005690
# 6 -0.005486 -0.000809 -0.000174 0.002671 -0.005690 0.025517
#
#
# Mechanical properties :
#
#
# Convention : Reuss Voigt Hill
#
# Bulk Modulus (GPa) = 37.46770 45.34146 41.40458
# Shear Modulus (GPa) = 30.24962 37.28903 33.76933
#
# Velocity S-wave (km/s) = 3.86751 4.29400 4.08633
# Velocity P-wave (km/s) = 6.20245 6.85601 6.53740
#
# Compressibility (1/GPa) = 0.02668965
#
# Stress axis : x y z
#
# Youngs Moduli (GPa) = 59.98049 75.88526 117.49374
#
# Poissons Ratio (x) = 0.08908 0.34812
# Poissons Ratio (y) = 0.07041 0.19962
# Poissons Ratio (z) = 0.17771 0.12893
#
# Static dielectric constant tensor:
#      x y z
#    x 1.896000 0.132480 0.068310 
#    y 0.132480 1.879450 0.031510 
#    z 0.068310 0.031510 1.742980 
# 
# From -- ./inp_files/155361.got.cif
#   From: 2010.05.17/outbox.cif.g08.bks.cpg/sg2_78_cif.got.tgz:155361.got - 2010.06.03 11:33:40.
