data_PCOD9022994
_publ_section_title
;
Structure prediction by ZEFSAII (Michael W. Deem and Ramdas Pophale) SiO2 
 PCOD9022994
Probable space group: P -1
;
_chemical_formula_sum "Si O2"
_cell_formula_units_Z 14
_cell_length_a 8.616150
_cell_length_b 10.588753
_cell_length_c 6.943097
_cell_angle_alpha 101.229231
_cell_angle_beta 120.001465
_cell_angle_gamma 90.208571
_cell_volume 534.254393
_symmetry_space_group_name_H-M "P -1"
_symmetry_group_IT_number 2
_symmetry_cell_setting 'triclinic'
loop_
_space_group_symop_operation_xyz
x,y,z
-x,-y,-z
loop_
_atom_site_type_symbol
_atom_site_label
_atom_site_fract_x
_atom_site_fract_y
_atom_site_fract_z
Si Si1 0.199694 0.371971 0.957805
Si Si2 0.071933 0.900744 0.665751
Si Si3 0.629779 0.015087 0.810441
Si Si4 0.546092 0.538406 0.314423
Si Si5 0.693261 0.808402 0.325689
Si Si6 0.845580 0.464407 0.668290
Si Si7 0.672513 0.188157 0.520393
O O1 0.391314 0.455547 0.078315
O O2 0.771397 0.764922 0.156172
O O3 0.146843 0.406775 0.154142
O O4 0.043367 0.427433 0.759664
O O5 0.794895 0.040436 0.066977
O O6 0.873167 0.833023 0.578838
O O7 0.201402 0.823551 0.590991
O O8 0.000000 0.000000 0.500000
O O9 0.449965 0.088122 0.767736
O O10 0.702462 0.087205 0.679810
O O11 0.534868 0.866707 0.681351
O O12 0.500000 0.500000 0.500000
O O13 0.577314 0.685806 0.314404
O O14 0.739102 0.484951 0.415265
O O15 0.737869 0.335782 0.667184
#
# Coordination Sequence:
#
# PCOD9022994 Si02
#       7
#     2   2   2   2   2   2   2
#     4  10  22  39  65  95 139 185 230 290 346 425
#     4  12  27  49  75 113 145 191 247 300 371 436
#     4  11  27  47  76 108 149 188 245 307 367 437
#     4  10  23  40  63  98 140 186 233 288 351 428
#     4  12  25  45  70 110 142 190 247 291 370 436
#     4  10  22  43  66 101 142 187 237 291 363 421
#     4  11  24  50  73 107 148 193 237 310 367 423
#
# _framework density 26.204747999999999
#
# number of rings (size 3 to 8) (size 9 to 14) (size 15 to 20)
#    0.000    1.143    2.857    2.571    2.000    5.714 
#    0.000    0.000    0.000    0.000    0.000    0.000 
#    0.000    0.000    0.000    0.000    0.000    0.000 
#
# Total GULP energy -78140.552955 kJ/mol
# GULP energy per Si atom -5581.468068 kJ/mol
# Density = 2.614510 g / cm^3
# Si number density = 26.204748 Si / 1000 Ang^3
#
#
#
# Elastic Constant Matrix: (Units=GPa)
#
#
# Indices 1 2 3 4 5 6 
#
# 1 96.2773 24.6652 61.5355 3.0252 13.3290 2.1338
# 2 24.6652 72.1319 49.3253 9.8960 0.8102 -1.4479
# 3 61.5355 49.3253 218.9052 13.3276 53.3701 -2.7538
# 4 3.0252 9.8960 13.3276 33.6758 -7.2509 0.8238
# 5 13.3290 0.8102 53.3701 -7.2509 49.9799 0.0507
# 6 2.1338 -1.4479 -2.7538 0.8238 0.0507 42.1008
#
#
#
# Elastic Compliance Matrix: (Units=1/GPa)
#
#
# Indices 1 2 3 4 5 6 
#
# 1 0.013035 -0.002394 -0.003220 0.000858 0.000126 -0.000971
# 2 -0.002394 0.017940 -0.004357 -0.002341 0.004660 0.000494
# 3 -0.003220 -0.004357 0.008949 -0.003971 -0.009204 0.000688
# 4 0.000858 -0.002341 -0.003971 0.033832 0.008959 -0.001057
# 5 0.000126 0.004660 -0.009204 0.008959 0.031027 -0.000661
# 6 -0.000971 0.000494 0.000688 -0.001057 -0.000661 0.023885
#
#
# Mechanical properties :
#
#
# Convention : Reuss Voigt Hill
#
# Bulk Modulus (GPa) = 50.04228 73.15182 61.59705
# Shear Modulus (GPa) = 32.20158 41.93719 37.06939
#
# Velocity S-wave (km/s) = 3.50929 4.00480 3.76520
# Velocity P-wave (km/s) = 5.96308 7.02571 6.51609
#
# Compressibility (1/GPa) = 0.01998310
#
# Stress axis : x y z
#
# Youngs Moduli (GPa) = 76.71576 55.74101 111.73901
#
# Poissons Ratio (x) = 0.13344 0.35981
# Poissons Ratio (y) = 0.18365 0.48682
# Poissons Ratio (z) = 0.24703 0.24285
#
# Static dielectric constant tensor:
#      x y z
#    x 2.380710 -0.000790 -0.002330 
#    y -0.000790 2.086830 0.052890 
#    z -0.002330 0.052890 2.108250 
# 
# From -- ./inp_files/171821.got.cif
#   From: 2010.05.17/outbox.cif.g08.bks.cpg/sg2_86_cif.got.tgz:171821.got - 2010.06.03 11:33:40.
