data_PCOD9022439
_publ_section_title
;
Structure prediction by ZEFSAII (Michael W. Deem and Ramdas Pophale) SiO2 
 PCOD9022439
Probable space group: P -1
;
_chemical_formula_sum "Si O2"
_cell_formula_units_Z 14
_cell_length_a 8.403576
_cell_length_b 14.838504
_cell_length_c 12.547559
_cell_angle_alpha 151.579192
_cell_angle_beta 114.661122
_cell_angle_gamma 62.751134
_cell_volume 661.646030
_symmetry_space_group_name_H-M "P -1"
_symmetry_group_IT_number 2
_symmetry_cell_setting 'triclinic'
loop_
_space_group_symop_operation_xyz
x,y,z
-x,-y,-z
loop_
_atom_site_type_symbol
_atom_site_label
_atom_site_fract_x
_atom_site_fract_y
_atom_site_fract_z
Si Si1 0.171450 0.956120 0.924486
Si Si2 0.545457 0.978410 0.366296
Si Si3 0.312622 0.732348 0.924990
Si Si4 0.826061 0.628620 0.141638
Si Si5 0.394223 0.616699 0.277111
Si Si6 0.090470 0.677801 0.435761
Si Si7 0.937616 0.635850 0.727168
O O1 0.307233 0.799661 0.869812
O O2 0.115224 0.858278 0.701454
O O3 0.209480 0.168980 0.136190
O O4 0.000000 0.000000 0.000000
O O5 0.731809 0.817748 0.245418
O O6 0.500000 0.000000 0.500000
O O7 0.563032 0.182276 0.536569
O O8 0.393069 0.892065 0.175944
O O9 0.440427 0.527857 0.773365
O O10 0.116361 0.712164 0.887148
O O11 0.898020 0.691505 0.339178
O O12 0.679398 0.494288 0.957648
O O13 0.000000 0.500000 0.000000
O O14 0.237568 0.652351 0.358162
O O15 0.117434 0.494340 0.331324
O O16 0.000000 0.500000 0.500000
#
# Coordination Sequence:
#
# PCOD9022439 Si02
#       7
#     2   2   2   2   2   2   2
#     4  10  22  39  62 100 125 165 218 263 323 380
#     4  11  26  40  68  98 132 174 220 270 331 385
#     4  10  24  42  65  93 134 164 219 271 322 389
#     4   9  23  43  65  96 133 170 221 263 329 388
#     4  10  25  45  64  95 136 171 216 265 329 387
#     4  11  23  41  69  94 130 174 213 267 327 379
#     4  11  23  40  68  94 129 165 220 268 317 386
#
# _framework density 21.15935
#
# number of rings (size 3 to 8) (size 9 to 14) (size 15 to 20)
#    0.000    1.714    2.857    0.000   10.000    7.429 
#    0.000    1.429    0.000    0.000    0.000    0.000 
#    0.000    0.000    0.000    0.000    0.000    0.000 
#
# Total GULP energy -78171.273735 kJ/mol
# GULP energy per Si atom -5583.662410 kJ/mol
# Density = 2.111119 g / cm^3
# Si number density = 21.159350 Si / 1000 Ang^3
#
#
#
# Elastic Constant Matrix: (Units=GPa)
#
#
# Indices 1 2 3 4 5 6 
#
# 1 62.8140 42.4965 29.6425 9.9291 7.9995 11.6268
# 2 42.4965 116.4493 78.8400 22.4950 19.5340 9.4509
# 3 29.6425 78.8400 141.1600 9.6222 14.0196 10.9112
# 4 9.9291 22.4950 9.6222 50.9260 10.2810 3.5876
# 5 7.9995 19.5340 14.0196 10.2810 22.8027 8.2892
# 6 11.6268 9.4509 10.9112 3.5876 8.2892 36.7211
#
#
#
# Elastic Compliance Matrix: (Units=1/GPa)
#
#
# Indices 1 2 3 4 5 6 
#
# 1 0.022042 -0.007644 -0.000011 -0.000766 0.001048 -0.005170
# 2 -0.007644 0.018554 -0.007922 -0.003871 -0.007336 0.002033
# 3 -0.000011 -0.007922 0.011567 0.001515 -0.000483 -0.001433
# 4 -0.000766 -0.003871 0.001515 0.022745 -0.007713 0.000308
# 5 0.001048 -0.007336 -0.000483 -0.007713 0.057361 -0.010495
# 6 -0.005170 0.002033 -0.001433 0.000308 -0.010495 0.031111
#
#
# Mechanical properties :
#
#
# Convention : Reuss Voigt Hill
#
# Bulk Modulus (GPa) = 47.60392 69.15347 58.37870
# Shear Modulus (GPa) = 24.80943 33.38625 29.09784
#
# Velocity S-wave (km/s) = 3.42790 3.97652 3.71236
# Velocity P-wave (km/s) = 6.18175 7.33736 6.78420
#
# Compressibility (1/GPa) = 0.02100667
#
# Stress axis : x y z
#
# Youngs Moduli (GPa) = 45.36859 53.89705 86.45524
#
# Poissons Ratio (x) = 0.41201 0.00098
# Poissons Ratio (y) = 0.34681 0.68491
# Poissons Ratio (z) = 0.00051 0.42698
#
# Static dielectric constant tensor:
#      x y z
#    x 1.691550 -0.007370 0.102810 
#    y -0.007370 1.797240 -0.060290 
#    z 0.102810 -0.060290 1.626790 
# 
# From -- ./inp_files/78703.got.cif
#   From: 2010.05.17/outbox.cif.g08.bks.cpg/sg2_40_cif.got.tgz:78703.got - 2010.06.03 11:33:40.
