data_PCOD9022859
_publ_section_title
;
Structure prediction by ZEFSAII (Michael W. Deem and Ramdas Pophale) SiO2 
 PCOD9022859
Probable space group: P -1
;
_chemical_formula_sum "Si O2"
_cell_formula_units_Z 14
_cell_length_a 5.702858
_cell_length_b 16.615353
_cell_length_c 9.109912
_cell_angle_alpha 68.980424
_cell_angle_beta 108.427983
_cell_angle_gamma 129.917385
_cell_volume 613.532131
_symmetry_space_group_name_H-M "P -1"
_symmetry_group_IT_number 2
_symmetry_cell_setting 'triclinic'
loop_
_space_group_symop_operation_xyz
x,y,z
-x,-y,-z
loop_
_atom_site_type_symbol
_atom_site_label
_atom_site_fract_x
_atom_site_fract_y
_atom_site_fract_z
Si Si1 0.137829 0.644620 0.787853
Si Si2 0.779957 0.845927 0.672982
Si Si3 0.185767 0.615347 0.386958
Si Si4 0.150722 0.442000 0.919026
Si Si5 0.854604 0.734329 0.488640
Si Si6 0.221130 0.009262 0.904336
Si Si7 0.418580 0.839576 0.375259
O O1 0.488512 0.741449 0.762930
O O2 0.091099 0.532495 0.834031
O O3 0.917705 0.656841 0.635621
O O4 0.055066 0.643627 0.940927
O O5 0.886736 0.805267 0.589328
O O6 0.646597 0.899456 0.518555
O O7 0.011927 0.920049 0.797198
O O8 0.530358 0.655196 0.391811
O O9 0.291627 0.715563 0.444850
O O10 0.000000 0.500000 0.500000
O O11 0.967680 0.613473 0.224505
O O12 0.500000 0.500000 0.000000
O O13 0.104687 0.822427 0.363431
O O14 0.410000 0.118330 0.772209
O O15 0.500000 0.000000 0.000000
O O16 0.000000 0.000000 0.000000
#
# Coordination Sequence:
#
# PCOD9022859 Si02
#       7
#     2   2   2   2   2   2   2
#     4  10  22  39  64  97 130 189 233 294 362 432
#     4  10  23  45  73  95 140 183 240 292 364 438
#     4  11  23  40  68 102 141 182 240 297 355 433
#     4  11  23  37  60  95 144 183 235 288 368 426
#     4  10  22  42  71  99 133 185 246 293 361 427
#     4  12  31  48  75 112 149 190 245 306 372 435
#     4  10  25  45  73 103 140 191 240 298 362 436
#
# _framework density 22.818688999999999
#
# number of rings (size 3 to 8) (size 9 to 14) (size 15 to 20)
#    0.000    1.429    0.000    4.714   10.000    6.286 
#    0.000    0.000    0.000    0.000    0.000    0.000 
#    0.000    0.000    0.000    0.000    0.000    0.000 
#
# Total GULP energy -77966.641938 kJ/mol
# GULP energy per Si atom -5569.045853 kJ/mol
# Density = 2.276675 g / cm^3
# Si number density = 22.818689 Si / 1000 Ang^3
#
#
#
# Elastic Constant Matrix: (Units=GPa)
#
#
# Indices 1 2 3 4 5 6 
#
# 1 110.7424 30.5174 57.1254 0.1544 -15.9573 28.0071
# 2 30.5174 82.3389 36.6195 9.5218 -8.6868 25.8274
# 3 57.1254 36.6195 123.1031 10.9006 -12.1306 24.6401
# 4 0.1544 9.5218 10.9006 43.3489 16.3144 2.0030
# 5 -15.9573 -8.6868 -12.1306 16.3144 47.9569 -7.5356
# 6 28.0071 25.8274 24.6401 2.0030 -7.5356 33.0883
#
#
#
# Elastic Compliance Matrix: (Units=1/GPa)
#
#
# Indices 1 2 3 4 5 6 
#
# 1 0.013687 -0.000653 -0.004598 0.000903 0.001820 -0.007291
# 2 -0.000653 0.017320 -0.002224 -0.003446 0.001852 -0.010680
# 3 -0.004598 -0.002224 0.011880 -0.002989 0.001671 -0.002657
# 4 0.000903 -0.003446 -0.002989 0.028654 -0.010836 -0.000051
# 5 0.001820 0.001852 0.001671 -0.010836 0.026281 0.002411
# 6 -0.007291 -0.010680 -0.002657 -0.000051 0.002411 0.047261
#
#
# Mechanical properties :
#
#
# Convention : Reuss Voigt Hill
#
# Bulk Modulus (GPa) = 35.79575 62.74544 49.27059
# Shear Modulus (GPa) = 29.52553 37.67363 33.59958
#
# Velocity S-wave (km/s) = 3.60101 4.06766 3.84143
# Velocity P-wave (km/s) = 5.74550 7.04402 6.42763
#
# Compressibility (1/GPa) = 0.02793628
#
# Stress axis : x y z
#
# Youngs Moduli (GPa) = 73.06276 57.73695 84.17678
#
# Poissons Ratio (x) = 0.03771 0.38707
# Poissons Ratio (y) = 0.04772 0.18719
# Poissons Ratio (z) = 0.33596 0.12839
#
# Static dielectric constant tensor:
#      x y z
#    x 2.196120 0.007530 0.023230 
#    y 0.007530 1.876240 -0.012450 
#    z 0.023230 -0.012450 1.891390 
# 
# From -- ./inp_files/56301.got.cif
#   From: 2010.05.17/outbox.cif.g08.bks.cpg/sg2_29_cif.got.tgz:56301.got - 2010.06.03 11:33:40.
