data_PCOD9022483
_publ_section_title
;
Structure prediction by ZEFSAII (Michael W. Deem and Ramdas Pophale) SiO2 
 PCOD9022483
Probable space group: P -1
;
_chemical_formula_sum "Si O2"
_cell_formula_units_Z 16
_cell_length_a 9.067268
_cell_length_b 21.067127
_cell_length_c 20.831735
_cell_angle_alpha 160.548024
_cell_angle_beta 46.931832
_cell_angle_gamma 141.290381
_cell_volume 801.530501
_symmetry_space_group_name_H-M "P -1"
_symmetry_group_IT_number 2
_symmetry_cell_setting 'triclinic'
loop_
_space_group_symop_operation_xyz
x,y,z
-x,-y,-z
loop_
_atom_site_type_symbol
_atom_site_label
_atom_site_fract_x
_atom_site_fract_y
_atom_site_fract_z
Si Si1 0.783553 0.452991 0.098751
Si Si2 0.622296 0.593537 0.620856
Si Si3 0.949106 0.457967 0.550850
Si Si4 0.476401 0.039778 0.248959
Si Si5 0.643262 0.882656 0.323440
Si Si6 0.268659 0.448994 0.935198
Si Si7 0.820362 0.773610 0.506553
Si Si8 0.326778 0.943731 0.935901
O O1 0.827000 0.630700 0.309947
O O2 0.020384 0.439389 0.013080
O O3 0.722676 0.529121 0.123530
O O4 0.568114 0.194700 0.935868
O O5 0.500000 0.500000 0.500000
O O6 0.416275 0.407401 0.553445
O O7 0.875350 0.621627 0.561449
O O8 0.689253 0.839880 0.856892
O O9 0.668839 0.253357 0.440388
O O10 0.000000 0.500000 0.500000
O O11 0.064969 0.699133 0.783252
O O12 0.237532 0.042876 0.323067
O O13 0.558228 0.067863 0.176555
O O14 0.480811 0.684948 0.131291
O O15 0.500000 0.000000 0.500000
O O16 0.698830 0.750161 0.236244
O O17 0.908782 0.083087 0.407994
O O18 0.500000 0.000000 0.000000
#
# Coordination Sequence:
#
# PCOD9022483 Si02
#       8
#     2   2   2   2   2   2   2   2
#     4  11  23  42  68  98 129 177 217 276 331 402
#     4  12  23  40  67  96 130 175 220 269 324 387
#     4  10  22  39  62  90 126 168 216 266 316 380
#     4  11  23  41  63  96 134 169 224 272 320 398
#     4  11  23  43  71  98 132 173 215 280 334 402
#     4  10  24  44  67  97 133 167 221 273 342 394
#     4  12  23  40  68  96 130 174 221 267 338 391
#     4  11  21  40  65  89 129 179 217 266 328 379
#
# _framework density 19.96181
#
# number of rings (size 3 to 8) (size 9 to 14) (size 15 to 20)
#    0.000    1.000    7.500    0.000    0.000    5.500 
#    0.000    1.250    0.000    0.000    0.000    0.000 
#    0.000    0.000    0.000    0.000    0.000    0.000 
#
# Total GULP energy -89132.519438 kJ/mol
# GULP energy per Si atom -5570.782465 kJ/mol
# Density = 1.991638 g / cm^3
# Si number density = 19.961810 Si / 1000 Ang^3
#
#
#
# Elastic Constant Matrix: (Units=GPa)
#
#
# Indices 1 2 3 4 5 6 
#
# 1 100.6547 22.2840 30.4490 -1.1135 7.6709 4.5688
# 2 22.2840 50.8459 22.4735 0.2873 4.5156 2.0128
# 3 30.4490 22.4735 133.6494 2.9210 3.4704 0.7021
# 4 -1.1135 0.2873 2.9210 23.7442 10.1198 2.4464
# 5 7.6709 4.5156 3.4704 10.1198 41.5496 -0.3029
# 6 4.5688 2.0128 0.7021 2.4464 -0.3029 32.9064
#
#
#
# Elastic Compliance Matrix: (Units=1/GPa)
#
#
# Indices 1 2 3 4 5 6 
#
# 1 0.011659 -0.004016 -0.001961 0.001848 -0.002013 -0.001487
# 2 -0.004016 0.022888 -0.002901 0.000695 -0.001679 -0.000848
# 3 -0.001961 -0.002901 0.008435 -0.001252 0.000280 0.000365
# 4 0.001848 0.000695 -0.001252 0.047868 -0.012000 -0.003941
# 5 -0.002013 -0.001679 0.000280 -0.012000 0.027532 0.001522
# 6 -0.001487 -0.000848 0.000365 -0.003941 0.001522 0.030947
#
#
# Mechanical properties :
#
#
# Convention : Reuss Voigt Hill
#
# Bulk Modulus (GPa) = 39.64115 48.39590 44.01853
# Shear Modulus (GPa) = 28.49118 33.63627 31.06373
#
# Velocity S-wave (km/s) = 3.78204 4.10937 3.94910
# Velocity P-wave (km/s) = 6.24287 6.84198 6.54928
#
# Compressibility (1/GPa) = 0.02522631
#
# Stress axis : x y z
#
# Youngs Moduli (GPa) = 85.77351 43.69084 118.55288
#
# Poissons Ratio (x) = 0.17544 0.23251
# Poissons Ratio (y) = 0.34442 0.34392
# Poissons Ratio (z) = 0.16822 0.12675
#
# Static dielectric constant tensor:
#      x y z
#    x 1.674410 -0.052500 -0.070960 
#    y -0.052500 1.661680 -0.045000 
#    z -0.070960 -0.045000 1.586200 
# 
# From -- ./inp_files/216958.got.cif
#   From: 2010.05.17/outbox.cif.g08.bks.cpg/sg2_109_cif.got.tgz:216958.got - 2010.06.03 11:33:40.
