data_PCOD9022856
_publ_section_title
;
Structure prediction by ZEFSAII (Michael W. Deem and Ramdas Pophale) SiO2 
 PCOD9022856
Probable space group: P -1
;
_chemical_formula_sum "Si O2"
_cell_formula_units_Z 16
_cell_length_a 13.621325
_cell_length_b 7.154017
_cell_length_c 10.080051
_cell_angle_alpha 92.805560
_cell_angle_beta 49.512071
_cell_angle_gamma 89.405507
_cell_volume 745.015044
_symmetry_space_group_name_H-M "P -1"
_symmetry_group_IT_number 2
_symmetry_cell_setting 'triclinic'
loop_
_space_group_symop_operation_xyz
x,y,z
-x,-y,-z
loop_
_atom_site_type_symbol
_atom_site_label
_atom_site_fract_x
_atom_site_fract_y
_atom_site_fract_z
Si Si1 0.595475 0.017079 0.762946
Si Si2 0.650859 0.014929 0.407733
Si Si3 0.868095 0.269616 0.193155
Si Si4 0.851591 0.682809 0.139218
Si Si5 0.580287 0.684193 0.940688
Si Si6 0.173700 0.484253 0.136794
Si Si7 0.174854 0.879442 0.244122
Si Si8 0.987363 0.218371 0.361746
O O1 0.696394 0.075218 0.789275
O O2 0.645639 0.035128 0.572076
O O3 0.571763 0.802857 0.815962
O O4 0.475156 0.164748 0.897278
O O5 0.740819 0.831598 0.286137
O O6 0.500000 0.000000 0.500000
O O7 0.733060 0.178651 0.274031
O O8 0.852074 0.494859 0.219258
O O9 0.902096 0.190260 0.306291
O O10 0.002901 0.239290 0.989726
O O11 0.821358 0.609765 0.015148
O O12 0.720910 0.607790 0.858979
O O13 0.500000 0.500000 0.000000
O O14 0.190835 0.705035 0.125239
O O15 0.037777 0.425077 0.311464
O O16 0.083390 0.812770 0.440371
O O17 0.106951 0.063730 0.245955
#
# Coordination Sequence:
#
# PCOD9022856 Si02
#       8
#     2   2   2   2   2   2   2   2
#     4  11  24  42  65  99 126 171 220 260 335 395
#     4  12  26  45  70  98 137 177 224 281 328 396
#     4  10  23  46  69  97 134 181 226 276 330 390
#     4  10  25  44  67  99 134 180 230 268 327 403
#     4  11  23  41  65  93 133 169 211 266 330 397
#     4  11  22  39  63  95 127 171 212 262 327 386
#     4  11  21  39  64  97 128 161 211 271 326 390
#     4  10  22  39  64  97 129 161 214 273 326 386
#
# _framework density 21.476075000000002
#
# number of rings (size 3 to 8) (size 9 to 14) (size 15 to 20)
#    0.000    1.250    3.750    1.500    0.000    8.500 
#    0.000    0.000    0.000    0.000    0.000    0.000 
#    0.000    0.000    0.000    0.000    0.000    0.000 
#
# Total GULP energy -89336.706011 kJ/mol
# GULP energy per Si atom -5583.544126 kJ/mol
# Density = 2.142719 g / cm^3
# Si number density = 21.476075 Si / 1000 Ang^3
#
#
#
# Elastic Constant Matrix: (Units=GPa)
#
#
# Indices 1 2 3 4 5 6 
#
# 1 73.5878 21.8533 25.6046 -11.9066 -26.4367 5.2338
# 2 21.8533 97.9502 36.3068 -10.8733 -17.5428 3.2309
# 3 25.6046 36.3068 94.9245 0.7419 -14.8140 4.9476
# 4 -11.9066 -10.8733 0.7419 31.6127 1.8223 -4.2252
# 5 -26.4367 -17.5428 -14.8140 1.8223 36.6863 -8.3840
# 6 5.2338 3.2309 4.9476 -4.2252 -8.3840 26.8864
#
#
#
# Elastic Compliance Matrix: (Units=1/GPa)
#
#
# Indices 1 2 3 4 5 6 
#
# 1 0.020806 -0.000122 -0.003610 0.007367 0.013572 0.002019
# 2 -0.000122 0.013124 -0.004390 0.004494 0.004504 0.001365
# 3 -0.003610 -0.004390 0.013377 -0.003428 0.000502 -0.001613
# 4 0.007367 0.004494 -0.003428 0.036531 0.005668 0.006165
# 5 0.013572 0.004504 0.000502 0.005668 0.041528 0.010565
# 6 0.002019 0.001365 -0.001613 0.006165 0.010565 0.041197
#
#
# Mechanical properties :
#
#
# Convention : Reuss Voigt Hill
#
# Bulk Modulus (GPa) = 32.19312 48.22131 40.20721
# Shear Modulus (GPa) = 25.88507 31.21692 28.55100
#
# Velocity S-wave (km/s) = 3.47551 3.81670 3.65009
# Velocity P-wave (km/s) = 5.57927 6.47497 6.04374
#
# Compressibility (1/GPa) = 0.03106254
#
# Stress axis : x y z
#
# Youngs Moduli (GPa) = 48.06350 76.19453 74.75525
#
# Poissons Ratio (x) = 0.00928 0.26988
# Poissons Ratio (y) = 0.00585 0.32820
# Poissons Ratio (z) = 0.17352 0.33452
#
# Static dielectric constant tensor:
#      x y z
#    x 1.800170 0.035150 -0.029110 
#    y 0.035150 1.792830 -0.020650 
#    z -0.029110 -0.020650 1.790160 
# 
# From -- ./inp_files/441158.got.cif
#   From: 2010.05.17/outbox.cif.g08.bks.cpg/sg2_221_cif.got.tgz:441158.got - 2010.06.03 11:33:40.
