data_PCOD9022052
_publ_section_title
;
Structure prediction by ZEFSAII (Michael W. Deem and Ramdas Pophale) SiO2 
 PCOD9022052
Probable space group: P -1
;
_chemical_formula_sum "Si O2"
_cell_formula_units_Z 16
_cell_length_a 18.961969
_cell_length_b 8.243871
_cell_length_c 6.353661
_cell_angle_alpha 85.391788
_cell_angle_beta 41.642014
_cell_angle_gamma 84.127986
_cell_volume 656.484699
_symmetry_space_group_name_H-M "P -1"
_symmetry_group_IT_number 2
_symmetry_cell_setting 'triclinic'
loop_
_space_group_symop_operation_xyz
x,y,z
-x,-y,-z
loop_
_atom_site_type_symbol
_atom_site_label
_atom_site_fract_x
_atom_site_fract_y
_atom_site_fract_z
Si Si1 0.221144 0.240294 0.836348
Si Si2 0.831171 0.091813 0.243319
Si Si3 0.778928 0.961205 0.761262
Si Si4 0.605777 0.278754 0.714738
Si Si5 0.434421 0.374604 0.421962
Si Si6 0.547493 0.870485 0.236743
Si Si7 0.021781 0.444910 0.203631
Si Si8 0.915952 0.156228 0.657821
O O1 0.343664 0.270031 0.531333
O O2 0.192027 0.077785 0.801953
O O3 0.197636 0.200572 0.138060
O O4 0.146957 0.394177 0.923024
O O5 0.722556 0.201626 0.506084
O O6 0.865301 0.012231 0.396607
O O7 0.905043 0.198945 0.925799
O O8 0.795449 0.110494 0.869344
O O9 0.663798 0.934015 0.925125
O O10 0.604469 0.439159 0.553204
O O11 0.533248 0.152585 0.769563
O O12 0.544390 0.335145 0.058887
O O13 0.439160 0.304467 0.654544
O O14 0.500000 0.000000 0.500000
O O15 0.956916 0.282803 0.391461
O O16 0.000000 0.500000 0.500000
O O17 0.000000 0.500000 0.000000
O O18 0.000000 0.000000 0.500000
#
# Coordination Sequence:
#
# PCOD9022052 Si02
#       8
#     2   2   2   2   2   2   2   2
#     4  10  23  45  64 103 137 189 243 307 365 453
#     4  11  23  40  72  99 137 184 250 301 367 447
#     4  10  22  38  69  98 129 181 236 303 358 427
#     4  11  23  40  64 100 136 190 233 304 373 449
#     4  10  23  40  63  95 146 181 239 294 380 443
#     4  11  21  39  64  95 134 179 238 296 358 438
#     4  12  30  50  77 112 153 199 245 316 390 450
#     4  11  24  46  70 100 137 183 247 303 364 445
#
# _framework density 24.372236000000001
#
# number of rings (size 3 to 8) (size 9 to 14) (size 15 to 20)
#    0.000    1.250    2.500    4.125    5.250    2.000 
#    0.000    1.250    0.000    0.000    0.000    0.000 
#    0.000    0.000    0.000    0.000    0.000    0.000 
#
# Total GULP energy -89114.856261 kJ/mol
# GULP energy per Si atom -5569.678516 kJ/mol
# Density = 2.431676 g / cm^3
# Si number density = 24.372236 Si / 1000 Ang^3
#
#
#
# Elastic Constant Matrix: (Units=GPa)
#
#
# Indices 1 2 3 4 5 6 
#
# 1 59.1875 11.2648 14.2634 -7.7137 6.9953 -5.8150
# 2 11.2648 78.6090 36.8808 -21.1688 14.5633 -19.8552
# 3 14.2634 36.8808 109.6226 -27.5363 13.5191 -29.2930
# 4 -7.7137 -21.1688 -27.5363 46.4065 -8.4959 1.1050
# 5 6.9953 14.5633 13.5191 -8.4959 35.0953 -2.9683
# 6 -5.8150 -19.8552 -29.2930 1.1050 -2.9683 44.3241
#
#
#
# Elastic Compliance Matrix: (Units=1/GPa)
#
#
# Indices 1 2 3 4 5 6 
#
# 1 0.017903 -0.000991 -0.001085 0.001434 -0.002308 0.000998
# 2 -0.000991 0.017764 -0.002330 0.005607 -0.004424 0.005852
# 3 -0.001085 -0.002330 0.014007 0.006521 -0.001976 0.007776
# 4 0.001434 0.005607 0.006521 0.028485 0.002317 0.006454
# 5 -0.002308 -0.004424 -0.001976 0.002317 0.031985 -0.001507
# 6 0.000998 0.005852 0.007776 0.006454 -0.001507 0.030190
#
#
# Mechanical properties :
#
#
# Convention : Reuss Voigt Hill
#
# Bulk Modulus (GPa) = 24.47204 41.35969 32.91586
# Shear Modulus (GPa) = 30.71914 37.49919 34.10916
#
# Velocity S-wave (km/s) = 3.55408 3.92676 3.74506
# Velocity P-wave (km/s) = 5.18698 6.12912 5.67762
#
# Compressibility (1/GPa) = 0.04086297
#
# Stress axis : x y z
#
# Youngs Moduli (GPa) = 55.85617 56.29451 71.39371
#
# Poissons Ratio (x) = 0.05578 0.07743
# Poissons Ratio (y) = 0.05535 0.16633
# Poissons Ratio (z) = 0.06058 0.13116
#
# Static dielectric constant tensor:
#      x y z
#    x 2.068650 0.068880 0.099630 
#    y 0.068880 1.995890 -0.015430 
#    z 0.099630 -0.015430 2.064760 
# 
# From -- ./inp_files/106615.got.cif
#   From: 2010.05.17/outbox.cif.g08.bks.cpg/sg2_54_cif.got.tgz:106615.got - 2010.06.03 11:33:40.
