data_PCOD9022321
_publ_section_title
;
Structure prediction by ZEFSAII (Michael W. Deem and Ramdas Pophale) SiO2 
 PCOD9022321
Probable space group: P -1
;
_chemical_formula_sum "Si O2"
_cell_formula_units_Z 16
_cell_length_a 11.729552
_cell_length_b 5.258240
_cell_length_c 11.260123
_cell_angle_alpha 58.120096
_cell_angle_beta 77.597184
_cell_angle_gamma 88.892986
_cell_volume 572.245573
_symmetry_space_group_name_H-M "P -1"
_symmetry_group_IT_number 2
_symmetry_cell_setting 'triclinic'
loop_
_space_group_symop_operation_xyz
x,y,z
-x,-y,-z
loop_
_atom_site_type_symbol
_atom_site_label
_atom_site_fract_x
_atom_site_fract_y
_atom_site_fract_z
Si Si1 0.777251 0.307513 0.279412
Si Si2 0.610236 0.890367 0.865187
Si Si3 0.015775 0.298222 0.166118
Si Si4 0.336306 0.384232 0.323368
Si Si5 0.194242 0.105925 0.005956
Si Si6 0.644957 0.094870 0.135750
Si Si7 0.934784 0.663855 0.582205
Si Si8 0.566709 0.412468 0.391270
O O1 0.886906 0.131893 0.268824
O O2 0.832882 0.645860 0.146928
O O3 0.675554 0.204357 0.233508
O O4 0.694594 0.293690 0.416157
O O5 0.665076 0.757399 0.770817
O O6 0.470758 0.800629 0.920818
O O7 0.633831 0.253143 0.771646
O O8 0.682826 0.782713 0.984416
O O9 0.056382 0.436467 0.252923
O O10 0.000000 0.500000 0.000000
O O11 0.103757 0.081817 0.140750
O O12 0.203837 0.334114 0.415213
O O13 0.453053 0.259162 0.383266
O O14 0.235435 0.837253 0.983855
O O15 0.612120 0.736375 0.244017
O O16 0.000000 0.500000 0.500000
O O17 0.000000 0.000000 0.500000
O O18 0.500000 0.500000 0.500000
#
# Coordination Sequence:
#
# PCOD9022321 Si02
#       8
#     2   2   2   2   2   2   2   2
#     4  10  22  42  62  98 138 175 246 292 364 423
#     4  11  22  41  69 102 136 178 229 288 360 431
#     4  10  24  48  71 106 145 197 250 305 370 444
#     4  11  24  45  71 100 140 184 235 290 363 429
#     4  10  22  40  65  96 138 182 236 293 363 427
#     4  10  22  39  61 100 132 179 229 299 355 436
#     4  12  28  51  77 109 149 195 250 310 370 439
#     4  10  23  42  64  94 134 182 235 292 361 436
#
# _framework density 27.960024000000001
#
# number of rings (size 3 to 8) (size 9 to 14) (size 15 to 20)
#    0.000    1.500    2.500    1.125    3.500    2.500 
#    4.500    0.000    0.000    0.000    0.000    0.000 
#    0.000    0.000    0.000    0.000    0.000    0.000 
#
# Total GULP energy -89331.546807 kJ/mol
# GULP energy per Si atom -5583.221675 kJ/mol
# Density = 2.789639 g / cm^3
# Si number density = 27.960024 Si / 1000 Ang^3
#
#
#
# Elastic Constant Matrix: (Units=GPa)
#
#
# Indices 1 2 3 4 5 6 
#
# 1 162.0777 15.9191 50.6443 10.1227 -47.5196 -22.0506
# 2 15.9191 110.2881 35.5399 16.5005 -22.2219 -11.7233
# 3 50.6443 35.5399 155.5685 28.2690 -37.9749 -20.2322
# 4 10.1227 16.5005 28.2690 48.1884 -10.3555 -17.2591
# 5 -47.5196 -22.2219 -37.9749 -10.3555 67.9958 24.8179
# 6 -22.0506 -11.7233 -20.2322 -17.2591 24.8179 42.3484
#
#
#
# Elastic Compliance Matrix: (Units=1/GPa)
#
#
# Indices 1 2 3 4 5 6 
#
# 1 0.008073 0.000290 -0.001525 0.000463 0.004566 0.001068
# 2 0.000290 0.010315 -0.001457 -0.002223 0.002429 -0.000019
# 3 -0.001525 -0.001457 0.008575 -0.003699 0.002768 -0.000230
# 4 0.000463 -0.002223 -0.003699 0.026707 -0.002026 0.009930
# 5 0.004566 0.002429 0.002768 -0.002026 0.023704 -0.010345
# 6 0.001068 -0.000019 -0.000230 0.009930 -0.010345 0.034165
#
#
# Mechanical properties :
#
#
# Convention : Reuss Voigt Hill
#
# Bulk Modulus (GPa) = 46.33896 70.23786 58.28841
# Shear Modulus (GPa) = 40.28523 53.42860 46.85691
#
# Velocity S-wave (km/s) = 3.79993 4.37612 4.09816
# Velocity P-wave (km/s) = 5.98848 7.12104 6.57917
#
# Compressibility (1/GPa) = 0.02158011
#
# Stress axis : x y z
#
# Youngs Moduli (GPa) = 123.87063 96.95009 116.61566
#
# Poissons Ratio (x) = -0.02815 0.17786
# Poissons Ratio (y) = -0.03597 0.16985
# Poissons Ratio (z) = 0.18893 0.14121
#
# Static dielectric constant tensor:
#      x y z
#    x 2.500310 -0.048190 0.065950 
#    y -0.048190 2.301050 0.077620 
#    z 0.065950 0.077620 2.388230 
# 
# From -- ./inp_files/370345.got.cif
#   From: 2010.05.17/outbox.cif.g08.bks.cpg/sg2_186_cif.got.tgz:370345.got - 2010.06.03 11:33:40.
