data_PCOD9022039
_publ_section_title
;
Structure prediction by ZEFSAII (Michael W. Deem and Ramdas Pophale) SiO2 
 PCOD9022039
Probable space group: P -1
;
_chemical_formula_sum "Si O2"
_cell_formula_units_Z 16
_cell_length_a 19.423005
_cell_length_b 8.658635
_cell_length_c 5.372680
_cell_angle_alpha 75.378357
_cell_angle_beta 58.573577
_cell_angle_gamma 57.479826
_cell_volume 649.635252
_symmetry_space_group_name_H-M "P -1"
_symmetry_group_IT_number 2
_symmetry_cell_setting 'triclinic'
loop_
_space_group_symop_operation_xyz
x,y,z
-x,-y,-z
loop_
_atom_site_type_symbol
_atom_site_label
_atom_site_fract_x
_atom_site_fract_y
_atom_site_fract_z
Si Si1 0.571216 0.567398 0.913029
Si Si2 0.120188 0.245410 0.866377
Si Si3 0.587103 0.094074 0.059748
Si Si4 0.020731 0.291204 0.539207
Si Si5 0.311890 0.901444 0.636912
Si Si6 0.248241 0.650585 0.628049
Si Si7 0.329335 0.336027 0.955552
Si Si8 0.855036 0.430809 0.486695
O O1 0.667696 0.409056 0.696315
O O2 0.594806 0.605017 0.129340
O O3 0.500000 0.500000 0.000000
O O4 0.523524 0.769152 0.793070
O O5 0.070560 0.208373 0.739344
O O6 0.104575 0.451891 0.777439
O O7 0.229251 0.108676 0.705202
O O8 0.086281 0.210234 0.207807
O O9 0.624247 0.126114 0.712367
O O10 0.620954 0.879299 0.085910
O O11 0.631174 0.136559 0.200542
O O12 0.000000 0.500000 0.500000
O O13 0.921827 0.316441 0.634833
O O14 0.259842 0.782234 0.745706
O O15 0.157080 0.706335 0.619241
O O16 0.274633 0.455376 0.776107
O O17 0.245581 0.417442 0.281735
#
# Coordination Sequence:
#
# PCOD9022039 Si02
#       8
#     2   2   2   2   2   2   2   2
#     4  11  24  45  68  98 139 179 231 275 343 404
#     4  11  22  42  68 100 132 175 228 275 334 398
#     4  12  26  45  72  97 139 177 229 288 330 398
#     4  10  22  38  69 102 131 173 222 281 332 397
#     4  12  26  45  69  99 139 183 221 279 344 403
#     4  11  26  42  69  97 138 185 222 279 342 409
#     4  11  25  42  69 102 134 177 228 287 334 397
#     4  10  22  40  66  99 133 172 225 278 335 401
#
# _framework density 24.629207000000001
#
# number of rings (size 3 to 8) (size 9 to 14) (size 15 to 20)
#    0.000    1.000    2.500    4.125   12.250    1.500 
#    0.000    1.250    0.000    0.000    0.000    0.000 
#    0.000    0.000    0.000    0.000    0.000    0.000 
#
# Total GULP energy -89431.210314 kJ/mol
# GULP energy per Si atom -5589.450645 kJ/mol
# Density = 2.457315 g / cm^3
# Si number density = 24.629207 Si / 1000 Ang^3
#
#
#
# Elastic Constant Matrix: (Units=GPa)
#
#
# Indices 1 2 3 4 5 6 
#
# 1 161.7212 -14.0329 36.2435 1.8293 27.2404 -0.3343
# 2 -14.0329 12.7444 17.2011 -2.1215 3.4131 5.0344
# 3 36.2435 17.2011 78.4381 3.9755 25.3229 5.5585
# 4 1.8293 -2.1215 3.9755 23.8382 -1.3376 0.5196
# 5 27.2404 3.4131 25.3229 -1.3376 38.8807 -2.0408
# 6 -0.3343 5.0344 5.5585 0.5196 -2.0408 39.1899
#
#
#
# Elastic Compliance Matrix: (Units=1/GPa)
#
#
# Indices 1 2 3 4 5 6 
#
# 1 0.011870 0.030361 -0.010877 0.003440 -0.003911 -0.002505
# 2 0.030361 0.201632 -0.057838 0.025573 -0.001359 -0.017849
# 3 -0.010877 -0.057838 0.033964 -0.010567 -0.009673 0.002156
# 4 0.003440 0.025573 -0.010567 0.045978 0.003694 -0.002174
# 5 -0.003911 -0.001359 -0.009673 0.003694 0.035179 0.003296
# 6 -0.002505 -0.017849 0.002156 -0.002174 0.003296 0.027683
#
#
# Mechanical properties :
#
#
# Convention : Reuss Voigt Hill
#
# Bulk Modulus (GPa) = 5.85625 36.85856 21.35741
# Shear Modulus (GPa) = 10.20544 34.61456 22.41000
#
# Velocity S-wave (km/s) = 2.03780 3.75297 3.01972
# Velocity P-wave (km/s) = 2.81421 5.81185 4.56604
#
# Compressibility (1/GPa) = 0.17075764
#
# Stress axis : x y z
#
# Youngs Moduli (GPa) = 84.24401 4.95952 29.44287
#
# Poissons Ratio (x) = -0.15058 0.32026
# Poissons Ratio (y) = -2.55773 1.70293
# Poissons Ratio (z) = 0.91634 0.28685
#
# Static dielectric constant tensor:
#      x y z
#    x 1.997580 0.005290 -0.060760 
#    y 0.005290 1.965380 0.013230 
#    z -0.060760 0.013230 2.052580 
# 
# From -- ./inp_files/37629.got.cif
#   From: 2010.05.17/outbox.cif.g08.bks.cpg/sg2_19_cif.got.tgz:37629.got - 2010.06.03 11:33:40.
