data_PCOD9022092
_publ_section_title
;
Structure prediction by ZEFSAII (Michael W. Deem and Ramdas Pophale) SiO2 
 PCOD9022092
Probable space group: P -1
;
_chemical_formula_sum "Si O2"
_cell_formula_units_Z 16
_cell_length_a 10.017505
_cell_length_b 11.527828
_cell_length_c 11.946651
_cell_angle_alpha 53.446781
_cell_angle_beta 63.503424
_cell_angle_gamma 98.930652
_cell_volume 804.031700
_symmetry_space_group_name_H-M "P -1"
_symmetry_group_IT_number 2
_symmetry_cell_setting 'triclinic'
loop_
_space_group_symop_operation_xyz
x,y,z
-x,-y,-z
loop_
_atom_site_type_symbol
_atom_site_label
_atom_site_fract_x
_atom_site_fract_y
_atom_site_fract_z
Si Si1 0.988984 0.238196 0.389599
Si Si2 0.861660 0.946459 0.422560
Si Si3 0.911681 0.941569 0.945208
Si Si4 0.817098 0.349341 0.947619
Si Si5 0.791346 0.562411 0.193350
Si Si6 0.350040 0.949862 0.991072
Si Si7 0.568115 0.244590 0.307169
Si Si8 0.377230 0.799339 0.443084
O O1 0.066485 0.160904 0.487532
O O2 0.122965 0.450387 0.202957
O O3 0.793993 0.195174 0.526260
O O4 0.950807 0.131170 0.349947
O O5 0.642887 0.832160 0.581668
O O6 0.930582 0.989057 0.245710
O O7 0.796530 0.020673 0.923023
O O8 0.782903 0.727617 0.112774
O O9 0.000000 0.000000 0.000000
O O10 0.752402 0.244690 0.914611
O O11 0.996463 0.366784 0.916796
O O12 0.657141 0.241806 0.161005
O O13 0.696505 0.452390 0.178660
O O14 0.688599 0.405434 0.414806
O O15 0.500000 0.000000 0.000000
O O16 0.455637 0.081521 0.770436
O O17 0.584881 0.155306 0.464107
#
# Coordination Sequence:
#
# PCOD9022092 Si02
#       8
#     2   2   2   2   2   2   2   2
#     4  10  23  43  66  91 132 164 202 266 322 380
#     4  11  24  41  63  97 128 166 207 258 326 367
#     4  12  24  42  64  89 134 168 209 258 310 375
#     4  11  22  43  66  95 127 164 214 257 323 368
#     4   9  22  40  65 100 120 161 208 269 317 361
#     4  12  26  43  64  93 128 177 210 250 308 386
#     4  10  22  38  71  99 119 155 215 275 307 363
#     4   9  22  43  64  97 120 162 216 258 315 360
#
# _framework density 19.899712999999998
#
# number of rings (size 3 to 8) (size 9 to 14) (size 15 to 20)
#    0.750    0.750    1.250    3.375    1.750    4.000 
#    2.250    1.875    0.000    0.000    0.000    0.000 
#    0.000    0.000    0.000    0.000    0.000    0.000 
#
# Total GULP energy -89347.533374 kJ/mol
# GULP energy per Si atom -5584.220836 kJ/mol
# Density = 1.985442 g / cm^3
# Si number density = 19.899713 Si / 1000 Ang^3
#
#
#
# Elastic Constant Matrix: (Units=GPa)
#
#
# Indices 1 2 3 4 5 6 
#
# 1 83.6679 39.5778 0.1952 -15.7358 -4.1167 16.6290
# 2 39.5778 130.6077 35.3455 -21.1030 4.0706 13.1151
# 3 0.1952 35.3455 61.9290 -0.1272 -7.5572 5.8736
# 4 -15.7358 -21.1030 -0.1272 23.4150 1.8746 3.0257
# 5 -4.1167 4.0706 -7.5572 1.8746 22.6725 -0.9362
# 6 16.6290 13.1151 5.8736 3.0257 -0.9362 22.3879
#
#
#
# Elastic Compliance Matrix: (Units=1/GPa)
#
#
# Indices 1 2 3 4 5 6 
#
# 1 0.018689 -0.003683 0.003869 0.010765 0.003875 -0.014032
# 2 -0.003683 0.013331 -0.007957 0.010648 -0.006789 -0.004710
# 3 0.003869 -0.007957 0.022142 -0.004853 0.009790 -0.002956
# 4 0.010765 0.010648 -0.004853 0.062943 -0.007678 -0.021788
# 5 0.003875 -0.006789 0.009790 -0.007678 0.049995 0.001659
# 6 -0.014032 -0.004710 -0.002956 -0.021788 0.001659 0.061638
#
#
# Mechanical properties :
#
#
# Convention : Reuss Voigt Hill
#
# Bulk Modulus (GPa) = 25.89315 47.38241 36.63778
# Shear Modulus (GPa) = 19.44369 27.10082 23.27225
#
# Velocity S-wave (km/s) = 3.12923 3.69436 3.42347
# Velocity P-wave (km/s) = 5.10844 6.48537 5.83764
#
# Compressibility (1/GPa) = 0.03862025
#
# Stress axis : x y z
#
# Youngs Moduli (GPa) = 53.50697 75.01445 45.16370
#
# Poissons Ratio (x) = 0.27625 -0.17473
# Poissons Ratio (y) = 0.19705 0.35936
# Poissons Ratio (z) = -0.20700 0.59687
#
# Static dielectric constant tensor:
#      x y z
#    x 1.682290 0.013170 0.004460 
#    y 0.013170 1.738820 -0.025660 
#    z 0.004460 -0.025660 1.693390 
# 
# From -- ./inp_files/392037.got.cif
#   From: 2010.05.17/outbox.cif.g08.bks.cpg/sg2_197_cif.got.tgz:392037.got - 2010.06.03 11:33:40.
