data_PCOD9022268
_publ_section_title
;
Structure prediction by ZEFSAII (Michael W. Deem and Ramdas Pophale) SiO2 
 PCOD9022268
Probable space group: P -1
;
_chemical_formula_sum "Si O2"
_cell_formula_units_Z 14
_cell_length_a 11.872939
_cell_length_b 9.431674
_cell_length_c 10.740897
_cell_angle_alpha 55.871471
_cell_angle_beta 44.843776
_cell_angle_gamma 76.917433
_cell_volume 671.135967
_symmetry_space_group_name_H-M "P -1"
_symmetry_group_IT_number 2
_symmetry_cell_setting 'triclinic'
loop_
_space_group_symop_operation_xyz
x,y,z
-x,-y,-z
loop_
_atom_site_type_symbol
_atom_site_label
_atom_site_fract_x
_atom_site_fract_y
_atom_site_fract_z
Si Si1 0.074962 0.029273 0.724935
Si Si2 0.783334 0.632899 0.712886
Si Si3 0.265581 0.027867 0.829836
Si Si4 0.857269 0.320131 0.236487
Si Si5 0.509974 0.407871 0.874450
Si Si6 0.542204 0.327339 0.608420
Si Si7 0.294969 0.658771 0.914677
O O1 0.100483 0.203239 0.533192
O O2 0.213667 0.066763 0.709840
O O3 0.083922 0.857675 0.721772
O O4 0.897544 0.979772 0.957177
O O5 0.686549 0.474651 0.771696
O O6 0.638333 0.698632 0.864501
O O7 0.839955 0.518426 0.833110
O O8 0.298102 0.835129 0.899326
O O9 0.422937 0.165581 0.703024
O O10 0.736473 0.341039 0.430969
O O11 0.741964 0.298409 0.216022
O O12 0.000000 0.500000 0.000000
O O13 0.504799 0.320177 0.788345
O O14 0.458471 0.592635 0.812737
O O15 0.500000 0.500000 0.500000
#
# Coordination Sequence:
#
# PCOD9022268 Si02
#       7
#     2   2   2   2   2   2   2
#     4  10  22  39  60  89 124 160 194 257 290 355
#     4   9  19  39  63  83 125 156 198 240 307 352
#     4  10  23  38  62  92 119 154 213 239 299 351
#     4  11  24  39  61  90 125 153 201 248 305 344
#     4   9  20  36  62  89 121 152 200 246 297 350
#     4  12  21  37  63  89 117 159 199 252 293 353
#     4   9  20  40  62  85 119 163 194 246 290 368
#
# _framework density 20.860153
#
# number of rings (size 3 to 8) (size 9 to 14) (size 15 to 20)
#    0.857    1.143    1.429    1.714    2.000    4.000 
#    0.000    5.714    0.000    0.000    0.000    0.000 
#    0.000    0.000    0.000    0.000    0.000    0.000 
#
# Total GULP energy -77995.817831 kJ/mol
# GULP energy per Si atom -5571.129845 kJ/mol
# Density = 2.081267 g / cm^3
# Si number density = 20.860153 Si / 1000 Ang^3
#
#
#
# Elastic Constant Matrix: (Units=GPa)
#
#
# Indices 1 2 3 4 5 6 
#
# 1 15.8739 6.6539 6.2226 7.2698 -0.1485 3.3451
# 2 6.6539 96.2922 31.9981 10.5387 -2.2010 0.0300
# 3 6.2226 31.9981 95.6758 -1.6564 2.9607 10.1900
# 4 7.2698 10.5387 -1.6564 24.6839 -6.1964 9.5079
# 5 -0.1485 -2.2010 2.9607 -6.1964 29.9779 -0.8407
# 6 3.3451 0.0300 10.1900 9.5079 -0.8407 24.0807
#
#
#
# Elastic Compliance Matrix: (Units=1/GPa)
#
#
# Indices 1 2 3 4 5 6 
#
# 1 0.075982 -0.001140 -0.004912 -0.023494 -0.004060 0.000660
# 2 -0.001140 0.012923 -0.004932 -0.007507 0.000024 0.005194
# 3 -0.004912 -0.004932 0.013405 0.007402 -0.000403 -0.007920
# 4 -0.023494 -0.007507 0.007402 0.063324 0.011004 -0.024477
# 5 -0.004060 0.000024 -0.000403 0.011004 0.035587 -0.002368
# 6 0.000660 0.005194 -0.007920 -0.024477 -0.002368 0.054362
#
#
# Mechanical properties :
#
#
# Convention : Reuss Voigt Hill
#
# Bulk Modulus (GPa) = 12.44660 33.06571 22.75615
# Shear Modulus (GPa) = 16.42935 26.61298 21.52116
#
# Velocity S-wave (km/s) = 2.80946 3.57568 3.21547
# Velocity P-wave (km/s) = 4.06247 5.73872 4.97175
#
# Compressibility (1/GPa) = 0.08034326
#
# Stress axis : x y z
#
# Youngs Moduli (GPa) = 13.16094 77.37958 74.59884
#
# Poissons Ratio (x) = 0.08821 0.36642
# Poissons Ratio (y) = 0.01500 0.36791
# Poissons Ratio (z) = 0.06465 0.38163
#
# Static dielectric constant tensor:
#      x y z
#    x 1.799140 -0.000660 -0.015260 
#    y -0.000660 1.757680 0.015480 
#    z -0.015260 0.015480 1.768860 
# 
# From -- ./inp_files/351837.got.cif
#   From: 2010.05.17/outbox.cif.g08.bks.cpg/sg2_176_cif.got.tgz:351837.got - 2010.06.03 11:33:40.
