data_PCOD9022922
_publ_section_title
;
Structure prediction by ZEFSAII (Michael W. Deem and Ramdas Pophale) SiO2 
 PCOD9022922
Probable space group: P -1
;
_chemical_formula_sum "Si O2"
_cell_formula_units_Z 16
_cell_length_a 12.889036
_cell_length_b 9.980945
_cell_length_c 11.959108
_cell_angle_alpha 51.292562
_cell_angle_beta 44.383513
_cell_angle_gamma 45.332634
_cell_volume 741.583483
_symmetry_space_group_name_H-M "P -1"
_symmetry_group_IT_number 2
_symmetry_cell_setting 'triclinic'
loop_
_space_group_symop_operation_xyz
x,y,z
-x,-y,-z
loop_
_atom_site_type_symbol
_atom_site_label
_atom_site_fract_x
_atom_site_fract_y
_atom_site_fract_z
Si Si1 0.624220 0.116010 0.126357
Si Si2 0.304584 0.908060 0.653969
Si Si3 0.647265 0.850657 0.043000
Si Si4 0.034584 0.482716 0.642928
Si Si5 0.982355 0.367835 0.179808
Si Si6 0.634441 0.458091 0.320918
Si Si7 0.278915 0.264491 0.377343
Si Si8 0.947447 0.136502 0.860485
O O1 0.669682 0.063002 0.250129
O O2 0.430244 0.280174 0.192252
O O3 0.640811 0.945070 0.120206
O O4 0.763981 0.175923 0.946034
O O5 0.386123 0.682596 0.679860
O O6 0.360606 0.039623 0.469258
O O7 0.105303 0.009311 0.727644
O O8 0.626485 0.656030 0.175379
O O9 0.827210 0.803200 0.874514
O O10 0.500000 0.000000 0.000000
O O11 0.066075 0.518867 0.725295
O O12 0.882589 0.674737 0.607934
O O13 0.961890 0.328975 0.774891
O O14 0.196802 0.395855 0.482381
O O15 0.824169 0.338402 0.284883
O O16 0.000000 0.500000 0.000000
O O17 0.500000 0.500000 0.500000
O O18 0.000000 0.000000 0.000000
#
# Coordination Sequence:
#
# PCOD9022922 Si02
#       8
#     2   2   2   2   2   2   2   2
#     4  11  22  38  68  90 127 168 216 258 320 381
#     4  10  22  40  63  93 126 165 216 262 315 385
#     4  11  25  45  66  98 136 175 219 272 333 393
#     4  10  22  42  60  96 127 170 206 271 324 387
#     4  10  24  39  70  88 133 177 223 253 338 393
#     4  11  25  42  67  98 133 170 225 271 325 397
#     4  10  22  39  65  90 132 162 211 267 327 379
#     4   9  21  35  63  90 127 155 220 260 307 376
#
# _framework density 21.575453
#
# number of rings (size 3 to 8) (size 9 to 14) (size 15 to 20)
#    0.000    1.750    0.000    2.625   19.250    0.500 
#    2.250    3.750    0.000    0.000    0.000    0.000 
#    0.000    0.000    0.000    0.000    0.000    0.000 
#
# Total GULP energy -89265.438950 kJ/mol
# GULP energy per Si atom -5579.089934 kJ/mol
# Density = 2.152635 g / cm^3
# Si number density = 21.575453 Si / 1000 Ang^3
#
#
#
# Elastic Constant Matrix: (Units=GPa)
#
#
# Indices 1 2 3 4 5 6 
#
# 1 87.5941 58.8534 31.6597 9.7043 -4.3983 13.7685
# 2 58.8534 94.9273 28.0800 0.8680 -5.1262 8.4389
# 3 31.6597 28.0800 75.9943 19.2795 -20.6363 -0.0009
# 4 9.7043 0.8680 19.2795 31.8504 -11.6861 -0.5848
# 5 -4.3983 -5.1262 -20.6363 -11.6861 42.4241 18.9583
# 6 13.7685 8.4389 -0.0009 -0.5848 18.9583 35.0949
#
#
#
# Elastic Compliance Matrix: (Units=1/GPa)
#
#
# Indices 1 2 3 4 5 6 
#
# 1 0.022385 -0.012180 -0.003547 -0.004156 0.000825 -0.006368
# 2 -0.012180 0.019025 -0.003001 0.005461 0.001251 -0.000381
# 3 -0.003547 -0.003001 0.019886 -0.008096 0.007683 -0.002172
# 4 -0.004156 0.005461 -0.008096 0.040762 0.009325 -0.004041
# 5 0.000825 0.001251 0.007683 0.009325 0.039973 -0.022062
# 6 -0.006368 -0.000381 -0.002172 -0.004041 -0.022062 0.042935
#
#
# Mechanical properties :
#
#
# Convention : Reuss Voigt Hill
#
# Bulk Modulus (GPa) = 41.94878 55.07798 48.51338
# Shear Modulus (GPa) = 21.70433 31.20207 26.45320
#
# Velocity S-wave (km/s) = 3.17515 3.80700 3.50534
# Velocity P-wave (km/s) = 5.73822 6.70133 6.23839
#
# Compressibility (1/GPa) = 0.02383859
#
# Stress axis : x y z
#
# Youngs Moduli (GPa) = 44.67295 52.56139 50.28766
#
# Poissons Ratio (x) = 0.64022 0.17836
# Poissons Ratio (y) = 0.54414 0.15093
# Poissons Ratio (z) = 0.15845 0.15775
#
# Static dielectric constant tensor:
#      x y z
#    x 1.758020 -0.030430 0.055190 
#    y -0.030430 1.841440 0.000220 
#    z 0.055190 0.000220 1.669640 
# 
# From -- ./inp_files/419100.got.cif
#   From: 2010.05.17/outbox.cif.g08.bks.cpg/sg2_210_cif.got.tgz:419100.got - 2010.06.03 11:33:40.
