data_PCOD9022653
_publ_section_title
;
Structure prediction by ZEFSAII (Michael W. Deem and Ramdas Pophale) SiO2 
 PCOD9022653
Probable space group: P -1
;
_chemical_formula_sum "Si O2"
_cell_formula_units_Z 14
_cell_length_a 11.764492
_cell_length_b 14.854092
_cell_length_c 14.060650
_cell_angle_alpha 161.036248
_cell_angle_beta 46.375740
_cell_angle_gamma 131.900467
_cell_volume 576.775324
_symmetry_space_group_name_H-M "P -1"
_symmetry_group_IT_number 2
_symmetry_cell_setting 'triclinic'
loop_
_space_group_symop_operation_xyz
x,y,z
-x,-y,-z
loop_
_atom_site_type_symbol
_atom_site_label
_atom_site_fract_x
_atom_site_fract_y
_atom_site_fract_z
Si Si1 0.159921 0.355468 0.032565
Si Si2 0.362206 0.743915 0.986139
Si Si3 0.237767 0.208176 0.416891
Si Si4 0.913708 0.322970 0.789697
Si Si5 0.336864 0.877251 0.514540
Si Si6 0.694985 0.967134 0.092666
Si Si7 0.168461 0.485890 0.536600
O O1 0.139533 0.466455 0.049135
O O2 0.301192 0.551836 0.192617
O O3 0.002037 0.417123 0.241009
O O4 0.201996 0.039686 0.701149
O O5 0.238996 0.823495 0.218974
O O6 0.534866 0.807251 0.989075
O O7 0.324581 0.929545 0.101993
O O8 0.321005 0.429775 0.663277
O O9 0.236814 0.343630 0.449102
O O10 0.053594 0.151983 0.495385
O O11 0.000000 0.500000 0.000000
O O12 0.500000 0.000000 0.500000
O O13 0.323507 0.948124 0.703389
O O14 0.731618 0.243442 0.286552
O O15 0.829724 0.752862 0.782900
#
# Coordination Sequence:
#
# PCOD9022653 Si02
#       7
#     2   2   2   2   2   2   2
#     4  11  25  45  70  94 132 172 207 270 320 373
#     4  11  22  38  62  93 130 171 209 263 325 367
#     4  10  22  39  63  93 129 168 210 265 318 384
#     4   9  21  40  66  97 127 163 214 261 320 387
#     4  12  27  46  69  98 128 165 215 268 326 377
#     4  12  26  42  65  94 130 172 220 266 307 386
#     4  11  25  44  65  97 129 170 222 257 317 385
#
# _framework density 24.272884000000001
#
# number of rings (size 3 to 8) (size 9 to 14) (size 15 to 20)
#    0.000    1.143    0.000    5.143    0.000   18.286 
#    0.000    0.000    0.000    0.000    0.000    0.000 
#    0.000    0.000    0.000    0.000    0.000    0.000 
#
# Total GULP energy -78508.205226 kJ/mol
# GULP energy per Si atom -5607.728945 kJ/mol
# Density = 2.421764 g / cm^3
# Si number density = 24.272884 Si / 1000 Ang^3
#
#
#
# Elastic Constant Matrix: (Units=GPa)
#
#
# Indices 1 2 3 4 5 6 
#
# 1 66.6917 38.9580 2.2110 -10.7447 0.7433 1.5806
# 2 38.9580 133.6136 17.3110 1.7056 6.4129 -7.5466
# 3 2.2110 17.3110 79.8220 10.7228 -0.8872 -2.0416
# 4 -10.7447 1.7056 10.7228 29.6286 -2.6878 9.4412
# 5 0.7433 6.4129 -0.8872 -2.6878 40.5556 2.0475
# 6 1.5806 -7.5466 -2.0416 9.4412 2.0475 19.0049
#
#
#
# Elastic Compliance Matrix: (Units=1/GPa)
#
#
# Indices 1 2 3 4 5 6 
#
# 1 0.021267 -0.006942 -0.000965 0.012108 0.002038 -0.010863
# 2 -0.006942 0.010249 -0.001164 -0.005236 -0.002238 0.007364
# 3 -0.000965 -0.001164 0.013822 -0.006722 -0.000167 0.004460
# 4 0.012108 -0.005236 -0.006722 0.050796 0.005321 -0.029616
# 5 0.002038 -0.002238 -0.000167 0.005321 0.025650 -0.006482
# 6 -0.010863 0.007364 0.004460 -0.029616 -0.006482 0.072336
#
#
# Mechanical properties :
#
#
# Convention : Reuss Voigt Hill
#
# Bulk Modulus (GPa) = 36.76881 44.12081 40.44481
# Shear Modulus (GPa) = 22.59102 32.61431 27.60266
#
# Velocity S-wave (km/s) = 3.05406 3.66956 3.37587
# Velocity P-wave (km/s) = 5.25523 6.01421 5.64748
#
# Compressibility (1/GPa) = 0.02719696
#
# Stress axis : x y z
#
# Youngs Moduli (GPa) = 47.02178 97.56869 72.34756
#
# Poissons Ratio (x) = 0.67729 0.06984
# Poissons Ratio (y) = 0.32641 0.08419
# Poissons Ratio (z) = 0.04539 0.11353
#
# Static dielectric constant tensor:
#      x y z
#    x 1.913500 0.000990 -0.003120 
#    y 0.000990 1.919480 -0.048280 
#    z -0.003120 -0.048280 1.907590 
# 
# From -- ./inp_files/522016.got.cif
#   From: 2010.05.17/outbox.cif.g08.bks.cpg/sg2_262_cif.got.tgz:522016.got - 2010.06.03 11:33:40.
