data_PCOD9022129
_publ_section_title
;
Structure prediction by ZEFSAII (Michael W. Deem and Ramdas Pophale) SiO2 
 PCOD9022129
Probable space group: P -1
;
_chemical_formula_sum "Si O2"
_cell_formula_units_Z 12
_cell_length_a 8.962425
_cell_length_b 11.075777
_cell_length_c 8.861288
_cell_angle_alpha 92.404676
_cell_angle_beta 46.494083
_cell_angle_gamma 117.189601
_cell_volume 514.342827
_symmetry_space_group_name_H-M "P -1"
_symmetry_group_IT_number 2
_symmetry_cell_setting 'triclinic'
loop_
_space_group_symop_operation_xyz
x,y,z
-x,-y,-z
loop_
_atom_site_type_symbol
_atom_site_label
_atom_site_fract_x
_atom_site_fract_y
_atom_site_fract_z
Si Si1 0.700558 0.007649 0.247964
Si Si2 0.654082 0.936641 0.838711
Si Si3 0.214384 0.121294 0.565591
Si Si4 0.714744 0.408158 0.381075
Si Si5 0.072486 0.330680 0.983096
Si Si6 0.467844 0.281329 0.835882
O O1 0.870878 0.163448 0.054052
O O2 0.500000 0.000000 0.500000
O O3 0.877858 0.997547 0.242036
O O4 0.578825 0.863967 0.222689
O O5 0.950769 0.072156 0.674121
O O6 0.647557 0.905404 0.664398
O O7 0.500000 0.000000 0.000000
O O8 0.550690 0.777178 0.984465
O O9 0.433988 0.277859 0.499788
O O10 0.698494 0.409788 0.574272
O O11 0.911976 0.371182 0.194686
O O12 0.801849 0.555833 0.237102
O O13 0.268116 0.320708 0.947037
#
# Coordination Sequence:
#
# PCOD9022129 Si02
#       6
#     2   2   2   2   2   2
#     4  11  19  36  66  89 115 147 201 247 292 342
#     4  11  24  36  61  86 117 155 201 244 287 336
#     4  10  22  39  56  89 116 154 195 241 291 344
#     4  10  24  38  62  89 123 153 189 244 296 358
#     4  11  21  38  62  92 121 151 191 242 304 346
#     4  11  22  37  61  91 113 154 200 247 285 344
#
# _framework density 23.330742999999998
#
# number of rings (size 3 to 8) (size 9 to 14) (size 15 to 20)
#    0.000    1.333    5.000    2.000    2.333    0.000 
#    0.000    0.833    0.000    5.000    0.000    0.000 
#    0.000    0.000    0.000    0.000    0.000    0.000 
#
# Total GULP energy -66966.773317 kJ/mol
# GULP energy per Si atom -5580.564443 kJ/mol
# Density = 2.327764 g / cm^3
# Si number density = 23.330743 Si / 1000 Ang^3
#
#
#
# Elastic Constant Matrix: (Units=GPa)
#
#
# Indices 1 2 3 4 5 6 
#
# 1 80.3459 22.2360 38.2567 -0.3055 8.2204 -24.6350
# 2 22.2360 56.7379 35.4716 -8.6155 6.7070 -27.5808
# 3 38.2567 35.4716 135.2719 -16.3434 14.5044 -19.0934
# 4 -0.3055 -8.6155 -16.3434 52.5615 -18.4756 8.2078
# 5 8.2204 6.7070 14.5044 -18.4756 54.6858 6.3954
# 6 -24.6350 -27.5808 -19.0934 8.2078 6.3954 38.7036
#
#
#
# Elastic Compliance Matrix: (Units=1/GPa)
#
#
# Indices 1 2 3 4 5 6 
#
# 1 0.018138 0.001019 -0.003702 -0.004471 -0.004805 0.012187
# 2 0.001019 0.031453 -0.005036 -0.001901 -0.005885 0.021954
# 3 -0.003702 -0.005036 0.009882 0.002277 -0.000506 -0.001469
# 4 -0.004471 -0.001901 0.002277 0.024331 0.009672 -0.009835
# 5 -0.004805 -0.005885 -0.000506 0.009672 0.024727 -0.013639
# 6 0.012187 0.021954 -0.001469 -0.009835 -0.013639 0.052854
#
#
# Mechanical properties :
#
#
# Convention : Reuss Voigt Hill
#
# Bulk Modulus (GPa) = 22.70860 51.58714 37.14787
# Shear Modulus (GPa) = 26.10966 40.94959 33.52963
#
# Velocity S-wave (km/s) = 3.34894 4.19403 3.79508
# Velocity P-wave (km/s) = 4.97075 6.75370 5.92962
#
# Compressibility (1/GPa) = 0.04403618
#
# Stress axis : x y z
#
# Youngs Moduli (GPa) = 55.13258 31.79393 101.19482
#
# Poissons Ratio (x) = -0.03241 0.37459
# Poissons Ratio (y) = -0.05620 0.50961
# Poissons Ratio (z) = 0.20408 0.16011
#
# Static dielectric constant tensor:
#      x y z
#    x 1.943730 -0.022490 0.000080 
#    y -0.022490 1.879120 0.000270 
#    z 0.000080 0.000270 1.949790 
# 
# From -- ./inp_files/178637.got.cif
#   From: 2010.05.17/outbox.cif.g08.bks.cpg/sg2_90_cif.got.tgz:178637.got - 2010.06.03 11:33:40.
