data_PCOD9022887
_publ_section_title
;
Structure prediction by ZEFSAII (Michael W. Deem and Ramdas Pophale) SiO2 
 PCOD9022887
Probable space group: P -1
;
_chemical_formula_sum "Si O2"
_cell_formula_units_Z 14
_cell_length_a 12.560797
_cell_length_b 7.852091
_cell_length_c 20.574101
_cell_angle_alpha 70.233954
_cell_angle_beta 21.364801
_cell_angle_gamma 62.630488
_cell_volume 630.606844
_symmetry_space_group_name_H-M "P -1"
_symmetry_group_IT_number 2
_symmetry_cell_setting 'triclinic'
loop_
_space_group_symop_operation_xyz
x,y,z
-x,-y,-z
loop_
_atom_site_type_symbol
_atom_site_label
_atom_site_fract_x
_atom_site_fract_y
_atom_site_fract_z
Si Si1 0.865161 0.913141 0.829533
Si Si2 0.689486 0.492099 0.825828
Si Si3 0.480583 0.740574 0.289358
Si Si4 0.523153 0.672496 0.421064
Si Si5 0.591739 0.709301 0.093301
Si Si6 0.844915 0.818289 0.318595
Si Si7 0.273072 0.113921 0.294886
O O1 0.157402 0.844588 0.620664
O O2 0.644304 0.059613 0.783972
O O3 0.913923 0.076981 0.824883
O O4 0.883806 0.729144 0.887143
O O5 0.574136 0.387474 0.848347
O O6 0.649873 0.705575 0.795715
O O7 0.052256 0.348304 0.661683
O O8 0.500000 0.500000 0.000000
O O9 0.573506 0.649864 0.318861
O O10 0.661754 0.620270 0.137646
O O11 0.104837 0.785895 0.487628
O O12 0.470976 0.964644 0.260225
O O13 0.500000 0.500000 0.500000
O O14 0.801867 0.723179 0.288332
O O15 0.500000 0.000000 0.000000
O O16 0.500000 0.000000 0.500000
#
# Coordination Sequence:
#
# PCOD9022887 Si02
#       7
#     2   2   2   2   2   2   2
#     4  11  21  40  68  93 132 177 228 287 330 392
#     4  12  24  38  71 108 128 173 244 287 329 406
#     4   9  21  41  62  93 139 184 212 280 354 399
#     4  11  24  42  67  97 136 178 226 275 338 425
#     4  10  22  39  65 100 133 171 228 295 342 377
#     4  10  24  38  62  99 138 175 223 276 355 399
#     4   9  21  39  64  98 135 176 229 282 345 390
#
# _framework density 22.200838999999998
#
# number of rings (size 3 to 8) (size 9 to 14) (size 15 to 20)
#    0.857    0.857    1.429    2.571    6.000    0.571 
#    0.000    5.714    0.000    0.000    0.000    0.000 
#    0.000    0.000    0.000    0.000    0.000    0.000 
#
# Total GULP energy -78009.039273 kJ/mol
# GULP energy per Si atom -5572.074234 kJ/mol
# Density = 2.215031 g / cm^3
# Si number density = 22.200839 Si / 1000 Ang^3
#
#
#
# Elastic Constant Matrix: (Units=GPa)
#
#
# Indices 1 2 3 4 5 6 
#
# 1 173.8257 49.3682 53.9226 -19.6962 15.2636 -3.5642
# 2 49.3682 114.5515 29.9743 -21.7371 2.0259 -5.8367
# 3 53.9226 29.9743 99.3965 -13.2778 13.8414 3.1297
# 4 -19.6962 -21.7371 -13.2778 36.0248 -5.7258 0.0296
# 5 15.2636 2.0259 13.8414 -5.7258 44.4599 -6.9187
# 6 -3.5642 -5.8367 3.1297 0.0296 -6.9187 38.8282
#
#
#
# Elastic Compliance Matrix: (Units=1/GPa)
#
#
# Indices 1 2 3 4 5 6 
#
# 1 0.007621 -0.002136 -0.003120 0.001523 -0.001290 0.000399
# 2 -0.002136 0.011180 -0.001827 0.005183 0.001762 0.001942
# 3 -0.003120 -0.001827 0.012995 0.001501 -0.003032 -0.002150
# 4 0.001523 0.005183 0.001501 0.032780 0.003204 0.001344
# 5 -0.001290 0.001762 -0.003032 0.003204 0.024964 0.004837
# 6 0.000399 0.001942 -0.002150 0.001344 0.004837 0.027117
#
#
# Mechanical properties :
#
#
# Convention : Reuss Voigt Hill
#
# Bulk Modulus (GPa) = 56.72121 72.70043 64.71082
# Shear Modulus (GPa) = 36.57665 40.82980 38.70322
#
# Velocity S-wave (km/s) = 4.06339 4.29314 4.17984
# Velocity P-wave (km/s) = 6.90068 7.57578 7.24610
#
# Compressibility (1/GPa) = 0.01763009
#
# Stress axis : x y z
#
# Youngs Moduli (GPa) = 131.20972 89.44892 76.95451
#
# Poissons Ratio (x) = 0.19107 0.24010
# Poissons Ratio (y) = 0.28028 0.14057
# Poissons Ratio (z) = 0.40937 0.16339
#
# Static dielectric constant tensor:
#      x y z
#    x 1.865170 -0.040870 0.039820 
#    y -0.040870 2.041460 0.113400 
#    z 0.039820 0.113400 1.970970 
# 
# From -- ./inp_files/543182.got.cif
#   From: 2010.05.17/outbox.cif.g08.bks.cpg/sg2_272_cif.got.tgz:543182.got - 2010.06.03 11:33:40.
