data_PCOD9022813
_publ_section_title
;
Structure prediction by ZEFSAII (Michael W. Deem and Ramdas Pophale) SiO2 
 PCOD9022813
Probable space group: P -1
;
_chemical_formula_sum "Si O2"
_cell_formula_units_Z 16
_cell_length_a 12.025717
_cell_length_b 18.139205
_cell_length_c 16.873979
_cell_angle_alpha 21.907863
_cell_angle_beta 143.867330
_cell_angle_gamma 143.778155
_cell_volume 781.768148
_symmetry_space_group_name_H-M "P -1"
_symmetry_group_IT_number 2
_symmetry_cell_setting 'triclinic'
loop_
_space_group_symop_operation_xyz
x,y,z
-x,-y,-z
loop_
_atom_site_type_symbol
_atom_site_label
_atom_site_fract_x
_atom_site_fract_y
_atom_site_fract_z
Si Si1 0.883860 0.131481 0.108909
Si Si2 0.694126 0.586828 0.917929
Si Si3 0.543725 0.488042 0.298765
Si Si4 0.836904 0.357429 0.700296
Si Si5 0.551139 0.810604 0.759282
Si Si6 0.611534 0.328223 0.832596
Si Si7 0.130421 0.195165 0.924953
Si Si8 0.804159 0.688759 0.465677
O O1 0.816298 0.193468 0.922206
O O2 0.716275 0.148801 0.056846
O O3 0.079578 0.304093 0.070457
O O4 0.921173 0.909096 0.343989
O O5 0.576896 0.615253 0.743373
O O6 0.623690 0.691712 0.848321
O O7 0.628890 0.346039 0.142947
O O8 0.634332 0.346922 0.549288
O O9 0.416564 0.603768 0.162609
O O10 0.731852 0.653873 0.207855
O O11 0.894571 0.576923 0.559903
O O12 0.996448 0.316823 0.772641
O O13 0.500000 0.000000 0.500000
O O14 0.727158 0.868562 0.865691
O O15 0.740833 0.524041 0.663549
O O16 0.398183 0.280008 0.717813
O O17 0.000000 0.000000 0.000000
#
# Coordination Sequence:
#
# PCOD9022813 Si02
#       8
#     2   2   2   2   2   2   2   2
#     4  11  21  39  68  92 122 167 219 257 295 383
#     4  10  23  42  59  93 126 167 211 245 316 376
#     4  10  23  42  59  89 139 163 194 267 317 361
#     4  10  22  39  64  93 126 160 208 263 305 373
#     4  10  23  43  63  87 130 168 204 256 313 377
#     4   9  20  38  61  93 123 164 208 263 311 364
#     4  11  24  40  65 100 120 163 213 254 320 374
#     4   9  20  39  63  93 124 164 209 261 319 353
#
# _framework density 20.466425999999998
#
# number of rings (size 3 to 8) (size 9 to 14) (size 15 to 20)
#    0.000    2.000    1.250    1.500    5.250    3.500 
#    0.000    0.625    0.000    0.000    0.000    0.000 
#    0.000    0.000    0.000    0.000    0.000    0.000 
#
# Total GULP energy -89369.776932 kJ/mol
# GULP energy per Si atom -5585.611058 kJ/mol
# Density = 2.041984 g / cm^3
# Si number density = 20.466426 Si / 1000 Ang^3
#
#
#
# Elastic Constant Matrix: (Units=GPa)
#
#
# Indices 1 2 3 4 5 6 
#
# 1 102.9132 37.0412 12.6950 -10.5517 22.9350 -5.3409
# 2 37.0412 117.0701 40.2992 -8.4216 -3.2499 -5.4330
# 3 12.6950 40.2992 81.2682 -8.9507 12.8475 4.0326
# 4 -10.5517 -8.4216 -8.9507 19.6741 -8.7245 -3.4142
# 5 22.9350 -3.2499 12.8475 -8.7245 25.8392 6.6724
# 6 -5.3409 -5.4330 4.0326 -3.4142 6.6724 19.8688
#
#
#
# Elastic Compliance Matrix: (Units=1/GPa)
#
#
# Indices 1 2 3 4 5 6 
#
# 1 0.016310 -0.006365 0.003238 0.000593 -0.018862 0.008423
# 2 -0.006365 0.013768 -0.007305 0.004761 0.012588 0.000127
# 3 0.003238 -0.007305 0.017464 0.001171 -0.011964 -0.000453
# 4 0.000593 0.004761 0.001171 0.063298 0.019422 0.005578
# 5 -0.018862 0.012588 -0.011964 0.019422 0.074965 -0.021037
# 6 0.008423 0.000127 -0.000453 0.005578 -0.021037 0.060744
#
#
# Mechanical properties :
#
#
# Convention : Reuss Voigt Hill
#
# Bulk Modulus (GPa) = 37.48444 53.48024 45.48234
# Shear Modulus (GPa) = 18.09576 27.15747 22.62662
#
# Velocity S-wave (km/s) = 2.97672 3.64665 3.32859
# Velocity P-wave (km/s) = 5.49266 6.62708 6.08636
#
# Compressibility (1/GPa) = 0.02667773
#
# Stress axis : x y z
#
# Youngs Moduli (GPa) = 61.31206 72.63049 57.25933
#
# Poissons Ratio (x) = 0.46230 -0.18539
# Poissons Ratio (y) = 0.39026 0.41829
# Poissons Ratio (z) = -0.19851 0.53058
#
# Static dielectric constant tensor:
#      x y z
#    x 1.735230 0.008060 0.011860 
#    y 0.008060 1.731080 -0.006870 
#    z 0.011860 -0.006870 1.748430 
# 
# From -- ./inp_files/570300.got.cif
#   From: 2010.05.17/outbox.cif.g08.bks.cpg/sg2_286_cif.got.tgz:570300.got - 2010.06.03 11:33:40.
