data_PCOD9022657
_publ_section_title
;
Structure prediction by ZEFSAII (Michael W. Deem and Ramdas Pophale) SiO2 
 PCOD9022657
Probable space group: P -1
;
_chemical_formula_sum "Si O2"
_cell_formula_units_Z 15
_cell_length_a 21.490055
_cell_length_b 18.154205
_cell_length_c 18.963361
_cell_angle_alpha 20.765452
_cell_angle_beta 160.538399
_cell_angle_gamma 158.974591
_cell_volume 785.392198
_symmetry_space_group_name_H-M "P -1"
_symmetry_group_IT_number 2
_symmetry_cell_setting 'triclinic'
loop_
_space_group_symop_operation_xyz
x,y,z
-x,-y,-z
loop_
_atom_site_type_symbol
_atom_site_label
_atom_site_fract_x
_atom_site_fract_y
_atom_site_fract_z
Si Si1 0.628690 0.184008 0.272851
Si Si2 0.500000 0.000000 0.000000
Si Si3 0.876614 0.722551 0.042968
Si Si4 0.778808 0.966900 0.106716
Si Si5 0.702968 0.049291 0.627530
Si Si6 0.182772 0.138358 0.296478
Si Si7 0.226730 0.640408 0.149460
Si Si8 0.561073 0.622907 0.305888
O O1 0.751956 0.449768 0.145622
O O2 0.679107 0.156526 0.432126
O O3 0.704601 0.025758 0.449365
O O4 0.386335 0.097009 0.075917
O O5 0.616874 0.205280 0.881662
O O6 0.489382 0.192577 0.871394
O O7 0.089609 0.788973 0.253069
O O8 0.915901 0.840502 0.902610
O O9 0.738462 0.824069 0.847188
O O10 0.005877 0.030982 0.262097
O O11 0.689666 0.752492 0.257700
O O12 0.784072 0.187739 0.955950
O O13 0.500000 0.000000 0.500000
O O14 0.354434 0.393523 0.271282
O O15 0.301832 0.462622 0.423063
O O16 0.000000 0.500000 0.000000
#
# Coordination Sequence:
#
# PCOD9022657 Si02
#       8
#     2   1   2   2   2   2   2   2
#     4  11  22  41  63  95 131 169 222 260 319 387
#     4  10  24  40  68  92 124 170 208 262 328 376
#     4  10  22  40  62  93 131 168 217 265 314 379
#     4  11  24  40  65  97 124 173 217 259 329 385
#     4  10  22  39  63  93 131 171 212 264 319 375
#     4  11  23  41  65  91 133 171 211 273 319 373
#     4  11  24  43  64  94 128 164 215 266 325 392
#     4  11  23  44  64  94 133 164 217 271 318 392
#
# _framework density 19.098738999999998
#
# number of rings (size 3 to 8) (size 9 to 14) (size 15 to 20)
#    0.000    1.333    2.667    2.400    0.000    5.867 
#    0.000    0.000    0.000    0.000    0.000    0.000 
#    0.000    0.000    0.000    0.000    0.000    0.000 
#
# Total GULP energy -83561.416405 kJ/mol
# GULP energy per Si atom -5570.761094 kJ/mol
# Density = 1.905527 g / cm^3
# Si number density = 19.098739 Si / 1000 Ang^3
#
#
#
# Elastic Constant Matrix: (Units=GPa)
#
#
# Indices 1 2 3 4 5 6 
#
# 1 100.6835 42.5287 27.7693 5.1615 11.0218 19.5310
# 2 42.5287 119.7181 55.8030 -5.1455 1.9952 -0.6661
# 3 27.7693 55.8030 70.4862 5.7505 -10.7980 1.3206
# 4 5.1615 -5.1455 5.7505 32.5307 -7.5000 -3.4459
# 5 11.0218 1.9952 -10.7980 -7.5000 21.6090 8.4169
# 6 19.5310 -0.6661 1.3206 -3.4459 8.4169 29.6753
#
#
#
# Elastic Compliance Matrix: (Units=1/GPa)
#
#
# Indices 1 2 3 4 5 6 
#
# 1 0.015297 -0.003931 -0.003520 -0.005090 -0.007689 -0.008410
# 2 -0.003931 0.015914 -0.012512 0.004488 -0.006437 0.005848
# 3 -0.003520 -0.012512 0.028565 -0.002799 0.018079 -0.004689
# 4 -0.005090 0.004488 -0.002799 0.035876 0.011489 0.004483
# 5 -0.007689 -0.006437 0.018079 0.011489 0.069357 -0.014226
# 6 -0.008410 0.005848 -0.004689 0.004483 -0.014226 0.044128
#
#
# Mechanical properties :
#
#
# Convention : Reuss Voigt Hill
#
# Bulk Modulus (GPa) = 50.37467 60.34330 55.35899
# Shear Modulus (GPa) = 19.55556 27.74879 23.65217
#
# Velocity S-wave (km/s) = 3.20334 3.81584 3.52293
# Velocity P-wave (km/s) = 6.33365 7.14690 6.75253
#
# Compressibility (1/GPa) = 0.01985125
#
# Stress axis : x y z
#
# Youngs Moduli (GPa) = 65.37032 62.83612 35.00742
#
# Poissons Ratio (x) = 0.24702 0.12321
# Poissons Ratio (y) = 0.25698 0.43802
# Poissons Ratio (z) = 0.23007 0.78622
#
# Static dielectric constant tensor:
#      x y z
#    x 1.656250 -0.013370 -0.027030 
#    y -0.013370 1.634790 0.018200 
#    z -0.027030 0.018200 1.679650 
# 
# From -- ./inp_files/7693.got.cif
#   From: 2010.05.17/outbox.cif.g08.bks.cpg/sg2_4_cif.got.tgz:7693.got - 2010.06.03 11:33:40.
