data_PCOD9022270
_publ_section_title
;
Structure prediction by ZEFSAII (Michael W. Deem and Ramdas Pophale) SiO2 
 PCOD9022270
Probable space group: P -1
;
_chemical_formula_sum "Si O2"
_cell_formula_units_Z 14
_cell_length_a 15.610296
_cell_length_b 25.024280
_cell_length_c 20.155060
_cell_angle_alpha 13.288905
_cell_angle_beta 22.135451
_cell_angle_gamma 20.541087
_cell_volume 624.006259
_symmetry_space_group_name_H-M "P -1"
_symmetry_group_IT_number 2
_symmetry_cell_setting 'triclinic'
loop_
_space_group_symop_operation_xyz
x,y,z
-x,-y,-z
loop_
_atom_site_type_symbol
_atom_site_label
_atom_site_fract_x
_atom_site_fract_y
_atom_site_fract_z
Si Si1 0.419431 0.328303 0.716186
Si Si2 0.239310 0.605267 0.369714
Si Si3 0.758350 0.996880 0.401734
Si Si4 0.084315 0.223901 0.185628
Si Si5 0.332130 0.242248 0.118007
Si Si6 0.855353 0.836923 0.039134
Si Si7 0.759680 0.656099 0.696697
O O1 0.500000 0.500000 0.500000
O O2 0.342707 0.469923 0.530436
O O3 0.195084 0.292066 0.957652
O O4 0.652586 0.056828 0.876284
O O5 0.259624 0.353901 0.617347
O O6 0.943648 0.762457 0.398280
O O7 0.399517 0.763930 0.048729
O O8 0.513903 0.237624 0.264841
O O9 0.745932 0.926047 0.572219
O O10 0.747569 0.764881 0.647201
O O11 0.009313 0.039065 0.159090
O O12 0.293180 0.169230 0.159323
O O13 0.000000 0.000000 0.500000
O O14 0.853610 0.465548 0.087925
O O15 0.084015 0.641529 0.067249
#
# Coordination Sequence:
#
# PCOD9022270 Si02
#       7
#     2   2   2   2   2   2   2
#     4  12  21  39  65  90 126 166 201 244 312 374
#     4  10  22  39  60  89 126 161 196 251 307 363
#     4  11  22  42  67  90 118 166 209 257 303 359
#     4  11  25  39  60  91 130 164 196 252 309 371
#     4  11  24  40  58  94 129 154 205 256 306 359
#     4  10  23  38  66  91 121 159 209 254 296 375
#     4   9  23  42  67  87 122 161 215 250 305 366
#
# _framework density 22.435673000000001
#
# number of rings (size 3 to 8) (size 9 to 14) (size 15 to 20)
#    0.857    0.571    1.429    4.286    4.000    0.571 
#    0.000    0.000    0.000    2.571    0.000    0.000 
#    0.000    0.000    0.000    0.000    0.000    0.000 
#
# Total GULP energy -78143.315225 kJ/mol
# GULP energy per Si atom -5581.665373 kJ/mol
# Density = 2.238461 g / cm^3
# Si number density = 22.435673 Si / 1000 Ang^3
#
#
#
# Elastic Constant Matrix: (Units=GPa)
#
#
# Indices 1 2 3 4 5 6 
#
# 1 53.0744 5.2876 16.5074 -8.1860 -18.4620 -8.8597
# 2 5.2876 77.8114 5.9053 -10.6843 -6.9163 -12.7588
# 3 16.5074 5.9053 97.5112 15.4268 -30.2949 1.1466
# 4 -8.1860 -10.6843 15.4268 42.7168 -6.4749 -8.6060
# 5 -18.4620 -6.9163 -30.2949 -6.4749 25.9155 8.8433
# 6 -8.8597 -12.7588 1.1466 -8.6060 8.8433 32.7358
#
#
#
# Elastic Compliance Matrix: (Units=1/GPa)
#
#
# Indices 1 2 3 4 5 6 
#
# 1 0.028761 0.002339 0.000081 0.010508 0.021947 0.005526
# 2 0.002339 0.015263 -0.001542 0.006817 0.003045 0.007606
# 3 0.000081 -0.001542 0.018350 -0.005314 0.022761 -0.008768
# 4 0.010508 0.006817 -0.005314 0.032602 0.007021 0.012361
# 5 0.021947 0.003045 0.022761 0.007021 0.088792 -0.015811
# 6 0.005526 0.007606 -0.008768 0.012361 -0.015811 0.042835
#
#
# Mechanical properties :
#
#
# Convention : Reuss Voigt Hill
#
# Bulk Modulus (GPa) = 15.59333 31.53307 23.56320
# Shear Modulus (GPa) = 20.30663 33.65340 26.98002
#
# Velocity S-wave (km/s) = 3.01176 3.87718 3.47154
# Velocity P-wave (km/s) = 4.36573 5.84198 5.15695
#
# Compressibility (1/GPa) = 0.06412997
#
# Stress axis : x y z
#
# Youngs Moduli (GPa) = 34.76954 65.51612 54.49527
#
# Poissons Ratio (x) = -0.15325 -0.00440
# Poissons Ratio (y) = -0.08133 0.08404
# Poissons Ratio (z) = -0.00281 0.10104
#
# Static dielectric constant tensor:
#      x y z
#    x 1.834170 -0.004910 -0.061970 
#    y -0.004910 1.865210 0.009040 
#    z -0.061970 0.009040 1.884910 
# 
# From -- ./inp_files/613340.got.cif
#   From: 2010.05.17/outbox.cif.g08.bks.cpg/sg2_307_cif.got.tgz:613340.got - 2010.06.03 11:33:40.
