data_PCOD9022151
_publ_section_title
;
Structure prediction by ZEFSAII (Michael W. Deem and Ramdas Pophale) SiO2 
 PCOD9022151
Probable space group: P -1
;
_chemical_formula_sum "Si O2"
_cell_formula_units_Z 16
_cell_length_a 8.934201
_cell_length_b 25.967116
_cell_length_c 11.387174
_cell_angle_alpha 159.818774
_cell_angle_beta 59.448388
_cell_angle_gamma 126.378419
_cell_volume 722.553017
_symmetry_space_group_name_H-M "P -1"
_symmetry_group_IT_number 2
_symmetry_cell_setting 'triclinic'
loop_
_space_group_symop_operation_xyz
x,y,z
-x,-y,-z
loop_
_atom_site_type_symbol
_atom_site_label
_atom_site_fract_x
_atom_site_fract_y
_atom_site_fract_z
Si Si1 0.535555 0.334961 0.215395
Si Si2 0.236637 0.153579 0.774255
Si Si3 0.924915 0.615554 0.605339
Si Si4 0.496925 0.206996 0.326006
Si Si5 0.139322 0.469140 0.062348
Si Si6 0.711341 0.737774 0.275607
Si Si7 0.652860 0.587022 0.336043
Si Si8 0.285198 0.834813 0.050105
O O1 0.727142 0.493786 0.475084
O O2 0.378877 0.375527 0.437805
O O3 0.445834 0.263585 0.974241
O O4 0.591121 0.206087 0.989114
O O5 0.212684 0.183833 0.711629
O O6 0.216748 0.971998 0.412157
O O7 0.097215 0.213378 0.031625
O O8 0.969899 0.520087 0.275856
O O9 0.107154 0.669554 0.734162
O O10 0.676620 0.366499 0.634890
O O11 0.362313 0.152115 0.375378
O O12 0.381727 0.273329 0.424755
O O13 0.586935 0.108923 0.999201
O O14 0.157994 0.332485 0.850716
O O15 0.163779 0.422698 0.819219
O O16 0.525905 0.577488 0.975301
#
# Coordination Sequence:
#
# PCOD9022151 Si02
#       8
#     2   2   2   2   2   2   2   2
#     4  11  22  38  60  82 111 152 190 222 276 342
#     4  12  24  34  53  89 123 143 174 235 292 329
#     4  11  22  37  58  88 108 145 194 234 268 324
#     4   7  14  30  54  79 102 142 192 226 261 323
#     4   8  16  31  56  82 106 141 191 232 266 316
#     4   9  16  29  54  84 109 139 185 235 271 318
#     4   8  14  31  54  80 104 144 188 228 261 326
#     4  10  22  39  58  80 113 152 188 227 277 331
#
# _framework density 22.143702999999999
#
# number of rings (size 3 to 8) (size 9 to 14) (size 15 to 20)
#    0.000    2.500    1.250    3.750    1.750    0.500 
#    0.000    0.625    2.750    0.000    0.000    3.500 
#    0.000    0.000    0.000    0.000    0.000    0.000 
#
# Total GULP energy -89157.813382 kJ/mol
# GULP energy per Si atom -5572.363336 kJ/mol
# Density = 2.209330 g / cm^3
# Si number density = 22.143703 Si / 1000 Ang^3
#
#
#
# Elastic Constant Matrix: (Units=GPa)
#
#
# Indices 1 2 3 4 5 6 
#
# 1 57.7804 39.7335 35.2446 -14.1845 -9.7266 0.2290
# 2 39.7335 93.9270 55.6086 -32.4723 -17.0522 -3.5562
# 3 35.2446 55.6086 87.8484 -22.5378 -24.6440 1.9865
# 4 -14.1845 -32.4723 -22.5378 31.6997 5.5498 -7.0060
# 5 -9.7266 -17.0522 -24.6440 5.5498 30.4956 -2.9496
# 6 0.2290 -3.5562 1.9865 -7.0060 -2.9496 21.3345
#
#
#
# Elastic Compliance Matrix: (Units=1/GPa)
#
#
# Indices 1 2 3 4 5 6 
#
# 1 0.026049 -0.008188 -0.005734 -0.001000 -0.000873 -0.001559
# 2 -0.008188 0.026954 -0.007757 0.020567 0.003664 0.012564
# 3 -0.005734 -0.007757 0.022735 0.003504 0.011510 -0.000606
# 4 -0.001000 0.020567 0.003504 0.058812 0.005553 0.023194
# 5 -0.000873 0.003664 0.011510 0.005553 0.043569 0.007396
# 6 -0.001559 0.012564 -0.000606 0.023194 0.007396 0.057679
#
#
# Mechanical properties :
#
#
# Convention : Reuss Voigt Hill
#
# Bulk Modulus (GPa) = 30.88190 55.63660 43.25925
# Shear Modulus (GPa) = 17.24449 23.97056 20.60752
#
# Velocity S-wave (km/s) = 2.79364 3.29371 3.05393
# Velocity P-wave (km/s) = 4.93785 6.29638 5.65804
#
# Compressibility (1/GPa) = 0.03238143
#
# Stress axis : x y z
#
# Youngs Moduli (GPa) = 38.38969 37.10037 43.98456
#
# Poissons Ratio (x) = 0.30377 0.25220
# Poissons Ratio (y) = 0.31433 0.34117
# Poissons Ratio (z) = 0.22012 0.28777
#
# Static dielectric constant tensor:
#      x y z
#    x 1.813350 0.000800 -0.028230 
#    y 0.000800 1.870200 -0.055070 
#    z -0.028230 -0.055070 1.847390 
# 
# From -- ./inp_files/407286.got.cif
#   From: 2010.05.17/outbox.cif.g08.bks.cpg/sg2_204_cif.got.tgz:407286.got - 2010.06.03 11:33:40.
