data_PCOD9022314
_publ_section_title
;
Structure prediction by ZEFSAII (Michael W. Deem and Ramdas Pophale) SiO2 
 PCOD9022314
Probable space group: P -1
;
_chemical_formula_sum "Si O2"
_cell_formula_units_Z 16
_cell_length_a 11.390404
_cell_length_b 9.121060
_cell_length_c 17.801002
_cell_angle_alpha 51.848255
_cell_angle_beta 40.827693
_cell_angle_gamma 82.847839
_cell_volume 708.393566
_symmetry_space_group_name_H-M "P -1"
_symmetry_group_IT_number 2
_symmetry_cell_setting 'triclinic'
loop_
_space_group_symop_operation_xyz
x,y,z
-x,-y,-z
loop_
_atom_site_type_symbol
_atom_site_label
_atom_site_fract_x
_atom_site_fract_y
_atom_site_fract_z
Si Si1 0.708842 0.184691 0.213391
Si Si2 0.870236 0.746598 0.097322
Si Si3 0.921510 0.506324 0.430385
Si Si4 0.970897 0.670888 0.853866
Si Si5 0.003137 0.877550 0.463463
Si Si6 0.214408 0.628957 0.627646
Si Si7 0.767049 0.927498 0.855741
Si Si8 0.563334 0.429565 0.744590
O O1 0.796241 0.235461 0.241079
O O2 0.449655 0.918487 0.414562
O O3 0.911519 0.202665 0.067681
O O4 0.747661 0.412792 0.084482
O O5 0.754757 0.522756 0.283140
O O6 0.665749 0.667658 0.163122
O O7 0.000000 0.000000 0.000000
O O8 0.846584 0.491888 0.385974
O O9 0.711901 0.396977 0.627453
O O10 0.987578 0.335344 0.454998
O O11 0.121412 0.797320 0.262610
O O12 0.009018 0.616852 0.769126
O O13 0.935554 0.866016 0.813598
O O14 0.755744 0.721104 0.584069
O O15 0.227630 0.074267 0.236854
O O16 0.000000 0.000000 0.500000
O O17 0.532732 0.729861 0.081731
#
# Coordination Sequence:
#
# PCOD9022314 Si02
#       8
#     2   2   2   2   2   2   2   2
#     4  10  22  39  60  96 138 177 233 271 327 417
#     4  11  23  40  65 107 144 179 232 276 337 420
#     4  11  26  45  65 105 133 173 236 281 334 417
#     4  10  22  40  61  96 132 178 229 278 329 410
#     4  11  27  49  71 102 134 171 235 290 335 413
#     4  11  24  40  69  94 143 189 216 284 347 394
#     4  11  23  44  74  95 134 178 222 286 347 400
#     4  11  24  43  72 100 135 183 222 282 345 402
#
# _framework density 22.586314999999999
#
# number of rings (size 3 to 8) (size 9 to 14) (size 15 to 20)
#    0.000    1.250    1.250    4.125    3.500    7.500 
#    0.000    0.000    0.000    0.000    0.000    0.000 
#    0.000    0.000    0.000    0.000    0.000    0.000 
#
# Total GULP energy -89469.286542 kJ/mol
# GULP energy per Si atom -5591.830409 kJ/mol
# Density = 2.253491 g / cm^3
# Si number density = 22.586315 Si / 1000 Ang^3
#
#
#
# Elastic Constant Matrix: (Units=GPa)
#
#
# Indices 1 2 3 4 5 6 
#
# 1 65.9954 53.3297 37.3053 0.5857 15.7029 8.9573
# 2 53.3297 152.0863 40.0889 14.3014 9.8736 18.5413
# 3 37.3053 40.0889 116.5963 17.5551 21.0743 1.7756
# 4 0.5857 14.3014 17.5551 28.9025 3.2183 14.5374
# 5 15.7029 9.8736 21.0743 3.2183 31.1956 3.6683
# 6 8.9573 18.5413 1.7756 14.5374 3.6683 43.8020
#
#
#
# Elastic Compliance Matrix: (Units=1/GPa)
#
#
# Indices 1 2 3 4 5 6 
#
# 1 0.027363 -0.007863 -0.006157 0.010346 -0.007627 -0.004813
# 2 -0.007863 0.009915 -0.000618 -0.003849 0.001803 -0.001438
# 3 -0.006157 -0.000618 0.012979 -0.009127 -0.005054 0.004447
# 4 0.010346 -0.003849 -0.009127 0.050379 -0.001052 -0.016748
# 5 -0.007627 0.001803 -0.005054 -0.001052 0.039073 -0.001922
# 6 -0.004813 -0.001438 0.004447 -0.016748 -0.001922 0.029962
#
#
# Mechanical properties :
#
#
# Convention : Reuss Voigt Hill
#
# Bulk Modulus (GPa) = 47.66141 66.23623 56.94882
# Shear Modulus (GPa) = 24.27863 34.37695 29.32779
#
# Velocity S-wave (km/s) = 3.28216 3.90555 3.60735
# Velocity P-wave (km/s) = 5.95913 7.05175 6.52834
#
# Compressibility (1/GPa) = 0.02098134
#
# Stress axis : x y z
#
# Youngs Moduli (GPa) = 36.54536 100.85264 77.04685
#
# Poissons Ratio (x) = 0.79301 0.47440
# Poissons Ratio (y) = 0.28736 0.04760
# Poissons Ratio (z) = 0.22502 0.06231
#
# Static dielectric constant tensor:
#      x y z
#    x 1.892340 -0.014580 0.013820 
#    y -0.014580 1.852640 0.019370 
#    z 0.013820 0.019370 1.827310 
# 
# From -- ./inp_files/566530.got.cif
#   From: 2010.05.17/outbox.cif.g08.bks.cpg/sg2_284_cif.got.tgz:566530.got - 2010.06.03 11:33:40.
