data_PCOD9022720
_publ_section_title
;
Structure prediction by ZEFSAII (Michael W. Deem and Ramdas Pophale) SiO2 
 PCOD9022720
Probable space group: P -1
;
_chemical_formula_sum "Si O2"
_cell_formula_units_Z 16
_cell_length_a 11.744745
_cell_length_b 11.539757
_cell_length_c 9.368529
_cell_angle_alpha 134.895237
_cell_angle_beta 88.302938
_cell_angle_gamma 116.611175
_cell_volume 717.182126
_symmetry_space_group_name_H-M "P -1"
_symmetry_group_IT_number 2
_symmetry_cell_setting 'triclinic'
loop_
_space_group_symop_operation_xyz
x,y,z
-x,-y,-z
loop_
_atom_site_type_symbol
_atom_site_label
_atom_site_fract_x
_atom_site_fract_y
_atom_site_fract_z
Si Si1 0.382884 0.359263 0.503983
Si Si2 0.940907 0.174794 0.304569
Si Si3 0.922294 0.572102 0.978484
Si Si4 0.268399 0.749135 0.539894
Si Si5 0.664115 0.265612 0.872398
Si Si6 0.238581 0.578912 0.707644
Si Si7 0.080437 0.942403 0.108681
Si Si8 0.539183 0.841573 0.448471
O O1 0.500000 0.500000 0.500000
O O2 0.319948 0.480435 0.648624
O O3 0.435688 0.301273 0.588138
O O4 0.244183 0.140143 0.263363
O O5 0.794125 0.121737 0.324744
O O6 0.070343 0.392596 0.555187
O O7 0.944903 0.190213 0.145718
O O8 0.980158 0.017574 0.183628
O O9 0.841618 0.439205 0.724175
O O10 0.790801 0.497790 0.022647
O O11 0.000000 0.500000 0.000000
O O12 0.034693 0.803775 0.128609
O O13 0.268002 0.671677 0.630282
O O14 0.422213 0.840846 0.547489
O O15 0.528371 0.231683 0.770270
O O16 0.667032 0.084421 0.646684
O O17 0.694296 0.253443 0.025451
#
# Coordination Sequence:
#
# PCOD9022720 Si02
#       8
#     2   2   2   2   2   2   2   2
#     4  11  23  41  65  94 131 164 207 265 314 376
#     4  10  22  39  63  98 125 154 212 271 311 368
#     4  11  22  40  63  93 126 174 205 257 320 374
#     4  11  22  38  67  92 127 161 216 263 307 373
#     4  10  24  41  63  90 132 166 213 256 309 381
#     4  11  22  40  65  98 122 164 213 267 313 365
#     4  10  23  40  64  94 128 167 204 259 325 369
#     4  10  23  44  62  94 128 172 210 249 320 385
#
# _framework density 22.309535
#
# number of rings (size 3 to 8) (size 9 to 14) (size 15 to 20)
#    0.000    1.500    2.500    1.875    3.500    2.000 
#    0.000    9.375    0.000    0.000    0.000    0.000 
#    0.000    0.000    0.000    0.000    0.000    0.000 
#
# Total GULP energy -89211.175211 kJ/mol
# GULP energy per Si atom -5575.698451 kJ/mol
# Density = 2.225876 g / cm^3
# Si number density = 22.309535 Si / 1000 Ang^3
#
#
#
# Elastic Constant Matrix: (Units=GPa)
#
#
# Indices 1 2 3 4 5 6 
#
# 1 99.9849 23.5460 6.9129 -1.5944 8.4995 -2.7079
# 2 23.5460 108.0168 6.7608 -0.4697 12.7683 -13.2098
# 3 6.9129 6.7608 79.2353 -18.6367 19.3582 -3.1253
# 4 -1.5944 -0.4697 -18.6367 38.2548 -5.2028 10.8906
# 5 8.4995 12.7683 19.3582 -5.2028 24.1841 -8.6616
# 6 -2.7079 -13.2098 -3.1253 10.8906 -8.6616 36.8138
#
#
#
# Elastic Compliance Matrix: (Units=1/GPa)
#
#
# Indices 1 2 3 4 5 6 
#
# 1 0.010721 -0.002083 -0.000042 0.000212 -0.002837 -0.000693
# 2 -0.002083 0.010562 0.000087 -0.001349 -0.004101 0.003078
# 3 -0.000042 0.000087 0.017732 0.007901 -0.013992 -0.004096
# 4 0.000212 -0.001349 0.007901 0.032506 -0.002255 -0.009945
# 5 -0.002837 -0.004101 -0.013992 -0.002255 0.059448 0.011786
# 6 -0.000693 0.003078 -0.004096 -0.009945 0.011786 0.033585
#
#
# Mechanical properties :
#
#
# Convention : Reuss Voigt Hill
#
# Bulk Modulus (GPa) = 28.62165 40.18627 34.40396
# Shear Modulus (GPa) = 27.73535 36.51836 32.12686
#
# Velocity S-wave (km/s) = 3.52974 4.05024 3.79892
# Velocity P-wave (km/s) = 5.42856 6.31861 5.89042
#
# Compressibility (1/GPa) = 0.03493858
#
# Stress axis : x y z
#
# Youngs Moduli (GPa) = 93.27768 94.68105 56.39483
#
# Poissons Ratio (x) = 0.19720 0.00236
# Poissons Ratio (y) = 0.19427 -0.00489
# Poissons Ratio (z) = 0.00391 -0.00821
#
# Static dielectric constant tensor:
#      x y z
#    x 1.877210 0.048440 0.019160 
#    y 0.048440 1.890070 0.012110 
#    z 0.019160 0.012110 1.878550 
# 
# From -- ./inp_files/263481.got.cif
#   From: 2010.05.17/outbox.cif.g08.bks.cpg/sg2_132_cif.got.tgz:263481.got - 2010.06.03 11:33:40.
