data_PCOD9022412
_publ_section_title
;
Structure prediction by ZEFSAII (Michael W. Deem and Ramdas Pophale) SiO2 
 PCOD9022412
Probable space group: P -1
;
_chemical_formula_sum "Si O2"
_cell_formula_units_Z 16
_cell_length_a 10.030900
_cell_length_b 11.501699
_cell_length_c 8.320458
_cell_angle_alpha 52.161222
_cell_angle_beta 92.306670
_cell_angle_gamma 77.746946
_cell_volume 722.549340
_symmetry_space_group_name_H-M "P -1"
_symmetry_group_IT_number 2
_symmetry_cell_setting 'triclinic'
loop_
_space_group_symop_operation_xyz
x,y,z
-x,-y,-z
loop_
_atom_site_type_symbol
_atom_site_label
_atom_site_fract_x
_atom_site_fract_y
_atom_site_fract_z
Si Si1 0.223802 0.961219 0.635523
Si Si2 0.423430 0.841769 0.468968
Si Si3 0.448533 0.353260 0.648305
Si Si4 0.119066 0.715572 0.971392
Si Si5 0.511300 0.087543 0.093494
Si Si6 0.137219 0.312644 0.218869
Si Si7 0.871082 0.506811 0.600968
Si Si8 0.370523 0.440666 0.098274
O O1 0.296834 0.860345 0.569263
O O2 0.112810 0.885932 0.770251
O O3 0.335600 0.947389 0.795333
O O4 0.182226 0.134120 0.424161
O O5 0.437467 0.768009 0.356057
O O6 0.553912 0.712948 0.664693
O O7 0.437334 0.011556 0.290326
O O8 0.500000 0.500000 0.500000
O O9 0.284267 0.406641 0.547026
O O10 0.459196 0.267936 0.892579
O O11 0.001561 0.668551 0.905554
O O12 0.108438 0.670807 0.193851
O O13 0.271785 0.598261 0.038377
O O14 0.500000 0.000000 0.000000
O O15 0.117780 0.401398 0.313077
O O16 0.248945 0.375586 0.070888
O O17 0.000000 0.500000 0.500000
O O18 0.500000 0.500000 0.000000
#
# Coordination Sequence:
#
# PCOD9022412 Si02
#       8
#     2   2   2   2   2   2   2   2
#     4  12  23  42  70  98 140 170 219 284 340 399
#     4  11  22  40  65 102 132 169 215 280 342 385
#     4  11  23  43  65  98 133 172 222 275 330 399
#     4  11  24  43  68  98 132 177 220 277 335 393
#     4  10  22  39  61  94 137 175 208 269 342 392
#     4  11  24  45  66  97 137 175 220 275 339 401
#     4  11  24  46  63  90 132 180 223 270 324 398
#     4  11  20  39  66  97 134 166 219 277 339 382
#
# _framework density 22.143816000000001
#
# number of rings (size 3 to 8) (size 9 to 14) (size 15 to 20)
#    0.000    1.000    5.000    3.750    0.000    2.000 
#    4.500    0.625    0.000    0.000    0.000    0.000 
#    0.000    0.000    0.000    0.000    0.000    0.000 
#
# Total GULP energy -89072.263276 kJ/mol
# GULP energy per Si atom -5567.016455 kJ/mol
# Density = 2.209342 g / cm^3
# Si number density = 22.143816 Si / 1000 Ang^3
#
#
#
# Elastic Constant Matrix: (Units=GPa)
#
#
# Indices 1 2 3 4 5 6 
#
# 1 127.6713 29.0661 69.5738 6.2415 -25.8309 3.0843
# 2 29.0661 58.7021 23.0767 -12.4532 -11.1762 -6.0493
# 3 69.5738 23.0767 157.6646 -27.4510 -7.7932 0.8114
# 4 6.2415 -12.4532 -27.4510 33.3590 5.7441 -7.4650
# 5 -25.8309 -11.1762 -7.7932 5.7441 46.9809 -3.9915
# 6 3.0843 -6.0493 0.8114 -7.4650 -3.9915 24.8902
#
#
#
# Elastic Compliance Matrix: (Units=1/GPa)
#
#
# Indices 1 2 3 4 5 6 
#
# 1 0.016698 -0.007622 -0.008633 -0.015950 0.007269 -0.007258
# 2 -0.007622 0.024431 0.002374 0.014860 0.001171 0.011449
# 3 -0.008633 0.002374 0.012068 0.014138 -0.003490 0.004934
# 4 -0.015950 0.014860 0.014138 0.056148 -0.007997 0.020685
# 5 0.007269 0.001171 -0.003490 -0.007997 0.026068 0.001279
# 6 -0.007258 0.011449 0.004934 0.020685 0.001279 0.050107
#
#
# Mechanical properties :
#
#
# Convention : Reuss Voigt Hill
#
# Bulk Modulus (GPa) = 39.31587 65.27458 52.29522
# Shear Modulus (GPa) = 22.54668 35.86744 29.20706
#
# Velocity S-wave (km/s) = 3.19438 4.02898 3.63570
# Velocity P-wave (km/s) = 5.60345 7.15438 6.42588
#
# Compressibility (1/GPa) = 0.02543502
#
# Stress axis : x y z
#
# Youngs Moduli (GPa) = 59.88600 40.93132 82.86038
#
# Poissons Ratio (x) = 0.31197 0.71537
# Poissons Ratio (y) = 0.45644 -0.19668
# Poissons Ratio (z) = 0.51702 -0.09716
#
# Static dielectric constant tensor:
#      x y z
#    x 1.831380 0.026820 -0.047290 
#    y 0.026820 1.907790 -0.044120 
#    z -0.047290 -0.044120 1.918600 
# 
# From -- ./inp_files/184219.got.cif
#   From: 2010.05.17/outbox.cif.g08.bks.cpg/sg2_93_cif.got.tgz:184219.got - 2010.06.03 11:33:40.
