data_PCOD9022927
_publ_section_title
;
Structure prediction by ZEFSAII (Michael W. Deem and Ramdas Pophale) SiO2 
 PCOD9022927
Probable space group: P -1
;
_chemical_formula_sum "Si O2"
_cell_formula_units_Z 16
_cell_length_a 23.553661
_cell_length_b 8.451715
_cell_length_c 15.386439
_cell_angle_alpha 69.868765
_cell_angle_beta 19.110594
_cell_angle_gamma 59.193406
_cell_volume 747.409463
_symmetry_space_group_name_H-M "P -1"
_symmetry_group_IT_number 2
_symmetry_cell_setting 'triclinic'
loop_
_space_group_symop_operation_xyz
x,y,z
-x,-y,-z
loop_
_atom_site_type_symbol
_atom_site_label
_atom_site_fract_x
_atom_site_fract_y
_atom_site_fract_z
Si Si1 0.181071 0.679231 0.966783
Si Si2 0.353152 0.914253 0.150004
Si Si3 0.180122 0.012036 0.691432
Si Si4 0.539856 0.717684 0.478485
Si Si5 0.470686 0.060113 0.385286
Si Si6 0.133052 0.633261 0.232844
Si Si7 0.530384 0.781284 0.102559
Si Si8 0.746584 0.146830 0.866096
O O1 0.294736 0.787694 0.810436
O O2 0.312737 0.518964 0.727167
O O3 0.185160 0.568103 0.069158
O O4 0.942621 0.842756 0.242611
O O5 0.105676 0.136638 0.469763
O O6 0.435312 0.788482 0.145048
O O7 0.373619 0.773096 0.067543
O O8 0.483887 0.007084 0.919681
O O9 0.277624 0.092936 0.600956
O O10 0.388888 0.799171 0.385419
O O11 0.000000 0.000000 0.000000
O O12 0.597135 0.753635 0.483629
O O13 0.560508 0.859078 0.354672
O O14 0.659313 0.027087 0.058461
O O15 0.279903 0.690999 0.056263
O O16 0.220243 0.423903 0.202785
O O17 0.000000 0.000000 0.500000
#
# Coordination Sequence:
#
# PCOD9022927 Si02
#       8
#     2   2   2   2   2   2   2   2
#     4  11  22  40  62  98 129 166 219 267 322 389
#     4  10  22  42  63  92 125 162 218 267 318 384
#     4  12  24  39  64  94 133 170 213 270 327 381
#     4  10  23  39  66  91 127 171 217 265 320 390
#     4  11  21  42  64  92 128 170 215 264 326 383
#     4  11  22  40  66  93 125 167 214 266 324 381
#     4  11  23  40  65  91 125 168 212 269 321 378
#     4  10  22  39  65  91 126 169 213 269 319 382
#
# _framework density 21.407277000000001
#
# number of rings (size 3 to 8) (size 9 to 14) (size 15 to 20)
#    0.000    1.250    5.000    1.125    1.750    1.000 
#    0.000    0.000    0.000    0.000    0.000    0.000 
#    0.000    0.000    0.000    0.000    0.000    0.000 
#
# Total GULP energy -89165.481579 kJ/mol
# GULP energy per Si atom -5572.842599 kJ/mol
# Density = 2.135855 g / cm^3
# Si number density = 21.407277 Si / 1000 Ang^3
#
#
#
# Elastic Constant Matrix: (Units=GPa)
#
#
# Indices 1 2 3 4 5 6 
#
# 1 187.9728 32.6463 46.4378 2.3431 -4.4117 3.3112
# 2 32.6463 40.2969 17.0962 0.3631 -4.6278 -3.0537
# 3 46.4378 17.0962 94.2190 -5.3035 -8.4542 1.2417
# 4 2.3431 0.3631 -5.3035 25.2633 -4.5116 -8.1007
# 5 -4.4117 -4.6278 -8.4542 -4.5116 30.3064 -1.3337
# 6 3.3112 -3.0537 1.2417 -8.1007 -1.3337 37.9612
#
#
#
# Elastic Compliance Matrix: (Units=1/GPa)
#
#
# Indices 1 2 3 4 5 6 
#
# 1 0.006792 -0.004536 -0.002669 -0.001660 -0.000751 -0.001251
# 2 -0.004536 0.030379 -0.002952 0.001032 0.003453 0.003277
# 3 -0.002669 -0.002952 0.012972 0.003772 0.003363 0.000494
# 4 -0.001660 0.001032 0.003772 0.045184 0.008136 0.010032
# 5 -0.000751 0.003453 0.003363 0.008136 0.035705 0.003224
# 6 -0.001251 0.003277 0.000494 0.010032 0.003224 0.028953
#
#
# Mechanical properties :
#
#
# Convention : Reuss Voigt Hill
#
# Bulk Modulus (GPa) = 33.52415 57.20549 45.36482
# Shear Modulus (GPa) = 26.28215 33.79340 30.03777
#
# Velocity S-wave (km/s) = 3.50769 3.97746 3.74994
# Velocity P-wave (km/s) = 5.66562 6.91911 6.32350
#
# Compressibility (1/GPa) = 0.02982925
#
# Stress axis : x y z
#
# Youngs Moduli (GPa) = 147.22717 32.91758 77.08837
#
# Poissons Ratio (x) = 0.14933 0.20574
# Poissons Ratio (y) = 0.66789 0.22754
# Poissons Ratio (z) = 0.39293 0.09716
#
# Static dielectric constant tensor:
#      x y z
#    x 1.789500 0.006640 0.006670 
#    y 0.006640 1.804120 -0.015460 
#    z 0.006670 -0.015460 1.864970 
# 
# From -- ./inp_files/542668.got.cif
#   From: 2010.05.17/outbox.cif.g08.bks.cpg/sg2_272_cif.got.tgz:542668.got - 2010.06.03 11:33:40.
