data_PCOD9022300
_publ_section_title
;
Structure prediction by ZEFSAII (Michael W. Deem and Ramdas Pophale) SiO2 
 PCOD9022300
Probable space group: P -1
;
_chemical_formula_sum "Si O2"
_cell_formula_units_Z 12
_cell_length_a 9.058299
_cell_length_b 5.379341
_cell_length_c 9.275134
_cell_angle_alpha 77.839022
_cell_angle_beta 64.873744
_cell_angle_gamma 93.165398
_cell_volume 394.626960
_symmetry_space_group_name_H-M "P -1"
_symmetry_group_IT_number 2
_symmetry_cell_setting 'triclinic'
loop_
_space_group_symop_operation_xyz
x,y,z
-x,-y,-z
loop_
_atom_site_type_symbol
_atom_site_label
_atom_site_fract_x
_atom_site_fract_y
_atom_site_fract_z
Si Si1 0.349739 0.261128 0.075772
Si Si2 0.166628 0.582357 0.263014
Si Si3 0.126875 0.177174 0.659701
Si Si4 0.480318 0.813356 0.251457
Si Si5 0.684431 0.259299 0.401342
Si Si6 0.132261 0.764818 0.940503
O O1 0.360641 0.221722 0.903309
O O2 0.500000 0.500000 0.000000
O O3 0.177568 0.312161 0.210476
O O4 0.587961 0.955637 0.828439
O O5 0.321230 0.597122 0.302999
O O6 0.019975 0.712037 0.374954
O O7 0.185553 0.749817 0.085904
O O8 0.226535 0.451212 0.638274
O O9 0.215607 0.970810 0.563141
O O10 0.079182 0.006778 0.845908
O O11 0.479588 0.795872 0.426377
O O12 0.699855 0.247356 0.223478
O O13 0.000000 0.500000 0.000000
#
# Coordination Sequence:
#
# PCOD9022300 Si02
#       6
#     2   2   2   2   2   2
#     4   9  22  41  63  86 118 161 214 258 307 359
#     4  11  21  36  66  89 124 162 208 249 306 370
#     4  10  23  38  61  93 128 164 199 248 309 372
#     4  10  23  41  62  90 120 163 211 261 303 361
#     4  10  24  39  63  88 136 161 199 254 312 365
#     4  10  22  39  60  93 130 167 199 245 309 376
#
# _framework density 30.408460999999999
#
# number of rings (size 3 to 8) (size 9 to 14) (size 15 to 20)
#    1.000    1.000    1.667    0.500    9.333    1.333 
#    0.000    0.833    0.000   10.000    0.000    0.000 
#    0.000    0.000    0.000    0.000    0.000    0.000 
#
# Total GULP energy -66960.470033 kJ/mol
# GULP energy per Si atom -5580.039169 kJ/mol
# Density = 3.033925 g / cm^3
# Si number density = 30.408461 Si / 1000 Ang^3
#
#
#
# Elastic Constant Matrix: (Units=GPa)
#
#
# Indices 1 2 3 4 5 6 
#
# 1 113.8288 26.0604 8.1240 16.6039 6.9767 -22.8735
# 2 26.0604 141.8368 29.7595 -11.7120 -7.4862 -47.2384
# 3 8.1240 29.7595 97.8866 -7.7886 29.8104 -9.5833
# 4 16.6039 -11.7120 -7.7886 49.4060 -7.9941 -9.4648
# 5 6.9767 -7.4862 29.8104 -7.9941 54.6812 5.6178
# 6 -22.8735 -47.2384 -9.5833 -9.4648 5.6178 64.1827
#
#
#
# Elastic Compliance Matrix: (Units=1/GPa)
#
#
# Indices 1 2 3 4 5 6 
#
# 1 0.010285 -0.001698 0.000328 -0.003805 -0.002498 0.002122
# 2 -0.001698 0.011074 -0.003147 0.004675 0.003364 0.007471
# 3 0.000328 -0.003147 0.013626 0.000112 -0.007941 0.000547
# 4 -0.003805 0.004675 0.000112 0.024326 0.004073 0.005332
# 5 -0.002498 0.003364 -0.007941 0.004073 0.024106 -0.001109
# 6 0.002122 0.007471 0.000547 0.005332 -0.001109 0.022800
#
#
# Mechanical properties :
#
#
# Convention : Reuss Voigt Hill
#
# Bulk Modulus (GPa) = 38.53194 53.49332 46.01263
# Shear Modulus (GPa) = 40.35470 52.96121 46.65796
#
# Velocity S-wave (km/s) = 3.64687 4.17785 3.92136
# Velocity P-wave (km/s) = 5.51651 6.39549 5.97219
#
# Compressibility (1/GPa) = 0.02595249
#
# Stress axis : x y z
#
# Youngs Moduli (GPa) = 97.22928 90.29891 73.38768
#
# Poissons Ratio (x) = 0.15331 -0.02410
# Poissons Ratio (y) = 0.16507 0.23096
# Poissons Ratio (z) = -0.03192 0.28418
#
# Static dielectric constant tensor:
#      x y z
#    x 2.404460 0.061000 -0.166680 
#    y 0.061000 2.589470 0.186150 
#    z -0.166680 0.186150 2.517410 
# 
# From -- ./inp_files/91342.got.cif
#   From: 2010.05.17/outbox.cif.g08.bks.cpg/sg2_46_cif.got.tgz:91342.got - 2010.06.03 11:33:40.
