data_PCOD9022224
_publ_section_title
;
Structure prediction by ZEFSAII (Michael W. Deem and Ramdas Pophale) SiO2 
 PCOD9022224
Probable space group: P -1
;
_chemical_formula_sum "Si O2"
_cell_formula_units_Z 14
_cell_length_a 5.938886
_cell_length_b 12.171096
_cell_length_c 10.746903
_cell_angle_alpha 94.040854
_cell_angle_beta 114.452985
_cell_angle_gamma 114.612553
_cell_volume 614.583362
_symmetry_space_group_name_H-M "P -1"
_symmetry_group_IT_number 2
_symmetry_cell_setting 'triclinic'
loop_
_space_group_symop_operation_xyz
x,y,z
-x,-y,-z
loop_
_atom_site_type_symbol
_atom_site_label
_atom_site_fract_x
_atom_site_fract_y
_atom_site_fract_z
Si Si1 0.358123 0.243862 0.847320
Si Si2 0.634078 0.183477 0.450558
Si Si3 0.838917 0.595855 0.085869
Si Si4 0.700549 0.615030 0.379866
Si Si5 0.627763 0.658244 0.646363
Si Si6 0.322057 0.054051 0.622854
Si Si7 0.092074 0.624638 0.871951
O O1 0.107358 0.267358 0.845734
O O2 0.436625 0.342573 0.757645
O O3 0.333979 0.123815 0.760225
O O4 0.579935 0.282559 0.013530
O O5 0.439686 0.229826 0.339443
O O6 0.516165 0.141098 0.560674
O O7 0.960830 0.295051 0.538807
O O8 0.623059 0.063865 0.369726
O O9 0.949619 0.513876 0.181028
O O10 0.500000 0.500000 0.000000
O O11 0.953212 0.610918 0.974872
O O12 0.590341 0.633331 0.488631
O O13 0.594889 0.466697 0.340651
O O14 0.933722 0.674346 0.750495
O O15 0.000000 0.000000 0.500000
#
# Coordination Sequence:
#
# PCOD9022224 Si02
#       7
#     2   2   2   2   2   2   2
#     4  11  22  39  66  95 124 170 220 266 313 377
#     4  11  23  40  67  92 130 169 217 272 319 373
#     4   9  19  35  57  86 125 169 207 251 306 378
#     4  11  23  38  65  98 132 167 216 259 328 381
#     4  11  23  41  61  99 140 168 202 264 330 397
#     4  11  23  44  65  95 122 169 229 275 307 373
#     4  10  22  39  59  93 134 169 209 254 324 393
#
# _framework density 22.779661000000001
#
# number of rings (size 3 to 8) (size 9 to 14) (size 15 to 20)
#    0.000    1.429    2.857    3.000    2.000    5.714 
#    0.000    0.714    0.000    4.286    0.000    0.000 
#    0.000    0.000    0.000    0.000    0.000    0.000 
#
# Total GULP energy -78175.277068 kJ/mol
# GULP energy per Si atom -5583.948362 kJ/mol
# Density = 2.272781 g / cm^3
# Si number density = 22.779661 Si / 1000 Ang^3
#
#
#
# Elastic Constant Matrix: (Units=GPa)
#
#
# Indices 1 2 3 4 5 6 
#
# 1 81.8824 44.8286 7.9922 8.2740 2.3991 -20.9573
# 2 44.8286 123.9233 43.5226 -7.6206 18.3160 -54.9517
# 3 7.9922 43.5226 83.4526 -5.3159 15.7829 -22.3021
# 4 8.2740 -7.6206 -5.3159 32.0121 -11.1633 0.8666
# 5 2.3991 18.3160 15.7829 -11.1633 44.5957 -0.6589
# 6 -20.9573 -54.9517 -22.3021 0.8666 -0.6589 63.0776
#
#
#
# Elastic Compliance Matrix: (Units=1/GPa)
#
#
# Indices 1 2 3 4 5 6 
#
# 1 0.016363 -0.006726 0.001669 -0.005597 -0.000106 0.000243
# 2 -0.006726 0.018326 -0.004640 0.003442 -0.004484 0.011996
# 3 0.001669 -0.004640 0.015440 -0.000314 -0.003698 0.001937
# 4 -0.005597 0.003442 -0.000314 0.036254 0.008083 0.000615
# 5 -0.000106 -0.004484 -0.003698 0.008083 0.027528 -0.005072
# 6 0.000243 0.011996 0.001937 0.000615 -0.005072 0.027008
#
#
# Mechanical properties :
#
#
# Convention : Reuss Voigt Hill
#
# Bulk Modulus (GPa) = 32.53706 53.54946 43.04326
# Shear Modulus (GPa) = 29.31541 40.79809 35.05675
#
# Velocity S-wave (km/s) = 3.59125 4.23660 3.92720
# Velocity P-wave (km/s) = 5.61342 6.89132 6.28493
#
# Compressibility (1/GPa) = 0.03073419
#
# Stress axis : x y z
#
# Youngs Moduli (GPa) = 61.11349 54.56702 64.76643
#
# Poissons Ratio (x) = 0.36704 -0.10811
# Poissons Ratio (y) = 0.41108 0.30054
# Poissons Ratio (z) = -0.10201 0.25321
#
# Static dielectric constant tensor:
#      x y z
#    x 1.940050 -0.039210 0.009570 
#    y -0.039210 1.899820 0.036300 
#    z 0.009570 0.036300 1.858940 
# 
# From -- ./inp_files/363101.got.cif
#   From: 2010.05.17/outbox.cif.g08.bks.cpg/sg2_182_cif.got.tgz:363101.got - 2010.06.03 11:33:40.
