data_PCOD9022040
_publ_section_title
;
Structure prediction by ZEFSAII (Michael W. Deem and Ramdas Pophale) SiO2 
 PCOD9022040
Probable space group: P -1
;
_chemical_formula_sum "Si O2"
_cell_formula_units_Z 12
_cell_length_a 11.738887
_cell_length_b 8.127752
_cell_length_c 5.559249
_cell_angle_alpha 77.029175
_cell_angle_beta 71.121981
_cell_angle_gamma 77.164094
_cell_volume 482.600946
_symmetry_space_group_name_H-M "P -1"
_symmetry_group_IT_number 2
_symmetry_cell_setting 'triclinic'
loop_
_space_group_symop_operation_xyz
x,y,z
-x,-y,-z
loop_
_atom_site_type_symbol
_atom_site_label
_atom_site_fract_x
_atom_site_fract_y
_atom_site_fract_z
Si Si1 0.567971 0.609253 0.232877
Si Si2 0.704825 0.662722 0.524820
Si Si3 0.876568 0.897750 0.570361
Si Si4 0.824011 0.092908 0.048422
Si Si5 0.093072 0.635144 0.402022
Si Si6 0.567906 0.269793 0.114064
O O1 0.500000 0.500000 0.500000
O O2 0.680092 0.681636 0.248566
O O3 0.607851 0.457231 0.064208
O O4 0.463854 0.746313 0.139425
O O5 0.783518 0.772134 0.591917
O O6 0.780174 0.468700 0.551158
O O7 0.565070 0.725735 0.682589
O O8 0.010403 0.786607 0.555250
O O9 0.837321 0.992035 0.816697
O O10 0.880343 0.999186 0.279207
O O11 0.876069 0.268122 0.893796
O O12 0.678630 0.137854 0.178241
O O13 0.000000 0.500000 0.500000
#
# Coordination Sequence:
#
# PCOD9022040 Si02
#       6
#     2   2   2   2   2   2
#     4   9  18  36  62  98 132 175 233 283 335 399
#     4  10  23  44  71 103 137 184 241 288 340 415
#     4  11  28  47  69 105 145 191 226 287 352 420
#     4  12  26  47  72 102 148 184 228 286 363 419
#     4  10  23  49  74 102 134 186 245 291 336 414
#     4  10  22  38  69 102 139 181 232 287 355 408
#
# _framework density 24.865262000000001
#
# number of rings (size 3 to 8) (size 9 to 14) (size 15 to 20)
#    0.000    1.667    0.000    4.000    9.333    1.333 
#    3.000    3.333    0.000    0.000    0.000    0.000 
#    0.000    0.000    0.000    0.000    0.000    0.000 
#
# Total GULP energy -66833.098532 kJ/mol
# GULP energy per Si atom -5569.424878 kJ/mol
# Density = 2.480867 g / cm^3
# Si number density = 24.865262 Si / 1000 Ang^3
#
#
#
# Elastic Constant Matrix: (Units=GPa)
#
#
# Indices 1 2 3 4 5 6 
#
# 1 148.0311 63.2174 39.8713 22.2871 0.9083 -11.7196
# 2 63.2174 87.2322 51.3354 2.7573 9.7419 -14.2854
# 3 39.8713 51.3354 91.9748 5.1358 14.6415 3.9357
# 4 22.2871 2.7573 5.1358 25.3099 1.9774 4.0114
# 5 0.9083 9.7419 14.6415 1.9774 43.9770 11.8906
# 6 -11.7196 -14.2854 3.9357 4.0114 11.8906 35.3572
#
#
#
# Elastic Compliance Matrix: (Units=1/GPa)
#
#
# Indices 1 2 3 4 5 6 
#
# 1 0.011870 -0.008011 -0.000464 -0.009825 0.001784 0.001264
# 2 -0.008011 0.025603 -0.010765 0.005255 -0.004840 0.009919
# 3 -0.000464 -0.010765 0.017683 -0.000951 -0.001903 -0.005724
# 4 -0.009825 0.005255 -0.000951 0.048853 -0.001171 -0.006176
# 5 0.001784 -0.004840 -0.001903 -0.001171 0.027211 -0.010171
# 6 0.001264 0.009919 -0.005724 -0.006176 -0.010171 0.037468
#
#
# Mechanical properties :
#
#
# Convention : Reuss Voigt Hill
#
# Bulk Modulus (GPa) = 59.96384 70.67626 65.32005
# Shear Modulus (GPa) = 23.50468 32.44972 27.97720
#
# Velocity S-wave (km/s) = 3.07788 3.61643 3.35797
# Velocity P-wave (km/s) = 6.06622 6.77669 6.43127
#
# Compressibility (1/GPa) = 0.01667672
#
# Stress axis : x y z
#
# Youngs Moduli (GPa) = 84.24893 39.05834 56.55176
#
# Poissons Ratio (x) = 0.31288 0.02623
# Poissons Ratio (y) = 0.67488 0.60877
# Poissons Ratio (z) = 0.03908 0.42046
#
# Static dielectric constant tensor:
#      x y z
#    x 2.026090 0.062340 0.028530 
#    y 0.062340 2.077640 0.078400 
#    z 0.028530 0.078400 2.270970 
# 
# From -- ./inp_files/58899.got.cif
#   From: 2010.05.17/outbox.cif.g08.bks.cpg/sg2_30_cif.got.tgz:58899.got - 2010.06.03 11:33:40.
