data_PCOD9022186
_publ_section_title
;
Structure prediction by ZEFSAII (Michael W. Deem and Ramdas Pophale) SiO2 
 PCOD9022186
Probable space group: P -1
;
_chemical_formula_sum "Si O2"
_cell_formula_units_Z 14
_cell_length_a 13.070006
_cell_length_b 27.213735
_cell_length_c 5.483264
_cell_angle_alpha 110.144843
_cell_angle_beta 79.811254
_cell_angle_gamma 159.219921
_cell_volume 584.724954
_symmetry_space_group_name_H-M "P -1"
_symmetry_group_IT_number 2
_symmetry_cell_setting 'triclinic'
loop_
_space_group_symop_operation_xyz
x,y,z
-x,-y,-z
loop_
_atom_site_type_symbol
_atom_site_label
_atom_site_fract_x
_atom_site_fract_y
_atom_site_fract_z
Si Si1 0.681373 0.630304 0.797976
Si Si2 0.858316 0.972423 0.212990
Si Si3 0.561405 0.741018 0.162582
Si Si4 0.853554 0.548864 0.051967
Si Si5 0.582133 0.128435 0.412341
Si Si6 0.165849 0.783552 0.050545
Si Si7 0.991007 0.118771 0.060123
O O1 0.500000 0.500000 0.500000
O O2 0.436893 0.552139 0.905779
O O3 0.916540 0.712348 0.023033
O O4 0.883335 0.763183 0.756397
O O5 0.558189 0.798644 0.159965
O O6 0.793162 0.995714 0.143679
O O7 0.152126 0.119774 0.524885
O O8 0.000000 0.000000 0.000000
O O9 0.268848 0.568856 0.102455
O O10 0.701859 0.770901 0.939247
O O11 0.147319 0.698372 0.368944
O O12 0.976876 0.637784 0.910768
O O13 0.624118 0.115610 0.619904
O O14 0.236022 0.986947 0.261959
O O15 0.661258 0.134924 0.142847
#
# Coordination Sequence:
#
# PCOD9022186 Si02
#       7
#     2   2   2   2   2   2   2
#     4  11  20  39  60  90 119 163 210 251 295 353
#     4   9  19  36  61  89 119 147 201 250 307 361
#     4   9  19  38  62  91 114 156 198 254 303 359
#     4   9  21  36  62  86 123 157 205 250 298 354
#     4  10  23  40  58  88 127 166 199 247 303 357
#     4  10  22  39  59  83 129 159 209 243 295 356
#     4  10  23  36  60  88 121 162 198 250 304 360
#
# _framework density 23.942882000000001
#
# number of rings (size 3 to 8) (size 9 to 14) (size 15 to 20)
#    0.857    1.429    1.429    0.429    4.000    2.286 
#    2.571    0.714    0.000    8.571    0.000    0.000 
#    0.000    0.000    0.000    0.000    0.000    0.000 
#
# Total GULP energy -78125.591386 kJ/mol
# GULP energy per Si atom -5580.399385 kJ/mol
# Density = 2.388839 g / cm^3
# Si number density = 23.942882 Si / 1000 Ang^3
#
#
#
# Elastic Constant Matrix: (Units=GPa)
#
#
# Indices 1 2 3 4 5 6 
#
# 1 66.4013 73.1726 39.2363 -1.9380 17.4926 -35.5349
# 2 73.1726 85.1702 39.0718 18.6650 -23.1741 -40.9151
# 3 39.2363 39.0718 79.6415 -6.3670 2.2695 -24.9279
# 4 -1.9380 18.6650 -6.3670 40.7609 -1.7398 -13.4065
# 5 17.4926 -23.1741 2.2695 -1.7398 18.7423 3.2175
# 6 -35.5349 -40.9151 -24.9279 -13.4065 3.2175 62.8688
#
#
#
# Elastic Compliance Matrix: (Units=1/GPa)
#
#
# Indices 1 2 3 4 5 6 
#
# 1 -0.004938 0.016720 -0.006102 -0.006814 0.024884 0.002944
# 2 0.016720 -0.004837 -0.002642 0.004037 -0.022136 0.007249
# 3 -0.006102 -0.002642 0.018192 0.004772 0.000145 0.003055
# 4 -0.006814 0.004037 0.004772 0.025424 0.012195 0.005465
# 5 0.024884 -0.022136 0.000145 0.012195 0.003507 0.002137
# 6 0.002944 0.007249 0.003055 0.005465 0.002137 0.024555
#
#
# Mechanical properties :
#
#
# Convention : Reuss Voigt Hill
#
# Bulk Modulus (GPa) = 41.03560 59.35272 50.19416
# Shear Modulus (GPa) = 92.46368 29.78989 61.12678
#
# Velocity S-wave (km/s) = 6.22112 3.53116 5.05823
# Velocity P-wave (km/s) = 8.29332 6.43961 7.42455
#
# Compressibility (1/GPa) = 0.02436909
#
# Stress axis : x y z
#
# Youngs Moduli (GPa) = -202.50887 -206.72431 54.96785
#
# Poissons Ratio (x) = 3.45649 0.33544
# Poissons Ratio (y) = 3.38601 0.14522
# Poissons Ratio (z) = -1.23579 -0.54613
#
# Static dielectric constant tensor:
#      x y z
#    x 1.945490 -0.007800 -0.016180 
#    y -0.007800 2.010440 -0.011430 
#    z -0.016180 -0.011430 1.889620 
# 
# From -- ./inp_files/51404.got.cif
#   From: 2010.05.17/outbox.cif.g08.bks.cpg/sg2_26_cif.got.tgz:51404.got - 2010.06.03 11:33:40.
