data_PCOD9022564
_publ_section_title
;
Structure prediction by ZEFSAII (Michael W. Deem and Ramdas Pophale) SiO2 
 PCOD9022564
Probable space group: P -1
;
_chemical_formula_sum "Si O2"
_cell_formula_units_Z 16
_cell_length_a 11.893446
_cell_length_b 5.525087
_cell_length_c 25.396969
_cell_angle_alpha 70.889002
_cell_angle_beta 149.047072
_cell_angle_gamma 122.614887
_cell_volume 687.106098
_symmetry_space_group_name_H-M "P -1"
_symmetry_group_IT_number 2
_symmetry_cell_setting 'triclinic'
loop_
_space_group_symop_operation_xyz
x,y,z
-x,-y,-z
loop_
_atom_site_type_symbol
_atom_site_label
_atom_site_fract_x
_atom_site_fract_y
_atom_site_fract_z
Si Si1 0.266236 0.164881 0.920755
Si Si2 0.357747 0.061868 0.603921
Si Si3 0.907359 0.346639 0.790033
Si Si4 0.299452 0.215489 0.750089
Si Si5 0.373124 0.742281 0.029420
Si Si6 0.759227 0.721875 0.623958
Si Si7 0.810423 0.279993 0.339177
Si Si8 0.639375 0.330526 0.463039
O O1 0.361145 0.090475 0.910483
O O2 0.001096 0.147749 0.812803
O O3 0.500000 0.500000 0.000000
O O4 0.291667 0.981877 0.991367
O O5 0.644346 0.159311 0.729602
O O6 0.363010 0.372379 0.578757
O O7 0.162655 0.839349 0.584973
O O8 0.329710 0.877598 0.552334
O O9 0.849509 0.536473 0.710608
O O10 0.134607 0.516849 0.912464
O O11 0.534299 0.345784 0.876360
O O12 0.299092 0.506709 0.709781
O O13 0.331014 0.013239 0.733680
O O14 0.016801 0.979883 0.679650
O O15 0.500000 0.500000 0.500000
O O16 0.623413 0.852485 0.596923
O O17 0.090198 0.502717 0.409486
#
# Coordination Sequence:
#
# PCOD9022564 Si02
#       8
#     2   2   2   2   2   2   2   2
#     4   9  18  35  62  88 128 166 230 268 328 388
#     4  11  25  45  72  97 133 180 246 273 320 403
#     4  10  24  40  68  96 132 180 226 283 325 399
#     4  12  27  42  69  99 147 177 218 281 349 409
#     4  10  22  39  62  98 128 181 225 271 333 411
#     4  11  24  43  65 108 143 170 215 284 359 406
#     4  12  26  46  67 100 135 189 226 278 338 396
#     4  11  24  44  72  98 134 183 226 284 334 401
#
# _framework density 23.286071
#
# number of rings (size 3 to 8) (size 9 to 14) (size 15 to 20)
#    0.000    1.250    1.250    4.500   12.250    1.500 
#    0.000    1.250    0.000    0.000    0.000    0.000 
#    0.000    0.000    0.000    0.000    0.000    0.000 
#
# Total GULP energy -89153.004336 kJ/mol
# GULP energy per Si atom -5572.062771 kJ/mol
# Density = 2.323307 g / cm^3
# Si number density = 23.286071 Si / 1000 Ang^3
#
#
#
# Elastic Constant Matrix: (Units=GPa)
#
#
# Indices 1 2 3 4 5 6 
#
# 1 61.6396 12.0556 10.8411 4.3480 6.3828 -6.6281
# 2 12.0556 93.7896 22.0645 -7.9399 -4.2362 -13.6631
# 3 10.8411 22.0645 125.9044 11.2318 1.4641 -18.1239
# 4 4.3480 -7.9399 11.2318 35.8029 -7.6423 -1.8258
# 5 6.3828 -4.2362 1.4641 -7.6423 37.0661 2.3175
# 6 -6.6281 -13.6631 -18.1239 -1.8258 2.3175 19.4420
#
#
#
# Elastic Compliance Matrix: (Units=1/GPa)
#
#
# Indices 1 2 3 4 5 6 
#
# 1 0.017824 -0.002034 -0.000164 -0.003233 -0.004256 0.004698
# 2 -0.002034 0.012774 -0.001468 0.004398 0.002334 0.007050
# 3 -0.000164 -0.001468 0.009650 -0.003296 -0.001688 0.007800
# 4 -0.003233 0.004398 -0.003296 0.032034 0.007732 0.001003
# 5 -0.004256 0.002334 -0.001688 0.007732 0.029903 -0.004222
# 6 0.004698 0.007050 0.007800 0.001003 -0.004222 0.065859
#
#
# Mechanical properties :
#
#
# Convention : Reuss Voigt Hill
#
# Bulk Modulus (GPa) = 30.38089 41.25067 35.81578
# Shear Modulus (GPa) = 26.83138 34.22037 30.52587
#
# Velocity S-wave (km/s) = 3.39816 3.83765 3.62457
# Velocity P-wave (km/s) = 5.33590 6.11473 5.73854
#
# Compressibility (1/GPa) = 0.03291542
#
# Stress axis : x y z
#
# Youngs Moduli (GPa) = 56.10453 78.28565 103.62262
#
# Poissons Ratio (x) = 0.15923 0.01701
# Poissons Ratio (y) = 0.11412 0.15213
# Poissons Ratio (z) = 0.00921 0.11493
#
# Static dielectric constant tensor:
#      x y z
#    x 2.261920 -0.324700 -0.034440 
#    y -0.324700 2.230440 0.004140 
#    z -0.034440 0.004140 1.899090 
# 
# From -- ./inp_files/80998.got.cif
#   From: 2010.05.17/outbox.cif.g08.bks.cpg/sg2_41_cif.got.tgz:80998.got - 2010.06.03 11:33:40.
