data_PCOD9022558
_publ_section_title
;
Structure prediction by ZEFSAII (Michael W. Deem and Ramdas Pophale) SiO2 
 PCOD9022558
Probable space group: P -1
;
_chemical_formula_sum "Si O2"
_cell_formula_units_Z 14
_cell_length_a 18.044521
_cell_length_b 8.688848
_cell_length_c 10.020459
_cell_angle_alpha 43.009246
_cell_angle_beta 123.669615
_cell_angle_gamma 140.273580
_cell_volume 684.801404
_symmetry_space_group_name_H-M "P -1"
_symmetry_group_IT_number 2
_symmetry_cell_setting 'triclinic'
loop_
_space_group_symop_operation_xyz
x,y,z
-x,-y,-z
loop_
_atom_site_type_symbol
_atom_site_label
_atom_site_fract_x
_atom_site_fract_y
_atom_site_fract_z
Si Si1 0.397247 0.280804 0.639064
Si Si2 0.137185 0.764565 0.951503
Si Si3 0.232734 0.148816 0.344779
Si Si4 0.651309 0.202585 0.918810
Si Si5 0.051488 0.872968 0.554306
Si Si6 0.813571 0.222969 0.721095
Si Si7 0.395823 0.772950 0.438750
O O1 0.500000 0.500000 0.500000
O O2 0.291692 0.083767 0.555002
O O3 0.384042 0.482497 0.591836
O O4 0.408083 0.072327 0.868357
O O5 0.139508 0.919152 0.724350
O O6 0.220183 0.689604 0.051025
O O7 0.184141 0.909959 0.051779
O O8 0.000000 0.500000 0.000000
O O9 0.317962 0.499163 0.187787
O O10 0.115896 0.032136 0.379908
O O11 0.213911 0.985577 0.294830
O O12 0.585762 0.114777 0.767362
O O13 0.942720 0.532660 0.636058
O O14 0.000000 0.000000 0.500000
O O15 0.720098 0.276856 0.601677
O O16 0.500000 0.000000 0.500000
#
# Coordination Sequence:
#
# PCOD9022558 Si02
#       7
#     2   2   2   2   2   2   2
#     4  11  23  42  67  90 127 171 215 265 322 378
#     4   9  18  37  61  89 122 166 209 248 315 379
#     4  11  22  40  62  95 133 164 214 264 318 381
#     4  10  22  41  65  91 127 171 212 257 322 387
#     4  11  20  38  65  91 130 173 209 261 318 381
#     4  10  22  39  62  97 128 168 214 264 316 376
#     4  10  22  42  65  94 127 165 217 264 320 378
#
# _framework density 20.443884000000001
#
# number of rings (size 3 to 8) (size 9 to 14) (size 15 to 20)
#    0.000    1.714    1.429    4.714    0.000    2.857 
#    2.571    6.429    0.000    0.000    0.000    0.000 
#    0.000    0.000    0.000    0.000    0.000    0.000 
#
# Total GULP energy -78052.190722 kJ/mol
# GULP energy per Si atom -5575.156480 kJ/mol
# Density = 2.039735 g / cm^3
# Si number density = 20.443884 Si / 1000 Ang^3
#
#
#
# Elastic Constant Matrix: (Units=GPa)
#
#
# Indices 1 2 3 4 5 6 
#
# 1 102.5128 58.7970 49.2984 3.5702 -17.0646 -17.0734
# 2 58.7970 138.8456 79.8759 20.6679 -10.9435 -23.4275
# 3 49.2984 79.8759 147.4462 -0.5756 -3.9002 -21.0544
# 4 3.5702 20.6679 -0.5756 34.2429 9.2379 -6.8407
# 5 -17.0646 -10.9435 -3.9002 9.2379 33.9675 1.9203
# 6 -17.0734 -23.4275 -21.0544 -6.8407 1.9203 45.0671
#
#
#
# Elastic Compliance Matrix: (Units=1/GPa)
#
#
# Indices 1 2 3 4 5 6 
#
# 1 0.014402 -0.004004 -0.002202 -0.000229 0.005638 0.002071
# 2 -0.004004 0.014437 -0.006188 -0.009278 0.004367 0.001502
# 3 -0.002202 -0.006188 0.011104 0.005503 -0.003441 0.002118
# 4 -0.000229 -0.009278 0.005503 0.039381 -0.013421 0.004210
# 5 0.005638 0.004367 -0.003441 -0.013421 0.036980 -0.000814
# 6 0.002071 0.001502 0.002118 0.004210 -0.000814 0.025418
#
#
# Mechanical properties :
#
#
# Convention : Reuss Voigt Hill
#
# Bulk Modulus (GPa) = 65.99213 84.97191 75.48202
# Shear Modulus (GPa) = 29.14415 36.04439 32.59427
#
# Velocity S-wave (km/s) = 3.77977 4.20347 3.99724
# Velocity P-wave (km/s) = 7.16928 8.07543 7.63581
#
# Compressibility (1/GPa) = 0.01515332
#
# Stress axis : x y z
#
# Youngs Moduli (GPa) = 69.43607 69.26826 90.06030
#
# Poissons Ratio (x) = 0.27735 0.19833
# Poissons Ratio (y) = 0.27802 0.55731
# Poissons Ratio (z) = 0.15291 0.42864
#
# Static dielectric constant tensor:
#      x y z
#    x 1.670400 -0.123570 -0.023540 
#    y -0.123570 1.507100 -0.067880 
#    z -0.023540 -0.067880 1.752220 
# 
# From -- ./inp_files/327183.got.cif
#   From: 2010.05.17/outbox.cif.g08.bks.cpg/sg2_164_cif.got.tgz:327183.got - 2010.06.03 11:33:40.
