data_PCOD9022930
_publ_section_title
;
Structure prediction by ZEFSAII (Michael W. Deem and Ramdas Pophale) SiO2 
 PCOD9022930
Probable space group: P -1
;
_chemical_formula_sum "Si O2"
_cell_formula_units_Z 16
_cell_length_a 16.826810
_cell_length_b 10.280295
_cell_length_c 5.743417
_cell_angle_alpha 83.771889
_cell_angle_beta 129.505442
_cell_angle_gamma 119.858776
_cell_volume 631.799676
_symmetry_space_group_name_H-M "P -1"
_symmetry_group_IT_number 2
_symmetry_cell_setting 'triclinic'
loop_
_space_group_symop_operation_xyz
x,y,z
-x,-y,-z
loop_
_atom_site_type_symbol
_atom_site_label
_atom_site_fract_x
_atom_site_fract_y
_atom_site_fract_z
Si Si1 0.362232 0.753730 0.880286
Si Si2 0.461739 0.076519 0.217709
Si Si3 0.046785 0.825526 0.066574
Si Si4 0.129416 0.113665 0.479413
Si Si5 0.098459 0.650831 0.511817
Si Si6 0.351023 0.411177 0.708180
Si Si7 0.215394 0.973779 0.971694
Si Si8 0.386889 0.524977 0.254289
O O1 0.433533 0.775690 0.766516
O O2 0.213507 0.646395 0.635233
O O3 0.414206 0.694687 0.193404
O O4 0.392511 0.928161 0.941057
O O5 0.500000 0.000000 0.500000
O O6 0.356757 0.089822 0.136287
O O7 0.024993 0.670950 0.165800
O O8 0.053497 0.942832 0.249168
O O9 0.181774 0.914856 0.181384
O O10 0.945128 0.805226 0.700892
O O11 0.260685 0.222032 0.567479
O O12 0.154910 0.071444 0.786136
O O13 0.157183 0.810818 0.748054
O O14 0.000000 0.500000 0.500000
O O15 0.324918 0.467354 0.404665
O O16 0.500000 0.500000 0.000000
O O17 0.316130 0.437039 0.898918
O O18 0.500000 0.500000 0.500000
#
# Coordination Sequence:
#
# PCOD9022930 Si02
#       8
#     2   2   2   2   2   2   2   2
#     4  10  23  41  61  96 130 174 225 282 342 414
#     4  10  22  39  65  91 127 174 225 281 343 406
#     4  10  22  43  65  98 128 179 231 281 350 406
#     4  10  23  40  68  94 137 170 229 288 346 416
#     4  10  23  42  62  93 134 173 227 277 341 411
#     4  10  24  43  62 103 136 184 222 281 355 420
#     4  10  22  40  67  95 124 172 227 284 343 408
#     4  10  24  42  66  96 141 175 231 275 354 418
#
# _framework density 25.324483000000001
#
# number of rings (size 3 to 8) (size 9 to 14) (size 15 to 20)
#    0.000    2.000    0.000    1.125    8.750    3.500 
#    0.000    0.000    0.000    0.000    0.000    0.000 
#    0.000    0.000    0.000    0.000    0.000    0.000 
#
# Total GULP energy -89238.389384 kJ/mol
# GULP energy per Si atom -5577.399337 kJ/mol
# Density = 2.526684 g / cm^3
# Si number density = 25.324483 Si / 1000 Ang^3
#
#
#
# Elastic Constant Matrix: (Units=GPa)
#
#
# Indices 1 2 3 4 5 6 
#
# 1 90.7541 49.6694 53.0966 -23.1683 16.1712 25.9009
# 2 49.6694 147.0995 64.1758 -41.5957 16.6587 35.0561
# 3 53.0966 64.1758 113.9868 -39.7010 8.8365 17.1735
# 4 -23.1683 -41.5957 -39.7010 58.3454 2.3640 -10.2253
# 5 16.1712 16.6587 8.8365 2.3640 47.0354 -2.0635
# 6 25.9009 35.0561 17.1735 -10.2253 -2.0635 53.1120
#
#
#
# Elastic Compliance Matrix: (Units=1/GPa)
#
#
# Indices 1 2 3 4 5 6 
#
# 1 0.018153 -0.001039 -0.006033 0.001495 -0.005083 -0.006126
# 2 -0.001039 0.011636 -0.003294 0.004857 -0.003622 -0.005314
# 3 -0.006033 -0.003294 0.015276 0.005875 0.000133 0.001313
# 4 0.001495 0.004857 0.005875 0.025177 -0.004654 -0.001168
# 5 -0.005083 -0.003622 0.000133 -0.004654 0.024715 0.004891
# 6 -0.006126 -0.005314 0.001313 -0.001168 0.004891 0.024863
#
#
# Mechanical properties :
#
#
# Convention : Reuss Voigt Hill
#
# Bulk Modulus (GPa) = 41.09817 76.19157 58.64487
# Shear Modulus (GPa) = 33.63282 44.02514 38.82898
#
# Velocity S-wave (km/s) = 3.64823 4.17399 3.91993
# Velocity P-wave (km/s) = 5.83181 7.30623 6.61026
#
# Compressibility (1/GPa) = 0.02433198
#
# Stress axis : x y z
#
# Youngs Moduli (GPa) = 55.08742 85.93829 65.46201
#
# Poissons Ratio (x) = 0.08931 0.39495
# Poissons Ratio (y) = 0.05725 0.21564
# Poissons Ratio (z) = 0.33236 0.28309
#
# Static dielectric constant tensor:
#      x y z
#    x 2.084740 -0.073150 -0.030500 
#    y -0.073150 2.115530 0.100570 
#    z -0.030500 0.100570 2.085990 
# 
# From -- ./inp_files/109652.got.cif
#   From: 2010.05.17/outbox.cif.g08.bks.cpg/sg2_55_cif.got.tgz:109652.got - 2010.06.03 11:33:40.
