data_PCOD9022592
_publ_section_title
;
Structure prediction by ZEFSAII (Michael W. Deem and Ramdas Pophale) SiO2 
 PCOD9022592
Probable space group: P -1
;
_chemical_formula_sum "Si O2"
_cell_formula_units_Z 16
_cell_length_a 4.941348
_cell_length_b 24.163750
_cell_length_c 6.345689
_cell_angle_alpha 111.444076
_cell_angle_beta 79.023552
_cell_angle_gamma 97.864952
_cell_volume 690.455682
_symmetry_space_group_name_H-M "P -1"
_symmetry_group_IT_number 2
_symmetry_cell_setting 'triclinic'
loop_
_space_group_symop_operation_xyz
x,y,z
-x,-y,-z
loop_
_atom_site_type_symbol
_atom_site_label
_atom_site_fract_x
_atom_site_fract_y
_atom_site_fract_z
Si Si1 0.547516 0.570489 0.603563
Si Si2 0.902885 0.739057 0.808921
Si Si3 0.508505 0.767697 0.285363
Si Si4 0.640345 0.657956 0.356648
Si Si5 0.786992 0.053532 0.111908
Si Si6 0.999481 0.826954 0.560448
Si Si7 0.288413 0.994040 0.335796
Si Si8 0.961436 0.368953 0.118456
O O1 0.500000 0.500000 0.500000
O O2 0.514101 0.600148 0.418718
O O3 0.318133 0.599296 0.820989
O O4 0.839894 0.591313 0.695837
O O5 0.768902 0.698053 0.584524
O O6 0.030819 0.795168 0.738925
O O7 0.090083 0.695709 0.851974
O O8 0.676436 0.758333 0.034940
O O9 0.458937 0.702887 0.315665
O O10 0.227509 0.798763 0.342271
O O11 0.706388 0.808677 0.470916
O O12 0.871015 0.639980 0.132328
O O13 0.926730 0.104313 0.308933
O O14 0.472450 0.038952 0.216787
O O15 0.753086 0.065187 0.883894
O O16 0.000000 0.000000 0.000000
O O17 0.500000 0.000000 0.500000
O O18 0.000000 0.000000 0.500000
#
# Coordination Sequence:
#
# PCOD9022592 Si02
#       8
#     2   2   2   2   2   2   2   2
#     4  11  23  38  59  91 127 165 210 256 307 370
#     4   9  21  42  64  91 121 161 207 256 318 371
#     4  10  23  41  63  94 122 162 206 260 316 377
#     4   9  21  40  64  88 125 164 208 261 313 369
#     4  11  26  44  69  98 133 170 220 266 327 400
#     4  11  25  40  65  92 128 156 207 260 313 372
#     4  11  24  44  68  92 126 172 215 258 316 385
#     4  10  22  39  63  88 122 165 209 254 312 370
#
# _framework density 23.173100999999999
#
# number of rings (size 3 to 8) (size 9 to 14) (size 15 to 20)
#    0.000    1.750    1.250    1.125    3.500   16.000 
#    0.000    0.000    0.000    0.000    0.000    0.000 
#    0.000    0.000    0.000    0.000    0.000    0.000 
#
# Total GULP energy -89369.483493 kJ/mol
# GULP energy per Si atom -5585.592718 kJ/mol
# Density = 2.312036 g / cm^3
# Si number density = 23.173101 Si / 1000 Ang^3
#
#
#
# Elastic Constant Matrix: (Units=GPa)
#
#
# Indices 1 2 3 4 5 6 
#
# 1 110.0856 19.3522 8.2482 3.2512 -10.5322 9.0185
# 2 19.3522 84.6926 31.3645 18.2418 -17.8453 11.6189
# 3 8.2482 31.3645 120.2036 -12.6179 -7.6482 3.7979
# 4 3.2512 18.2418 -12.6179 19.5433 2.1391 -0.9450
# 5 -10.5322 -17.8453 -7.6482 2.1391 36.0707 5.3531
# 6 9.0185 11.6189 3.7979 -0.9450 5.3531 23.8101
#
#
#
# Elastic Compliance Matrix: (Units=1/GPa)
#
#
# Indices 1 2 3 4 5 6 
#
# 1 0.009929 -0.000231 -0.000507 -0.002359 0.003476 -0.004442
# 2 -0.000231 0.029556 -0.009873 -0.036696 0.017325 -0.018112
# 3 -0.000507 -0.009873 0.012406 0.017992 -0.004164 0.004681
# 4 -0.002359 -0.036696 0.017992 0.101382 -0.024830 0.025536
# 5 0.003476 0.017325 -0.004164 -0.024830 0.040757 -0.019256
# 6 -0.004442 -0.018112 0.004681 0.025536 -0.019256 0.057116
#
#
# Mechanical properties :
#
#
# Convention : Reuss Voigt Hill
#
# Bulk Modulus (GPa) = 32.60775 48.10127 40.35451
# Shear Modulus (GPa) = 17.69348 32.95262 25.32305
#
# Velocity S-wave (km/s) = 2.76621 3.77506 3.30931
# Velocity P-wave (km/s) = 4.92996 6.30903 5.66164
#
# Compressibility (1/GPa) = 0.03066756
#
# Stress axis : x y z
#
# Youngs Moduli (GPa) = 100.71900 33.83445 80.60558
#
# Poissons Ratio (x) = 0.00781 0.04088
# Poissons Ratio (y) = 0.02325 0.79586
# Poissons Ratio (z) = 0.05108 0.33406
#
# Static dielectric constant tensor:
#      x y z
#    x 1.894870 -0.013530 0.060520 
#    y -0.013530 1.939450 -0.031550 
#    z 0.060520 -0.031550 1.756560 
# 
# From -- ./inp_files/13540.got.cif
#   From: 2010.05.17/outbox.cif.g08.bks.cpg/sg2_7_cif.got.tgz:13540.got - 2010.06.03 11:33:40.
