data_PCOD9022111
_publ_section_title
;
Structure prediction by ZEFSAII (Michael W. Deem and Ramdas Pophale) SiO2 
 PCOD9022111
Probable space group: P -1
;
_chemical_formula_sum "Si O2"
_cell_formula_units_Z 16
_cell_length_a 9.611465
_cell_length_b 9.552884
_cell_length_c 18.633709
_cell_angle_alpha 51.156168
_cell_angle_beta 30.634195
_cell_angle_gamma 43.305889
_cell_volume 597.955650
_symmetry_space_group_name_H-M "P -1"
_symmetry_group_IT_number 2
_symmetry_cell_setting 'triclinic'
loop_
_space_group_symop_operation_xyz
x,y,z
-x,-y,-z
loop_
_atom_site_type_symbol
_atom_site_label
_atom_site_fract_x
_atom_site_fract_y
_atom_site_fract_z
Si Si1 0.754959 0.958259 0.079597
Si Si2 0.141104 0.136086 0.639331
Si Si3 0.692207 0.604124 0.848201
Si Si4 0.260791 0.383303 0.341126
Si Si5 0.635660 0.488085 0.239770
Si Si6 0.722351 0.789117 0.007144
Si Si7 0.598684 0.667934 0.340208
Si Si8 0.666544 0.036036 0.519568
O O1 0.460950 0.171567 0.123324
O O2 0.645166 0.830638 0.218923
O O3 0.880971 0.841331 0.986784
O O4 0.000000 0.000000 0.000000
O O5 0.076101 0.009139 0.646176
O O6 0.988399 0.376443 0.615286
O O7 0.500000 0.000000 0.500000
O O8 0.275467 0.110144 0.668770
O O9 0.621824 0.623110 0.788792
O O10 0.059381 0.485252 0.733749
O O11 0.500000 0.500000 0.000000
O O12 0.505885 0.350866 0.305124
O O13 0.192522 0.193621 0.438506
O O14 0.510083 0.552395 0.354788
O O15 0.008509 0.367702 0.113127
O O16 0.561401 0.668574 0.155951
O O17 0.500000 0.000000 0.000000
O O18 0.355482 0.790932 0.471208
#
# Coordination Sequence:
#
# PCOD9022111 Si02
#       8
#     2   2   2   2   2   2   2   2
#     4  11  21  33  53  78 106 152 201 236 270 329
#     4   8  20  39  64  93 110 141 189 248 299 336
#     4  12  23  31  57  84 113 153 198 235 274 333
#     4  12  21  38  62  90 113 151 197 238 284 347
#     4  10  25  35  55  82 118 155 193 233 289 341
#     4  10  22  39  51  71 119 165 193 232 281 330
#     4  11  21  40  51  82 119 148 185 239 289 335
#     4   9  20  38  65  84 113 143 193 241 291 340
#
# _framework density 26.757835
#
# number of rings (size 3 to 8) (size 9 to 14) (size 15 to 20)
#    0.750    0.750    3.750    1.875    5.250    1.000 
#    0.000    0.625    0.000    3.000    0.000    0.000 
#    0.000    0.000    0.000    0.000    0.000    0.000 
#
# Total GULP energy -89142.028222 kJ/mol
# GULP energy per Si atom -5571.376764 kJ/mol
# Density = 2.669693 g / cm^3
# Si number density = 26.757835 Si / 1000 Ang^3
#
#
#
# Elastic Constant Matrix: (Units=GPa)
#
#
# Indices 1 2 3 4 5 6 
#
# 1 84.4779 29.9808 35.5675 -3.3727 16.4288 8.0630
# 2 29.9808 134.4389 36.5357 21.1747 2.5786 -18.1464
# 3 35.5675 36.5357 70.4494 15.0411 13.1503 3.5221
# 4 -3.3727 21.1747 15.0411 52.3500 3.3705 9.2331
# 5 16.4288 2.5786 13.1503 3.3705 36.2889 13.6356
# 6 8.0630 -18.1464 3.5221 9.2331 13.6356 47.6171
#
#
#
# Elastic Compliance Matrix: (Units=1/GPa)
#
#
# Indices 1 2 3 4 5 6 
#
# 1 0.017397 -0.003105 -0.007364 0.005367 -0.004199 -0.003423
# 2 -0.003105 0.010461 -0.003202 -0.004505 0.000144 0.005582
# 3 -0.007364 -0.003202 0.021380 -0.005170 -0.003921 0.000571
# 4 0.005367 -0.004505 -0.005170 0.023969 0.000143 -0.006932
# 5 -0.004199 0.000144 -0.003921 0.000143 0.034142 -0.008749
# 6 -0.003423 0.005582 0.000571 -0.006932 -0.008749 0.027515
#
#
# Mechanical properties :
#
#
# Convention : Reuss Voigt Hill
#
# Bulk Modulus (GPa) = 45.66762 54.83714 50.25238
# Shear Modulus (GPa) = 29.49770 39.73667 34.61719
#
# Velocity S-wave (km/s) = 3.32384 3.85781 3.60074
# Velocity P-wave (km/s) = 5.64221 6.35468 6.00902
#
# Compressibility (1/GPa) = 0.02189735
#
# Stress axis : x y z
#
# Youngs Moduli (GPa) = 57.47986 95.59217 46.77308
#
# Poissons Ratio (x) = 0.29684 0.34442
# Poissons Ratio (y) = 0.17849 0.14974
# Poissons Ratio (z) = 0.42327 0.30604
#
# Static dielectric constant tensor:
#      x y z
#    x 1.824100 -0.065000 -0.056730 
#    y -0.065000 2.096950 -0.021600 
#    z -0.056730 -0.021600 2.080350 
# 
# From -- ./inp_files/213390.got.cif
#   From: 2010.05.17/outbox.cif.g08.bks.cpg/sg2_107_cif.got.tgz:213390.got - 2010.06.03 11:33:40.
