data_PCOD9022669
_publ_section_title
;
Structure prediction by ZEFSAII (Michael W. Deem and Ramdas Pophale) SiO2 
 PCOD9022669
Probable space group: P -1
;
_chemical_formula_sum "Si O2"
_cell_formula_units_Z 16
_cell_length_a 10.556580
_cell_length_b 11.241196
_cell_length_c 13.525143
_cell_angle_alpha 113.590054
_cell_angle_beta 146.716869
_cell_angle_gamma 53.338644
_cell_volume 688.470614
_symmetry_space_group_name_H-M "P -1"
_symmetry_group_IT_number 2
_symmetry_cell_setting 'triclinic'
loop_
_space_group_symop_operation_xyz
x,y,z
-x,-y,-z
loop_
_atom_site_type_symbol
_atom_site_label
_atom_site_fract_x
_atom_site_fract_y
_atom_site_fract_z
Si Si1 0.219440 0.754699 0.588667
Si Si2 0.782435 0.316984 0.031051
Si Si3 0.364598 0.200622 0.437127
Si Si4 0.768305 0.477725 0.620339
Si Si5 0.611437 0.116982 0.962555
Si Si6 0.136994 0.887244 0.145025
Si Si7 0.298090 0.991785 0.592857
Si Si8 0.672073 0.623471 0.986720
O O1 0.125299 0.657519 0.434244
O O2 0.997124 0.857171 0.559948
O O3 0.253689 0.866902 0.575992
O O4 0.505431 0.641914 0.786881
O O5 0.665039 0.496235 0.009002
O O6 0.061415 0.232478 0.248662
O O7 0.607484 0.248596 0.935160
O O8 0.843713 0.262267 0.937677
O O9 0.312854 0.365256 0.431874
O O10 0.570482 0.144482 0.644576
O O11 0.530714 0.085762 0.418570
O O12 0.500000 0.500000 0.500000
O O13 0.013754 0.435396 0.840253
O O14 0.455301 0.044800 0.784985
O O15 0.475828 0.209260 0.004139
O O16 0.922153 0.974352 0.121389
O O17 0.000000 0.000000 0.000000
#
# Coordination Sequence:
#
# PCOD9022669 Si02
#       8
#     2   2   2   2   2   2   2   2
#     4  11  24  44  65  94 129 168 213 268 318 379
#     4  10  23  43  63  95 130 167 216 262 312 385
#     4  11  22  41  66  93 132 172 204 268 322 368
#     4  11  23  42  65  96 125 166 217 259 317 386
#     4  11  22  42  64  93 130 165 218 259 309 388
#     4  10  22  39  63  94 126 165 214 257 311 378
#     4  11  23  42  66  94 131 168 215 259 325 381
#     4  11  24  43  67  92 129 172 211 264 321 372
#
# _framework density 23.239917999999999
#
# number of rings (size 3 to 8) (size 9 to 14) (size 15 to 20)
#    0.000    1.250    3.750    1.875    0.000    4.000 
#    4.500    0.625    0.000    0.000    0.000    0.000 
#    0.000    0.000    0.000    0.000    0.000    0.000 
#
# Total GULP energy -89425.608988 kJ/mol
# GULP energy per Si atom -5589.100562 kJ/mol
# Density = 2.318702 g / cm^3
# Si number density = 23.239918 Si / 1000 Ang^3
#
#
#
# Elastic Constant Matrix: (Units=GPa)
#
#
# Indices 1 2 3 4 5 6 
#
# 1 10.3147 4.9664 -11.4582 -0.2012 8.4258 -2.7935
# 2 4.9664 120.6989 25.7248 12.5659 8.3854 -8.1313
# 3 -11.4582 25.7248 81.4241 1.2483 -15.8648 11.1555
# 4 -0.2012 12.5659 1.2483 39.8937 4.1152 1.3037
# 5 8.4258 8.3854 -15.8648 4.1152 17.0206 10.3755
# 6 -2.7935 -8.1313 11.1555 1.3037 10.3755 22.3295
#
#
#
# Elastic Compliance Matrix: (Units=1/GPa)
#
#
# Indices 1 2 3 4 5 6 
#
# 1 -0.228236 -0.080626 0.145985 -0.021874 0.520474 -0.371409
# 2 -0.080626 -0.003716 0.019875 -0.008384 0.104672 -0.069516
# 3 0.145985 0.019875 -0.026767 0.010367 -0.185341 0.124388
# 4 -0.021874 -0.008384 0.010367 0.024454 0.036647 -0.029425
# 5 0.520474 0.104672 -0.185341 0.036647 -0.767563 0.550335
# 6 -0.371409 -0.069516 0.124388 -0.029425 0.550335 -0.343135
#
#
# Mechanical properties :
#
#
# Convention : Reuss Voigt Hill
#
# Bulk Modulus (GPa) = -11.33131 27.87817 8.27343
# Shear Modulus (GPa) = -3.23657 28.72907 12.74625
#
# Velocity S-wave (km/s) = -1.18140 3.51977 2.34447
# Velocity P-wave (km/s) = 2.59756 5.34231 3.30098
#
# Compressibility (1/GPa) = -0.08825107
#
# Stress axis : x y z
#
# Youngs Moduli (GPa) = -4.38143 -269.12351 -37.35901
#
# Poissons Ratio (x) = -21.69845 5.45386
# Poissons Ratio (y) = -0.35326 0.74251
# Poissons Ratio (z) = 0.63962 5.34884
#
# Static dielectric constant tensor:
#      x y z
#    x 1.922370 -0.048180 0.005870 
#    y -0.048180 1.898110 0.009850 
#    z 0.005870 0.009850 1.878430 
# 
# From -- ./inp_files/472508.got.cif
#   From: 2010.05.17/outbox.cif.g08.bks.cpg/sg2_237_cif.got.tgz:472508.got - 2010.06.03 11:33:40.
