data_PCOD9022006
_publ_section_title
;
Structure prediction by ZEFSAII (Michael W. Deem and Ramdas Pophale) SiO2 
 PCOD9022006
Probable space group: P -1
;
_chemical_formula_sum "Si O2"
_cell_formula_units_Z 16
_cell_length_a 23.642362
_cell_length_b 13.243630
_cell_length_c 7.105715
_cell_angle_alpha 113.952535
_cell_angle_beta 48.278035
_cell_angle_gamma 152.786871
_cell_volume 636.922951
_symmetry_space_group_name_H-M "P -1"
_symmetry_group_IT_number 2
_symmetry_cell_setting 'triclinic'
loop_
_space_group_symop_operation_xyz
x,y,z
-x,-y,-z
loop_
_atom_site_type_symbol
_atom_site_label
_atom_site_fract_x
_atom_site_fract_y
_atom_site_fract_z
Si Si1 0.574616 0.150438 0.140564
Si Si2 0.254765 0.013556 0.650863
Si Si3 0.968580 0.198106 0.693095
Si Si4 0.066485 0.556120 0.603178
Si Si5 0.309224 0.867024 0.838312
Si Si6 0.423761 0.252252 0.845503
Si Si7 0.775098 0.816933 0.375287
Si Si8 0.151479 0.290340 0.112946
O O1 0.412525 0.953993 0.498635
O O2 0.305468 0.778450 0.952934
O O3 0.686526 0.410816 0.063035
O O4 0.500000 0.000000 0.000000
O O5 0.402014 0.207701 0.634145
O O6 0.294316 0.154906 0.511948
O O7 0.222435 0.848121 0.525777
O O8 0.076571 0.827348 0.012508
O O9 0.080941 0.446588 0.536040
O O10 0.075293 0.226714 0.438467
O O11 0.767882 0.938131 0.844105
O O12 0.000000 0.500000 0.500000
O O13 0.886533 0.353795 0.963101
O O14 0.408118 0.111287 0.865080
O O15 0.621216 0.563716 0.661969
O O16 0.794197 0.761048 0.107083
O O17 0.975762 0.086080 0.219476
#
# Coordination Sequence:
#
# PCOD9022006 Si02
#       8
#     2   2   2   2   2   2   2   2
#     4  11  24  41  67  98 134 175 226 277 344 401
#     4  10  22  38  68  94 131 175 220 276 330 401
#     4   9  22  38  62  95 128 161 219 274 329 391
#     4  11  21  39  65  96 131 168 222 278 345 393
#     4  10  22  41  64  96 134 175 216 282 341 388
#     4   9  21  40  64  93 126 171 219 274 329 387
#     4  11  22  43  67  88 135 181 223 268 328 405
#     4  11  24  43  64  95 131 178 222 271 334 403
#
# _framework density 25.120781000000001
#
# number of rings (size 3 to 8) (size 9 to 14) (size 15 to 20)
#    0.750    1.000    1.250    3.000    1.750    2.000 
#    0.000    1.250    0.000    0.000    0.000    0.000 
#    0.000    0.000    0.000    0.000    0.000    0.000 
#
# Total GULP energy -89436.996275 kJ/mol
# GULP energy per Si atom -5589.812267 kJ/mol
# Density = 2.506360 g / cm^3
# Si number density = 25.120781 Si / 1000 Ang^3
#
#
#
# Elastic Constant Matrix: (Units=GPa)
#
#
# Indices 1 2 3 4 5 6 
#
# 1 48.9415 20.5092 -3.1695 -2.4729 0.8289 -9.3223
# 2 20.5092 153.7797 14.4743 -1.8940 3.0911 -4.0404
# 3 -3.1695 14.4743 101.3904 -0.8758 -7.7460 -2.5510
# 4 -2.4729 -1.8940 -0.8758 29.4803 -2.7330 1.2876
# 5 0.8289 3.0911 -7.7460 -2.7330 34.5335 2.1051
# 6 -9.3223 -4.0404 -2.5510 1.2876 2.1051 35.1887
#
#
#
# Elastic Compliance Matrix: (Units=1/GPa)
#
#
# Indices 1 2 3 4 5 6 
#
# 1 0.022959 -0.003008 0.001288 0.001497 -0.000227 0.005789
# 2 -0.003008 0.007030 -0.001159 0.000091 -0.000808 -0.000029
# 3 0.001288 -0.001159 0.010274 0.000524 0.002371 0.000792
# 4 0.001497 0.000091 0.000524 0.034375 0.002854 -0.000984
# 5 -0.000227 -0.000808 0.002371 0.002854 0.029907 -0.001875
# 6 0.005789 -0.000029 0.000792 -0.000984 -0.001875 0.030154
#
#
# Mechanical properties :
#
#
# Convention : Reuss Voigt Hill
#
# Bulk Modulus (GPa) = 28.98162 40.85995 34.92078
# Shear Modulus (GPa) = 32.90365 37.99368 35.44866
#
# Velocity S-wave (km/s) = 3.62307 3.89323 3.76058
# Velocity P-wave (km/s) = 5.39111 6.04238 5.72601
#
# Compressibility (1/GPa) = 0.03450463
#
# Stress axis : x y z
#
# Youngs Moduli (GPa) = 43.55639 142.25330 97.33119
#
# Poissons Ratio (x) = 0.42791 -0.12540
# Poissons Ratio (y) = 0.13102 0.11283
# Poissons Ratio (z) = -0.05612 0.16491
#
# Static dielectric constant tensor:
#      x y z
#    x 1.914540 -0.007760 0.025530 
#    y -0.007760 2.009480 0.026630 
#    z 0.025530 0.026630 2.152630 
# 
# From -- ./inp_files/358803.got.cif
#   From: 2010.05.17/outbox.cif.g08.bks.cpg/sg2_180_cif.got.tgz:358803.got - 2010.06.03 11:33:40.
