data_PCOD9022273
_publ_section_title
;
Structure prediction by ZEFSAII (Michael W. Deem and Ramdas Pophale) SiO2 
 PCOD9022273
Probable space group: P -1
;
_chemical_formula_sum "Si O2"
_cell_formula_units_Z 16
_cell_length_a 16.272403
_cell_length_b 12.425857
_cell_length_c 8.927068
_cell_angle_alpha 149.064303
_cell_angle_beta 50.992533
_cell_angle_gamma 128.769488
_cell_volume 704.029136
_symmetry_space_group_name_H-M "P -1"
_symmetry_group_IT_number 2
_symmetry_cell_setting 'triclinic'
loop_
_space_group_symop_operation_xyz
x,y,z
-x,-y,-z
loop_
_atom_site_type_symbol
_atom_site_label
_atom_site_fract_x
_atom_site_fract_y
_atom_site_fract_z
Si Si1 0.061478 0.099232 0.859810
Si Si2 0.133188 0.711992 0.707077
Si Si3 0.483977 0.197920 0.155774
Si Si4 0.010353 0.604835 0.278264
Si Si5 0.595457 0.509898 0.187134
Si Si6 0.172957 0.360844 0.787964
Si Si7 0.729400 0.627181 0.905036
Si Si8 0.266074 0.181808 0.197628
O O1 0.088274 0.176785 0.750526
O O2 0.012235 0.849267 0.602640
O O3 0.174844 0.175600 0.908991
O O4 0.971801 0.224807 0.175661
O O5 0.213685 0.576193 0.382094
O O6 0.077640 0.552765 0.711089
O O7 0.201790 0.940234 0.953798
O O8 0.569593 0.276934 0.017726
O O9 0.489415 0.377891 0.495264
O O10 0.370579 0.165065 0.157158
O O11 0.500000 0.000000 0.000000
O O12 0.132260 0.573189 0.131575
O O13 0.000000 0.500000 0.000000
O O14 0.712086 0.625386 0.253104
O O15 0.617708 0.560058 0.047510
O O16 0.191580 0.305995 0.530189
O O17 0.706951 0.691085 0.837537
#
# Coordination Sequence:
#
# PCOD9022273 Si02
#       8
#     2   2   2   2   2   2   2   2
#     4  10  22  39  60  89 127 173 220 256 301 363
#     4  11  23  37  57  89 131 173 213 253 305 364
#     4  10  23  45  71  93 117 155 207 267 323 379
#     4  11  21  35  60  89 124 169 215 264 305 353
#     4   9  22  43  67  92 119 157 207 257 318 383
#     4   9  20  38  60  89 121 161 213 262 307 365
#     4  11  24  41  62  92 133 170 206 256 310 377
#     4  11  24  40  62  95 129 165 211 261 318 377
#
# _framework density 22.726330999999998
#
# number of rings (size 3 to 8) (size 9 to 14) (size 15 to 20)
#    0.000    1.750    0.000    3.375    0.000   15.500 
#    0.000    1.250    0.000    0.000    0.000    0.000 
#    0.000    0.000    0.000    0.000    0.000    0.000 
#
# Total GULP energy -89222.107626 kJ/mol
# GULP energy per Si atom -5576.381727 kJ/mol
# Density = 2.267461 g / cm^3
# Si number density = 22.726331 Si / 1000 Ang^3
#
#
#
# Elastic Constant Matrix: (Units=GPa)
#
#
# Indices 1 2 3 4 5 6 
#
# 1 88.6497 46.7716 20.5515 -1.4728 3.5766 -19.9444
# 2 46.7716 156.4839 50.5602 -5.2324 -3.9378 -15.6182
# 3 20.5515 50.5602 75.5555 8.4317 -8.7661 -15.2025
# 4 -1.4728 -5.2324 8.4317 38.2511 -3.6852 1.9579
# 5 3.5766 -3.9378 -8.7661 -3.6852 19.4852 2.4648
# 6 -19.9444 -15.6182 -15.2025 1.9579 2.4648 34.5128
#
#
#
# Elastic Compliance Matrix: (Units=1/GPa)
#
#
# Indices 1 2 3 4 5 6 
#
# 1 0.015223 -0.003757 -0.000679 -0.000616 -0.004884 0.007181
# 2 -0.003757 0.009347 -0.005548 0.002445 0.000617 -0.000568
# 3 -0.000679 -0.005548 0.019490 -0.004769 0.006173 0.005511
# 4 -0.000616 0.002445 -0.004769 0.028074 0.004181 -0.003241
# 5 -0.004884 0.000617 0.006173 0.004181 0.056427 -0.004091
# 6 0.007181 -0.000568 0.005511 -0.003241 -0.004091 0.035771
#
#
# Mechanical properties :
#
#
# Convention : Reuss Voigt Hill
#
# Bulk Modulus (GPa) = 41.51142 61.82841 51.66992
# Shear Modulus (GPa) = 25.99677 31.97019 28.98348
#
# Velocity S-wave (km/s) = 3.38584 3.75473 3.57504
# Velocity P-wave (km/s) = 5.79574 6.78690 6.31081
#
# Compressibility (1/GPa) = 0.02408976
#
# Stress axis : x y z
#
# Youngs Moduli (GPa) = 65.69195 106.99025 51.30774
#
# Poissons Ratio (x) = 0.40198 0.03486
# Poissons Ratio (y) = 0.24681 0.28467
# Poissons Ratio (z) = 0.04463 0.59361
#
# Static dielectric constant tensor:
#      x y z
#    x 1.968940 -0.057130 -0.014310 
#    y -0.057130 1.918320 -0.039090 
#    z -0.014310 -0.039090 1.894310 
# 
# From -- ./inp_files/333985.got.cif
#   From: 2010.05.17/outbox.cif.g08.bks.cpg/sg2_167_cif.got.tgz:333985.got - 2010.06.03 11:33:40.
