data_PCOD9022513
_publ_section_title
;
Structure prediction by ZEFSAII (Michael W. Deem and Ramdas Pophale) SiO2 
 PCOD9022513
Probable space group: P -1
;
_chemical_formula_sum "Si O2"
_cell_formula_units_Z 14
_cell_length_a 25.960402
_cell_length_b 17.658161
_cell_length_c 7.827277
_cell_angle_alpha 133.539169
_cell_angle_beta 35.197473
_cell_angle_gamma 160.089206
_cell_volume 644.026327
_symmetry_space_group_name_H-M "P -1"
_symmetry_group_IT_number 2
_symmetry_cell_setting 'triclinic'
loop_
_space_group_symop_operation_xyz
x,y,z
-x,-y,-z
loop_
_atom_site_type_symbol
_atom_site_label
_atom_site_fract_x
_atom_site_fract_y
_atom_site_fract_z
Si Si1 0.585756 0.702130 0.013358
Si Si2 0.618356 0.431547 0.334251
Si Si3 0.922274 0.558337 0.319387
Si Si4 0.948970 0.950544 0.360325
Si Si5 0.303280 0.455159 0.078399
Si Si6 0.705317 0.161647 0.116252
Si Si7 0.410139 0.820766 0.092233
O O1 0.567170 0.748613 0.308135
O O2 0.445116 0.599332 0.085312
O O3 0.500000 0.500000 0.000000
O O4 0.805387 0.901462 0.653781
O O5 0.816279 0.710044 0.289843
O O6 0.577455 0.419480 0.229972
O O7 0.662137 0.355928 0.091358
O O8 0.831724 0.580066 0.598121
O O9 0.859287 0.424827 0.114949
O O10 0.786922 0.362668 0.537237
O O11 0.163297 0.789495 0.066338
O O12 0.000000 0.000000 0.500000
O O13 0.157414 0.198511 0.080655
O O14 0.500000 0.000000 0.500000
O O15 0.608025 0.009080 0.973168
O O16 0.500000 0.000000 0.000000
#
# Coordination Sequence:
#
# PCOD9022513 Si02
#       7
#     2   2   2   2   2   2   2
#     4  10  22  42  63  92 132 164 219 266 317 385
#     4  10  23  43  62  94 131 166 218 266 317 388
#     4   9  21  40  63  95 123 165 216 260 314 396
#     4  11  22  42  63  93 129 167 215 264 325 381
#     4  11  22  41  67  93 130 170 212 265 327 384
#     4   9  19  40  64  86 128 161 210 261 314 376
#     4  10  22  39  62  92 128 165 210 263 325 378
#
# _framework density 21.738240999999999
#
# number of rings (size 3 to 8) (size 9 to 14) (size 15 to 20)
#    0.000    2.000    2.857    0.429    2.000    6.286 
#   12.857    0.000    0.000    0.000    0.000    0.000 
#    0.000    0.000    0.000    0.000    0.000    0.000 
#
# Total GULP energy -77966.334788 kJ/mol
# GULP energy per Si atom -5569.023913 kJ/mol
# Density = 2.168876 g / cm^3
# Si number density = 21.738241 Si / 1000 Ang^3
#
#
#
# Elastic Constant Matrix: (Units=GPa)
#
#
# Indices 1 2 3 4 5 6 
#
# 1 112.8538 40.2049 39.9616 -3.4092 -13.5761 6.3431
# 2 40.2049 92.7516 38.5468 10.8945 1.1816 -0.0358
# 3 39.9616 38.5468 79.2079 8.2963 -12.2746 15.8568
# 4 -3.4092 10.8945 8.2963 33.5919 8.6590 5.1287
# 5 -13.5761 1.1816 -12.2746 8.6590 35.4987 -11.3753
# 6 6.3431 -0.0358 15.8568 5.1287 -11.3753 30.2794
#
#
#
# Elastic Compliance Matrix: (Units=1/GPa)
#
#
# Indices 1 2 3 4 5 6 
#
# 1 0.012109 -0.003901 -0.004115 0.002788 0.002709 0.000159
# 2 -0.003901 0.015597 -0.006317 -0.004035 -0.001892 0.004116
# 3 -0.004115 -0.006317 0.020272 -0.003214 0.003952 -0.007733
# 4 0.002788 -0.004035 -0.003214 0.036699 -0.011942 -0.009608
# 5 0.002709 -0.001892 0.003952 -0.011942 0.037915 0.013627
# 6 0.000159 0.004116 -0.007733 -0.009608 0.013627 0.043793
#
#
# Mechanical properties :
#
#
# Convention : Reuss Voigt Hill
#
# Bulk Modulus (GPa) = 51.77816 58.02669 54.90242
# Shear Modulus (GPa) = 24.81515 30.94733 27.88124
#
# Velocity S-wave (km/s) = 3.38234 3.77720 3.58521
# Velocity P-wave (km/s) = 6.25494 6.76567 6.51531
#
# Compressibility (1/GPa) = 0.01931316
#
# Stress axis : x y z
#
# Youngs Moduli (GPa) = 82.58413 64.11374 49.32796
#
# Poissons Ratio (x) = 0.25008 0.20298
# Poissons Ratio (y) = 0.32212 0.31162
# Poissons Ratio (z) = 0.33983 0.40502
#
# Static dielectric constant tensor:
#      x y z
#    x 1.816670 -0.012990 0.002280 
#    y -0.012990 1.848060 -0.040340 
#    z 0.002280 -0.040340 1.841730 
# 
# From -- ./inp_files/357612.got.cif
#   From: 2010.05.17/outbox.cif.g08.bks.cpg/sg2_179_cif.got.tgz:357612.got - 2010.06.03 11:33:40.
