data_PCOD9022995
_publ_section_title
;
Structure prediction by ZEFSAII (Michael W. Deem and Ramdas Pophale) SiO2 
 PCOD9022995
Probable space group: P -1
;
_chemical_formula_sum "Si O2"
_cell_formula_units_Z 12
_cell_length_a 11.166712
_cell_length_b 12.631314
_cell_length_c 5.514716
_cell_angle_alpha 101.398395
_cell_angle_beta 65.427076
_cell_angle_gamma 53.609887
_cell_volume 452.568347
_symmetry_space_group_name_H-M "P -1"
_symmetry_group_IT_number 2
_symmetry_cell_setting 'triclinic'
loop_
_space_group_symop_operation_xyz
x,y,z
-x,-y,-z
loop_
_atom_site_type_symbol
_atom_site_label
_atom_site_fract_x
_atom_site_fract_y
_atom_site_fract_z
Si Si1 0.617736 0.813490 0.791191
Si Si2 0.800579 0.395616 0.176263
Si Si3 0.915250 0.169014 0.596218
Si Si4 0.809016 0.747818 0.094046
Si Si5 0.404104 0.669316 0.380703
Si Si6 0.267547 0.969864 0.864480
O O1 0.754835 0.735098 0.398449
O O2 0.433957 0.850024 0.883377
O O3 0.730163 0.731270 0.916684
O O4 0.500000 0.000000 0.000000
O O5 0.633068 0.549167 0.206658
O O6 0.680413 0.382691 0.429560
O O7 0.946936 0.233863 0.809665
O O8 0.948432 0.385704 0.181946
O O9 0.676394 0.307159 0.808979
O O10 0.000000 0.000000 0.500000
O O11 0.049346 0.120284 0.234543
O O12 0.702767 0.933559 0.248216
O O13 0.283633 0.852726 0.639790
#
# Coordination Sequence:
#
# PCOD9022995 Si02
#       6
#     2   2   2   2   2   2
#     4  10  22  39  65  96 125 166 219 275 321 372
#     4  11  23  41  61  88 134 167 211 259 327 391
#     4  12  22  38  64  96 124 168 213 265 321 387
#     4  11  22  41  67  93 126 173 217 270 321 382
#     4  11  24  40  59  95 127 170 207 264 330 383
#     4  11  21  41  64  95 126 161 221 267 317 382
#
# _framework density 26.515332000000001
#
# number of rings (size 3 to 8) (size 9 to 14) (size 15 to 20)
#    0.000    1.000    3.333    6.000    0.000    1.333 
#    0.000    1.667    0.000    0.000    0.000    1.167 
#    0.000    0.000    0.000    0.000    0.000    0.000 
#
# Total GULP energy -67148.317437 kJ/mol
# GULP energy per Si atom -5595.693120 kJ/mol
# Density = 2.645498 g / cm^3
# Si number density = 26.515332 Si / 1000 Ang^3
#
#
#
# Elastic Constant Matrix: (Units=GPa)
#
#
# Indices 1 2 3 4 5 6 
#
# 1 123.0712 55.5024 30.3822 -5.6971 1.6157 -51.6662
# 2 55.5024 109.0185 34.0084 -3.9591 -10.8832 -32.8428
# 3 30.3822 34.0084 93.1965 -9.2558 0.5585 -1.6740
# 4 -5.6971 -3.9591 -9.2558 29.7963 -10.3793 -5.1430
# 5 1.6157 -10.8832 0.5585 -10.3793 44.0756 2.3567
# 6 -51.6662 -32.8428 -1.6740 -5.1430 2.3567 69.2046
#
#
#
# Elastic Compliance Matrix: (Units=1/GPa)
#
#
# Indices 1 2 3 4 5 6 
#
# 1 0.014563 -0.003745 -0.002958 0.002503 -0.001326 0.009255
# 2 -0.003745 0.013746 -0.003556 0.001977 0.003847 0.003658
# 3 -0.002958 -0.003556 0.013171 0.002401 -0.000190 -0.003393
# 4 0.002503 0.001977 0.002401 0.039236 0.009313 0.005464
# 5 -0.001326 0.003847 -0.000190 0.009313 0.025848 0.000643
# 6 0.009255 0.003658 -0.003393 0.005464 0.000643 0.023397
#
#
# Mechanical properties :
#
#
# Convention : Reuss Voigt Hill
#
# Bulk Modulus (GPa) = 47.70654 62.78581 55.24617
# Shear Modulus (GPa) = 31.75256 42.30818 37.03037
#
# Velocity S-wave (km/s) = 3.46427 3.99884 3.74112
# Velocity P-wave (km/s) = 5.83375 6.71204 6.28825
#
# Compressibility (1/GPa) = 0.02096149
#
# Stress axis : x y z
#
# Youngs Moduli (GPa) = 68.66716 72.74596 75.92503
#
# Poissons Ratio (x) = 0.27242 0.22461
# Poissons Ratio (y) = 0.25714 0.27002
# Poissons Ratio (z) = 0.20314 0.25872
#
# Static dielectric constant tensor:
#      x y z
#    x 2.104520 -0.033680 -0.103250 
#    y -0.033680 2.189150 -0.013320 
#    z -0.103250 -0.013320 2.151550 
# 
# From -- ./inp_files/76050.got.cif
#   From: 2010.05.17/outbox.cif.g08.bks.cpg/sg2_39_cif.got.tgz:76050.got - 2010.06.03 11:33:40.
