data_PCOD9022372
_publ_section_title
;
Structure prediction by ZEFSAII (Michael W. Deem and Ramdas Pophale) SiO2 
 PCOD9022372
Probable space group: P -1
;
_chemical_formula_sum "Si O2"
_cell_formula_units_Z 12
_cell_length_a 6.790748
_cell_length_b 9.483806
_cell_length_c 13.963203
_cell_angle_alpha 141.780594
_cell_angle_beta 108.471686
_cell_angle_gamma 90.534471
_cell_volume 473.835988
_symmetry_space_group_name_H-M "P -1"
_symmetry_group_IT_number 2
_symmetry_cell_setting 'triclinic'
loop_
_space_group_symop_operation_xyz
x,y,z
-x,-y,-z
loop_
_atom_site_type_symbol
_atom_site_label
_atom_site_fract_x
_atom_site_fract_y
_atom_site_fract_z
Si Si1 0.319367 0.817554 0.664679
Si Si2 0.797017 0.509287 0.356848
Si Si3 0.980762 0.244164 0.087197
Si Si4 0.668079 0.318209 0.947943
Si Si5 0.320009 0.246357 0.700393
Si Si6 0.352693 0.793735 0.447655
O O1 0.361309 0.667062 0.677687
O O2 0.435949 0.793206 0.569425
O O3 0.042970 0.694947 0.541575
O O4 0.435340 0.118790 0.860466
O O5 0.849485 0.328250 0.194270
O O6 0.686090 0.655665 0.354865
O O7 0.211819 0.502678 0.245660
O O8 0.846263 0.208290 0.946775
O O9 0.000000 0.000000 0.000000
O O10 0.573281 0.319346 0.828149
O O11 0.764423 0.595172 0.157081
O O12 0.190708 0.941738 0.523201
O O13 0.500000 0.000000 0.500000
#
# Coordination Sequence:
#
# PCOD9022372 Si02
#       6
#     2   2   2   2   2   2
#     4   9  19  37  57  89 121 154 204 242 297 364
#     4   9  19  37  63  89 118 161 202 246 299 354
#     4  10  22  39  61  90 126 161 200 247 299 359
#     4   9  19  35  60  89 116 153 200 251 299 349
#     4   9  19  36  59  87 117 151 198 248 295 353
#     4  10  22  40  60  87 121 160 198 245 306 359
#
# _framework density 25.325220000000002
#
# number of rings (size 3 to 8) (size 9 to 14) (size 15 to 20)
#    0.000    2.667    0.000    0.000    0.000   17.333 
#    0.000   21.667    0.000    0.000    0.000    0.000 
#    0.000    0.000    0.000    0.000    0.000    0.000 
#
# Total GULP energy -66857.309316 kJ/mol
# GULP energy per Si atom -5571.442443 kJ/mol
# Density = 2.526758 g / cm^3
# Si number density = 25.325220 Si / 1000 Ang^3
#
#
#
# Elastic Constant Matrix: (Units=GPa)
#
#
# Indices 1 2 3 4 5 6 
#
# 1 38.8362 49.6975 21.0959 7.4140 12.8133 1.5641
# 2 49.6975 246.0604 53.8407 25.8272 14.6222 -8.4818
# 3 21.0959 53.8407 130.0456 24.2435 27.2384 -18.5745
# 4 7.4140 25.8272 24.2435 46.2656 -8.9263 1.3040
# 5 12.8133 14.6222 27.2384 -8.9263 18.2162 0.1548
# 6 1.5641 -8.4818 -18.5745 1.3040 0.1548 59.0030
#
#
#
# Elastic Compliance Matrix: (Units=1/GPa)
#
#
# Indices 1 2 3 4 5 6 
#
# 1 0.051763 -0.007162 0.010488 -0.020739 -0.056519 0.001506
# 2 -0.007162 0.005828 -0.001359 -0.001050 0.001873 0.000618
# 3 0.010488 -0.001359 0.022631 -0.022905 -0.051412 0.007292
# 4 -0.020739 -0.001050 -0.022905 0.052299 0.075378 -0.008165
# 5 -0.056519 0.001873 -0.051412 0.075378 0.207101 -0.016626
# 6 0.001506 0.000618 0.007292 -0.008165 -0.016626 0.019517
#
#
# Mechanical properties :
#
#
# Convention : Reuss Voigt Hill
#
# Bulk Modulus (GPa) = 11.88284 73.80115 42.84199
# Shear Modulus (GPa) = 13.04598 44.05082 28.54840
#
# Velocity S-wave (km/s) = 2.27213 4.17514 3.36113
# Velocity P-wave (km/s) = 3.40378 7.24203 5.65830
#
# Compressibility (1/GPa) = 0.08415496
#
# Stress axis : x y z
#
# Youngs Moduli (GPa) = 19.31868 171.57814 44.18706
#
# Poissons Ratio (x) = 1.22887 -0.46342
# Poissons Ratio (y) = 0.13836 0.06007
# Poissons Ratio (z) = -0.20261 0.23325
#
# Static dielectric constant tensor:
#      x y z
#    x 2.330430 -0.016360 -0.118680 
#    y -0.016360 2.010660 -0.036180 
#    z -0.118680 -0.036180 2.121930 
# 
# From -- ./inp_files/490226.got.cif
#   From: 2010.05.17/outbox.cif.g08.bks.cpg/sg2_246_cif.got.tgz:490226.got - 2010.06.03 11:33:40.
