data_PCOD9022962
_publ_section_title
;
Structure prediction by ZEFSAII (Michael W. Deem and Ramdas Pophale) SiO2 
 PCOD9022962
Probable space group: P -1
;
_chemical_formula_sum "Si O2"
_cell_formula_units_Z 14
_cell_length_a 12.258237
_cell_length_b 7.088925
_cell_length_c 8.916066
_cell_angle_alpha 93.759426
_cell_angle_beta 48.770827
_cell_angle_gamma 90.861047
_cell_volume 581.036355
_symmetry_space_group_name_H-M "P -1"
_symmetry_group_IT_number 2
_symmetry_cell_setting 'triclinic'
loop_
_space_group_symop_operation_xyz
x,y,z
-x,-y,-z
loop_
_atom_site_type_symbol
_atom_site_label
_atom_site_fract_x
_atom_site_fract_y
_atom_site_fract_z
Si Si1 0.205946 0.502469 0.270996
Si Si2 0.381858 0.702485 0.786478
Si Si3 0.769902 0.004441 0.881755
Si Si4 0.311672 0.182678 0.358747
Si Si5 0.698259 0.161285 0.452574
Si Si6 0.590800 0.676310 0.149869
Si Si7 0.964822 0.257190 0.359700
O O1 0.214116 0.363642 0.403481
O O2 0.143530 0.700488 0.399977
O O3 0.083083 0.417174 0.271063
O O4 0.356977 0.447579 0.049251
O O5 0.531242 0.745824 0.736880
O O6 0.369821 0.810108 0.646463
O O7 0.374080 0.477395 0.760659
O O8 0.258501 0.790647 0.012512
O O9 0.694717 0.952142 0.789661
O O10 0.936844 0.933230 0.723556
O O11 0.685416 0.861462 0.063677
O O12 0.271084 0.051143 0.527438
O O13 0.576354 0.257896 0.678572
O O14 0.854273 0.254402 0.322907
#
# Coordination Sequence:
#
# PCOD9022962 Si02
#       7
#     2   2   2   2   2   2   2
#     4   9  21  42  67  93 121 163 212 267 306 362
#     4  12  24  41  64  94 131 167 205 256 319 367
#     4  10  24  44  65  92 125 162 217 262 300 373
#     4  10  22  39  65  94 123 162 211 265 304 361
#     4  12  24  39  63  96 132 163 205 258 315 380
#     4  10  23  40  66  92 121 166 210 259 307 368
#     4   9  21  42  61  93 129 157 213 257 312 371
#
# _framework density 24.094878000000001
#
# number of rings (size 3 to 8) (size 9 to 14) (size 15 to 20)
#    0.000    2.000    1.429    2.143    4.000    5.714 
#    5.143    2.857    0.000    0.000    0.000    0.000 
#    0.000    0.000    0.000    0.000    0.000    0.000 
#
# Total GULP energy -78169.409825 kJ/mol
# GULP energy per Si atom -5583.529273 kJ/mol
# Density = 2.404004 g / cm^3
# Si number density = 24.094878 Si / 1000 Ang^3
#
#
#
# Elastic Constant Matrix: (Units=GPa)
#
#
# Indices 1 2 3 4 5 6 
#
# 1 116.8143 30.4482 57.8518 10.3990 -25.2860 -16.9776
# 2 30.4482 85.8218 7.9092 -0.5135 -4.5312 -14.7327
# 3 57.8518 7.9092 60.1893 2.1905 -12.2405 -4.9873
# 4 10.3990 -0.5135 2.1905 40.8389 -12.1684 -0.9245
# 5 -25.2860 -4.5312 -12.2405 -12.1684 27.4181 -4.2733
# 6 -16.9776 -14.7327 -4.9873 -0.9245 -4.2733 28.0770
#
#
#
# Elastic Compliance Matrix: (Units=1/GPa)
#
#
# Indices 1 2 3 4 5 6 
#
# 1 0.023184 -0.003955 -0.017959 -0.000519 0.014178 0.010895
# 2 -0.003955 0.013858 0.002677 0.001588 0.001420 0.005624
# 3 -0.017959 0.002677 0.032954 0.002498 -0.000869 -0.003651
# 4 -0.000519 0.001588 0.002498 0.028874 0.014352 0.004098
# 5 0.014178 0.001420 -0.000869 0.014352 0.058657 0.018564
# 6 0.010895 0.005624 -0.003651 0.004098 0.018564 0.047467
#
#
# Mechanical properties :
#
#
# Convention : Reuss Voigt Hill
#
# Bulk Modulus (GPa) = 31.72309 50.58264 41.15287
# Shear Modulus (GPa) = 19.68688 30.37455 25.03071
#
# Velocity S-wave (km/s) = 2.86152 3.55438 3.22660
# Velocity P-wave (km/s) = 4.91042 6.15496 5.56757
#
# Compressibility (1/GPa) = 0.03152278
#
# Stress axis : x y z
#
# Youngs Moduli (GPa) = 43.13279 72.15865 30.34527
#
# Poissons Ratio (x) = 0.28536 0.54498
# Poissons Ratio (y) = 0.17057 -0.08123
# Poissons Ratio (z) = 0.77463 -0.19316
#
# Static dielectric constant tensor:
#      x y z
#    x 1.858520 -0.009300 0.035580 
#    y -0.009300 2.001150 -0.047640 
#    z 0.035580 -0.047640 1.988400 
# 
# From -- ./inp_files/243845.got.cif
#   From: 2010.05.17/outbox.cif.g08.bks.cpg/sg2_122_cif.got.tgz:243845.got - 2010.06.03 11:33:40.
