data_PCOD9022263
_publ_section_title
;
Structure prediction by ZEFSAII (Michael W. Deem and Ramdas Pophale) SiO2 
 PCOD9022263
Probable space group: P -1
;
_chemical_formula_sum "Si O2"
_cell_formula_units_Z 16
_cell_length_a 8.084820
_cell_length_b 8.533148
_cell_length_c 13.462816
_cell_angle_alpha 97.528829
_cell_angle_beta 124.439268
_cell_angle_gamma 55.332972
_cell_volume 604.610849
_symmetry_space_group_name_H-M "P -1"
_symmetry_group_IT_number 2
_symmetry_cell_setting 'triclinic'
loop_
_space_group_symop_operation_xyz
x,y,z
-x,-y,-z
loop_
_atom_site_type_symbol
_atom_site_label
_atom_site_fract_x
_atom_site_fract_y
_atom_site_fract_z
Si Si1 0.078277 0.650440 0.615568
Si Si2 0.828712 0.698856 0.729693
Si Si3 0.916887 0.789199 0.125774
Si Si4 0.515181 0.790420 0.090270
Si Si5 0.013676 0.045692 0.647995
Si Si6 0.881624 0.233529 0.003220
Si Si7 0.551661 0.394210 0.404190
Si Si8 0.372046 0.098367 0.661646
O O1 0.998797 0.592462 0.681071
O O2 0.861067 0.725152 0.465849
O O3 0.342922 0.535324 0.637107
O O4 0.049854 0.844854 0.660855
O O5 0.682827 0.606643 0.700771
O O6 0.969420 0.731815 0.864610
O O7 0.587479 0.931088 0.648504
O O8 0.777398 0.703265 0.117120
O O9 0.038585 0.836263 0.258042
O O10 0.100391 0.682221 0.086763
O O11 0.686432 0.003525 0.019412
O O12 0.530244 0.831908 0.214533
O O13 0.393989 0.676348 0.042952
O O14 0.797298 0.175515 0.503821
O O15 0.263915 0.009498 0.687668
O O16 0.000000 0.000000 0.000000
O O17 0.500000 0.500000 0.500000
#
# Coordination Sequence:
#
# PCOD9022263 Si02
#       8
#     2   2   2   2   2   2   2   2
#     4  11  21  34  59  87 109 135 186 237 275 324
#     4  12  21  33  57  84 113 148 181 220 282 327
#     4   9  17  27  47  75 112 139 167 212 270 323
#     4   9  17  27  42  73 118 139 160 209 281 321
#     4  10  19  34  58  86 109 140 185 229 277 323
#     4  10  18  28  46  80 116 138 170 216 278 327
#     4  11  25  42  55  76 115 152 183 226 273 328
#     4  10  17  31  50  84 118 138 169 223 280 322
#
# _framework density 26.463301999999999
#
# number of rings (size 3 to 8) (size 9 to 14) (size 15 to 20)
#    0.000    1.750    5.000    2.625    0.000    1.500 
#    0.000    0.000    0.000    0.750    0.000    8.750 
#    0.000    0.000    0.000    0.000    0.000    0.000 
#
# Total GULP energy -89554.225173 kJ/mol
# GULP energy per Si atom -5597.139073 kJ/mol
# Density = 2.640307 g / cm^3
# Si number density = 26.463302 Si / 1000 Ang^3
#
#
#
# Elastic Constant Matrix: (Units=GPa)
#
#
# Indices 1 2 3 4 5 6 
#
# 1 227.3169 23.7119 83.9560 1.3952 4.9014 -20.2601
# 2 23.7119 73.7241 24.0225 13.7632 0.0897 -11.1959
# 3 83.9560 24.0225 186.2520 22.4601 15.2509 0.8830
# 4 1.3952 13.7632 22.4601 35.0826 2.5031 -6.5390
# 5 4.9014 0.0897 15.2509 2.5031 56.3198 1.0567
# 6 -20.2601 -11.1959 0.8830 -6.5390 1.0567 34.4932
#
#
#
# Elastic Compliance Matrix: (Units=1/GPa)
#
#
# Indices 1 2 3 4 5 6 
#
# 1 0.005867 -0.000877 -0.002874 0.002641 0.000082 0.003733
# 2 -0.000877 0.015651 -0.001109 -0.004745 0.000494 0.003679
# 3 -0.002874 -0.001109 0.007517 -0.004731 -0.001515 -0.003091
# 4 0.002641 -0.004745 -0.004731 0.034582 -0.000604 0.006707
# 5 0.000082 0.000494 -0.001515 -0.000604 0.018193 -0.000425
# 6 0.003733 0.003679 -0.003091 0.006707 -0.000425 0.033742
#
#
# Mechanical properties :
#
#
# Convention : Reuss Voigt Hill
#
# Bulk Modulus (GPa) = 51.77345 83.40818 67.59082
# Shear Modulus (GPa) = 37.96180 48.88596 43.42388
#
# Velocity S-wave (km/s) = 3.79160 4.30270 4.05521
# Velocity P-wave (km/s) = 6.22696 7.50141 6.89370
#
# Compressibility (1/GPa) = 0.01931492
#
# Stress axis : x y z
#
# Youngs Moduli (GPa) = 170.44594 63.89233 133.03022
#
# Poissons Ratio (x) = 0.05600 0.38238
# Poissons Ratio (y) = 0.14940 0.14757
# Poissons Ratio (z) = 0.48993 0.07087
#
# Static dielectric constant tensor:
#      x y z
#    x 2.073000 -0.003990 0.024710 
#    y -0.003990 2.198340 -0.043850 
#    z 0.024710 -0.043850 2.014650 
# 
# From -- ./inp_files/376381.got.cif
#   From: 2010.05.17/outbox.cif.g08.bks.cpg/sg2_189_cif.got.tgz:376381.got - 2010.06.03 11:33:40.
