data_PCOD9022573
_publ_section_title
;
Structure prediction by ZEFSAII (Michael W. Deem and Ramdas Pophale) SiO2 
 PCOD9022573
Probable space group: P -1
;
_chemical_formula_sum "Si O2"
_cell_formula_units_Z 16
_cell_length_a 5.271720
_cell_length_b 9.172326
_cell_length_c 16.931063
_cell_angle_alpha 87.653279
_cell_angle_beta 122.749625
_cell_angle_gamma 104.438133
_cell_volume 662.351998
_symmetry_space_group_name_H-M "P -1"
_symmetry_group_IT_number 2
_symmetry_cell_setting 'triclinic'
loop_
_space_group_symop_operation_xyz
x,y,z
-x,-y,-z
loop_
_atom_site_type_symbol
_atom_site_label
_atom_site_fract_x
_atom_site_fract_y
_atom_site_fract_z
Si Si1 0.185141 0.386526 0.700777
Si Si2 0.628920 0.959873 0.775137
Si Si3 0.697788 0.863452 0.162239
Si Si4 0.379336 0.047067 0.562941
Si Si5 0.817801 0.619118 0.638693
Si Si6 0.228063 0.330701 0.207893
Si Si7 0.274086 0.602359 0.988902
Si Si8 0.748952 0.650309 0.459748
O O1 0.174907 0.244561 0.755144
O O2 0.537233 0.500033 0.754810
O O3 0.084528 0.334785 0.596001
O O4 0.987380 0.494809 0.696537
O O5 0.473979 0.041982 0.813244
O O6 0.499514 0.986424 0.665086
O O7 0.002875 0.033966 0.834348
O O8 0.592758 0.784737 0.794759
O O9 0.469364 0.747322 0.067350
O O10 0.456314 0.229778 0.577460
O O11 0.500000 0.000000 0.500000
O O12 0.000000 0.000000 0.500000
O O13 0.837544 0.729218 0.711806
O O14 0.940384 0.680158 0.572534
O O15 0.456729 0.524218 0.568748
O O16 0.913303 0.339704 0.112927
O O17 0.500000 0.500000 0.000000
O O18 0.000000 0.500000 0.000000
#
# Coordination Sequence:
#
# PCOD9022573 Si02
#       8
#     2   2   2   2   2   2   2   2
#     4  11  22  41  72  97 138 191 242 297 361 424
#     4  12  28  48  71 108 152 191 242 299 368 434
#     4  12  26  47  76 103 147 194 240 301 371 435
#     4  12  26  42  67  97 145 192 240 284 356 424
#     4  10  22  40  67  97 138 182 244 300 356 415
#     4  11  27  44  72 107 141 188 239 306 362 428
#     4  12  26  48  79 114 141 184 247 305 363 438
#     4  10  22  39  62  99 133 188 244 292 351 428
#
# _framework density 24.156338999999999
#
# number of rings (size 3 to 8) (size 9 to 14) (size 15 to 20)
#    0.000    0.750    2.500    4.125    7.000    1.000 
#    0.000    0.000    0.000    0.000    0.000    0.000 
#    0.000    0.000    0.000    0.000    0.000    0.000 
#
# Total GULP energy -89573.071161 kJ/mol
# GULP energy per Si atom -5598.316948 kJ/mol
# Density = 2.410136 g / cm^3
# Si number density = 24.156339 Si / 1000 Ang^3
#
#
#
# Elastic Constant Matrix: (Units=GPa)
#
#
# Indices 1 2 3 4 5 6 
#
# 1 129.1267 31.8001 30.7046 16.5144 6.1768 -19.2651
# 2 31.8001 106.3427 26.9265 0.7778 1.3373 -21.4846
# 3 30.7046 26.9265 117.7277 2.9909 2.4232 -7.5270
# 4 16.5144 0.7778 2.9909 34.2794 -3.2115 11.1159
# 5 6.1768 1.3373 2.4232 -3.2115 28.4534 4.6664
# 6 -19.2651 -21.4846 -7.5270 11.1159 4.6664 54.9867
#
#
#
# Elastic Compliance Matrix: (Units=1/GPa)
#
#
# Indices 1 2 3 4 5 6 
#
# 1 0.010194 -0.001645 -0.001776 -0.006424 -0.003410 0.004274
# 2 -0.001645 0.011121 -0.001851 -0.000556 -0.000675 0.003685
# 3 -0.001776 -0.001851 0.009382 0.000065 -0.000311 -0.000048
# 4 -0.006424 -0.000556 0.000065 0.036328 0.007224 -0.010416
# 5 -0.003410 -0.000675 -0.000311 0.007224 0.037770 -0.006167
# 6 0.004274 0.003685 -0.000048 -0.010416 -0.006167 0.023746
#
#
# Mechanical properties :
#
#
# Convention : Reuss Voigt Hill
#
# Bulk Modulus (GPa) = 49.61862 59.11772 54.36817
# Shear Modulus (GPa) = 34.29243 41.12830 37.71037
#
# Velocity S-wave (km/s) = 3.77185 4.13072 3.95536
# Velocity P-wave (km/s) = 6.28923 6.87579 6.58904
#
# Compressibility (1/GPa) = 0.02015373
#
# Stress axis : x y z
#
# Youngs Moduli (GPa) = 98.09521 89.91707 106.58327
#
# Poissons Ratio (x) = 0.14796 0.18926
# Poissons Ratio (y) = 0.16141 0.19727
# Poissons Ratio (z) = 0.17419 0.16642
#
# Static dielectric constant tensor:
#      x y z
#    x 1.965910 0.061050 -0.011270 
#    y 0.061050 1.945980 0.025360 
#    z -0.011270 0.025360 1.966570 
# 
# From -- ./inp_files/323578.got.cif
#   From: 2010.05.17/outbox.cif.g08.bks.cpg/sg2_162_cif.got.tgz:323578.got - 2010.06.03 11:33:40.
