data_PCOD9022163
_publ_section_title
;
Structure prediction by ZEFSAII (Michael W. Deem and Ramdas Pophale) SiO2 
 PCOD9022163
Probable space group: P -1
;
_chemical_formula_sum "Si O2"
_cell_formula_units_Z 16
_cell_length_a 9.704792
_cell_length_b 21.268880
_cell_length_c 6.806155
_cell_angle_alpha 135.446641
_cell_angle_beta 125.638298
_cell_angle_gamma 62.312239
_cell_volume 797.999887
_symmetry_space_group_name_H-M "P -1"
_symmetry_group_IT_number 2
_symmetry_cell_setting 'triclinic'
loop_
_space_group_symop_operation_xyz
x,y,z
-x,-y,-z
loop_
_atom_site_type_symbol
_atom_site_label
_atom_site_fract_x
_atom_site_fract_y
_atom_site_fract_z
Si Si1 0.641631 0.848896 0.060920
Si Si2 0.614587 0.689308 0.371035
Si Si3 0.918641 0.600759 0.674841
Si Si4 0.768582 0.275928 0.852728
Si Si5 0.815896 0.710974 0.196855
Si Si6 0.166119 0.041360 0.810657
Si Si7 0.264118 0.884852 0.839125
Si Si8 0.063772 0.814308 0.848390
O O1 0.762593 0.796453 0.202860
O O2 0.715480 0.935120 0.218464
O O3 0.619944 0.779758 0.708242
O O4 0.456047 0.871152 0.044824
O O5 0.760143 0.621669 0.441654
O O6 0.416992 0.669059 0.176001
O O7 0.674456 0.701650 0.224903
O O8 0.000000 0.500000 0.500000
O O9 0.846250 0.626983 0.889326
O O10 0.069624 0.666049 0.905536
O O11 0.770489 0.200910 0.516519
O O12 0.796316 0.221189 0.957121
O O13 0.990260 0.731018 0.492249
O O14 0.247766 0.972574 0.885095
O O15 0.000000 0.000000 0.500000
O O16 0.094919 0.134652 0.058058
O O17 0.134897 0.882800 0.906400
#
# Coordination Sequence:
#
# PCOD9022163 Si02
#       8
#     2   2   2   2   2   2   2   2
#     4  10  22  39  58  87 123 163 205 253 302 349
#     4  10  22  41  65  91 124 163 201 247 299 369
#     4  11  24  43  67  95 124 155 195 251 311 369
#     4  11  22  42  64  90 125 162 203 248 307 363
#     4  11  20  41  66  88 122 161 206 246 302 368
#     4  12  22  38  57  86 125 160 209 258 300 345
#     4  11  23  38  59  87 123 164 207 255 299 353
#     4  12  21  39  63  88 117 165 210 246 299 362
#
# _framework density 20.050125999999999
#
# number of rings (size 3 to 8) (size 9 to 14) (size 15 to 20)
#    0.000    1.000    5.000    3.000    0.000    1.000 
#    0.000    1.875    0.000    0.000    0.000    0.000 
#    0.000    0.000    0.000    0.000    0.000    0.000 
#
# Total GULP energy -89388.364972 kJ/mol
# GULP energy per Si atom -5586.772811 kJ/mol
# Density = 2.000449 g / cm^3
# Si number density = 20.050126 Si / 1000 Ang^3
#
#
#
# Elastic Constant Matrix: (Units=GPa)
#
#
# Indices 1 2 3 4 5 6 
#
# 1 85.6408 13.8593 11.4547 -18.0338 1.1842 -7.5941
# 2 13.8593 53.2844 13.1576 1.3244 9.3095 -16.0197
# 3 11.4547 13.1576 38.0508 -11.8702 1.7473 1.0261
# 4 -18.0338 1.3244 -11.8702 18.3629 -1.4838 -1.9846
# 5 1.1842 9.3095 1.7473 -1.4838 21.5597 -13.1593
# 6 -7.5941 -16.0197 1.0261 -1.9846 -13.1593 24.7828
#
#
#
# Elastic Compliance Matrix: (Units=1/GPa)
#
#
# Indices 1 2 3 4 5 6 
#
# 1 0.016734 -0.004265 0.001971 0.019337 0.006563 0.007323
# 2 -0.004265 0.028411 -0.012938 -0.013181 -0.002660 0.015126
# 3 0.001971 -0.012938 0.038846 0.027163 -0.000282 -0.007342
# 4 0.019337 -0.013181 0.027163 0.094686 0.016722 0.012742
# 5 0.006563 -0.002660 -0.000282 0.016722 0.073009 0.040409
# 6 0.007323 0.015126 -0.007342 0.012742 0.040409 0.075153
#
#
# Mechanical properties :
#
#
# Convention : Reuss Voigt Hill
#
# Bulk Modulus (GPa) = 18.68235 28.21326 23.44781
# Shear Modulus (GPa) = 13.32813 22.17470 17.75142
#
# Velocity S-wave (km/s) = 2.58105 3.32921 2.97871
# Velocity P-wave (km/s) = 4.26855 5.37402 4.85287
#
# Compressibility (1/GPa) = 0.05352645
#
# Stress axis : x y z
#
# Youngs Moduli (GPa) = 59.75944 35.19728 25.74265
#
# Poissons Ratio (x) = 0.15011 -0.05073
# Poissons Ratio (y) = 0.25486 0.33306
# Poissons Ratio (z) = -0.11777 0.45539
#
# Static dielectric constant tensor:
#      x y z
#    x 1.713410 -0.013520 -0.008880 
#    y -0.013520 1.695560 0.004120 
#    z -0.008880 0.004120 1.745670 
# 
# From -- ./inp_files/37905.got.cif
#   From: 2010.05.17/outbox.cif.g08.bks.cpg/sg2_19_cif.got.tgz:37905.got - 2010.06.03 11:33:40.
