data_PCOD9022405
_publ_section_title
;
Structure prediction by ZEFSAII (Michael W. Deem and Ramdas Pophale) SiO2 
 PCOD9022405
Probable space group: P -1
;
_chemical_formula_sum "Si O2"
_cell_formula_units_Z 12
_cell_length_a 16.292518
_cell_length_b 8.277997
_cell_length_c 19.532198
_cell_angle_alpha 133.224328
_cell_angle_beta 21.037895
_cell_angle_gamma 145.329267
_cell_volume 491.801706
_symmetry_space_group_name_H-M "P -1"
_symmetry_group_IT_number 2
_symmetry_cell_setting 'triclinic'
loop_
_space_group_symop_operation_xyz
x,y,z
-x,-y,-z
loop_
_atom_site_type_symbol
_atom_site_label
_atom_site_fract_x
_atom_site_fract_y
_atom_site_fract_z
Si Si1 0.131576 0.696805 0.691122
Si Si2 0.013242 0.907776 0.055797
Si Si3 0.430448 0.583015 0.326876
Si Si4 0.870895 0.743282 0.673655
Si Si5 0.514156 0.054488 0.793626
Si Si6 0.716346 0.126200 0.935214
O O1 0.152590 0.542794 0.565995
O O2 0.002658 0.483435 0.796164
O O3 0.500000 0.000000 0.500000
O O4 0.969408 0.827372 0.850998
O O5 0.655965 0.627276 0.223081
O O6 0.285781 0.085852 0.835983
O O7 0.157855 0.843024 0.980106
O O8 0.268288 0.338943 0.320137
O O9 0.685856 0.413551 0.757905
O O10 0.243648 0.934539 0.433787
O O11 0.821037 0.942615 0.806055
O O12 0.474394 0.946656 0.869955
O O13 0.500000 0.000000 0.000000
#
# Coordination Sequence:
#
# PCOD9022405 Si02
#       6
#     2   2   2   2   2   2
#     4  10  22  40  63  89 124 169 210 254 309 371
#     4   9  19  38  65  87 117 165 209 252 307 372
#     4   9  18  36  61  88 118 159 205 248 308 370
#     4  10  22  39  64  94 127 162 203 260 318 373
#     4  10  22  39  61  94 128 162 205 258 316 370
#     4  12  24  38  64  96 126 164 212 261 309 374
#
# _framework density 24.400075000000001
#
# number of rings (size 3 to 8) (size 9 to 14) (size 15 to 20)
#    0.000    2.000    0.000    3.500    0.000    8.000 
#    0.000    3.333    0.000   44.000    0.000    0.000 
#    0.000    0.000    0.000    0.000    0.000    0.000 
#
# Total GULP energy -67081.337890 kJ/mol
# GULP energy per Si atom -5590.111491 kJ/mol
# Density = 2.434454 g / cm^3
# Si number density = 24.400075 Si / 1000 Ang^3
#
#
#
# Elastic Constant Matrix: (Units=GPa)
#
#
# Indices 1 2 3 4 5 6 
#
# 1 87.0642 -1.8437 22.3570 -14.6191 -7.0589 -1.1084
# 2 -1.8437 91.0882 38.2359 7.6743 6.3712 -4.9602
# 3 22.3570 38.2359 119.6073 7.0949 8.0756 -11.2993
# 4 -14.6191 7.6743 7.0949 33.0246 -1.1813 2.6887
# 5 -7.0589 6.3712 8.0756 -1.1813 41.1701 -5.1387
# 6 -1.1084 -4.9602 -11.2993 2.6887 -5.1387 24.7522
#
#
#
# Elastic Compliance Matrix: (Units=1/GPa)
#
#
# Indices 1 2 3 4 5 6 
#
# 1 0.013806 0.000944 -0.003581 0.006846 0.003002 -0.000948
# 2 0.000944 0.012974 -0.004075 -0.001820 -0.001002 0.000771
# 3 -0.003581 -0.004075 0.011036 -0.003403 -0.001738 0.004070
# 4 0.006846 -0.001820 -0.003403 0.034953 0.002516 -0.004886
# 5 0.003002 -0.001002 -0.001738 0.002516 0.025902 0.004244
# 6 -0.000948 0.000771 0.004070 -0.004886 0.004244 0.043782
#
#
# Mechanical properties :
#
#
# Convention : Reuss Voigt Hill
#
# Bulk Modulus (GPa) = 40.99650 46.13980 43.56815
# Shear Modulus (GPa) = 30.48635 35.72342 33.10489
#
# Velocity S-wave (km/s) = 3.53857 3.83047 3.68741
# Velocity P-wave (km/s) = 5.79082 6.20597 6.00199
#
# Compressibility (1/GPa) = 0.02439232
#
# Stress axis : x y z
#
# Youngs Moduli (GPa) = 72.43197 77.07929 90.60868
#
# Poissons Ratio (x) = -0.07278 0.32445
# Poissons Ratio (y) = -0.06839 0.36927
# Poissons Ratio (z) = 0.25936 0.31413
#
# Static dielectric constant tensor:
#      x y z
#    x 2.013250 0.107400 -0.009260 
#    y 0.107400 1.884210 0.059780 
#    z -0.009260 0.059780 1.939310 
# 
# From -- ./inp_files/413929.got.cif
#   From: 2010.05.17/outbox.cif.g08.bks.cpg/sg2_207_cif.got.tgz:413929.got - 2010.06.03 11:33:40.
