data_PCOD9022383
_publ_section_title
;
Structure prediction by ZEFSAII (Michael W. Deem and Ramdas Pophale) SiO2 
 PCOD9022383
Probable space group: P -1
;
_chemical_formula_sum "Si O2"
_cell_formula_units_Z 14
_cell_length_a 7.979308
_cell_length_b 9.333947
_cell_length_c 18.536181
_cell_angle_alpha 116.300713
_cell_angle_beta 34.357106
_cell_angle_gamma 93.365440
_cell_volume 555.088478
_symmetry_space_group_name_H-M "P -1"
_symmetry_group_IT_number 2
_symmetry_cell_setting 'triclinic'
loop_
_space_group_symop_operation_xyz
x,y,z
-x,-y,-z
loop_
_atom_site_type_symbol
_atom_site_label
_atom_site_fract_x
_atom_site_fract_y
_atom_site_fract_z
Si Si1 0.426999 0.223202 0.145108
Si Si2 0.307047 0.704522 0.207898
Si Si3 0.485656 0.018248 0.812999
Si Si4 0.713946 0.269890 0.389623
Si Si5 0.325914 0.220994 0.637526
Si Si6 0.013292 0.722671 0.084979
Si Si7 0.882886 0.704785 0.482455
O O1 0.638543 0.056343 0.095246
O O2 0.138259 0.184517 0.210780
O O3 0.166923 0.458416 0.320821
O O4 0.712922 0.213595 0.986747
O O5 0.096324 0.649198 0.216681
O O6 0.052789 0.782605 0.386872
O O7 0.343097 0.867643 0.197825
O O8 0.697889 0.515440 0.058073
O O9 0.789781 0.812578 0.615756
O O10 0.169776 0.178580 0.904609
O O11 0.500000 0.500000 0.500000
O O12 0.573996 0.269904 0.519769
O O13 0.517449 0.211128 0.391900
O O14 0.294125 0.220032 0.733674
O O15 0.500000 0.000000 0.500000
#
# Coordination Sequence:
#
# PCOD9022383 Si02
#       7
#     2   2   2   2   2   2   2
#     4  10  22  41  63  92 125 162 206 256 310 358
#     4  10  22  39  61  91 124 161 205 252 309 365
#     4  12  22  38  60  90 126 168 207 249 299 367
#     4   9  19  39  64  92 119 151 203 254 302 361
#     4  11  22  42  67  93 119 156 207 258 306 367
#     4  11  24  42  61  89 129 165 201 253 307 365
#     4   9  20  39  64  91 123 159 205 258 307 363
#
# _framework density 25.221204
#
# number of rings (size 3 to 8) (size 9 to 14) (size 15 to 20)
#    0.000    1.714    0.000    5.571    0.000    1.143 
#    0.000   16.429    0.000    0.000    0.000    0.000 
#    0.000    0.000    0.000    0.000    0.000    0.000 
#
# Total GULP energy -78220.688445 kJ/mol
# GULP energy per Si atom -5587.192032 kJ/mol
# Density = 2.516380 g / cm^3
# Si number density = 25.221204 Si / 1000 Ang^3
#
#
#
# Elastic Constant Matrix: (Units=GPa)
#
#
# Indices 1 2 3 4 5 6 
#
# 1 66.3800 19.0496 10.0706 0.7331 -21.6556 -6.5603
# 2 19.0496 173.5522 32.4590 -18.7379 -1.6327 -9.9655
# 3 10.0706 32.4590 71.4829 7.4331 -16.9934 -0.3313
# 4 0.7331 -18.7379 7.4331 53.0402 -9.8170 -6.2864
# 5 -21.6556 -1.6327 -16.9934 -9.8170 32.3412 3.3486
# 6 -6.5603 -9.9655 -0.3313 -6.2864 3.3486 42.0536
#
#
#
# Elastic Compliance Matrix: (Units=1/GPa)
#
#
# Indices 1 2 3 4 5 6 
#
# 1 0.020367 -0.002067 0.001367 0.001709 0.014584 0.001792
# 2 -0.002067 0.007093 -0.003775 0.002860 -0.002342 0.001943
# 3 0.001367 -0.003775 0.018043 -0.002285 0.009683 -0.001652
# 4 0.001709 0.002860 -0.002285 0.021765 0.006314 0.003677
# 5 0.014584 -0.002342 0.009683 0.006314 0.047681 -0.001056
# 6 0.001792 0.001943 -0.001652 0.003677 -0.001056 0.025140
#
#
# Mechanical properties :
#
#
# Convention : Reuss Voigt Hill
#
# Bulk Modulus (GPa) = 27.35734 48.28597 37.82166
# Shear Modulus (GPa) = 31.01302 42.14271 36.57787
#
# Velocity S-wave (km/s) = 3.51043 4.09213 3.81239
# Velocity P-wave (km/s) = 5.22507 6.44313 5.86580
#
# Compressibility (1/GPa) = 0.03655326
#
# Stress axis : x y z
#
# Youngs Moduli (GPa) = 49.09971 140.98152 55.42434
#
# Poissons Ratio (x) = 0.29135 -0.07576
# Poissons Ratio (y) = 0.10147 0.20922
# Poissons Ratio (z) = -0.06711 0.53219
#
# Static dielectric constant tensor:
#      x y z
#    x 2.132940 0.033850 -0.057140 
#    y 0.033850 1.940880 0.009190 
#    z -0.057140 0.009190 2.037960 
# 
# From -- ./inp_files/237415.got.cif
#   From: 2010.05.17/outbox.cif.g08.bks.cpg/sg2_119_cif.got.tgz:237415.got - 2010.06.03 11:33:40.
