data_PCOD9022723
_publ_section_title
;
Structure prediction by ZEFSAII (Michael W. Deem and Ramdas Pophale) SiO2 
 PCOD9022723
Probable space group: P -1
;
_chemical_formula_sum "Si O2"
_cell_formula_units_Z 14
_cell_length_a 11.533025
_cell_length_b 25.262241
_cell_length_c 7.672429
_cell_angle_alpha 31.286273
_cell_angle_beta 140.081148
_cell_angle_gamma 149.501893
_cell_volume 585.160014
_symmetry_space_group_name_H-M "P -1"
_symmetry_group_IT_number 2
_symmetry_cell_setting 'triclinic'
loop_
_space_group_symop_operation_xyz
x,y,z
-x,-y,-z
loop_
_atom_site_type_symbol
_atom_site_label
_atom_site_fract_x
_atom_site_fract_y
_atom_site_fract_z
Si Si1 0.975354 0.104322 0.608682
Si Si2 0.929885 0.360558 0.776711
Si Si3 0.570051 0.643464 0.195086
Si Si4 0.446114 0.930860 0.820171
Si Si5 0.841991 0.356846 0.300438
Si Si6 0.663622 0.633174 0.712365
Si Si7 0.092179 0.832216 0.260200
O O1 0.754555 0.062634 0.361064
O O2 0.948415 0.151513 0.631435
O O3 0.203169 0.227693 0.431997
O O4 0.000000 0.000000 0.000000
O O5 0.952590 0.353677 0.614656
O O6 0.000000 0.500000 0.500000
O O7 0.681466 0.222589 0.916682
O O8 0.126816 0.369905 0.080675
O O9 0.500000 0.500000 0.500000
O O10 0.557117 0.647693 0.379000
O O11 0.828716 0.749302 0.123337
O O12 0.393650 0.666292 0.858151
O O13 0.500000 0.000000 0.500000
O O14 0.686204 0.020675 0.947782
O O15 0.826611 0.255004 0.440842
O O16 0.000000 0.500000 0.000000
O O17 0.500000 0.500000 0.000000
#
# Coordination Sequence:
#
# PCOD9022723 Si02
#       7
#     2   2   2   2   2   2   2
#     4   9  20  39  66  96 129 180 229 275 337 420
#     4  11  25  44  69 103 136 180 239 280 342 422
#     4  11  22  42  66  98 138 181 232 275 342 424
#     4   9  21  41  67  95 140 180 226 286 348 404
#     4  12  25  41  73 101 142 188 222 290 358 399
#     4  10  22  39  63  98 132 166 226 290 328 399
#     4  10  23  40  67  94 138 178 232 269 352 407
#
# _framework density 23.925080999999999
#
# number of rings (size 3 to 8) (size 9 to 14) (size 15 to 20)
#    0.000    1.714    1.429    2.571   10.000    2.857 
#    0.000    0.714    0.000    0.000    0.000    0.000 
#    0.000    0.000    0.000    0.000    0.000    0.000 
#
# Total GULP energy -77954.080449 kJ/mol
# GULP energy per Si atom -5568.148604 kJ/mol
# Density = 2.387063 g / cm^3
# Si number density = 23.925081 Si / 1000 Ang^3
#
#
#
# Elastic Constant Matrix: (Units=GPa)
#
#
# Indices 1 2 3 4 5 6 
#
# 1 56.4395 33.5280 23.0346 -16.7682 13.0521 -2.6171
# 2 33.5280 142.1365 35.3375 -43.6303 11.3267 41.0963
# 3 23.0346 35.3375 104.1563 -38.4754 14.8288 9.2278
# 4 -16.7682 -43.6303 -38.4754 56.3312 4.5081 -8.9356
# 5 13.0521 11.3267 14.8288 4.5081 46.1382 1.8575
# 6 -2.6171 41.0963 9.2278 -8.9356 1.8575 39.8373
#
#
#
# Elastic Compliance Matrix: (Units=1/GPa)
#
#
# Indices 1 2 3 4 5 6 
#
# 1 0.025471 -0.007312 -0.002481 0.002320 -0.005265 0.010557
# 2 -0.007312 0.015533 0.001112 0.008460 -0.002335 -0.014755
# 3 -0.002481 0.001112 0.014387 0.010014 -0.005087 -0.002159
# 4 0.002320 0.008460 0.010014 0.032029 -0.008948 -0.003293
# 5 -0.005265 -0.002335 -0.005087 -0.008948 0.026245 0.000010
# 6 0.010557 -0.014755 -0.002159 -0.003293 0.000010 0.040778
#
#
# Mechanical properties :
#
#
# Convention : Reuss Voigt Hill
#
# Bulk Modulus (GPa) = 26.29612 54.05916 40.17764
# Shear Modulus (GPa) = 27.10298 42.51682 34.80990
#
# Velocity S-wave (km/s) = 3.36940 4.22012 3.81852
# Velocity P-wave (km/s) = 5.11391 6.81103 6.02255
#
# Compressibility (1/GPa) = 0.03802843
#
# Stress axis : x y z
#
# Youngs Moduli (GPa) = 39.26092 64.37868 69.50710
#
# Poissons Ratio (x) = 0.47074 0.17245
# Poissons Ratio (y) = 0.28708 -0.07729
# Poissons Ratio (z) = 0.09741 -0.07159
#
# Static dielectric constant tensor:
#      x y z
#    x 1.914240 0.026750 0.330880 
#    y 0.026750 2.140070 0.150640 
#    z 0.330880 0.150640 0.747430 
# 
# From -- ./inp_files/285772.got.cif
#   From: 2010.05.17/outbox.cif.g08.bks.cpg/sg2_143_cif.got.tgz:285772.got - 2010.06.03 11:33:40.
