data_PCOD9022288
_publ_section_title
;
Structure prediction by ZEFSAII (Michael W. Deem and Ramdas Pophale) SiO2 
 PCOD9022288
Probable space group: P -1
;
_chemical_formula_sum "Si O2"
_cell_formula_units_Z 14
_cell_length_a 11.710099
_cell_length_b 9.630291
_cell_length_c 8.064837
_cell_angle_alpha 84.181050
_cell_angle_beta 103.562358
_cell_angle_gamma 140.724381
_cell_volume 554.929451
_symmetry_space_group_name_H-M "P -1"
_symmetry_group_IT_number 2
_symmetry_cell_setting 'triclinic'
loop_
_space_group_symop_operation_xyz
x,y,z
-x,-y,-z
loop_
_atom_site_type_symbol
_atom_site_label
_atom_site_fract_x
_atom_site_fract_y
_atom_site_fract_z
Si Si1 0.001684 0.349735 0.597186
Si Si2 0.118303 0.174066 0.666790
Si Si3 0.656675 0.822806 0.067680
Si Si4 0.326860 0.620762 0.185085
Si Si5 0.201850 0.811445 0.131989
Si Si6 0.386301 0.123427 0.457567
Si Si7 0.231714 0.224883 0.216449
O O1 0.972731 0.336308 0.786537
O O2 0.000000 0.500000 0.500000
O O3 0.155481 0.371461 0.619940
O O4 0.808287 0.103341 0.497345
O O5 0.284029 0.223197 0.757071
O O6 0.000000 0.000000 0.500000
O O7 0.973418 0.029253 0.790995
O O8 0.462517 0.711122 0.066744
O O9 0.677003 0.739228 0.928395
O O10 0.788766 0.074911 0.032201
O O11 0.226047 0.673155 0.115250
O O12 0.448494 0.755151 0.377562
O O13 0.217245 0.376436 0.207178
O O14 0.368981 0.022015 0.288849
O O15 0.360864 0.262261 0.387418
#
# Coordination Sequence:
#
# PCOD9022288 Si02
#       7
#     2   2   2   2   2   2   2
#     4   9  20  40  62  92 124 152 211 251 313 353
#     4  11  23  41  69  90 119 161 208 262 306 363
#     4  11  22  42  62  87 129 165 202 255 310 363
#     4  12  21  38  62  93 125 165 210 244 306 374
#     4   9  22  39  63  88 127 166 197 260 307 359
#     4   8  19  38  60  87 122 162 201 255 301 353
#     4  10  22  39  60  91 126 161 208 253 305 365
#
# _framework density 25.228428999999998
#
# number of rings (size 3 to 8) (size 9 to 14) (size 15 to 20)
#    0.857    1.143    1.429    3.857    2.000    0.000 
#    0.000    5.000    0.000    0.000    0.000    0.000 
#    0.000    0.000    0.000    0.000    0.000    0.000 
#
# Total GULP energy -78228.379387 kJ/mol
# GULP energy per Si atom -5587.741385 kJ/mol
# Density = 2.517101 g / cm^3
# Si number density = 25.228429 Si / 1000 Ang^3
#
#
#
# Elastic Constant Matrix: (Units=GPa)
#
#
# Indices 1 2 3 4 5 6 
#
# 1 127.9665 41.7073 25.0763 -14.9224 9.2070 -49.6205
# 2 41.7073 104.0135 40.0995 -26.7474 19.8536 -50.1284
# 3 25.0763 40.0995 82.6121 -13.0586 5.8811 -15.4915
# 4 -14.9224 -26.7474 -13.0586 45.1659 -11.0622 13.1481
# 5 9.2070 19.8536 5.8811 -11.0622 43.9043 -18.9740
# 6 -49.6205 -50.1284 -15.4915 13.1481 -18.9740 49.5210
#
#
#
# Elastic Compliance Matrix: (Units=1/GPa)
#
#
# Indices 1 2 3 4 5 6 
#
# 1 0.014087 0.003931 -0.002750 0.001846 0.004000 0.018276
# 2 0.003931 0.024461 -0.007390 0.006714 0.001713 0.025262
# 3 -0.002750 -0.007390 0.015608 0.000786 -0.000453 -0.005736
# 4 0.001846 0.006714 0.000786 0.027105 0.004834 0.003548
# 5 0.004000 0.001713 -0.000453 0.004834 0.029131 0.015479
# 6 0.018276 0.025262 -0.005736 0.003548 0.015479 0.067273
#
#
# Mechanical properties :
#
#
# Convention : Reuss Voigt Hill
#
# Bulk Modulus (GPa) = 23.95907 58.70648 41.33277
# Shear Modulus (GPa) = 24.51033 41.56551 33.03792
#
# Velocity S-wave (km/s) = 3.12033 4.06343 3.62270
# Velocity P-wave (km/s) = 4.74335 6.73318 5.82388
#
# Compressibility (1/GPa) = 0.04173785
#
# Stress axis : x y z
#
# Youngs Moduli (GPa) = 70.98965 40.88076 64.07162
#
# Poissons Ratio (x) = -0.16071 0.17618
# Poissons Ratio (y) = -0.27907 0.47350
# Poissons Ratio (z) = 0.19520 0.30212
#
# Static dielectric constant tensor:
#      x y z
#    x 2.030680 0.046120 0.003670 
#    y 0.046120 2.026310 0.015690 
#    z 0.003670 0.015690 2.067840 
# 
# From -- ./inp_files/237911.got.cif
#   From: 2010.05.17/outbox.cif.g08.bks.cpg/sg2_119_cif.got.tgz:237911.got - 2010.06.03 11:33:40.
