data_PCOD9022153
_publ_section_title
;
Structure prediction by ZEFSAII (Michael W. Deem and Ramdas Pophale) SiO2 
 PCOD9022153
Probable space group: P -1
;
_chemical_formula_sum "Si O2"
_cell_formula_units_Z 16
_cell_length_a 15.001262
_cell_length_b 11.915205
_cell_length_c 14.682450
_cell_angle_alpha 152.729928
_cell_angle_beta 74.132922
_cell_angle_gamma 122.683863
_cell_volume 854.605608
_symmetry_space_group_name_H-M "P -1"
_symmetry_group_IT_number 2
_symmetry_cell_setting 'triclinic'
loop_
_space_group_symop_operation_xyz
x,y,z
-x,-y,-z
loop_
_atom_site_type_symbol
_atom_site_label
_atom_site_fract_x
_atom_site_fract_y
_atom_site_fract_z
Si Si1 0.952530 0.162626 0.859811
Si Si2 0.146720 0.771040 0.361435
Si Si3 0.621087 0.064790 0.897204
Si Si4 0.890894 0.762055 0.284544
Si Si5 0.869567 0.470920 0.435022
Si Si6 0.626976 0.137089 0.143324
Si Si7 0.291971 0.166877 0.422715
Si Si8 0.936720 0.619111 0.728828
O O1 0.052668 0.312048 0.859694
O O2 0.931352 0.847623 0.671828
O O3 0.825066 0.026902 0.753885
O O4 0.014333 0.451727 0.123664
O O5 0.156850 0.599385 0.317736
O O6 0.135517 0.016115 0.586380
O O7 0.243292 0.985486 0.404406
O O8 0.507823 0.056947 0.913283
O O9 0.613742 0.851516 0.665784
O O10 0.759369 0.427257 0.113445
O O11 0.614634 0.954488 0.923422
O O12 0.000000 0.000000 0.500000
O O13 0.736401 0.242672 0.255312
O O14 0.865227 0.456569 0.535544
O O15 0.953811 0.395724 0.319374
O O16 0.661153 0.469723 0.333914
O O17 0.000000 0.000000 0.000000
#
# Coordination Sequence:
#
# PCOD9022153 Si02
#       8
#     2   2   2   2   2   2   2   2
#     4  11  20  32  55  88 116 145 177 232 292 341
#     4  12  21  32  55  83 115 146 184 235 285 333
#     4  11  22  36  56  86 121 153 182 224 286 347
#     4  12  20  33  54  86 121 146 180 227 287 345
#     4  10  22  39  58  83 114 149 192 234 279 335
#     4  10  23  39  57  83 117 154 189 225 280 347
#     4  11  21  33  56  88 116 147 187 227 284 343
#     4  11  23  37  58  85 113 149 191 240 286 325
#
# _framework density 18.722087999999999
#
# number of rings (size 3 to 8) (size 9 to 14) (size 15 to 20)
#    0.000    1.000    6.250    2.250    1.750    0.000 
#    0.000    0.000    0.000    1.500    0.000    0.000 
#    0.000    0.000    0.000    0.000    0.000    0.000 
#
# Total GULP energy -89184.525862 kJ/mol
# GULP energy per Si atom -5574.032866 kJ/mol
# Density = 1.867948 g / cm^3
# Si number density = 18.722088 Si / 1000 Ang^3
#
#
#
# Elastic Constant Matrix: (Units=GPa)
#
#
# Indices 1 2 3 4 5 6 
#
# 1 82.5062 36.8411 26.0087 1.9566 7.7789 -2.2322
# 2 36.8411 94.1228 17.8603 -2.8360 5.9419 -9.4747
# 3 26.0087 17.8603 66.3491 -2.6059 -3.6505 0.3012
# 4 1.9566 -2.8360 -2.6059 29.6049 -0.5634 0.6923
# 5 7.7789 5.9419 -3.6505 -0.5634 39.8593 -0.0238
# 6 -2.2322 -9.4747 0.3012 0.6923 -0.0238 27.0286
#
#
#
# Elastic Compliance Matrix: (Units=1/GPa)
#
#
# Indices 1 2 3 4 5 6 
#
# 1 0.016496 -0.005379 -0.005261 -0.002115 -0.002929 -0.000413
# 2 -0.005379 0.013571 -0.001570 0.001396 -0.001095 0.004294
# 3 -0.005261 -0.001570 0.017795 0.001848 0.002916 -0.001228
# 4 -0.002115 0.001396 0.001848 0.034244 0.000858 -0.000582
# 5 -0.002929 -0.001095 0.002916 0.000858 0.026102 -0.000657
# 6 -0.000413 0.004294 -0.001228 -0.000582 -0.000657 0.038497
#
#
# Mechanical properties :
#
#
# Convention : Reuss Voigt Hill
#
# Bulk Modulus (GPa) = 42.65554 44.93313 43.79434
# Shear Modulus (GPa) = 27.94277 30.11642 29.02960
#
# Velocity S-wave (km/s) = 3.86748 4.01509 3.94198
# Velocity P-wave (km/s) = 6.54035 6.74884 6.64541
#
# Compressibility (1/GPa) = 0.02344361
#
# Stress axis : x y z
#
# Youngs Moduli (GPa) = 60.62239 73.68669 56.19539
#
# Poissons Ratio (x) = 0.39634 0.29563
# Poissons Ratio (y) = 0.32607 0.08820
# Poissons Ratio (z) = 0.31892 0.11566
#
# Static dielectric constant tensor:
#      x y z
#    x 1.732400 0.001890 0.040950 
#    y 0.001890 1.712540 0.016360 
#    z 0.040950 0.016360 1.777690 
# 
# From -- ./inp_files/432807.got.cif
#   From: 2010.05.17/outbox.cif.g08.bks.cpg/sg2_217_cif.got.tgz:432807.got - 2010.06.03 11:33:40.
