data_PCOD9022096
_publ_section_title
;
Structure prediction by ZEFSAII (Michael W. Deem and Ramdas Pophale) SiO2 
 PCOD9022096
Probable space group: P -1
;
_chemical_formula_sum "Si O2"
_cell_formula_units_Z 12
_cell_length_a 15.413808
_cell_length_b 8.374628
_cell_length_c 7.961974
_cell_angle_alpha 122.700398
_cell_angle_beta 76.810876
_cell_angle_gamma 141.650230
_cell_volume 497.577947
_symmetry_space_group_name_H-M "P -1"
_symmetry_group_IT_number 2
_symmetry_cell_setting 'triclinic'
loop_
_space_group_symop_operation_xyz
x,y,z
-x,-y,-z
loop_
_atom_site_type_symbol
_atom_site_label
_atom_site_fract_x
_atom_site_fract_y
_atom_site_fract_z
Si Si1 0.980952 0.758131 0.630713
Si Si2 0.356438 0.379395 0.536124
Si Si3 0.786532 0.213877 0.855168
Si Si4 0.337441 0.614813 0.356578
Si Si5 0.275228 0.471645 0.940166
Si Si6 0.913353 0.325195 0.175757
O O1 0.816533 0.523373 0.646414
O O2 0.945072 0.593193 0.378446
O O3 0.076649 0.780098 0.720255
O O4 0.097722 0.132081 0.783781
O O5 0.500000 0.500000 0.500000
O O6 0.327805 0.468614 0.442918
O O7 0.359763 0.507149 0.775377
O O8 0.241804 0.006053 0.385963
O O9 0.959835 0.555433 0.928467
O O10 0.695545 0.251920 0.907944
O O11 0.774065 0.107158 0.987248
O O12 0.500000 0.000000 0.500000
O O13 0.320491 0.478537 0.109075
#
# Coordination Sequence:
#
# PCOD9022096 Si02
#       6
#     2   2   2   2   2   2
#     4  11  23  44  73 108 141 187 239 294 352 422
#     4  12  29  48  72 105 145 190 239 291 359 428
#     4  11  23  43  67 110 140 179 237 292 353 415
#     4  12  28  47  73 106 145 192 237 289 361 428
#     4  12  26  48  78 105 142 188 239 297 354 417
#     4  10  22  38  72 103 143 177 232 295 348 410
#
# _framework density 24.116823
#
# number of rings (size 3 to 8) (size 9 to 14) (size 15 to 20)
#    0.000    0.667    3.333    3.500    4.667    6.000 
#    0.000    0.000    0.000    0.000    0.000    0.000 
#    0.000    0.000    0.000    0.000    0.000    0.000 
#
# Total GULP energy -66973.731158 kJ/mol
# GULP energy per Si atom -5581.144263 kJ/mol
# Density = 2.406193 g / cm^3
# Si number density = 24.116823 Si / 1000 Ang^3
#
#
#
# Elastic Constant Matrix: (Units=GPa)
#
#
# Indices 1 2 3 4 5 6 
#
# 1 65.8086 20.8529 29.4652 -18.0741 -8.2210 0.7448
# 2 20.8529 71.3816 37.8956 -8.0512 -13.3286 22.0185
# 3 29.4652 37.8956 142.0057 -37.5654 -20.7271 5.8945
# 4 -18.0741 -8.0512 -37.5654 50.6445 -1.3443 4.5710
# 5 -8.2210 -13.3286 -20.7271 -1.3443 34.2381 4.2392
# 6 0.7448 22.0185 5.8945 4.5710 4.2392 29.9795
#
#
#
# Elastic Compliance Matrix: (Units=1/GPa)
#
#
# Indices 1 2 3 4 5 6 
#
# 1 0.018751 -0.004586 -0.001154 0.004970 0.001954 0.002095
# 2 -0.004586 0.024772 -0.002981 0.002059 0.009184 -0.019107
# 3 -0.001154 -0.002981 0.011011 0.007608 0.005765 -0.001922
# 4 0.004970 0.002059 0.007608 0.028510 0.008800 -0.008723
# 5 0.001954 0.009184 0.005765 0.008800 0.038916 -0.014772
# 6 0.002095 -0.019107 -0.001922 -0.008723 -0.014772 0.051134
#
#
# Mechanical properties :
#
#
# Convention : Reuss Voigt Hill
#
# Bulk Modulus (GPa) = 26.96006 50.62482 38.79244
# Shear Modulus (GPa) = 24.64275 35.70456 30.17365
#
# Velocity S-wave (km/s) = 3.20004 3.85188 3.54099
# Velocity P-wave (km/s) = 4.98567 6.38903 5.73047
#
# Compressibility (1/GPa) = 0.03709190
#
# Stress axis : x y z
#
# Youngs Moduli (GPa) = 53.33130 40.36775 90.82111
#
# Poissons Ratio (x) = 0.18513 0.10480
# Poissons Ratio (y) = 0.24458 0.27073
# Poissons Ratio (z) = 0.06154 0.12033
#
# Static dielectric constant tensor:
#      x y z
#    x 2.007980 -0.014940 0.043030 
#    y -0.014940 2.347610 0.264880 
#    z 0.043030 0.264880 2.058610 
# 
# From -- ./inp_files/293946.got.cif
#   From: 2010.05.17/outbox.cif.g08.bks.cpg/sg2_147_cif.got.tgz:293946.got - 2010.06.03 11:33:40.
