data_PCOD9022532
_publ_section_title
;
Structure prediction by ZEFSAII (Michael W. Deem and Ramdas Pophale) SiO2 
 PCOD9022532
Probable space group: P -1
;
_chemical_formula_sum "Si O2"
_cell_formula_units_Z 16
_cell_length_a 13.707162
_cell_length_b 19.738991
_cell_length_c 8.259114
_cell_angle_alpha 93.191337
_cell_angle_beta 76.222883
_cell_angle_gamma 158.689629
_cell_volume 695.842505
_symmetry_space_group_name_H-M "P -1"
_symmetry_group_IT_number 2
_symmetry_cell_setting 'triclinic'
loop_
_space_group_symop_operation_xyz
x,y,z
-x,-y,-z
loop_
_atom_site_type_symbol
_atom_site_label
_atom_site_fract_x
_atom_site_fract_y
_atom_site_fract_z
Si Si1 0.901220 0.288747 0.188362
Si Si2 0.214880 0.314077 0.801237
Si Si3 0.284694 0.695735 0.536605
Si Si4 0.397889 0.031932 0.825407
Si Si5 0.177276 0.218885 0.480511
Si Si6 0.565479 0.685104 0.112812
Si Si7 0.003051 0.566199 0.128530
Si Si8 0.127412 0.053273 0.692440
O O1 0.790764 0.285070 0.326406
O O2 0.620676 0.056409 0.245714
O O3 0.203144 0.451501 0.180287
O O4 0.021205 0.386454 0.975118
O O5 0.092933 0.216616 0.656876
O O6 0.505084 0.549838 0.692349
O O7 0.326884 0.317319 0.850147
O O8 0.932943 0.165630 0.989546
O O9 0.000000 0.500000 0.500000
O O10 0.265799 0.620938 0.658975
O O11 0.557644 0.890130 0.333031
O O12 0.674897 0.220969 0.869842
O O13 0.206356 0.166471 0.557702
O O14 0.932988 0.049102 0.412712
O O15 0.627795 0.783312 0.235796
O O16 0.793457 0.848040 0.893089
O O17 0.000000 0.500000 0.000000
#
# Coordination Sequence:
#
# PCOD9022532 Si02
#       8
#     2   2   2   2   2   2   2   2
#     4  11  22  41  65  93 129 163 208 257 312 377
#     4  10  22  41  62  92 129 163 205 256 315 371
#     4   9  21  42  65  91 121 159 208 260 314 368
#     4  11  22  41  67  92 124 164 211 263 313 370
#     4   9  19  39  60  86 121 161 211 255 303 365
#     4  10  22  39  62  94 131 166 199 251 315 379
#     4   9  21  42  65  89 120 160 209 260 308 364
#     4   9  19  37  60  88 121 162 208 250 305 368
#
# _framework density 22.993711000000001
#
# number of rings (size 3 to 8) (size 9 to 14) (size 15 to 20)
#    0.000    2.250    0.000    1.500    0.000   11.000 
#    0.000   37.500    0.000    0.000    0.000    0.000 
#    0.000    0.000    0.000    0.000    0.000    0.000 
#
# Total GULP energy -89405.892428 kJ/mol
# GULP energy per Si atom -5587.868277 kJ/mol
# Density = 2.294138 g / cm^3
# Si number density = 22.993711 Si / 1000 Ang^3
#
#
#
# Elastic Constant Matrix: (Units=GPa)
#
#
# Indices 1 2 3 4 5 6 
#
# 1 55.1093 43.2017 33.2035 11.9558 10.9048 -12.2183
# 2 43.2017 142.5812 41.9390 20.6762 13.7179 -22.0364
# 3 33.2035 41.9390 135.8392 -10.4790 25.1066 -10.8878
# 4 11.9558 20.6762 -10.4790 30.1216 -0.8095 11.4074
# 5 10.9048 13.7179 25.1066 -0.8095 25.7040 -7.7306
# 6 -12.2183 -22.0364 -10.8878 11.4074 -7.7306 32.4407
#
#
#
# Elastic Compliance Matrix: (Units=1/GPa)
#
#
# Indices 1 2 3 4 5 6 
#
# 1 0.031896 -0.002533 -0.007022 -0.018762 -0.001660 0.014137
# 2 -0.002533 0.012215 -0.003394 -0.012638 0.000728 0.010821
# 3 -0.007022 -0.003394 0.012088 0.011787 -0.008791 -0.007133
# 4 -0.018762 -0.012638 0.011787 0.067157 -0.005723 -0.036674
# 5 -0.001660 0.000728 -0.008791 -0.005723 0.050958 0.011074
# 6 0.014137 0.010821 -0.007133 -0.036674 0.011074 0.056642
#
#
# Mechanical properties :
#
#
# Convention : Reuss Voigt Hill
#
# Bulk Modulus (GPa) = 33.00278 63.35758 48.18018
# Shear Modulus (GPa) = 18.72987 31.99895 25.36441
#
# Velocity S-wave (km/s) = 2.85715 3.73452 3.32490
# Velocity P-wave (km/s) = 5.02678 6.79776 5.97822
#
# Compressibility (1/GPa) = 0.03030048
#
# Stress axis : x y z
#
# Youngs Moduli (GPa) = 31.35225 81.86858 82.72514
#
# Poissons Ratio (x) = 0.20741 0.58086
# Poissons Ratio (y) = 0.07943 0.28077
# Poissons Ratio (z) = 0.22014 0.27786
#
# Static dielectric constant tensor:
#      x y z
#    x 1.871610 -0.030420 -0.002010 
#    y -0.030420 1.858900 0.005150 
#    z -0.002010 0.005150 1.865460 
# 
# From -- ./inp_files/319359.got.cif
#   From: 2010.05.17/outbox.cif.g08.bks.cpg/sg2_160_cif.got.tgz:319359.got - 2010.06.03 11:33:40.
