data_PCOD9022695
_publ_section_title
;
Structure prediction by ZEFSAII (Michael W. Deem and Ramdas Pophale) SiO2 
 PCOD9022695
Probable space group: P -1
;
_chemical_formula_sum "Si O2"
_cell_formula_units_Z 14
_cell_length_a 8.610226
_cell_length_b 18.879251
_cell_length_c 4.959870
_cell_angle_alpha 108.041277
_cell_angle_beta 90.515036
_cell_angle_gamma 47.573361
_cell_volume 542.416996
_symmetry_space_group_name_H-M "P -1"
_symmetry_group_IT_number 2
_symmetry_cell_setting 'triclinic'
loop_
_space_group_symop_operation_xyz
x,y,z
-x,-y,-z
loop_
_atom_site_type_symbol
_atom_site_label
_atom_site_fract_x
_atom_site_fract_y
_atom_site_fract_z
Si Si1 0.896492 0.577493 0.838133
Si Si2 0.168059 0.079237 0.938990
Si Si3 0.382048 0.147013 0.222653
Si Si4 0.346681 0.635332 0.463680
Si Si5 0.520454 0.792747 0.225621
Si Si6 0.108216 0.859486 0.516117
Si Si7 0.214358 0.592487 0.909985
O O1 0.000000 0.500000 0.500000
O O2 0.986122 0.631766 0.887231
O O3 0.635898 0.677604 0.984674
O O4 0.000000 0.500000 0.000000
O O5 0.040557 0.120885 0.706005
O O6 0.417139 0.967677 0.778489
O O7 0.190163 0.154012 0.159900
O O8 0.044342 0.071148 0.149546
O O9 0.344387 0.224116 0.531469
O O10 0.466025 0.153906 0.954593
O O11 0.270071 0.741597 0.497835
O O12 0.284170 0.635975 0.767479
O O13 0.602228 0.532648 0.294257
O O14 0.230237 0.614509 0.241171
O O15 0.271209 0.865620 0.405289
#
# Coordination Sequence:
#
# PCOD9022695 Si02
#       7
#     2   2   2   2   2   2   2
#     4  12  26  44  67  96 141 184 227 277 346 404
#     4  11  26  46  74 101 143 183 229 301 350 415
#     4  11  26  49  70 105 138 184 240 283 356 431
#     4  10  22  39  63  95 132 165 235 273 337 396
#     4  12  27  44  74 104 142 184 237 288 349 426
#     4  12  25  42  70 108 139 185 226 301 345 416
#     4  10  22  40  64  92 126 185 218 284 324 404
#
# _framework density 25.810403999999998
#
# number of rings (size 3 to 8) (size 9 to 14) (size 15 to 20)
#    0.000    0.857    0.000    6.000    6.000    9.143 
#    0.000    0.000    0.000    0.000    0.000    0.000 
#    0.000    0.000    0.000    0.000    0.000    0.000 
#
# Total GULP energy -78534.628934 kJ/mol
# GULP energy per Si atom -5609.616352 kJ/mol
# Density = 2.575166 g / cm^3
# Si number density = 25.810404 Si / 1000 Ang^3
#
#
#
# Elastic Constant Matrix: (Units=GPa)
#
#
# Indices 1 2 3 4 5 6 
#
# 1 76.8838 11.8203 6.9428 -9.0102 -3.2502 9.2352
# 2 11.8203 82.9460 10.0067 -16.8781 -0.6591 -1.1268
# 3 6.9428 10.0067 112.5740 -19.9385 -6.2937 3.0319
# 4 -9.0102 -16.8781 -19.9385 50.1554 -1.4208 -8.0915
# 5 -3.2502 -0.6591 -6.2937 -1.4208 31.8215 -4.7165
# 6 9.2352 -1.1268 3.0319 -8.0915 -4.7165 31.5560
#
#
#
# Elastic Compliance Matrix: (Units=1/GPa)
#
#
# Indices 1 2 3 4 5 6 
#
# 1 0.013923 -0.001740 -0.000345 0.001210 0.000828 -0.003670
# 2 -0.001740 0.013273 -0.000322 0.004401 0.000560 0.002226
# 3 -0.000345 -0.000322 0.009717 0.003826 0.002118 0.000453
# 4 0.001210 0.004401 0.003826 0.024223 0.002955 0.006088
# 5 0.000828 0.000560 0.002118 0.002955 0.032849 0.005242
# 6 -0.003670 0.002226 0.000453 0.006088 0.005242 0.035144
#
#
# Mechanical properties :
#
#
# Convention : Reuss Voigt Hill
#
# Bulk Modulus (GPa) = 31.15168 36.66038 33.90603
# Shear Modulus (GPa) = 34.56830 38.94882 36.75856
#
# Velocity S-wave (km/s) = 3.66364 3.88885 3.77792
# Velocity P-wave (km/s) = 5.47649 5.86504 5.67409
#
# Compressibility (1/GPa) = 0.03210099
#
# Stress axis : x y z
#
# Youngs Moduli (GPa) = 71.82451 75.34091 102.91580
#
# Poissons Ratio (x) = 0.13106 0.03546
# Poissons Ratio (y) = 0.12494 0.03311
# Poissons Ratio (z) = 0.02475 0.02424
#
# Static dielectric constant tensor:
#      x y z
#    x 2.027550 0.003370 0.009770 
#    y 0.003370 1.995370 0.058690 
#    z 0.009770 0.058690 1.994190 
# 
# From -- ./inp_files/42659.got.cif
#   From: 2010.05.17/outbox.cif.g08.bks.cpg/sg2_22_cif.got.tgz:42659.got - 2010.06.03 11:33:40.
