data_PCOD9022595
_publ_section_title
;
Structure prediction by ZEFSAII (Michael W. Deem and Ramdas Pophale) SiO2 
 PCOD9022595
Probable space group: P -1
;
_chemical_formula_sum "Si O2"
_cell_formula_units_Z 14
_cell_length_a 12.489802
_cell_length_b 13.073789
_cell_length_c 12.478908
_cell_angle_alpha 49.603865
_cell_angle_beta 33.948108
_cell_angle_gamma 31.466639
_cell_volume 581.497255
_symmetry_space_group_name_H-M "P -1"
_symmetry_group_IT_number 2
_symmetry_cell_setting 'triclinic'
loop_
_space_group_symop_operation_xyz
x,y,z
-x,-y,-z
loop_
_atom_site_type_symbol
_atom_site_label
_atom_site_fract_x
_atom_site_fract_y
_atom_site_fract_z
Si Si1 0.734928 0.484465 0.768779
Si Si2 0.695842 0.822327 0.371025
Si Si3 0.741323 0.084762 0.080916
Si Si4 0.802006 0.233326 0.718063
Si Si5 0.269021 0.202027 0.990618
Si Si6 0.346240 0.462711 0.759393
Si Si7 0.408024 0.821803 0.437079
O O1 0.549090 0.714128 0.757182
O O2 0.859211 0.342706 0.659023
O O3 0.996767 0.375986 0.703292
O O4 0.500000 0.500000 0.000000
O O5 0.529709 0.784585 0.479678
O O6 0.500000 0.000000 0.500000
O O7 0.762361 0.914833 0.175208
O O8 0.740617 0.156233 0.916111
O O9 0.000000 0.000000 0.000000
O O10 0.558131 0.392725 0.725525
O O11 0.076590 0.029693 0.569319
O O12 0.246074 0.364170 0.949780
O O13 0.422443 0.153648 0.785705
O O14 0.953442 0.307569 0.166609
O O15 0.500000 0.000000 0.000000
O O16 0.501598 0.353835 0.589652
#
# Coordination Sequence:
#
# PCOD9022595 Si02
#       7
#     2   2   2   2   2   2   2
#     4  10  22  39  63  88 129 159 214 250 315 364
#     4  12  23  43  63  95 128 162 210 269 308 373
#     4  11  23  40  65  91 124 173 210 249 322 371
#     4  11  21  42  64  93 128 167 210 262 309 375
#     4   9  21  41  62  92 124 161 212 248 315 376
#     4   9  22  39  66  89 125 168 201 257 322 359
#     4  10  22  40  63  91 131 159 207 265 309 368
#
# _framework density 24.075782
#
# number of rings (size 3 to 8) (size 9 to 14) (size 15 to 20)
#    0.857    0.857    4.286    0.429    6.000    0.571 
#    0.000    2.143    0.000    0.000    0.000    0.000 
#    0.000    0.000    0.000    0.000    0.000    0.000 
#
# Total GULP energy -78146.529613 kJ/mol
# GULP energy per Si atom -5581.894972 kJ/mol
# Density = 2.402098 g / cm^3
# Si number density = 24.075782 Si / 1000 Ang^3
#
#
#
# Elastic Constant Matrix: (Units=GPa)
#
#
# Indices 1 2 3 4 5 6 
#
# 1 99.5384 46.8360 6.9286 -11.8502 6.6994 -18.9426
# 2 46.8360 164.5897 25.7646 26.5366 0.1414 -25.3839
# 3 6.9286 25.7646 76.7805 20.5746 10.8694 -1.3924
# 4 -11.8502 26.5366 20.5746 27.3393 2.1548 -8.3202
# 5 6.6994 0.1414 10.8694 2.1548 32.5923 3.8316
# 6 -18.9426 -25.3839 -1.3924 -8.3202 3.8316 33.3088
#
#
#
# Elastic Compliance Matrix: (Units=1/GPa)
#
#
# Indices 1 2 3 4 5 6 
#
# 1 0.018200 -0.006132 -0.004268 0.020883 -0.004999 0.011290
# 2 -0.006132 0.009886 0.000313 -0.012407 0.001846 0.000748
# 3 -0.004268 0.000313 0.018336 -0.017306 -0.003466 -0.005346
# 4 0.020883 -0.012407 -0.017306 0.077833 -0.006182 0.021850
# 5 -0.004999 0.001846 -0.003466 -0.006182 0.034095 -0.007047
# 6 0.011290 0.000748 -0.005346 0.021850 -0.007047 0.043058
#
#
# Mechanical properties :
#
#
# Convention : Reuss Voigt Hill
#
# Bulk Modulus (GPa) = 38.10014 55.55188 46.82601
# Shear Modulus (GPa) = 21.70789 36.07339 28.89064
#
# Velocity S-wave (km/s) = 3.00600 3.87502 3.46784
# Velocity P-wave (km/s) = 5.28276 6.56848 5.96039
#
# Compressibility (1/GPa) = 0.02624662
#
# Stress axis : x y z
#
# Youngs Moduli (GPa) = 54.94489 101.15399 54.53891
#
# Poissons Ratio (x) = 0.62032 0.23278
# Poissons Ratio (y) = 0.33694 -0.01707
# Poissons Ratio (z) = 0.23451 -0.03167
#
# Static dielectric constant tensor:
#      x y z
#    x 2.568590 -0.237590 0.534760 
#    y -0.237590 2.058070 -0.310600 
#    z 0.534760 -0.310600 2.511440 
# 
# From -- ./inp_files/431165.got.cif
#   From: 2010.05.17/outbox.cif.g08.bks.cpg/sg2_216_cif.got.tgz:431165.got - 2010.06.03 11:33:40.
