data_PCOD9022839
_publ_section_title
;
Structure prediction by ZEFSAII (Michael W. Deem and Ramdas Pophale) SiO2 
 PCOD9022839
Probable space group: P -1
;
_chemical_formula_sum "Si O2"
_cell_formula_units_Z 15
_cell_length_a 22.879246
_cell_length_b 14.927806
_cell_length_c 12.423412
_cell_angle_alpha 40.677595
_cell_angle_beta 30.209643
_cell_angle_gamma 20.778583
_cell_volume 727.574811
_symmetry_space_group_name_H-M "P -1"
_symmetry_group_IT_number 2
_symmetry_cell_setting 'triclinic'
loop_
_space_group_symop_operation_xyz
x,y,z
-x,-y,-z
loop_
_atom_site_type_symbol
_atom_site_label
_atom_site_fract_x
_atom_site_fract_y
_atom_site_fract_z
Si Si1 0.481761 0.959441 0.424593
Si Si2 0.392389 0.291057 0.971208
Si Si3 0.364318 0.920902 0.432680
Si Si4 0.780218 0.555920 0.499718
Si Si5 0.447228 0.461309 0.015000
Si Si6 0.000000 0.500000 0.500000
Si Si7 0.747170 0.929545 0.922260
Si Si8 0.736139 0.272985 0.161182
O O1 0.433224 0.910467 0.448121
O O2 0.571044 0.786110 0.542069
O O3 0.255381 0.274366 0.521823
O O4 0.671161 0.879530 0.164338
O O5 0.199931 0.385667 0.229627
O O6 0.464688 0.198180 0.819032
O O7 0.332016 0.511472 0.880440
O O8 0.598919 0.061803 0.931323
O O9 0.358704 0.762594 0.592749
O O10 0.124122 0.228469 0.513599
O O11 0.735667 0.467170 0.722678
O O12 0.000396 0.326608 0.286709
O O13 0.500000 0.500000 0.000000
O O14 0.352241 0.639339 0.901591
O O15 0.659539 0.156744 0.913635
O O16 0.000000 0.000000 0.000000
#
# Coordination Sequence:
#
# PCOD9022839 Si02
#       8
#     2   2   2   2   2   1   2   2
#     4  10  22  40  61  99 128 171 220 275 328 394
#     4  11  25  43  67  99 135 179 218 278 338 403
#     4  12  25  41  68  99 135 172 227 272 333 406
#     4  10  22  41  67  88 136 175 214 280 332 388
#     4  10  23  44  65  93 127 177 229 274 329 398
#     4  12  24  42  66  98 136 172 222 270 338 398
#     4  10  22  39  64  95 129 169 223 270 338 395
#     4  11  24  46  66  95 138 177 221 279 343 394
#
# _framework density 20.616437000000001
#
# number of rings (size 3 to 8) (size 9 to 14) (size 15 to 20)
#    0.000    1.333    2.667    2.000    3.733    0.533 
#    2.400    0.000    0.000    0.000    0.000    0.000 
#    0.000    0.000    0.000    0.000    0.000    0.000 
#
# Total GULP energy -83593.248040 kJ/mol
# GULP energy per Si atom -5572.883203 kJ/mol
# Density = 2.056951 g / cm^3
# Si number density = 20.616437 Si / 1000 Ang^3
#
#
#
# Elastic Constant Matrix: (Units=GPa)
#
#
# Indices 1 2 3 4 5 6 
#
# 1 66.6707 23.0823 23.4017 -1.3020 2.8186 22.7329
# 2 23.0823 89.0398 51.8573 -2.2613 -0.8922 4.3239
# 3 23.4017 51.8573 99.5426 12.1791 -1.8396 2.6799
# 4 -1.3020 -2.2613 12.1791 37.4127 2.1417 -0.1649
# 5 2.8186 -0.8922 -1.8396 2.1417 22.0291 -3.3598
# 6 22.7329 4.3239 2.6799 -0.1649 -3.3598 21.9055
#
#
#
# Elastic Compliance Matrix: (Units=1/GPa)
#
#
# Indices 1 2 3 4 5 6 
#
# 1 0.028191 -0.003180 -0.004672 0.002688 -0.008871 -0.029397
# 2 -0.003180 0.017152 -0.008670 0.003743 0.000171 0.001030
# 3 -0.004672 -0.008670 0.016335 -0.006152 0.002967 0.004970
# 4 0.002688 0.003743 -0.006152 0.029268 -0.004036 -0.003175
# 5 -0.008871 0.000171 0.002967 -0.004036 0.049677 0.016398
# 6 -0.029397 0.001030 0.004970 -0.003175 0.016398 0.077838
#
#
# Mechanical properties :
#
#
# Convention : Reuss Voigt Hill
#
# Bulk Modulus (GPa) = 34.92520 50.21509 42.57015
# Shear Modulus (GPa) = 19.15340 26.73027 22.94184
#
# Velocity S-wave (km/s) = 3.05131 3.60467 3.33947
# Velocity P-wave (km/s) = 5.42137 6.46023 5.96347
#
# Compressibility (1/GPa) = 0.02863262
#
# Stress axis : x y z
#
# Youngs Moduli (GPa) = 35.47222 58.30340 61.21861
#
# Poissons Ratio (x) = 0.18541 0.28603
# Poissons Ratio (y) = 0.11280 0.53078
# Poissons Ratio (z) = 0.16574 0.50550
#
# Static dielectric constant tensor:
#      x y z
#    x 1.803740 -0.013460 0.014100 
#    y -0.013460 1.791910 -0.019570 
#    z 0.014100 -0.019570 1.687050 
# 
# From -- ./inp_files/67423.got.cif
#   From: 2010.05.17/outbox.cif.g08.bks.cpg/sg2_34_cif.got.tgz:67423.got - 2010.06.03 11:33:40.
