data_PCOD9022753
_publ_section_title
;
Structure prediction by ZEFSAII (Michael W. Deem and Ramdas Pophale) SiO2 
 PCOD9022753
Probable space group: P -1
;
_chemical_formula_sum "Si O2"
_cell_formula_units_Z 16
_cell_length_a 9.135526
_cell_length_b 9.908106
_cell_length_c 8.393895
_cell_angle_alpha 61.341474
_cell_angle_beta 71.587168
_cell_angle_gamma 93.396765
_cell_volume 611.971865
_symmetry_space_group_name_H-M "P -1"
_symmetry_group_IT_number 2
_symmetry_cell_setting 'triclinic'
loop_
_space_group_symop_operation_xyz
x,y,z
-x,-y,-z
loop_
_atom_site_type_symbol
_atom_site_label
_atom_site_fract_x
_atom_site_fract_y
_atom_site_fract_z
Si Si1 0.656290 0.698851 0.205322
Si Si2 0.733802 0.629404 0.741318
Si Si3 0.950114 0.789940 0.868303
Si Si4 0.980562 0.313389 0.583656
Si Si5 0.544894 0.336478 0.387380
Si Si6 0.480478 0.110945 0.091637
Si Si7 0.225577 0.880353 0.516727
Si Si8 0.803569 0.289862 0.966424
O O1 0.652828 0.512642 0.294953
O O2 0.570165 0.717493 0.389540
O O3 0.546615 0.737628 0.079464
O O4 0.831841 0.809089 0.041035
O O5 0.560607 0.645673 0.740807
O O6 0.749693 0.450100 0.860665
O O7 0.826458 0.713959 0.816067
O O8 0.844117 0.698622 0.511847
O O9 0.093786 0.920096 0.659034
O O10 0.061678 0.682457 0.960602
O O11 0.873855 0.242081 0.509988
O O12 0.890938 0.237184 0.813625
O O13 0.000000 0.500000 0.500000
O O14 0.652682 0.214055 0.400308
O O15 0.332829 0.027283 0.300249
O O16 0.642379 0.152535 0.111449
O O17 0.500000 0.000000 0.000000
#
# Coordination Sequence:
#
# PCOD9022753 Si02
#       8
#     2   2   2   2   2   2   2   2
#     4  11  25  42  72 104 137 174 229 285 333 402
#     4  10  22  39  64 103 139 174 218 286 342 398
#     4  11  27  43  66 104 142 178 222 285 345 401
#     4   9  19  35  63  97 132 174 220 276 331 393
#     4  11  23  41  69 107 133 173 234 284 327 397
#     4  12  23  47  71  99 134 186 229 276 332 409
#     4  11  25  44  71  99 138 182 226 273 343 408
#     4  11  21  40  67 100 133 185 222 276 339 405
#
# _framework density 26.144992999999999
#
# number of rings (size 3 to 8) (size 9 to 14) (size 15 to 20)
#    0.000    1.250    3.750    1.125   12.250    2.500 
#    0.000    3.125    0.000    0.000    0.000    0.000 
#    0.000    0.000    0.000    0.000    0.000    0.000 
#
# Total GULP energy -89513.750997 kJ/mol
# GULP energy per Si atom -5594.609437 kJ/mol
# Density = 2.608549 g / cm^3
# Si number density = 26.144993 Si / 1000 Ang^3
#
#
#
# Elastic Constant Matrix: (Units=GPa)
#
#
# Indices 1 2 3 4 5 6 
#
# 1 132.2546 28.8766 30.3391 12.4533 4.3149 4.9152
# 2 28.8766 68.8673 27.7086 0.8947 -8.7967 -1.6150
# 3 30.3391 27.7086 102.9579 24.4379 -30.1135 -9.1173
# 4 12.4533 0.8947 24.4379 38.2941 -12.8485 -3.0105
# 5 4.3149 -8.7967 -30.1135 -12.8485 64.1387 3.9237
# 6 4.9152 -1.6150 -9.1173 -3.0105 3.9237 23.6126
#
#
#
# Elastic Compliance Matrix: (Units=1/GPa)
#
#
# Indices 1 2 3 4 5 6 
#
# 1 0.009220 -0.003336 -0.002178 -0.002577 -0.002439 -0.002912
# 2 -0.003336 0.017779 -0.004271 0.003909 0.001408 0.000526
# 3 -0.002178 -0.004271 0.014926 -0.006718 0.004963 0.004243
# 4 -0.002577 0.003909 -0.006718 0.032619 0.003985 0.001706
# 5 -0.002439 0.001408 0.004963 0.003985 0.019086 -0.000143
# 6 -0.002912 0.000526 0.004243 0.001706 -0.000143 0.044872
#
#
# Mechanical properties :
#
#
# Convention : Reuss Voigt Hill
#
# Bulk Modulus (GPa) = 44.73411 53.10317 48.91864
# Shear Modulus (GPa) = 30.20700 39.68613 34.94656
#
# Velocity S-wave (km/s) = 3.40275 3.90028 3.65998
# Velocity P-wave (km/s) = 5.70837 6.37480 6.05076
#
# Compressibility (1/GPa) = 0.02235431
#
# Stress axis : x y z
#
# Youngs Moduli (GPa) = 108.46346 56.24504 66.99611
#
# Poissons Ratio (x) = 0.18762 0.14595
# Poissons Ratio (y) = 0.36180 0.28616
# Poissons Ratio (z) = 0.23629 0.24024
#
# Static dielectric constant tensor:
#      x y z
#    x 2.012800 -0.035680 -0.014890 
#    y -0.035680 2.040590 -0.005810 
#    z -0.014890 -0.005810 2.144660 
# 
# From -- ./inp_files/184144.got.cif
#   From: 2010.05.17/outbox.cif.g08.bks.cpg/sg2_93_cif.got.tgz:184144.got - 2010.06.03 11:33:40.
