data_PCOD9022001
_publ_section_title
;
Structure prediction by ZEFSAII (Michael W. Deem and Ramdas Pophale) SiO2 
 PCOD9022001
Probable space group: P -1
;
_chemical_formula_sum "Si O2"
_cell_formula_units_Z 15
_cell_length_a 8.871494
_cell_length_b 8.519403
_cell_length_c 14.521573
_cell_angle_alpha 37.132817
_cell_angle_beta 116.685611
_cell_angle_gamma 105.734390
_cell_volume 584.247358
_symmetry_space_group_name_H-M "P -1"
_symmetry_group_IT_number 2
_symmetry_cell_setting 'triclinic'
loop_
_space_group_symop_operation_xyz
x,y,z
-x,-y,-z
loop_
_atom_site_type_symbol
_atom_site_label
_atom_site_fract_x
_atom_site_fract_y
_atom_site_fract_z
Si Si1 0.654968 0.541040 0.958672
Si Si2 0.651278 0.538481 0.308450
Si Si3 0.000000 0.500000 0.500000
Si Si4 0.916869 0.250268 0.049954
Si Si5 0.266239 0.925676 0.306295
Si Si6 0.790822 0.340159 0.255609
Si Si7 0.703509 0.297315 0.788146
Si Si8 0.830064 0.751079 0.517765
O O1 0.791842 0.545311 0.077774
O O2 0.500000 0.500000 0.000000
O O3 0.736374 0.299612 0.030733
O O4 0.648766 0.815124 0.777665
O O5 0.839029 0.615120 0.331492
O O6 0.654041 0.445414 0.247040
O O7 0.478626 0.721381 0.206403
O O8 0.668860 0.287708 0.499491
O O9 0.871882 0.606952 0.500531
O O10 0.856038 0.231015 0.936145
O O11 0.000000 0.500000 0.000000
O O12 0.061417 0.005072 0.231676
O O13 0.286619 0.843644 0.243058
O O14 0.983779 0.276803 0.372706
O O15 0.755408 0.056444 0.343798
O O16 0.713313 0.598474 0.620216
#
# Coordination Sequence:
#
# PCOD9022001 Si02
#       8
#     2   2   1   2   2   2   2   2
#     4  11  25  44  66  98 142 184 230 285 349 419
#     4  11  25  44  71 105 137 180 239 293 352 413
#     4  10  22  42  62 102 140 176 218 294 354 420
#     4  10  24  44  70  97 141 184 231 277 356 422
#     4  11  25  45  69 104 139 184 234 291 355 422
#     4  10  24  41  64  97 135 179 228 280 350 415
#     4  12  24  44  71 105 136 184 236 301 343 420
#     4  10  22  38  68  93 134 172 231 280 345 402
#
# _framework density 25.674057000000001
#
# number of rings (size 3 to 8) (size 9 to 14) (size 15 to 20)
#    0.000    1.333    1.333    3.200   11.200    0.533 
#    0.000    1.333    0.000    0.000    0.000    0.000 
#    0.000    0.000    0.000    0.000    0.000    0.000 
#
# Total GULP energy -83564.303794 kJ/mol
# GULP energy per Si atom -5570.953586 kJ/mol
# Density = 2.561562 g / cm^3
# Si number density = 25.674057 Si / 1000 Ang^3
#
#
#
# Elastic Constant Matrix: (Units=GPa)
#
#
# Indices 1 2 3 4 5 6 
#
# 1 140.8760 16.7420 -17.0631 -10.0159 8.4504 -20.1065
# 2 16.7420 48.2398 -10.1853 16.2537 -6.7628 -19.2570
# 3 -17.0631 -10.1853 42.3075 12.0695 -2.7950 -2.9791
# 4 -10.0159 16.2537 12.0695 27.3690 -7.6616 -8.2359
# 5 8.4504 -6.7628 -2.7950 -7.6616 33.6502 1.2179
# 6 -20.1065 -19.2570 -2.9791 -8.2359 1.2179 40.7787
#
#
#
# Elastic Compliance Matrix: (Units=1/GPa)
#
#
# Indices 1 2 3 4 5 6 
#
# 1 0.008673 -0.003017 0.001505 0.005052 -0.001655 0.004031
# 2 -0.003017 0.040877 0.017857 -0.028259 0.003540 0.013307
# 3 0.001505 0.017857 0.035798 -0.023573 0.000563 0.007012
# 4 0.005052 -0.028259 -0.023573 0.067642 0.006463 0.000892
# 5 -0.001655 0.003540 0.000563 0.006463 0.032318 0.001237
# 6 0.004031 0.013307 0.007012 0.000892 0.001237 0.033450
#
#
# Mechanical properties :
#
#
# Convention : Reuss Voigt Hill
#
# Bulk Modulus (GPa) = 8.47191 23.37892 15.92541
# Shear Modulus (GPa) = 22.18124 36.48824 29.33474
#
# Velocity S-wave (km/s) = 2.94250 3.77398 3.38388
# Velocity P-wave (km/s) = 3.85375 5.30249 4.63507
#
# Compressibility (1/GPa) = 0.11803717
#
# Stress axis : x y z
#
# Youngs Moduli (GPa) = 115.29874 24.46345 27.93441
#
# Poissons Ratio (x) = 0.07381 -0.04204
# Poissons Ratio (y) = 0.34790 -0.49882
# Poissons Ratio (z) = -0.17350 -0.43684
#
# Static dielectric constant tensor:
#      x y z
#    x 4.368270 4.581930 -1.771710 
#    y 4.581930 11.012650 -3.670440 
#    z -1.771710 -3.670440 3.766770 
# 
# From -- ./inp_files/158786.got.cif
#   From: 2010.05.17/outbox.cif.g08.bks.cpg/sg2_80_cif.got.tgz:158786.got - 2010.06.03 11:33:40.
