data_PCOD9022180
_publ_section_title
;
Structure prediction by ZEFSAII (Michael W. Deem and Ramdas Pophale) SiO2 
 PCOD9022180
Probable space group: P -1
;
_chemical_formula_sum "Si O2"
_cell_formula_units_Z 14
_cell_length_a 7.729696
_cell_length_b 23.551734
_cell_length_c 11.639547
_cell_angle_alpha 149.656409
_cell_angle_beta 35.472353
_cell_angle_gamma 143.216699
_cell_volume 585.408641
_symmetry_space_group_name_H-M "P -1"
_symmetry_group_IT_number 2
_symmetry_cell_setting 'triclinic'
loop_
_space_group_symop_operation_xyz
x,y,z
-x,-y,-z
loop_
_atom_site_type_symbol
_atom_site_label
_atom_site_fract_x
_atom_site_fract_y
_atom_site_fract_z
Si Si1 0.766768 0.609515 0.107755
Si Si2 0.807238 0.514185 0.238954
Si Si3 0.731636 0.010583 0.250450
Si Si4 0.836724 0.667127 0.684221
Si Si5 0.729021 0.371996 0.441070
Si Si6 0.871568 0.182296 0.876765
Si Si7 0.731136 0.879382 0.243979
O O1 0.612662 0.622129 0.335152
O O2 0.862103 0.732053 0.200677
O O3 0.500000 0.500000 0.000000
O O4 0.066012 0.565535 0.879671
O O5 0.867902 0.640834 0.488237
O O6 0.435354 0.448739 0.321096
O O7 0.000000 0.500000 0.000000
O O8 0.407353 0.911776 0.206739
O O9 0.827745 0.986880 0.286710
O O10 0.606514 0.123400 0.526789
O O11 0.000000 0.000000 0.000000
O O12 0.162055 0.678226 0.589290
O O13 0.722969 0.772017 0.975419
O O14 0.000000 0.500000 0.500000
O O15 0.736255 0.276595 0.176325
O O16 0.032553 0.123859 0.785719
#
# Coordination Sequence:
#
# PCOD9022180 Si02
#       7
#     2   2   2   2   2   2   2
#     4  12  23  40  64  97 139 180 222 265 332 408
#     4  11  23  36  61  93 138 179 222 266 329 394
#     4  11  26  49  73 101 133 174 239 296 348 410
#     4  10  22  39  58  94 131 174 219 270 327 403
#     4  11  21  38  64  95 138 180 222 266 327 403
#     4  11  25  44  70 101 140 182 226 282 344 411
#     4  10  25  45  72  98 138 175 231 290 351 404
#
# _framework density 23.914916999999999
#
# number of rings (size 3 to 8) (size 9 to 14) (size 15 to 20)
#    0.000    1.143    2.857    2.143    2.000   10.857 
#    0.000    0.000    0.000    0.000    0.000    0.000 
#    0.000    0.000    0.000    0.000    0.000    0.000 
#
# Total GULP energy -78200.386960 kJ/mol
# GULP energy per Si atom -5585.741926 kJ/mol
# Density = 2.386049 g / cm^3
# Si number density = 23.914917 Si / 1000 Ang^3
#
#
#
# Elastic Constant Matrix: (Units=GPa)
#
#
# Indices 1 2 3 4 5 6 
#
# 1 115.1434 43.6528 40.8811 -2.8532 -11.7380 -7.7860
# 2 43.6528 73.9842 35.3997 -20.1959 1.3811 -3.9315
# 3 40.8811 35.3997 212.5045 -20.8391 6.1048 -0.3894
# 4 -2.8532 -20.1959 -20.8391 42.8818 -0.4101 4.0920
# 5 -11.7380 1.3811 6.1048 -0.4101 52.3303 0.6773
# 6 -7.7860 -3.9315 -0.3894 4.0920 0.6773 26.2734
#
#
#
# Elastic Compliance Matrix: (Units=1/GPa)
#
#
# Indices 1 2 3 4 5 6 
#
# 1 0.012558 -0.007564 -0.001610 -0.003773 0.003135 0.003073
# 2 -0.007564 0.020938 -0.001108 0.008843 -0.002045 -0.000450
# 3 -0.001610 -0.001108 0.005430 0.002083 -0.000938 -0.000863
# 4 -0.003773 0.008843 0.002083 0.028636 -0.001044 -0.004197
# 5 0.003135 -0.002045 -0.000938 -0.001044 0.019964 0.000257
# 6 0.003073 -0.000450 -0.000863 -0.004197 0.000257 0.039539
#
#
# Mechanical properties :
#
#
# Convention : Reuss Voigt Hill
#
# Bulk Modulus (GPa) = 54.46240 71.27768 62.87004
# Shear Modulus (GPa) = 32.52032 43.07700 37.79866
#
# Velocity S-wave (km/s) = 3.69159 4.24873 3.97992
# Velocity P-wave (km/s) = 6.40260 7.34427 6.88955
#
# Compressibility (1/GPa) = 0.01836129
#
# Stress axis : x y z
#
# Youngs Moduli (GPa) = 79.62953 47.76079 184.17188
#
# Poissons Ratio (x) = 0.36128 0.29656
# Poissons Ratio (y) = 0.60234 0.20398
# Poissons Ratio (z) = 0.12822 0.05290
#
# Static dielectric constant tensor:
#      x y z
#    x 1.929400 -0.064090 -0.005500 
#    y -0.064090 1.944720 0.044650 
#    z -0.005500 0.044650 1.977770 
# 
# From -- ./inp_files/406908.got.cif
#   From: 2010.05.17/outbox.cif.g08.bks.cpg/sg2_204_cif.got.tgz:406908.got - 2010.06.03 11:33:40.
