data_PCOD9022893
_publ_section_title
;
Structure prediction by ZEFSAII (Michael W. Deem and Ramdas Pophale) SiO2 
 PCOD9022893
Probable space group: P -1
;
_chemical_formula_sum "Si O2"
_cell_formula_units_Z 14
_cell_length_a 18.993022
_cell_length_b 5.545454
_cell_length_c 7.554907
_cell_angle_alpha 55.311474
_cell_angle_beta 119.801453
_cell_angle_gamma 95.462866
_cell_volume 547.773752
_symmetry_space_group_name_H-M "P -1"
_symmetry_group_IT_number 2
_symmetry_cell_setting 'triclinic'
loop_
_space_group_symop_operation_xyz
x,y,z
-x,-y,-z
loop_
_atom_site_type_symbol
_atom_site_label
_atom_site_fract_x
_atom_site_fract_y
_atom_site_fract_z
Si Si1 0.309530 0.084553 0.479298
Si Si2 0.873367 0.288564 0.674903
Si Si3 0.730397 0.838975 0.198491
Si Si4 0.595430 0.531648 0.076652
Si Si5 0.449498 0.305566 0.414745
Si Si6 0.819532 0.352099 0.993477
Si Si7 0.959008 0.593910 0.099139
O O1 0.272592 0.101987 0.620255
O O2 0.392342 0.204842 0.530532
O O3 0.245563 0.324147 0.179546
O O4 0.345155 0.734396 0.619814
O O5 0.797037 0.511295 0.381968
O O6 0.846348 0.343332 0.824491
O O7 0.960677 0.372945 0.704146
O O8 0.896019 0.925341 0.843338
O O9 0.636625 0.813728 0.040909
O O10 0.772140 0.091686 0.067239
O O11 0.500000 0.500000 0.000000
O O12 0.603274 0.490220 0.892353
O O13 0.500000 0.500000 0.500000
O O14 0.500000 0.000000 0.500000
O O15 0.906229 0.362156 0.194016
O O16 0.000000 0.500000 0.000000
#
# Coordination Sequence:
#
# PCOD9022893 Si02
#       7
#     2   2   2   2   2   2   2
#     4  11  25  43  68  96 140 183 237 296 357 432
#     4   9  20  40  66  97 138 183 229 288 349 427
#     4  11  25  42  68 101 137 182 242 295 361 424
#     4  12  26  44  68  98 136 186 236 300 363 435
#     4  12  28  47  75 104 140 186 243 308 373 440
#     4  10  22  39  65 100 138 183 234 293 353 422
#     4   9  18  39  66  95 138 183 227 280 352 421
#
# _framework density 25.557995999999999
#
# number of rings (size 3 to 8) (size 9 to 14) (size 15 to 20)
#    0.000    1.429    1.429    2.571    4.000    5.143 
#    0.000    6.429    0.000    0.000    0.000    0.000 
#    0.000    0.000    0.000    0.000    0.000    0.000 
#
# Total GULP energy -78161.659360 kJ/mol
# GULP energy per Si atom -5582.975669 kJ/mol
# Density = 2.549982 g / cm^3
# Si number density = 25.557996 Si / 1000 Ang^3
#
#
#
# Elastic Constant Matrix: (Units=GPa)
#
#
# Indices 1 2 3 4 5 6 
#
# 1 158.3888 68.9541 40.0830 -15.9644 3.6771 55.3327
# 2 68.9541 111.1464 28.7594 -4.9361 16.2272 46.1816
# 3 40.0830 28.7594 79.9779 -16.4650 13.4719 10.0402
# 4 -15.9644 -4.9361 -16.4650 33.2016 -11.3377 6.1558
# 5 3.6771 16.2272 13.4719 -11.3377 36.4755 -1.6675
# 6 55.3327 46.1816 10.0402 6.1558 -1.6675 75.1056
#
#
#
# Elastic Compliance Matrix: (Units=1/GPa)
#
#
# Indices 1 2 3 4 5 6 
#
# 1 0.011358 -0.004089 -0.002872 0.005612 0.003211 -0.005859
# 2 -0.004089 0.015548 -0.001999 -0.001731 -0.006592 -0.006285
# 3 -0.002872 -0.001999 0.016164 0.005128 -0.003165 0.000694
# 4 0.005612 -0.001731 0.005128 0.039917 0.010407 -0.006796
# 5 0.003211 -0.006592 -0.003165 0.010407 0.034521 0.002024
# 6 -0.005859 -0.006285 0.000694 -0.006796 0.002024 0.022005
#
#
# Mechanical properties :
#
#
# Convention : Reuss Voigt Hill
#
# Bulk Modulus (GPa) = 39.76128 69.45624 54.60876
# Shear Modulus (GPa) = 30.15397 43.07097 36.61247
#
# Velocity S-wave (km/s) = 3.43858 4.10960 3.78898
# Velocity P-wave (km/s) = 5.59966 7.05361 6.36826
#
# Compressibility (1/GPa) = 0.02515009
#
# Stress axis : x y z
#
# Youngs Moduli (GPa) = 88.04176 64.31693 61.86774
#
# Poissons Ratio (x) = 0.26297 0.17771
# Poissons Ratio (y) = 0.35997 0.12366
# Poissons Ratio (z) = 0.25289 0.12856
#
# Static dielectric constant tensor:
#      x y z
#    x 2.018050 0.024320 0.070540 
#    y 0.024320 2.034160 -0.052480 
#    z 0.070540 -0.052480 2.113630 
# 
# From -- ./inp_files/323226.got.cif
#   From: 2010.05.17/outbox.cif.g08.bks.cpg/sg2_162_cif.got.tgz:323226.got - 2010.06.03 11:33:40.
