data_PCOD9022712
_publ_section_title
;
Structure prediction by ZEFSAII (Michael W. Deem and Ramdas Pophale) SiO2 
 PCOD9022712
Probable space group: P -1
;
_chemical_formula_sum "Si O2"
_cell_formula_units_Z 14
_cell_length_a 16.037349
_cell_length_b 14.473367
_cell_length_c 9.707604
_cell_angle_alpha 67.824059
_cell_angle_beta 130.299384
_cell_angle_gamma 153.562669
_cell_volume 615.520071
_symmetry_space_group_name_H-M "P -1"
_symmetry_group_IT_number 2
_symmetry_cell_setting 'triclinic'
loop_
_space_group_symop_operation_xyz
x,y,z
-x,-y,-z
loop_
_atom_site_type_symbol
_atom_site_label
_atom_site_fract_x
_atom_site_fract_y
_atom_site_fract_z
Si Si1 0.929978 0.385871 0.350826
Si Si2 0.393283 0.826358 0.138254
Si Si3 0.273803 0.176886 0.373574
Si Si4 0.786927 0.649401 0.865919
Si Si5 0.278557 0.399432 0.855639
Si Si6 0.014200 0.685247 0.907644
Si Si7 0.327049 0.579933 0.553329
O O1 0.000000 0.500000 0.500000
O O2 0.219037 0.599881 0.461582
O O3 0.728541 0.121824 0.322250
O O4 0.738764 0.284408 0.094146
O O5 0.254430 0.614299 0.181016
O O6 0.269481 0.823333 0.078997
O O7 0.516142 0.399108 0.620360
O O8 0.161919 0.190083 0.194066
O O9 0.401865 0.224346 0.353894
O O10 0.026161 0.904533 0.326222
O O11 0.025818 0.776178 0.989340
O O12 0.718281 0.571909 0.995307
O O13 0.335840 0.535878 0.734912
O O14 0.500000 0.500000 0.000000
O O15 0.930039 0.669819 0.684332
#
# Coordination Sequence:
#
# PCOD9022712 Si02
#       7
#     2   2   2   2   2   2   2
#     4  10  22  39  63  97 124 157 216 256 307 379
#     4   9  20  42  64  88 129 166 199 266 312 360
#     4  10  23  46  62  89 133 163 211 265 307 374
#     4  10  22  41  66  93 122 172 212 251 316 380
#     4  12  25  42  64  95 129 167 209 262 314 367
#     4   9  20  42  66  90 127 169 209 251 319 373
#     4  10  23  41  63  96 127 166 206 259 318 360
#
# _framework density 22.744994999999999
#
# number of rings (size 3 to 8) (size 9 to 14) (size 15 to 20)
#    0.000    2.000    1.429    0.429    6.000    1.714 
#    0.000    6.429    0.000    0.000    0.000    0.000 
#    0.000    0.000    0.000    0.000    0.000    0.000 
#
# Total GULP energy -78196.615036 kJ/mol
# GULP energy per Si atom -5585.472503 kJ/mol
# Density = 2.269323 g / cm^3
# Si number density = 22.744995 Si / 1000 Ang^3
#
#
#
# Elastic Constant Matrix: (Units=GPa)
#
#
# Indices 1 2 3 4 5 6 
#
# 1 137.1674 -4.5605 26.3763 -0.4968 -12.2220 13.9900
# 2 -4.5605 55.7643 9.4486 -2.1287 -2.5370 5.7440
# 3 26.3763 9.4486 61.9512 -12.0131 -14.6633 -8.5210
# 4 -0.4968 -2.1287 -12.0131 35.8533 8.4029 -2.8806
# 5 -12.2220 -2.5370 -14.6633 8.4029 44.4062 -4.1433
# 6 13.9900 5.7440 -8.5210 -2.8806 -4.1433 20.3390
#
#
#
# Elastic Compliance Matrix: (Units=1/GPa)
#
#
# Indices 1 2 3 4 5 6 
#
# 1 0.009733 0.002898 -0.006530 -0.002786 0.000226 -0.010598
# 2 0.002898 0.020245 -0.006293 -0.001533 -0.000835 -0.010735
# 3 -0.006530 -0.006293 0.025721 0.008175 0.006614 0.019550
# 4 -0.002786 -0.001533 0.008175 0.032054 -0.003321 0.009637
# 5 0.000226 -0.000835 0.006614 -0.003321 0.026064 0.007690
# 6 -0.010598 -0.010735 0.019550 0.009637 0.007690 0.070610
#
#
# Mechanical properties :
#
#
# Convention : Reuss Voigt Hill
#
# Bulk Modulus (GPa) = 27.89444 35.26796 31.58120
# Shear Modulus (GPa) = 23.12379 35.02761 29.07570
#
# Velocity S-wave (km/s) = 3.19196 3.92856 3.57926
# Velocity P-wave (km/s) = 5.08679 6.00979 5.56745
#
# Compressibility (1/GPa) = 0.03584943
#
# Stress axis : x y z
#
# Youngs Moduli (GPa) = 102.73871 49.39468 38.87800
#
# Poissons Ratio (x) = -0.14315 0.25389
# Poissons Ratio (y) = -0.29775 0.24466
# Poissons Ratio (z) = 0.67092 0.31084
#
# Static dielectric constant tensor:
#      x y z
#    x 1.890800 -0.000740 0.035270 
#    y -0.000740 1.860460 -0.029220 
#    z 0.035270 -0.029220 1.901500 
# 
# From -- ./inp_files/313204.got.cif
#   From: 2010.05.17/outbox.cif.g08.bks.cpg/sg2_157_cif.got.tgz:313204.got - 2010.06.03 11:33:40.
