data_PCOD9022900
_publ_section_title
;
Structure prediction by ZEFSAII (Michael W. Deem and Ramdas Pophale) SiO2 
 PCOD9022900
Probable space group: P -1
;
_chemical_formula_sum "Si O2"
_cell_formula_units_Z 14
_cell_length_a 11.669816
_cell_length_b 12.047134
_cell_length_c 9.579499
_cell_angle_alpha 132.833425
_cell_angle_beta 59.602550
_cell_angle_gamma 142.032325
_cell_volume 606.259939
_symmetry_space_group_name_H-M "P -1"
_symmetry_group_IT_number 2
_symmetry_cell_setting 'triclinic'
loop_
_space_group_symop_operation_xyz
x,y,z
-x,-y,-z
loop_
_atom_site_type_symbol
_atom_site_label
_atom_site_fract_x
_atom_site_fract_y
_atom_site_fract_z
Si Si1 0.632340 0.727284 0.693666
Si Si2 0.268685 0.549655 0.910760
Si Si3 0.207940 0.607661 0.489250
Si Si4 0.325081 0.964999 0.515299
Si Si5 0.399464 0.576734 0.143099
Si Si6 0.639780 0.051358 0.836233
Si Si7 0.896339 0.678028 0.460221
O O1 0.500000 0.500000 0.500000
O O2 0.487035 0.679722 0.854927
O O3 0.809541 0.764429 0.646136
O O4 0.695609 0.927639 0.742182
O O5 0.146036 0.363617 0.714474
O O6 0.262959 0.504293 0.036709
O O7 0.229255 0.696675 0.042996
O O8 0.309782 0.808595 0.493220
O O9 0.268297 0.497353 0.288975
O O10 0.207512 0.554227 0.606598
O O11 0.000000 0.500000 0.500000
O O12 0.421256 0.018924 0.348583
O O13 0.113488 0.840067 0.498799
O O14 0.424888 0.172679 0.721869
O O15 0.500000 0.500000 0.000000
O O16 0.500000 0.000000 0.000000
#
# Coordination Sequence:
#
# PCOD9022900 Si02
#       7
#     2   2   2   2   2   2   2
#     4   9  20  37  65  95 136 173 224 276 339 391
#     4  10  22  41  66  98 130 173 235 275 328 410
#     4  10  23  46  70  99 139 186 222 280 346 409
#     4  11  25  44  70  99 141 182 224 281 349 409
#     4  12  26  43  70 102 141 180 230 282 346 404
#     4  10  22  39  65 102 131 175 230 281 333 406
#     4  10  23  44  70  98 135 179 226 281 342 400
#
# _framework density 23.092404999999999
#
# number of rings (size 3 to 8) (size 9 to 14) (size 15 to 20)
#    0.000    1.714    1.429    1.286   10.000    2.286 
#    0.000    6.429    0.000    0.000    0.000    0.000 
#    0.000    0.000    0.000    0.000    0.000    0.000 
#
# Total GULP energy -77934.305254 kJ/mol
# GULP energy per Si atom -5566.736090 kJ/mol
# Density = 2.303985 g / cm^3
# Si number density = 23.092405 Si / 1000 Ang^3
#
#
#
# Elastic Constant Matrix: (Units=GPa)
#
#
# Indices 1 2 3 4 5 6 
#
# 1 145.7677 45.1657 60.7743 7.8551 -3.9140 -5.8703
# 2 45.1657 67.2365 30.6525 -4.7080 -1.0577 -20.3041
# 3 60.7743 30.6525 98.7331 3.5211 -7.4668 -15.0654
# 4 7.8551 -4.7080 3.5211 26.2596 -13.7570 -3.2286
# 5 -3.9140 -1.0577 -7.4668 -13.7570 46.8115 -0.3620
# 6 -5.8703 -20.3041 -15.0654 -3.2286 -0.3620 34.2689
#
#
#
# Elastic Compliance Matrix: (Units=1/GPa)
#
#
# Indices 1 2 3 4 5 6 
#
# 1 0.011429 -0.007147 -0.005554 -0.005521 -0.001755 -0.005257
# 2 -0.007147 0.025363 -0.001464 0.010097 0.002819 0.014140
# 3 -0.005554 -0.001464 0.014871 0.001186 0.002261 0.004854
# 4 -0.005521 0.010097 0.001186 0.050459 0.014866 0.010469
# 5 -0.001755 0.002819 0.002261 0.014866 0.026040 0.004039
# 6 -0.005257 0.014140 0.004854 0.010469 0.004039 0.039822
#
#
# Mechanical properties :
#
#
# Convention : Reuss Voigt Hill
#
# Bulk Modulus (GPa) = 42.85912 64.99138 53.92525
# Shear Modulus (GPa) = 24.49878 33.14430 28.82154
#
# Velocity S-wave (km/s) = 3.26068 3.79263 3.53667
# Velocity P-wave (km/s) = 5.72505 6.88360 6.33088
#
# Compressibility (1/GPa) = 0.02333225
#
# Stress axis : x y z
#
# Youngs Moduli (GPa) = 87.49547 39.42782 67.24454
#
# Poissons Ratio (x) = 0.28180 0.37349
# Poissons Ratio (y) = 0.62535 0.09844
# Poissons Ratio (z) = 0.48597 0.05772
#
# Static dielectric constant tensor:
#      x y z
#    x 1.927150 0.067160 0.014040 
#    y 0.067160 2.007180 -0.026090 
#    z 0.014040 -0.026090 1.816990 
# 
# From -- ./inp_files/263404.got.cif
#   From: 2010.05.17/outbox.cif.g08.bks.cpg/sg2_132_cif.got.tgz:263404.got - 2010.06.03 11:33:40.
