data_PCOD9022970
_publ_section_title
;
Structure prediction by ZEFSAII (Michael W. Deem and Ramdas Pophale) SiO2 
 PCOD9022970
Probable space group: P -1
;
_chemical_formula_sum "Si O2"
_cell_formula_units_Z 16
_cell_length_a 14.975822
_cell_length_b 7.918469
_cell_length_c 8.473231
_cell_angle_alpha 89.914701
_cell_angle_beta 87.129556
_cell_angle_gamma 34.712442
_cell_volume 570.082979
_symmetry_space_group_name_H-M "P -1"
_symmetry_group_IT_number 2
_symmetry_cell_setting 'triclinic'
loop_
_space_group_symop_operation_xyz
x,y,z
-x,-y,-z
loop_
_atom_site_type_symbol
_atom_site_label
_atom_site_fract_x
_atom_site_fract_y
_atom_site_fract_z
Si Si1 0.276151 0.961426 0.157334
Si Si2 0.136315 0.726436 0.103968
Si Si3 0.582786 0.992932 0.311299
Si Si4 0.261841 0.524848 0.489427
Si Si5 0.594219 0.515546 0.078960
Si Si6 0.666797 0.227559 0.397811
Si Si7 0.976490 0.814108 0.665987
Si Si8 0.173601 0.361604 0.947498
O O1 0.427409 0.843512 0.159523
O O2 0.169865 0.090307 0.317743
O O3 0.375913 0.646063 0.082889
O O4 0.165638 0.187294 0.021294
O O5 0.288661 0.521347 0.983931
O O6 0.130207 0.535846 0.107944
O O7 0.104239 0.887600 0.260507
O O8 0.000000 0.000000 0.000000
O O9 0.394342 0.308862 0.341136
O O10 0.676103 0.007882 0.386507
O O11 0.635015 0.734828 0.384147
O O12 0.646910 0.909362 0.130149
O O13 0.235677 0.762737 0.538928
O O14 0.099868 0.669749 0.520006
O O15 0.658373 0.304262 0.218222
O O16 0.500000 0.500000 0.500000
O O17 0.080981 0.575844 0.803276
#
# Coordination Sequence:
#
# PCOD9022970 Si02
#       8
#     2   2   2   2   2   2   2   2
#     4  10  20  31  50  73 109 142 168 214 266 329
#     4   9  18  31  51  75 107 139 165 224 272 311
#     4   9  17  30  51  79 103 129 178 220 264 311
#     4   9  18  32  51  78 105 133 172 227 267 298
#     4  10  19  33  48  75 106 140 173 212 273 318
#     4  10  18  31  54  77  99 133 176 225 260 305
#     4   9  18  33  48  74 109 141 171 214 271 314
#     4  10  17  31  51  80 102 134 179 223 258 315
#
# _framework density 28.066092000000001
#
# number of rings (size 3 to 8) (size 9 to 14) (size 15 to 20)
#    0.000    2.500    1.250    2.625    0.000    0.500 
#    4.500    0.000    0.000    3.000    3.250   28.000 
#    0.000    0.000    0.000    0.000    0.000    0.000 
#
# Total GULP energy -89153.839728 kJ/mol
# GULP energy per Si atom -5572.114983 kJ/mol
# Density = 2.800221 g / cm^3
# Si number density = 28.066092 Si / 1000 Ang^3
#
#
#
# Elastic Constant Matrix: (Units=GPa)
#
#
# Indices 1 2 3 4 5 6 
#
# 1 96.3052 36.2888 45.4216 20.2840 -15.0563 -6.0022
# 2 36.2888 105.8322 23.8863 13.2020 -22.2620 5.4556
# 3 45.4216 23.8863 130.0614 8.0972 -35.3777 -0.1079
# 4 20.2840 13.2020 8.0972 47.6790 2.8270 -14.2116
# 5 -15.0563 -22.2620 -35.3777 2.8270 61.9376 13.8318
# 6 -6.0022 5.4556 -0.1079 -14.2116 13.8318 43.8337
#
#
#
# Elastic Compliance Matrix: (Units=1/GPa)
#
#
# Indices 1 2 3 4 5 6 
#
# 1 0.014684 -0.003675 -0.004269 -0.004130 -0.000270 0.001204
# 2 -0.003675 0.012372 0.000651 -0.003738 0.005188 -0.004891
# 3 -0.004269 0.000651 0.010814 -0.001472 0.006121 -0.003048
# 4 -0.004130 -0.003738 -0.001472 0.027726 -0.006926 0.011071
# 5 -0.000270 0.005188 0.006121 -0.006926 0.024106 -0.010520
# 6 0.001204 -0.004891 -0.003048 0.011071 -0.010520 0.030488
#
#
# Mechanical properties :
#
#
# Convention : Reuss Voigt Hill
#
# Bulk Modulus (GPa) = 42.94657 60.37692 51.66175
# Shear Modulus (GPa) = 35.07840 45.79687 40.43763
#
# Velocity S-wave (km/s) = 3.53916 4.04388 3.79991
# Velocity P-wave (km/s) = 5.66004 6.58506 6.13999
#
# Compressibility (1/GPa) = 0.02328475
#
# Stress axis : x y z
#
# Youngs Moduli (GPa) = 68.09909 80.82823 92.47384
#
# Poissons Ratio (x) = 0.29708 0.39474
# Poissons Ratio (y) = 0.25029 -0.06023
# Poissons Ratio (z) = 0.29069 -0.05264
#
# Static dielectric constant tensor:
#      x y z
#    x 4.967640 -0.488950 -0.075480 
#    y -0.488950 2.348750 -0.036690 
#    z -0.075480 -0.036690 2.113180 
# 
# From -- ./inp_files/319277.got.cif
#   From: 2010.05.17/outbox.cif.g08.bks.cpg/sg2_160_cif.got.tgz:319277.got - 2010.06.03 11:33:40.
