data_PCOD9022989
_publ_section_title
;
Structure prediction by ZEFSAII (Michael W. Deem and Ramdas Pophale) SiO2 
 PCOD9022989
Probable space group: P -1
;
_chemical_formula_sum "Si O2"
_cell_formula_units_Z 12
_cell_length_a 10.462962
_cell_length_b 7.610334
_cell_length_c 12.355754
_cell_angle_alpha 100.908065
_cell_angle_beta 34.434515
_cell_angle_gamma 109.228871
_cell_volume 518.999422
_symmetry_space_group_name_H-M "P -1"
_symmetry_group_IT_number 2
_symmetry_cell_setting 'triclinic'
loop_
_space_group_symop_operation_xyz
x,y,z
-x,-y,-z
loop_
_atom_site_type_symbol
_atom_site_label
_atom_site_fract_x
_atom_site_fract_y
_atom_site_fract_z
Si Si1 0.312944 0.024241 0.221837
Si Si2 0.467330 0.454737 0.141569
Si Si3 0.622594 0.434106 0.570657
Si Si4 0.809420 0.871752 0.467835
Si Si5 0.122969 0.371674 0.964343
Si Si6 0.222533 0.883155 0.673479
O O1 0.319264 0.238103 0.225135
O O2 0.338429 0.032158 0.336173
O O3 0.057391 0.884445 0.353843
O O4 0.500000 0.000000 0.000000
O O5 0.341929 0.562419 0.323146
O O6 0.500000 0.500000 0.000000
O O7 0.723332 0.504722 0.028948
O O8 0.674633 0.650254 0.521251
O O9 0.226071 0.680674 0.602650
O O10 0.338804 0.336348 0.741893
O O11 0.875261 0.998369 0.329925
O O12 0.934762 0.181471 0.117302
O O13 0.000000 0.500000 0.000000
O O14 0.500000 0.000000 0.500000
#
# Coordination Sequence:
#
# PCOD9022989 Si02
#       6
#     2   2   2   2   2   2
#     4  10  22  39  65  95 133 173 211 276 332 395
#     4   9  20  41  63  96 130 171 221 263 334 404
#     4   9  24  44  66  95 137 172 216 284 336 388
#     4  10  23  43  62 101 131 166 228 268 328 404
#     4  10  23  43  65  96 135 175 227 276 336 399
#     4  12  26  42  70  96 129 179 228 276 330 406
#
# _framework density 23.121414000000001
#
# number of rings (size 3 to 8) (size 9 to 14) (size 15 to 20)
#    1.000    1.000    0.000    2.000    4.667    3.333 
#    0.000    3.333    0.000    0.000    0.000    0.000 
#    0.000    0.000    0.000    0.000    0.000    0.000 
#
# Total GULP energy -66901.559539 kJ/mol
# GULP energy per Si atom -5575.129962 kJ/mol
# Density = 2.306879 g / cm^3
# Si number density = 23.121414 Si / 1000 Ang^3
#
#
#
# Elastic Constant Matrix: (Units=GPa)
#
#
# Indices 1 2 3 4 5 6 
#
# 1 76.5234 14.9107 12.3469 -10.0449 10.1901 -9.3001
# 2 14.9107 82.2074 42.0732 -11.1472 9.4037 1.2437
# 3 12.3469 42.0732 126.0927 -24.5552 2.1174 7.4797
# 4 -10.0449 -11.1472 -24.5552 48.3734 4.9681 12.3019
# 5 10.1901 9.4037 2.1174 4.9681 28.2164 -12.8775
# 6 -9.3001 1.2437 7.4797 12.3019 -12.8775 29.1694
#
#
#
# Elastic Compliance Matrix: (Units=1/GPa)
#
#
# Indices 1 2 3 4 5 6 
#
# 1 0.014569 -0.001637 -0.000479 0.002319 -0.004166 0.002020
# 2 -0.001637 0.015871 -0.004151 0.003078 -0.006991 -0.004518
# 3 -0.000479 -0.004151 0.011234 0.006971 -0.003957 -0.007543
# 4 0.002319 0.003078 0.006971 0.033382 -0.019070 -0.023677
# 5 -0.004166 -0.006991 -0.003957 -0.019070 0.058349 0.033786
# 6 0.002020 -0.004518 -0.007543 -0.023677 0.033786 0.061955
#
#
# Mechanical properties :
#
#
# Convention : Reuss Voigt Hill
#
# Bulk Modulus (GPa) = 34.31547 47.05390 40.68469
# Shear Modulus (GPa) = 22.97737 35.51801 29.24769
#
# Velocity S-wave (km/s) = 3.15583 3.92363 3.56049
# Velocity P-wave (km/s) = 5.30591 6.39699 5.87682
#
# Compressibility (1/GPa) = 0.02914137
#
# Stress axis : x y z
#
# Youngs Moduli (GPa) = 68.63964 63.00857 89.01562
#
# Poissons Ratio (x) = 0.10315 0.04260
# Poissons Ratio (y) = 0.11237 0.36947
# Poissons Ratio (z) = 0.03285 0.26152
#
# Static dielectric constant tensor:
#      x y z
#    x 1.993990 -0.013990 0.097270 
#    y -0.013990 1.846300 -0.013280 
#    z 0.097270 -0.013280 1.961510 
# 
# From -- ./inp_files/385560.got.cif
#   From: 2010.05.17/outbox.cif.g08.bks.cpg/sg2_193_cif.got.tgz:385560.got - 2010.06.03 11:33:40.
