data_PCOD9022369
_publ_section_title
;
Structure prediction by ZEFSAII (Michael W. Deem and Ramdas Pophale) SiO2 
 PCOD9022369
Probable space group: P -1
;
_chemical_formula_sum "Si O2"
_cell_formula_units_Z 12
_cell_length_a 5.106265
_cell_length_b 19.372586
_cell_length_c 6.658826
_cell_angle_alpha 65.407098
_cell_angle_beta 71.183539
_cell_angle_gamma 66.113480
_cell_volume 538.169382
_symmetry_space_group_name_H-M "P -1"
_symmetry_group_IT_number 2
_symmetry_cell_setting 'triclinic'
loop_
_space_group_symop_operation_xyz
x,y,z
-x,-y,-z
loop_
_atom_site_type_symbol
_atom_site_label
_atom_site_fract_x
_atom_site_fract_y
_atom_site_fract_z
Si Si1 0.979813 0.939647 0.326370
Si Si2 0.072769 0.181005 0.816468
Si Si3 0.210696 0.686929 0.952955
Si Si4 0.823555 0.694013 0.653299
Si Si5 0.809020 0.443507 0.565767
Si Si6 0.640635 0.950417 0.783762
O O1 0.074974 0.868107 0.232395
O O2 0.831148 0.911932 0.588494
O O3 0.700140 0.010773 0.224551
O O4 0.776464 0.021354 0.717483
O O5 0.217085 0.230111 0.574203
O O6 0.863450 0.243138 0.946074
O O7 0.289533 0.114398 0.981929
O O8 0.218270 0.607763 0.170262
O O9 0.518409 0.680084 0.786827
O O10 0.970921 0.703751 0.816203
O O11 0.037674 0.619430 0.569459
O O12 0.500000 0.500000 0.500000
O O13 0.000000 0.500000 0.500000
#
# Coordination Sequence:
#
# PCOD9022369 Si02
#       6
#     2   2   2   2   2   2
#     4  10  22  39  61  90 122 163 216 270 322 371
#     4  11  24  42  66  91 128 172 216 261 318 384
#     4  11  26  44  65  97 133 169 209 258 316 376
#     4  11  26  44  65  97 133 169 209 258 316 376
#     4  11  24  44  72 101 128 166 212 255 310 378
#     4  10  22  39  61  90 122 163 216 270 322 371
#
# _framework density 22.297809000000001
#
# number of rings (size 3 to 8) (size 9 to 14) (size 15 to 20)
#    0.000    1.333    0.000    4.000    0.000   17.333 
#    0.000    0.000    0.000    0.000    0.000    0.000 
#    0.000    0.000    0.000    0.000    0.000    0.000 
#
# Total GULP energy -67224.770577 kJ/mol
# GULP energy per Si atom -5602.064215 kJ/mol
# Density = 2.224706 g / cm^3
# Si number density = 22.297809 Si / 1000 Ang^3
#
#
#
# Elastic Constant Matrix: (Units=GPa)
#
#
# Indices 1 2 3 4 5 6 
#
# 1 85.3298 7.1978 7.1496 -4.7967 -7.3118 11.8414
# 2 7.1978 83.9510 42.7864 -5.7640 -1.6768 24.8959
# 3 7.1496 42.7864 130.9208 -9.7203 1.5737 4.3641
# 4 -4.7967 -5.7640 -9.7203 26.3902 3.9631 7.3922
# 5 -7.3118 -1.6768 1.5737 3.9631 39.5018 3.6094
# 6 11.8414 24.8959 4.3641 7.3922 3.6094 22.1530
#
#
#
# Elastic Compliance Matrix: (Units=1/GPa)
#
#
# Indices 1 2 3 4 5 6 
#
# 1 0.014265 0.004515 -0.001278 0.006861 0.003595 -0.015322
# 2 0.004515 0.026885 -0.006841 0.013783 0.004208 -0.036564
# 3 -0.001278 -0.006841 0.009760 0.000247 -0.001545 0.006618
# 4 0.006861 0.013783 0.000247 0.052539 -0.000070 -0.036725
# 5 0.003595 0.004208 -0.001545 -0.000070 0.027211 -0.010756
# 6 -0.015322 -0.036564 0.006618 -0.036725 -0.010756 0.107125
#
#
# Mechanical properties :
#
#
# Convention : Reuss Voigt Hill
#
# Bulk Modulus (GPa) = 22.88215 46.05213 34.46714
# Shear Modulus (GPa) = 19.26334 33.81352 26.53843
#
# Velocity S-wave (km/s) = 2.94243 3.89839 3.45364
# Velocity P-wave (km/s) = 4.67206 6.40010 5.60310
#
# Compressibility (1/GPa) = 0.04370218
#
# Stress axis : x y z
#
# Youngs Moduli (GPa) = 70.09933 37.19579 102.45829
#
# Poissons Ratio (x) = -0.16793 0.13090
# Poissons Ratio (y) = -0.31648 0.70094
# Poissons Ratio (z) = 0.08956 0.25447
#
# Static dielectric constant tensor:
#      x y z
#    x 1.768730 0.000970 0.006870 
#    y 0.000970 1.809930 0.030540 
#    z 0.006870 0.030540 1.854120 
# 
# From -- ./inp_files/10338.got.cif
#   From: 2010.05.17/outbox.cif.g08.bks.cpg/sg2_6_cif.got.tgz:10338.got - 2010.06.03 11:33:40.
