data_PCOD9022440
_publ_section_title
;
Structure prediction by ZEFSAII (Michael W. Deem and Ramdas Pophale) SiO2 
 PCOD9022440
Probable space group: P -1
;
_chemical_formula_sum "Si O2"
_cell_formula_units_Z 16
_cell_length_a 11.756020
_cell_length_b 11.017054
_cell_length_c 11.622420
_cell_angle_alpha 49.098710
_cell_angle_beta 133.025041
_cell_angle_gamma 144.977956
_cell_volume 614.791961
_symmetry_space_group_name_H-M "P -1"
_symmetry_group_IT_number 2
_symmetry_cell_setting 'triclinic'
loop_
_space_group_symop_operation_xyz
x,y,z
-x,-y,-z
loop_
_atom_site_type_symbol
_atom_site_label
_atom_site_fract_x
_atom_site_fract_y
_atom_site_fract_z
Si Si1 0.485052 0.944274 0.177835
Si Si2 0.931754 0.208057 0.056691
Si Si3 0.923458 0.758192 0.407967
Si Si4 0.639052 0.055364 0.452211
Si Si5 0.534103 0.625391 0.327303
Si Si6 0.328333 0.566689 0.775634
Si Si7 0.291437 0.322414 0.125371
Si Si8 0.030181 0.633792 0.775968
O O1 0.319053 0.962894 0.015486
O O2 0.459757 0.754964 0.218485
O O3 0.476607 0.906353 0.331183
O O4 0.719181 0.169851 0.180031
O O5 0.979952 0.415072 0.903211
O O6 0.021318 0.292152 0.194340
O O7 0.046802 0.151019 0.098743
O O8 0.779389 0.794577 0.346824
O O9 0.805301 0.616912 0.299908
O O10 0.171425 0.941297 0.431192
O O11 0.923638 0.628281 0.592258
O O12 0.745892 0.303118 0.349541
O O13 0.500000 0.000000 0.500000
O O14 0.500000 0.500000 0.500000
O O15 0.409192 0.461143 0.236305
O O16 0.572617 0.728098 0.801795
O O17 0.311821 0.468177 0.947346
#
# Coordination Sequence:
#
# PCOD9022440 Si02
#       8
#     2   2   2   2   2   2   2   2
#     4  11  25  41  65  99 135 168 219 281 330 391
#     4  11  21  39  67  93 134 174 216 264 344 386
#     4  10  22  42  68  92 127 175 216 273 328 385
#     4  11  26  41  63  98 132 173 224 268 323 400
#     4  11  23  41  71 102 131 168 222 275 341 396
#     4  10  23  43  66  91 132 172 223 268 323 388
#     4  10  22  40  68  96 126 174 220 269 321 401
#     4  10  22  39  62 100 128 168 219 272 328 402
#
# _framework density 26.025065999999999
#
# number of rings (size 3 to 8) (size 9 to 14) (size 15 to 20)
#    0.000    1.500    0.000    5.250    7.000    3.000 
#    2.250    0.625    0.000    0.000    0.000    0.000 
#    0.000    0.000    0.000    0.000    0.000    0.000 
#
# Total GULP energy -89570.872649 kJ/mol
# GULP energy per Si atom -5598.179541 kJ/mol
# Density = 2.596583 g / cm^3
# Si number density = 26.025066 Si / 1000 Ang^3
#
#
#
# Elastic Constant Matrix: (Units=GPa)
#
#
# Indices 1 2 3 4 5 6 
#
# 1 195.8983 9.3431 62.7386 7.3051 1.4474 16.0646
# 2 9.3431 52.1712 24.4884 1.1260 -1.0670 2.1521
# 3 62.7386 24.4884 143.9292 3.9923 -3.8844 4.4355
# 4 7.3051 1.1260 3.9923 28.4711 -6.0535 4.7259
# 5 1.4474 -1.0670 -3.8844 -6.0535 36.0391 -9.9623
# 6 16.0646 2.1521 4.4355 4.7259 -9.9623 30.8327
#
#
#
# Elastic Compliance Matrix: (Units=1/GPa)
#
#
# Indices 1 2 3 4 5 6 
#
# 1 0.006273 0.000265 -0.002693 -0.001044 -0.001611 -0.003260
# 2 0.000265 0.020871 -0.003630 -0.000231 -0.000120 -0.001076
# 3 -0.002693 -0.003630 0.008753 -0.000288 0.001118 0.000803
# 4 -0.001044 -0.000231 -0.000288 0.037129 0.005308 -0.003375
# 5 -0.001611 -0.000120 0.001118 0.005308 0.031609 0.010087
# 6 -0.003260 -0.001076 0.000803 -0.003375 0.010087 0.037867
#
#
# Mechanical properties :
#
#
# Convention : Reuss Voigt Hill
#
# Bulk Modulus (GPa) = 42.05305 65.01544 53.53424
# Shear Modulus (GPa) = 30.76040 38.76382 34.76211
#
# Velocity S-wave (km/s) = 3.44168 3.86357 3.65871
# Velocity P-wave (km/s) = 5.65573 6.70365 6.20187
#
# Compressibility (1/GPa) = 0.02377949
#
# Stress axis : x y z
#
# Youngs Moduli (GPa) = 159.41836 47.91311 114.24647
#
# Poissons Ratio (x) = -0.01269 0.30772
# Poissons Ratio (y) = -0.04224 0.41474
# Poissons Ratio (z) = 0.42939 0.17393
#
# Static dielectric constant tensor:
#      x y z
#    x 2.068380 0.106250 -0.026490 
#    y 0.106250 2.046090 -0.040650 
#    z -0.026490 -0.040650 2.073540 
# 
# From -- ./inp_files/427895.got.cif
#   From: 2010.05.17/outbox.cif.g08.bks.cpg/sg2_214_cif.got.tgz:427895.got - 2010.06.03 11:33:40.
