data_PCOD9022919
_publ_section_title
;
Structure prediction by ZEFSAII (Michael W. Deem and Ramdas Pophale) SiO2 
 PCOD9022919
Probable space group: P -1
;
_chemical_formula_sum "Si O2"
_cell_formula_units_Z 14
_cell_length_a 7.755808
_cell_length_b 9.758155
_cell_length_c 8.573402
_cell_angle_alpha 95.969170
_cell_angle_beta 106.188692
_cell_angle_gamma 115.050429
_cell_volume 545.818774
_symmetry_space_group_name_H-M "P -1"
_symmetry_group_IT_number 2
_symmetry_cell_setting 'triclinic'
loop_
_space_group_symop_operation_xyz
x,y,z
-x,-y,-z
loop_
_atom_site_type_symbol
_atom_site_label
_atom_site_fract_x
_atom_site_fract_y
_atom_site_fract_z
Si Si1 0.660092 0.997547 0.336406
Si Si2 0.329476 0.053573 0.104637
Si Si3 0.731109 0.578216 0.703792
Si Si4 0.558161 0.421995 0.153081
Si Si5 0.977279 0.911690 0.746961
Si Si6 0.069701 0.390432 0.916426
Si Si7 0.291282 0.750051 0.388426
O O1 0.492752 0.992845 0.169986
O O2 0.858055 0.986530 0.329724
O O3 0.729390 0.165251 0.454425
O O4 0.520493 0.857640 0.398869
O O5 0.457805 0.234037 0.097260
O O6 0.205685 0.062839 0.227935
O O7 0.145295 0.949343 0.930680
O O8 0.501095 0.537315 0.688090
O O9 0.745108 0.426064 0.639778
O O10 0.863325 0.729077 0.653309
O O11 0.819820 0.641701 0.912713
O O12 0.797122 0.511278 0.185807
O O13 0.500000 0.500000 0.000000
O O14 0.870751 0.250205 0.777767
O O15 0.000000 0.500000 0.000000
#
# Coordination Sequence:
#
# PCOD9022919 Si02
#       7
#     2   2   2   2   2   2   2
#     4  11  24  41  61  85 125 166 194 247 304 352
#     4  10  22  40  63  93 120 153 204 249 300 363
#     4   9  19  38  60  89 115 152 203 250 297 353
#     4   9  19  35  59  93 118 150 193 252 308 340
#     4  10  22  39  65  90 119 153 198 257 304 346
#     4   9  18  32  59  84 114 152 196 243 286 352
#     4  10  23  41  56  88 122 159 207 237 292 369
#
# _framework density 25.649540999999999
#
# number of rings (size 3 to 8) (size 9 to 14) (size 15 to 20)
#    0.000    2.286    0.000    1.286   10.000    1.714 
#    2.571    2.857    0.000    0.000    0.000    0.000 
#    0.000    0.000    0.000    0.000    0.000    0.000 
#
# Total GULP energy -78118.925401 kJ/mol
# GULP energy per Si atom -5579.923243 kJ/mol
# Density = 2.559116 g / cm^3
# Si number density = 25.649541 Si / 1000 Ang^3
#
#
#
# Elastic Constant Matrix: (Units=GPa)
#
#
# Indices 1 2 3 4 5 6 
#
# 1 82.3585 37.9198 14.9487 -13.9657 -5.2171 30.3625
# 2 37.9198 120.0359 -5.6231 17.5282 -3.2031 14.9588
# 3 14.9487 -5.6231 62.4247 17.9774 23.5293 8.0022
# 4 -13.9657 17.5282 17.9774 34.6787 1.2659 -8.6298
# 5 -5.2171 -3.2031 23.5293 1.2659 39.9896 -14.1484
# 6 30.3625 14.9588 8.0022 -8.6298 -14.1484 50.6796
#
#
#
# Elastic Compliance Matrix: (Units=1/GPa)
#
#
# Indices 1 2 3 4 5 6 
#
# 1 0.028496 -0.013793 -0.021699 0.029012 0.014228 -0.000663
# 2 -0.013793 0.017901 0.018195 -0.025520 -0.013053 -0.007883
# 3 -0.021699 0.018195 0.054586 -0.049883 -0.039133 -0.020408
# 4 0.029012 -0.025520 -0.049883 0.083526 0.036374 0.022405
# 5 0.014228 -0.013053 -0.039133 0.036374 0.055941 0.023319
# 6 -0.000663 -0.007883 -0.020408 0.022405 0.023319 0.036003
#
#
# Mechanical properties :
#
#
# Convention : Reuss Voigt Hill
#
# Bulk Modulus (GPa) = 15.06251 39.92331 27.49291
# Shear Modulus (GPa) = 15.00698 39.57450 27.29074
#
# Velocity S-wave (km/s) = 2.42146 3.93223 3.26542
# Velocity P-wave (km/s) = 3.70178 6.01791 4.99592
#
# Compressibility (1/GPa) = 0.06639001
#
# Stress axis : x y z
#
# Youngs Moduli (GPa) = 35.09207 55.86256 18.31963
#
# Poissons Ratio (x) = 0.77051 0.39752
# Poissons Ratio (y) = 0.48402 -0.33333
# Poissons Ratio (z) = 0.76147 -1.01643
#
# Static dielectric constant tensor:
#      x y z
#    x 2.099500 0.016140 0.111650 
#    y 0.016140 1.977670 -0.072650 
#    z 0.111650 -0.072650 2.191830 
# 
# From -- ./inp_files/180414.got.cif
#   From: 2010.05.17/outbox.cif.g08.bks.cpg/sg2_91_cif.got.tgz:180414.got - 2010.06.03 11:33:40.
