data_PCOD9022433
_publ_section_title
;
Structure prediction by ZEFSAII (Michael W. Deem and Ramdas Pophale) SiO2 
 PCOD9022433
Probable space group: P -1
;
_chemical_formula_sum "Si O2"
_cell_formula_units_Z 14
_cell_length_a 10.153309
_cell_length_b 7.460877
_cell_length_c 9.129112
_cell_angle_alpha 128.100879
_cell_angle_beta 88.992279
_cell_angle_gamma 89.759875
_cell_volume 544.017789
_symmetry_space_group_name_H-M "P -1"
_symmetry_group_IT_number 2
_symmetry_cell_setting 'triclinic'
loop_
_space_group_symop_operation_xyz
x,y,z
-x,-y,-z
loop_
_atom_site_type_symbol
_atom_site_label
_atom_site_fract_x
_atom_site_fract_y
_atom_site_fract_z
Si Si1 0.014430 0.237936 0.703700
Si Si2 0.334584 0.004831 0.270589
Si Si3 0.750652 0.436018 0.758764
Si Si4 0.421462 0.757216 0.573323
Si Si5 0.372854 0.681735 0.869241
Si Si6 0.302521 0.261585 0.816360
Si Si7 0.104778 0.909103 0.066269
O O1 0.907825 0.409159 0.718599
O O2 0.167683 0.283853 0.737303
O O3 0.967815 0.214787 0.861948
O O4 0.000000 0.000000 0.500000
O O5 0.200222 0.090902 0.238026
O O6 0.289836 0.794818 0.267001
O O7 0.427910 0.179378 0.434831
O O8 0.420467 0.882045 0.077536
O O9 0.660059 0.418319 0.610169
O O10 0.722462 0.647950 0.972510
O O11 0.346210 0.000971 0.681818
O O12 0.419349 0.685519 0.705920
O O13 0.397475 0.446119 0.834986
O O14 0.215966 0.748299 0.908272
O O15 0.000000 0.000000 0.000000
#
# Coordination Sequence:
#
# PCOD9022433 Si02
#       7
#     2   2   2   2   2   2   2
#     4  11  20  38  64  94 123 172 217 259 323 384
#     4   8  20  38  63  93 132 167 212 273 306 389
#     4  10  22  39  61  99 128 165 225 261 315 393
#     4  12  21  41  70  91 129 179 213 252 337 378
#     4   9  22  39  59 100 126 164 222 263 305 400
#     4  11  23  41  66  91 134 173 202 280 322 363
#     4   9  19  37  61  95 126 161 216 260 323 374
#
# _framework density 25.734455000000001
#
# number of rings (size 3 to 8) (size 9 to 14) (size 15 to 20)
#    0.857    1.143    2.857    2.143    0.000    2.286 
#    0.000    6.429    0.000    3.429    0.000    0.000 
#    0.000    0.000    0.000    0.000    0.000    0.000 
#
# Total GULP energy -78360.274605 kJ/mol
# GULP energy per Si atom -5597.162472 kJ/mol
# Density = 2.567588 g / cm^3
# Si number density = 25.734455 Si / 1000 Ang^3
#
#
#
# Elastic Constant Matrix: (Units=GPa)
#
#
# Indices 1 2 3 4 5 6 
#
# 1 133.0850 30.5401 26.0059 10.7761 26.7476 -27.0208
# 2 30.5401 69.9979 18.6991 6.9628 3.8539 -18.2205
# 3 26.0059 18.6991 123.4806 8.6811 27.7121 -15.0744
# 4 10.7761 6.9628 8.6811 37.5064 3.2803 0.3534
# 5 26.7476 3.8539 27.7121 3.2803 42.8958 1.0485
# 6 -27.0208 -18.2205 -15.0744 0.3534 1.0485 39.1307
#
#
#
# Elastic Compliance Matrix: (Units=1/GPa)
#
#
# Indices 1 2 3 4 5 6 
#
# 1 0.010956 -0.002563 0.000648 -0.002273 -0.007013 0.006830
# 2 -0.002563 0.017479 -0.001463 -0.002313 0.001008 0.005799
# 3 0.000648 -0.001463 0.010340 -0.001740 -0.006917 0.003951
# 4 -0.002273 -0.002313 -0.001740 0.028121 0.000687 -0.003589
# 5 -0.007013 0.001008 -0.006917 0.000687 0.032204 -0.007907
# 6 0.006830 0.005799 0.003951 -0.003589 -0.007907 0.034738
#
#
# Mechanical properties :
#
#
# Convention : Reuss Voigt Hill
#
# Bulk Modulus (GPa) = 31.23028 53.00596 42.11812
# Shear Modulus (GPa) = 33.05406 40.66114 36.85760
#
# Velocity S-wave (km/s) = 3.58778 3.97927 3.78858
# Velocity P-wave (km/s) = 5.41524 6.46179 5.96153
#
# Compressibility (1/GPa) = 0.03202021
#
# Stress axis : x y z
#
# Youngs Moduli (GPa) = 91.27614 57.21038 96.70865
#
# Poissons Ratio (x) = 0.14664 -0.06270
# Poissons Ratio (y) = 0.23395 0.14146
# Poissons Ratio (z) = -0.05917 0.08369
#
# Static dielectric constant tensor:
#      x y z
#    x 2.052580 -0.004790 -0.013420 
#    y -0.004790 2.010700 0.001250 
#    z -0.013420 0.001250 2.036050 
# 
# From -- ./inp_files/245960.got.cif
#   From: 2010.05.17/outbox.cif.g08.bks.cpg/sg2_123_cif.got.tgz:245960.got - 2010.06.03 11:33:40.
