data_PCOD9022347
_publ_section_title
;
Structure prediction by ZEFSAII (Michael W. Deem and Ramdas Pophale) SiO2 
 PCOD9022347
Probable space group: P -1
;
_chemical_formula_sum "Si O2"
_cell_formula_units_Z 10
_cell_length_a 10.328033
_cell_length_b 6.608637
_cell_length_c 12.164368
_cell_angle_alpha 76.795732
_cell_angle_beta 144.162267
_cell_angle_gamma 87.549222
_cell_volume 433.777404
_symmetry_space_group_name_H-M "P -1"
_symmetry_group_IT_number 2
_symmetry_cell_setting 'triclinic'
loop_
_space_group_symop_operation_xyz
x,y,z
-x,-y,-z
loop_
_atom_site_type_symbol
_atom_site_label
_atom_site_fract_x
_atom_site_fract_y
_atom_site_fract_z
Si Si1 0.165617 0.371914 0.803479
Si Si2 0.990696 0.239024 0.498219
Si Si3 0.819500 0.397217 0.996000
Si Si4 0.534246 0.096174 0.838250
Si Si5 0.325504 0.144054 0.266398
O O1 0.989307 0.288867 0.620693
O O2 0.087273 0.499727 0.849536
O O3 0.203918 0.556255 0.728563
O O4 0.388143 0.137704 0.011186
O O5 0.249545 0.225628 0.635647
O O6 0.000000 0.000000 0.500000
O O7 0.048892 0.234703 0.104584
O O8 0.673176 0.250623 0.950871
O O9 0.655227 0.619970 0.785447
O O10 0.615701 0.013699 0.780653
O O11 0.500000 0.000000 0.500000
#
# Coordination Sequence:
#
# PCOD9022347 Si02
#       5
#     2   2   2   2   2
#     4  10  23  39  61  87 118 156 195 243 293 345
#     4  11  24  40  60  88 119 156 200 241 290 349
#     4  10  22  40  60  90 121 151 197 241 292 352
#     4  11  23  39  62  87 119 158 194 243 294 345
#     4  10  22  39  61  88 120 156 193 240 294 351
#
# _framework density 23.053301999999999
#
# number of rings (size 3 to 8) (size 9 to 14) (size 15 to 20)
#    0.000    1.600    0.000    3.600    0.000   10.400 
#    0.000    0.000    0.000    0.000    0.000    0.000 
#    0.000    0.000    0.000    0.000    0.000    0.000 
#
# Total GULP energy -55872.450120 kJ/mol
# GULP energy per Si atom -5587.245012 kJ/mol
# Density = 2.300083 g / cm^3
# Si number density = 23.053302 Si / 1000 Ang^3
#
#
#
# Elastic Constant Matrix: (Units=GPa)
#
#
# Indices 1 2 3 4 5 6 
#
# 1 79.0038 48.1895 33.3911 5.8200 0.3201 -20.4592
# 2 48.1895 155.2194 60.1968 -0.5358 -9.8149 6.8421
# 3 33.3911 60.1968 105.5251 -17.2259 -34.9980 -3.0365
# 4 5.8200 -0.5358 -17.2259 38.8654 4.4953 -6.8763
# 5 0.3201 -9.8149 -34.9980 4.4953 42.0728 2.6077
# 6 -20.4592 6.8421 -3.0365 -6.8763 2.6077 43.1166
#
#
#
# Elastic Compliance Matrix: (Units=1/GPa)
#
#
# Indices 1 2 3 4 5 6 
#
# 1 0.021478 -0.005054 -0.006523 -0.003524 -0.007036 0.010398
# 2 -0.005054 0.010080 -0.005043 -0.002001 -0.001307 -0.004593
# 3 -0.006523 -0.005043 0.020854 0.008297 0.015360 -0.000432
# 4 -0.003524 -0.002001 0.008297 0.030247 0.002990 0.003873
# 5 -0.007036 -0.001307 0.015360 0.002990 0.036208 -0.003763
# 6 0.010398 -0.004593 -0.000432 0.003873 -0.003763 0.029670
#
#
# Mechanical properties :
#
#
# Convention : Reuss Voigt Hill
#
# Bulk Modulus (GPa) = 52.15984 69.25592 60.70788
# Shear Modulus (GPa) = 26.57200 38.00902 32.29051
#
# Velocity S-wave (km/s) = 3.39873 4.06488 3.74664
# Velocity P-wave (km/s) = 6.17063 7.22065 6.71619
#
# Compressibility (1/GPa) = 0.01917184
#
# Stress axis : x y z
#
# Youngs Moduli (GPa) = 46.55955 99.20322 47.95287
#
# Poissons Ratio (x) = 0.50135 0.31279
# Poissons Ratio (y) = 0.23530 0.24185
# Poissons Ratio (z) = 0.30371 0.50032
#
# Static dielectric constant tensor:
#      x y z
#    x 1.876280 0.010040 -0.037740 
#    y 0.010040 1.861340 0.020090 
#    z -0.037740 0.020090 1.862740 
# 
# From -- ./inp_files/1545.got.cif
#   From: 2010.05.17/outbox.cif.g08.bks.cpg/sg2_1_cif.got.tgz:1545.got - 2010.06.03 11:33:40.
