data_PCOD9022727
_publ_section_title
;
Structure prediction by ZEFSAII (Michael W. Deem and Ramdas Pophale) SiO2 
 PCOD9022727
Probable space group: P -1
;
_chemical_formula_sum "Si O2"
_cell_formula_units_Z 16
_cell_length_a 9.028596
_cell_length_b 15.038654
_cell_length_c 9.308500
_cell_angle_alpha 107.491996
_cell_angle_beta 59.884040
_cell_angle_gamma 65.292761
_cell_volume 755.292310
_symmetry_space_group_name_H-M "P -1"
_symmetry_group_IT_number 2
_symmetry_cell_setting 'triclinic'
loop_
_space_group_symop_operation_xyz
x,y,z
-x,-y,-z
loop_
_atom_site_type_symbol
_atom_site_label
_atom_site_fract_x
_atom_site_fract_y
_atom_site_fract_z
Si Si1 0.810598 0.241587 0.521459
Si Si2 0.860026 0.024333 0.439455
Si Si3 0.046696 0.788039 0.033789
Si Si4 0.468881 0.620112 0.540732
Si Si5 0.381870 0.626643 0.026439
Si Si6 0.726736 0.621771 0.655211
Si Si7 0.534020 0.957249 0.300224
Si Si8 0.323367 0.139061 0.233340
O O1 0.849972 0.120753 0.398143
O O2 0.592404 0.354494 0.584496
O O3 0.742209 0.269441 0.735362
O O4 0.051991 0.209533 0.373747
O O5 0.612010 0.082680 0.654254
O O6 0.000000 0.000000 0.500000
O O7 0.970900 0.903598 0.225873
O O8 0.183218 0.671970 0.027344
O O9 0.813425 0.840058 0.091035
O O10 0.234890 0.741774 0.798307
O O11 0.500000 0.500000 0.500000
O O12 0.672132 0.603212 0.511767
O O13 0.500000 0.500000 0.000000
O O14 0.566588 0.620089 0.842226
O O15 0.661153 0.756763 0.758914
O O16 0.000000 0.500000 0.500000
O O17 0.500000 0.000000 0.500000
O O18 0.406112 0.083638 0.328030
O O19 0.500000 0.000000 0.000000
#
# Coordination Sequence:
#
# PCOD9022727 Si02
#       8
#     2   2   2   2   2   2   2   2
#     4  12  24  42  69  98 140 176 233 281 349 411
#     4  11  21  39  66 103 132 177 220 283 342 418
#     4  10  22  42  67  94 137 176 222 280 352 409
#     4  11  25  45  67  95 136 180 230 286 343 413
#     4  11  23  45  74  94 132 188 233 280 349 417
#     4  11  27  48  72 101 141 186 237 286 356 422
#     4  10  22  39  63  98 138 170 223 277 343 408
#     4  12  26  42  68 105 142 183 229 290 349 414
#
# _framework density 21.183848999999999
#
# number of rings (size 3 to 8) (size 9 to 14) (size 15 to 20)
#    0.000    1.000    2.500    4.500    8.750    0.500 
#    0.000    0.625    0.000    0.000    0.000    0.000 
#    0.000    0.000    0.000    0.000    0.000    0.000 
#
# Total GULP energy -89241.425532 kJ/mol
# GULP energy per Si atom -5577.589096 kJ/mol
# Density = 2.113563 g / cm^3
# Si number density = 21.183849 Si / 1000 Ang^3
#
#
#
# Elastic Constant Matrix: (Units=GPa)
#
#
# Indices 1 2 3 4 5 6 
#
# 1 136.4415 54.9022 27.7076 6.3223 -24.8295 -12.5520
# 2 54.9022 144.4280 4.4668 -1.9054 -0.4009 6.9122
# 3 27.7076 4.4668 64.2022 -0.3607 -0.2997 -2.7750
# 4 6.3223 -1.9054 -0.3607 33.2172 -2.8321 7.4235
# 5 -24.8295 -0.4009 -0.2997 -2.8321 34.1014 2.1925
# 6 -12.5520 6.9122 -2.7750 7.4235 2.1925 44.4321
#
#
#
# Elastic Compliance Matrix: (Units=1/GPa)
#
#
# Indices 1 2 3 4 5 6 
#
# 1 0.012175 -0.004684 -0.004735 -0.002810 0.008281 0.003933
# 2 -0.004684 0.008812 0.001285 0.001775 -0.002970 -0.002764
# 3 -0.004735 0.001285 0.017501 0.000997 -0.003167 -0.000455
# 4 -0.002810 0.001775 0.000997 0.032287 0.001080 -0.006456
# 5 0.008281 -0.002970 -0.003167 0.001080 0.035337 0.000680
# 6 0.003933 -0.002764 -0.000455 -0.006456 0.000680 0.025064
#
#
# Mechanical properties :
#
#
# Convention : Reuss Voigt Hill
#
# Bulk Modulus (GPa) = 45.00602 57.69163 51.34882
# Shear Modulus (GPa) = 32.28902 39.54981 35.91942
#
# Velocity S-wave (km/s) = 3.90837 4.32554 4.12224
# Velocity P-wave (km/s) = 6.45436 7.22772 6.85196
#
# Compressibility (1/GPa) = 0.02221925
#
# Stress axis : x y z
#
# Youngs Moduli (GPa) = 82.13821 113.48063 57.13891
#
# Poissons Ratio (x) = 0.53153 0.27058
# Poissons Ratio (y) = 0.38472 -0.07342
# Poissons Ratio (z) = 0.38896 -0.14582
#
# Static dielectric constant tensor:
#      x y z
#    x 1.805760 -0.055530 -0.004600 
#    y -0.055530 1.815480 0.038560 
#    z -0.004600 0.038560 1.837200 
# 
# From -- ./inp_files/207599.got.cif
#   From: 2010.05.17/outbox.cif.g08.bks.cpg/sg2_104_cif.got.tgz:207599.got - 2010.06.03 11:33:40.
