data_PCOD9022676
_publ_section_title
;
Structure prediction by ZEFSAII (Michael W. Deem and Ramdas Pophale) SiO2 
 PCOD9022676
Probable space group: P -1
;
_chemical_formula_sum "Si O2"
_cell_formula_units_Z 16
_cell_length_a 13.944606
_cell_length_b 12.569780
_cell_length_c 8.891139
_cell_angle_alpha 116.683597
_cell_angle_beta 77.136816
_cell_angle_gamma 148.340903
_cell_volume 687.224542
_symmetry_space_group_name_H-M "P -1"
_symmetry_group_IT_number 2
_symmetry_cell_setting 'triclinic'
loop_
_space_group_symop_operation_xyz
x,y,z
-x,-y,-z
loop_
_atom_site_type_symbol
_atom_site_label
_atom_site_fract_x
_atom_site_fract_y
_atom_site_fract_z
Si Si1 0.320509 0.139014 0.075191
Si Si2 0.539605 0.081780 0.370420
Si Si3 0.921630 0.923509 0.725421
Si Si4 0.900655 0.339610 0.285668
Si Si5 0.190133 0.433982 0.297270
Si Si6 0.694281 0.688651 0.347457
Si Si7 0.523123 0.658448 0.157895
Si Si8 0.304743 0.861523 0.039309
O O1 0.148926 0.052307 0.116044
O O2 0.519538 0.412793 0.229145
O O3 0.305117 0.000908 0.082896
O O4 0.347604 0.149037 0.893661
O O5 0.677393 0.124849 0.278346
O O6 0.668232 0.336905 0.500893
O O7 0.500000 0.000000 0.500000
O O8 0.342395 0.889398 0.221571
O O9 0.896980 0.767404 0.706924
O O10 0.778121 0.784606 0.544944
O O11 0.132764 0.165188 0.734674
O O12 0.000000 0.500000 0.500000
O O13 0.024087 0.347367 0.235537
O O14 0.878654 0.374477 0.147119
O O15 0.325944 0.521793 0.174272
O O16 0.618098 0.734191 0.335571
O O17 0.500000 0.500000 0.000000
O O18 0.500000 0.000000 0.000000
#
# Coordination Sequence:
#
# PCOD9022676 Si02
#       8
#     2   2   2   2   2   2   2   2
#     4  11  23  42  65  94 142 173 228 290 339 421
#     4  10  23  43  71 100 132 182 240 288 351 420
#     4  11  23  40  66  97 139 180 227 286 348 419
#     4   9  22  45  66  98 134 174 230 284 353 411
#     4  11  22  40  71  95 141 186 224 297 353 409
#     4  10  23  40  61 100 135 181 233 273 349 420
#     4  10  22  39  63  94 130 181 232 269 349 414
#     4  10  23  42  70  96 130 182 227 284 357 410
#
# _framework density 23.282055
#
# number of rings (size 3 to 8) (size 9 to 14) (size 15 to 20)
#    0.000    1.750    2.500    1.125    7.000    2.500 
#    2.250    2.500    2.750    0.000    0.000    0.000 
#    0.000    0.000    0.000    0.000    0.000    0.000 
#
# Total GULP energy -89286.216822 kJ/mol
# GULP energy per Si atom -5580.388551 kJ/mol
# Density = 2.322906 g / cm^3
# Si number density = 23.282055 Si / 1000 Ang^3
#
#
#
# Elastic Constant Matrix: (Units=GPa)
#
#
# Indices 1 2 3 4 5 6 
#
# 1 157.9459 31.5604 66.8671 -8.8213 12.8588 24.0877
# 2 31.5604 75.3987 25.9051 -8.2289 -3.7480 20.5129
# 3 66.8671 25.9051 129.5983 0.1442 31.9364 6.6749
# 4 -8.8213 -8.2289 0.1442 35.7141 3.6914 -0.1520
# 5 12.8588 -3.7480 31.9364 3.6914 67.3212 -1.2615
# 6 24.0877 20.5129 6.6749 -0.1520 -1.2615 34.9506
#
#
#
# Elastic Compliance Matrix: (Units=1/GPa)
#
#
# Indices 1 2 3 4 5 6 
#
# 1 0.009211 -0.000749 -0.004358 0.002093 0.000057 -0.005065
# 2 -0.000749 0.017692 -0.003249 0.003628 0.002299 -0.009148
# 3 -0.004358 -0.003249 0.011659 -0.001370 -0.004757 0.002506
# 4 0.002093 0.003628 -0.001370 0.029471 -0.001224 -0.003226
# 5 0.000057 0.002299 -0.004757 -0.001224 0.017298 0.000139
# 6 -0.005065 -0.009148 0.002506 -0.003226 0.000139 0.036984
#
#
# Mechanical properties :
#
#
# Convention : Reuss Voigt Hill
#
# Bulk Modulus (GPa) = 45.76937 67.95645 56.86291
# Shear Modulus (GPa) = 34.17405 43.50455 38.83930
#
# Velocity S-wave (km/s) = 3.83538 4.32741 4.08880
# Velocity P-wave (km/s) = 6.27016 7.36344 6.83868
#
# Compressibility (1/GPa) = 0.02184867
#
# Stress axis : x y z
#
# Youngs Moduli (GPa) = 108.57078 56.52350 85.77092
#
# Poissons Ratio (x) = 0.04233 0.37379
# Poissons Ratio (y) = 0.08131 0.27870
# Poissons Ratio (z) = 0.47315 0.18367
#
# Static dielectric constant tensor:
#      x y z
#    x 1.858850 -0.018190 0.048440 
#    y -0.018190 1.921850 0.017510 
#    z 0.048440 0.017510 1.996060 
# 
# From -- ./inp_files/313839.got.cif
#   From: 2010.05.17/outbox.cif.g08.bks.cpg/sg2_157_cif.got.tgz:313839.got - 2010.06.03 11:33:40.
