data_PCOD9022084
_publ_section_title
;
Structure prediction by ZEFSAII (Michael W. Deem and Ramdas Pophale) SiO2 
 PCOD9022084
Probable space group: P -1
;
_chemical_formula_sum "Si O2"
_cell_formula_units_Z 16
_cell_length_a 11.938241
_cell_length_b 13.642205
_cell_length_c 14.448031
_cell_angle_alpha 30.761238
_cell_angle_beta 137.292896
_cell_angle_gamma 115.581307
_cell_volume 667.531444
_symmetry_space_group_name_H-M "P -1"
_symmetry_group_IT_number 2
_symmetry_cell_setting 'triclinic'
loop_
_space_group_symop_operation_xyz
x,y,z
-x,-y,-z
loop_
_atom_site_type_symbol
_atom_site_label
_atom_site_fract_x
_atom_site_fract_y
_atom_site_fract_z
Si Si1 0.200000 0.297951 0.228021
Si Si2 0.278573 0.835668 0.719482
Si Si3 0.803935 0.346539 0.634427
Si Si4 0.051853 0.454304 0.809410
Si Si5 0.140515 0.072868 0.637020
Si Si6 0.542426 0.275662 0.760809
Si Si7 0.402395 0.916629 0.242212
Si Si8 0.274663 0.438196 0.781964
O O1 0.396554 0.251066 0.437241
O O2 0.228049 0.050895 0.450898
O O3 0.181600 0.351170 0.064807
O O4 0.000000 0.500000 0.000000
O O5 0.505765 0.613372 0.025761
O O6 0.093512 0.816225 0.613348
O O7 0.258903 0.936451 0.728266
O O8 0.614060 0.601280 0.349536
O O9 0.746952 0.161780 0.762522
O O10 0.983597 0.299574 0.848088
O O11 0.830048 0.391262 0.507414
O O12 0.856171 0.705570 0.518525
O O13 0.147191 0.515406 0.735259
O O14 0.237249 0.887332 0.928177
O O15 0.500000 0.500000 0.500000
O O16 0.544227 0.124635 0.800630
O O17 0.319410 0.183341 0.996109
#
# Coordination Sequence:
#
# PCOD9022084 Si02
#       8
#     2   2   2   2   2   2   2   2
#     4  11  23  42  68  98 139 175 228 288 341 401
#     4  10  24  41  70  98 140 181 222 292 343 402
#     4  11  24  43  70  99 137 185 225 291 345 404
#     4  12  27  42  71 102 136 184 233 278 345 418
#     4  11  23  42  69 107 131 176 239 279 342 416
#     4  10  22  38  71 103 131 170 231 282 341 405
#     4  10  25  42  68 101 137 182 230 283 345 410
#     4  11  25  48  65 101 145 184 229 284 347 410
#
# _framework density 23.968906
#
# number of rings (size 3 to 8) (size 9 to 14) (size 15 to 20)
#    0.000    1.250    2.500    1.875   10.500    4.000 
#    2.250    0.000    0.000    0.000    0.000    0.000 
#    0.000    0.000    0.000    0.000    0.000    0.000 
#
# Total GULP energy -89477.224548 kJ/mol
# GULP energy per Si atom -5592.326534 kJ/mol
# Density = 2.391435 g / cm^3
# Si number density = 23.968906 Si / 1000 Ang^3
#
#
#
# Elastic Constant Matrix: (Units=GPa)
#
#
# Indices 1 2 3 4 5 6 
#
# 1 117.4790 26.4299 19.6177 26.9568 -17.9793 -16.8448
# 2 26.4299 42.3759 8.1988 -1.0429 -6.0676 -6.2508
# 3 19.6177 8.1988 81.1100 15.3738 -24.2437 -5.6900
# 4 26.9568 -1.0429 15.3738 27.2182 0.0344 -1.0291
# 5 -17.9793 -6.0676 -24.2437 0.0344 40.2079 6.0945
# 6 -16.8448 -6.2508 -5.6900 -1.0291 6.0945 42.7857
#
#
#
# Elastic Compliance Matrix: (Units=1/GPa)
#
#
# Indices 1 2 3 4 5 6 
#
# 1 0.015650 -0.009185 0.002664 -0.017221 0.006655 0.003812
# 2 -0.009185 0.030200 -0.003688 0.012372 -0.001917 0.000876
# 3 0.002664 -0.003688 0.017956 -0.012899 0.011324 0.000975
# 4 -0.017221 0.012372 -0.012899 0.061446 -0.013158 -0.003336
# 5 0.006655 -0.001917 0.011324 -0.013158 0.034609 -0.001400
# 6 0.003812 0.000876 0.000975 -0.003336 -0.001400 0.025250
#
#
# Mechanical properties :
#
#
# Convention : Reuss Voigt Hill
#
# Bulk Modulus (GPa) = 23.04790 38.82864 30.93827
# Shear Modulus (GPa) = 22.72820 34.49027 28.60923
#
# Velocity S-wave (km/s) = 3.08269 3.79748 3.45860
# Velocity P-wave (km/s) = 4.72305 5.95504 5.37447
#
# Compressibility (1/GPa) = 0.04338791
#
# Stress axis : x y z
#
# Youngs Moduli (GPa) = 63.89627 33.11278 55.69321
#
# Poissons Ratio (x) = 0.30415 -0.14836
# Poissons Ratio (y) = 0.58690 0.20538
# Poissons Ratio (z) = -0.17022 0.12211
#
# Static dielectric constant tensor:
#      x y z
#    x 1.953470 0.028590 0.039480 
#    y 0.028590 1.936590 0.025290 
#    z 0.039480 0.025290 1.868530 
# 
# From -- ./inp_files/522215.got.cif
#   From: 2010.05.17/outbox.cif.g08.bks.cpg/sg2_262_cif.got.tgz:522215.got - 2010.06.03 11:33:40.
