data_PCOD9022851
_publ_section_title
;
Structure prediction by ZEFSAII (Michael W. Deem and Ramdas Pophale) SiO2 
 PCOD9022851
Probable space group: P -1
;
_chemical_formula_sum "Si O2"
_cell_formula_units_Z 16
_cell_length_a 6.003050
_cell_length_b 8.015144
_cell_length_c 20.533386
_cell_angle_alpha 117.406949
_cell_angle_beta 108.609483
_cell_angle_gamma 51.345573
_cell_volume 684.224095
_symmetry_space_group_name_H-M "P -1"
_symmetry_group_IT_number 2
_symmetry_cell_setting 'triclinic'
loop_
_space_group_symop_operation_xyz
x,y,z
-x,-y,-z
loop_
_atom_site_type_symbol
_atom_site_label
_atom_site_fract_x
_atom_site_fract_y
_atom_site_fract_z
Si Si1 0.730635 0.693451 0.413171
Si Si2 0.293620 0.886045 0.831476
Si Si3 0.684594 0.114343 0.020234
Si Si4 0.801694 0.629601 0.067033
Si Si5 0.952650 0.518767 0.799737
Si Si6 0.061706 0.245834 0.287601
Si Si7 0.904631 0.958495 0.552294
Si Si8 0.271098 0.057922 0.674695
O O1 0.847497 0.765769 0.497048
O O2 0.736100 0.821875 0.372168
O O3 0.916228 0.429037 0.364763
O O4 0.397287 0.809422 0.415825
O O5 0.292263 0.812530 0.892482
O O6 0.611866 0.692463 0.803279
O O7 0.067461 0.899172 0.763488
O O8 0.224384 0.137798 0.876661
O O9 0.501400 0.287057 0.975981
O O10 0.500000 0.000000 0.000000
O O11 0.000000 0.000000 0.000000
O O12 0.918693 0.486584 0.118626
O O13 0.000000 0.500000 0.000000
O O14 0.031818 0.611016 0.762513
O O15 0.073810 0.261784 0.743008
O O16 0.401940 0.095017 0.299621
O O17 0.000000 0.000000 0.500000
O O18 0.138265 0.916624 0.618708
#
# Coordination Sequence:
#
# PCOD9022851 Si02
#       8
#     2   2   2   2   2   2   2   2
#     4   9  20  40  64  96 137 173 223 273 338 401
#     4  11  25  42  67  93 137 174 225 291 353 421
#     4  10  24  45  70  99 138 178 233 300 364 435
#     4  11  24  47  71 100 131 182 236 292 364 423
#     4  11  24  44  67  94 136 177 231 285 348 418
#     4  11  25  41  65 101 136 180 225 287 340 417
#     4   9  18  39  68  95 132 178 219 273 326 407
#     4  10  22  39  64  96 134 176 227 273 342 408
#
# _framework density 23.384153000000001
#
# number of rings (size 3 to 8) (size 9 to 14) (size 15 to 20)
#    0.000    1.750    1.250    1.500    5.250    4.500 
#    2.250    8.750    0.000    0.000    0.000    0.000 
#    0.000    0.000    0.000    0.000    0.000    0.000 
#
# Total GULP energy -89330.469309 kJ/mol
# GULP energy per Si atom -5583.154332 kJ/mol
# Density = 2.333093 g / cm^3
# Si number density = 23.384153 Si / 1000 Ang^3
#
#
#
# Elastic Constant Matrix: (Units=GPa)
#
#
# Indices 1 2 3 4 5 6 
#
# 1 101.6624 57.2276 51.1142 10.0788 0.7315 -28.0043
# 2 57.2276 109.5938 72.1325 9.4749 20.4811 -15.6988
# 3 51.1142 72.1325 149.6122 3.8504 2.2405 -19.6008
# 4 10.0788 9.4749 3.8504 49.8888 -7.7712 -13.3581
# 5 0.7315 20.4811 2.2405 -7.7712 46.5022 -7.1525
# 6 -28.0043 -15.6988 -19.6008 -13.3581 -7.1525 47.4223
#
#
#
# Elastic Compliance Matrix: (Units=1/GPa)
#
#
# Indices 1 2 3 4 5 6 
#
# 1 0.016875 -0.008013 -0.000962 0.001039 0.004701 0.007917
# 2 -0.008013 0.019364 -0.006838 -0.003961 -0.009299 -0.003666
# 3 -0.000962 -0.006838 0.010545 0.001860 0.003220 0.002537
# 4 0.001039 -0.003961 0.001860 0.023567 0.006766 0.007730
# 5 0.004701 -0.009299 0.003220 0.006766 0.027593 0.007096
# 6 0.007917 -0.003666 0.002537 0.007730 0.007096 0.028845
#
#
# Mechanical properties :
#
#
# Convention : Reuss Voigt Hill
#
# Bulk Modulus (GPa) = 65.96489 80.20188 73.08338
# Shear Modulus (GPa) = 30.58720 40.78894 35.68807
#
# Velocity S-wave (km/s) = 3.62059 4.18101 3.91085
# Velocity P-wave (km/s) = 6.76378 7.59472 7.19126
#
# Compressibility (1/GPa) = 0.01515958
#
# Stress axis : x y z
#
# Youngs Moduli (GPa) = 59.26088 51.64139 94.82782
#
# Poissons Ratio (x) = 0.41380 0.09121
# Poissons Ratio (y) = 0.47485 0.64840
# Poissons Ratio (z) = 0.05700 0.35310
#
# Static dielectric constant tensor:
#      x y z
#    x 1.916070 0.061680 0.011960 
#    y 0.061680 1.882170 -0.011340 
#    z 0.011960 -0.011340 1.885760 
# 
# From -- ./inp_files/582525.got.cif
#   From: 2010.05.17/outbox.cif.g08.bks.cpg/sg2_292_cif.got.tgz:582525.got - 2010.06.03 11:33:40.
