data_PCOD9022125
_publ_section_title
;
Structure prediction by ZEFSAII (Michael W. Deem and Ramdas Pophale) SiO2 
 PCOD9022125
Probable space group: P -1
;
_chemical_formula_sum "Si O2"
_cell_formula_units_Z 16
_cell_length_a 8.828006
_cell_length_b 5.230367
_cell_length_c 18.443678
_cell_angle_alpha 120.794266
_cell_angle_beta 81.574769
_cell_angle_gamma 90.098481
_cell_volume 720.953369
_symmetry_space_group_name_H-M "P -1"
_symmetry_group_IT_number 2
_symmetry_cell_setting 'triclinic'
loop_
_space_group_symop_operation_xyz
x,y,z
-x,-y,-z
loop_
_atom_site_type_symbol
_atom_site_label
_atom_site_fract_x
_atom_site_fract_y
_atom_site_fract_z
Si Si1 0.870881 0.337214 0.294965
Si Si2 0.841374 0.376407 0.674504
Si Si3 0.932132 0.188615 0.435337
Si Si4 0.606045 0.724596 0.985875
Si Si5 0.367621 0.263533 0.552028
Si Si6 0.671442 0.520459 0.567464
Si Si7 0.636732 0.062759 0.168953
Si Si8 0.578843 0.383355 0.802516
O O1 0.903730 0.197511 0.352262
O O2 0.758162 0.634623 0.364514
O O3 0.035105 0.425428 0.268302
O O4 0.777447 0.142891 0.220125
O O5 0.754982 0.565828 0.643564
O O6 0.707726 0.274514 0.719853
O O7 0.950423 0.094081 0.596697
O O8 0.766469 0.206575 0.489359
O O9 0.000000 0.500000 0.500000
O O10 0.667478 0.538727 0.884671
O O11 0.500000 0.500000 0.000000
O O12 0.695584 0.869128 0.065914
O O13 0.500000 0.000000 0.000000
O O14 0.488862 0.527218 0.590629
O O15 0.304836 0.289179 0.478225
O O16 0.500000 0.000000 0.500000
O O17 0.521102 0.868035 0.193821
O O18 0.538230 0.361662 0.189965
#
# Coordination Sequence:
#
# PCOD9022125 Si02
#       8
#     2   2   2   2   2   2   2   2
#     4  11  25  40  60  93 128 170 216 272 336 381
#     4  12  25  39  63  91 132 170 222 270 328 392
#     4  11  24  40  60  81 125 177 228 261 329 381
#     4   8  16  37  69  97 126 166 209 259 322 397
#     4  10  22  39  61  83 117 159 223 274 324 367
#     4  10  22  39  56  84 110 166 217 264 316 376
#     4  10  22  44  68 101 131 167 216 270 328 392
#     4  10  23  42  71  99 131 168 216 267 327 395
#
# _framework density 22.192834999999999
#
# number of rings (size 3 to 8) (size 9 to 14) (size 15 to 20)
#    0.000    1.750    1.250    1.875    7.000    1.000 
#    6.750    0.625    0.000    0.750    0.000    0.000 
#    0.000    0.000    0.000    0.000    0.000    0.000 
#
# Total GULP energy -89280.533638 kJ/mol
# GULP energy per Si atom -5580.033352 kJ/mol
# Density = 2.214232 g / cm^3
# Si number density = 22.192835 Si / 1000 Ang^3
#
#
#
# Elastic Constant Matrix: (Units=GPa)
#
#
# Indices 1 2 3 4 5 6 
#
# 1 118.0166 14.7590 42.8217 -10.8096 27.5694 -4.4487
# 2 14.7590 101.4258 21.3170 -8.5618 11.3324 -15.8093
# 3 42.8217 21.3170 102.4064 -10.1711 39.3043 -6.2136
# 4 -10.8096 -8.5618 -10.1711 25.3127 -0.6011 1.5480
# 5 27.5694 11.3324 39.3043 -0.6011 42.4422 -0.7422
# 6 -4.4487 -15.8093 -6.2136 1.5480 -0.7422 26.2550
#
#
#
# Elastic Compliance Matrix: (Units=1/GPa)
#
#
# Indices 1 2 3 4 5 6 
#
# 1 0.010781 -0.000128 -0.002220 0.003500 -0.004849 0.000881
# 2 -0.000128 0.011560 -0.000872 0.003059 -0.002039 0.006494
# 3 -0.002220 -0.000872 0.016808 0.005037 -0.013777 0.002390
# 4 0.003500 0.003059 0.005037 0.043839 -0.007120 0.000841
# 5 -0.004849 -0.002039 -0.013777 -0.007120 0.039848 -0.003764
# 6 0.000881 0.006494 0.002390 0.000841 -0.003764 0.042557
#
#
# Mechanical properties :
#
#
# Convention : Reuss Voigt Hill
#
# Bulk Modulus (GPa) = 30.57255 53.29379 41.93317
# Shear Modulus (GPa) = 27.36196 34.99872 31.18034
#
# Velocity S-wave (km/s) = 3.51510 3.97549 3.75236
# Velocity P-wave (km/s) = 5.50276 6.71854 6.14081
#
# Compressibility (1/GPa) = 0.03270908
#
# Stress axis : x y z
#
# Youngs Moduli (GPa) = 92.75419 86.50744 59.49556
#
# Poissons Ratio (x) = 0.01106 0.13206
# Poissons Ratio (y) = 0.01185 0.05191
# Poissons Ratio (z) = 0.20588 0.07548
#
# Static dielectric constant tensor:
#      x y z
#    x 1.910260 0.094850 0.059970 
#    y 0.094850 2.093770 0.104370 
#    z 0.059970 0.104370 1.879520 
# 
# From -- ./inp_files/553044.got.cif
#   From: 2010.05.17/outbox.cif.g08.bks.cpg/sg2_277_cif.got.tgz:553044.got - 2010.06.03 11:33:40.
