data_PCOD9022771
_publ_section_title
;
Structure prediction by ZEFSAII (Michael W. Deem and Ramdas Pophale) SiO2 
 PCOD9022771
Probable space group: P -1
;
_chemical_formula_sum "Si O2"
_cell_formula_units_Z 14
_cell_length_a 9.461885
_cell_length_b 5.752992
_cell_length_c 11.929300
_cell_angle_alpha 116.123434
_cell_angle_beta 94.639496
_cell_angle_gamma 75.159435
_cell_volume 563.198422
_symmetry_space_group_name_H-M "P -1"
_symmetry_group_IT_number 2
_symmetry_cell_setting 'triclinic'
loop_
_space_group_symop_operation_xyz
x,y,z
-x,-y,-z
loop_
_atom_site_type_symbol
_atom_site_label
_atom_site_fract_x
_atom_site_fract_y
_atom_site_fract_z
Si Si1 0.380013 0.225886 0.484936
Si Si2 0.769054 0.150334 0.722716
Si Si3 0.160488 0.697987 0.636666
Si Si4 0.906120 0.453258 0.652105
Si Si5 0.322423 0.610206 0.999167
Si Si6 0.592322 0.664329 0.733496
Si Si7 0.697122 0.991263 0.127322
O O1 0.306722 0.459463 0.612248
O O2 0.444857 0.317030 0.395325
O O3 0.500000 0.000000 0.500000
O O4 0.249340 0.100858 0.403768
O O5 0.913011 0.220607 0.694265
O O6 0.618135 0.370475 0.722567
O O7 0.755752 0.207173 0.864314
O O8 0.132650 0.675859 0.495802
O O9 0.208534 0.941983 0.748137
O O10 0.032011 0.600635 0.670216
O O11 0.764407 0.662158 0.741207
O O12 0.283914 0.807835 0.930502
O O13 0.272375 0.329564 0.946886
O O14 0.500000 0.500000 0.000000
O O15 0.477386 0.896044 0.835216
#
# Coordination Sequence:
#
# PCOD9022771 Si02
#       7
#     2   2   2   2   2   2   2
#     4  11  23  35  64 102 134 167 217 289 345 401
#     4  10  22  39  64  89 128 179 227 265 341 403
#     4  10  22  41  66  99 137 171 225 279 348 409
#     4   8  20  43  64  92 135 177 220 275 348 414
#     4  12  25  44  66 100 138 183 228 284 338 400
#     4   9  21  39  61  93 129 171 217 277 331 405
#     4  12  26  41  71 103 136 176 233 288 333 402
#
# _framework density 24.858021000000001
#
# number of rings (size 3 to 8) (size 9 to 14) (size 15 to 20)
#    0.857    0.857    1.429    2.143    6.000    2.286 
#    0.000    4.286    0.000    0.000    0.000    0.000 
#    0.000    0.000    0.000    0.000    0.000    0.000 
#
# Total GULP energy -78031.592560 kJ/mol
# GULP energy per Si atom -5573.685183 kJ/mol
# Density = 2.480144 g / cm^3
# Si number density = 24.858021 Si / 1000 Ang^3
#
#
#
# Elastic Constant Matrix: (Units=GPa)
#
#
# Indices 1 2 3 4 5 6 
#
# 1 94.2984 23.1231 36.4915 -3.8983 -3.5890 17.1115
# 2 23.1231 100.2584 69.4419 15.9945 5.8067 10.9888
# 3 36.4915 69.4419 125.5289 21.4051 -4.7803 20.4759
# 4 -3.8983 15.9945 21.4051 44.0527 15.7658 6.1360
# 5 -3.5890 5.8067 -4.7803 15.7658 28.1852 -5.2422
# 6 17.1115 10.9888 20.4759 6.1360 -5.2422 38.3740
#
#
#
# Elastic Compliance Matrix: (Units=1/GPa)
#
#
# Indices 1 2 3 4 5 6 
#
# 1 0.013110 -0.000648 -0.003536 0.004595 -0.002263 -0.004817
# 2 -0.000648 0.016916 -0.009378 0.000343 -0.005414 -0.000346
# 3 -0.003536 -0.009378 0.016053 -0.007235 0.007866 -0.002072
# 4 0.004595 0.000343 -0.007235 0.035220 -0.021693 -0.006882
# 5 -0.002263 -0.005414 0.007866 -0.021693 0.051422 0.008856
# 6 -0.004817 -0.000346 -0.002072 -0.006882 0.008856 0.031722
#
#
# Mechanical properties :
#
#
# Convention : Reuss Voigt Hill
#
# Bulk Modulus (GPa) = 52.75786 64.24430 58.50108
# Shear Modulus (GPa) = 25.26714 34.85767 30.06241
#
# Velocity S-wave (km/s) = 3.19165 3.74875 3.48136
# Velocity P-wave (km/s) = 5.90355 6.68118 6.30437
#
# Compressibility (1/GPa) = 0.01895452
#
# Stress axis : x y z
#
# Youngs Moduli (GPa) = 76.27741 59.11721 62.29299
#
# Poissons Ratio (x) = 0.03832 0.22030
# Poissons Ratio (y) = 0.04944 0.58415
# Poissons Ratio (z) = 0.26975 0.55437
#
# Static dielectric constant tensor:
#      x y z
#    x 2.013230 0.008660 0.040410 
#    y 0.008660 2.328980 -0.033490 
#    z 0.040410 -0.033490 1.956590 
# 
# From -- ./inp_files/411264.got.cif
#   From: 2010.05.17/outbox.cif.g08.bks.cpg/sg2_206_cif.got.tgz:411264.got - 2010.06.03 11:33:40.
