data_PCOD9022189
_publ_section_title
;
Structure prediction by ZEFSAII (Michael W. Deem and Ramdas Pophale) SiO2 
 PCOD9022189
Probable space group: P -1
;
_chemical_formula_sum "Si O2"
_cell_formula_units_Z 12
_cell_length_a 15.767640
_cell_length_b 6.244200
_cell_length_c 16.568441
_cell_angle_alpha 56.291628
_cell_angle_beta 154.968667
_cell_angle_gamma 115.947278
_cell_volume 564.201596
_symmetry_space_group_name_H-M "P -1"
_symmetry_group_IT_number 2
_symmetry_cell_setting 'triclinic'
loop_
_space_group_symop_operation_xyz
x,y,z
-x,-y,-z
loop_
_atom_site_type_symbol
_atom_site_label
_atom_site_fract_x
_atom_site_fract_y
_atom_site_fract_z
Si Si1 0.562860 0.259314 0.916234
Si Si2 0.330622 0.340836 0.857752
Si Si3 0.415137 0.229698 0.489908
Si Si4 0.950664 0.286727 0.355833
Si Si5 0.303739 0.427271 0.519165
Si Si6 0.204133 0.988521 0.229535
O O1 0.372537 0.310735 0.804449
O O2 0.499020 0.418860 0.746996
O O3 0.758526 0.304607 0.125305
O O4 0.611818 0.953967 0.998914
O O5 0.122961 0.496888 0.683806
O O6 0.500000 0.500000 0.000000
O O7 0.500000 0.500000 0.500000
O O8 0.350596 0.223625 0.528055
O O9 0.607935 0.020606 0.668867
O O10 0.232386 0.205021 0.275716
O O11 0.132198 0.345241 0.444839
O O12 0.000000 0.000000 0.500000
O O13 0.235995 0.714705 0.363399
O O14 0.000000 0.000000 0.000000
#
# Coordination Sequence:
#
# PCOD9022189 Si02
#       6
#     2   2   2   2   2   2
#     4  10  22  39  59  85 123 169 214 264 316 368
#     4   9  19  38  59  80 120 168 212 260 308 363
#     4   9  22  43  64  90 126 160 206 268 328 391
#     4  11  24  39  60  93 129 171 217 261 313 377
#     4  11  24  38  61  95 125 163 213 263 323 387
#     4  10  23  43  68  94 123 165 212 267 332 391
#
# _framework density 21.268992000000001
#
# number of rings (size 3 to 8) (size 9 to 14) (size 15 to 20)
#    0.000    2.000    0.000    3.000    0.000   17.333 
#    0.000    0.000    0.000    0.000    0.000    0.000 
#    0.000    0.000    0.000    0.000    0.000    0.000 
#
# Total GULP energy -66967.276317 kJ/mol
# GULP energy per Si atom -5580.606360 kJ/mol
# Density = 2.122058 g / cm^3
# Si number density = 21.268992 Si / 1000 Ang^3
#
#
#
# Elastic Constant Matrix: (Units=GPa)
#
#
# Indices 1 2 3 4 5 6 
#
# 1 150.6317 50.1549 64.3911 -3.6680 7.4789 -14.3990
# 2 50.1549 98.0475 52.2497 6.3685 -12.4277 -12.4250
# 3 64.3911 52.2497 154.9633 22.6125 -33.7169 -12.3838
# 4 -3.6680 6.3685 22.6125 38.3781 -1.0266 2.8106
# 5 7.4789 -12.4277 -33.7169 -1.0266 37.2080 -0.0107
# 6 -14.3990 -12.4250 -12.3838 2.8106 -0.0107 32.8675
#
#
#
# Elastic Compliance Matrix: (Units=1/GPa)
#
#
# Indices 1 2 3 4 5 6 
#
# 1 0.011020 -0.003856 -0.005797 0.004822 -0.008623 0.000771
# 2 -0.003856 0.014139 -0.001835 -0.001761 0.003787 0.003116
# 3 -0.005797 -0.001835 0.013636 -0.008135 0.012685 0.002604
# 4 0.004822 -0.001761 -0.008135 0.031705 -0.008056 -0.004332
# 5 -0.008623 0.003787 0.012685 -0.008056 0.041148 0.003136
# 6 0.000771 0.003116 0.002604 -0.004332 0.003136 0.033293
#
#
# Mechanical properties :
#
#
# Convention : Reuss Voigt Hill
#
# Bulk Modulus (GPa) = 63.21844 81.91487 72.56666
# Shear Modulus (GPa) = 28.87001 37.48052 33.17526
#
# Velocity S-wave (km/s) = 3.68825 4.20243 3.95371
# Velocity P-wave (km/s) = 6.92282 7.88318 7.41856
#
# Compressibility (1/GPa) = 0.01581817
#
# Stress axis : x y z
#
# Youngs Moduli (GPa) = 90.74375 70.72672 73.33587
#
# Poissons Ratio (x) = 0.27275 0.42513
# Poissons Ratio (y) = 0.34995 0.13456
# Poissons Ratio (z) = 0.52604 0.12978
#
# Static dielectric constant tensor:
#      x y z
#    x 1.789920 -0.033480 0.010320 
#    y -0.033480 1.790010 0.032890 
#    z 0.010320 0.032890 1.828390 
# 
# From -- ./inp_files/525231.got.cif
#   From: 2010.05.17/outbox.cif.g08.bks.cpg/sg2_263_cif.got.tgz:525231.got - 2010.06.03 11:33:40.
