data_PCOD9022220
_publ_section_title
;
Structure prediction by ZEFSAII (Michael W. Deem and Ramdas Pophale) SiO2 
 PCOD9022220
Probable space group: P -1
;
_chemical_formula_sum "Si O2"
_cell_formula_units_Z 16
_cell_length_a 5.304590
_cell_length_b 25.986432
_cell_length_c 5.737718
_cell_angle_alpha 126.364561
_cell_angle_beta 92.462934
_cell_angle_gamma 89.898735
_cell_volume 636.039491
_symmetry_space_group_name_H-M "P -1"
_symmetry_group_IT_number 2
_symmetry_cell_setting 'triclinic'
loop_
_space_group_symop_operation_xyz
x,y,z
-x,-y,-z
loop_
_atom_site_type_symbol
_atom_site_label
_atom_site_fract_x
_atom_site_fract_y
_atom_site_fract_z
Si Si1 0.837809 0.218221 0.649748
Si Si2 0.786902 0.013382 0.339639
Si Si3 0.570824 0.750163 0.654253
Si Si4 0.486585 0.865259 0.257050
Si Si5 0.995393 0.425449 0.745501
Si Si6 0.889061 0.898046 0.749408
Si Si7 0.509108 0.629373 0.631788
Si Si8 0.129675 0.332540 0.868495
O O1 0.613618 0.245553 0.561916
O O2 0.743482 0.177266 0.757484
O O3 0.962648 0.164570 0.343651
O O4 0.002167 0.280726 0.898671
O O5 0.595012 0.061705 0.581441
O O6 0.903573 0.055900 0.246500
O O7 0.000000 0.000000 0.500000
O O8 0.735931 0.944278 0.036489
O O9 0.478132 0.700332 0.714016
O O10 0.810894 0.715636 0.469079
O O11 0.594690 0.821659 0.942758
O O12 0.696117 0.870806 0.478461
O O13 0.263224 0.405080 0.590378
O O14 0.970097 0.386526 0.884465
O O15 0.758079 0.406668 0.519896
O O16 0.000000 0.500000 0.000000
O O17 0.624213 0.636663 0.914943
#
# Coordination Sequence:
#
# PCOD9022220 Si02
#       8
#     2   2   2   2   2   2   2   2
#     4  11  22  40  64  93 134 175 231 288 358 422
#     4  10  22  40  61  86 126 172 220 285 357 423
#     4  11  23  40  63 100 136 178 232 290 358 419
#     4  11  24  39  65  94 130 173 231 288 357 421
#     4  11  26  48  75 112 150 192 244 296 357 431
#     4  10  22  39  59  92 124 169 227 285 351 429
#     4  11  25  44  75 105 149 191 242 297 359 428
#     4  11  26  44  71 102 146 187 236 294 358 426
#
# _framework density 25.155667999999999
#
# number of rings (size 3 to 8) (size 9 to 14) (size 15 to 20)
#    0.000    1.250    1.250    3.750    3.500    5.500 
#    0.000    0.000    0.000    0.000    0.000    0.000 
#    0.000    0.000    0.000    0.000    0.000    0.000 
#
# Total GULP energy -89504.120791 kJ/mol
# GULP energy per Si atom -5594.007549 kJ/mol
# Density = 2.509841 g / cm^3
# Si number density = 25.155668 Si / 1000 Ang^3
#
#
#
# Elastic Constant Matrix: (Units=GPa)
#
#
# Indices 1 2 3 4 5 6 
#
# 1 75.6841 28.9964 32.8646 18.8778 -2.3600 -4.7580
# 2 28.9964 111.3312 51.1020 44.6903 -3.9203 -8.8347
# 3 32.8646 51.1020 129.9980 33.5434 0.6666 -1.8192
# 4 18.8778 44.6903 33.5434 49.5992 -7.3035 0.9963
# 5 -2.3600 -3.9203 0.6666 -7.3035 55.9894 0.8826
# 6 -4.7580 -8.8347 -1.8192 0.9963 0.8826 35.6963
#
#
#
# Elastic Compliance Matrix: (Units=1/GPa)
#
#
# Indices 1 2 3 4 5 6 
#
# 1 0.015777 -0.001682 -0.002600 -0.002735 0.000196 0.001626
# 2 -0.001682 0.015674 -0.002616 -0.011873 -0.000552 0.003867
# 3 -0.002600 -0.002616 0.010354 -0.003782 -0.000904 -0.000338
# 4 -0.002735 -0.011873 -0.003782 0.035102 0.003749 -0.004568
# 5 0.000196 -0.000552 -0.000904 0.003749 0.018341 -0.000715
# 6 0.001626 0.003867 -0.000338 -0.004568 -0.000715 0.029316
#
#
# Mechanical properties :
#
#
# Convention : Reuss Voigt Hill
#
# Bulk Modulus (GPa) = 35.70265 60.32660 48.01462
# Shear Modulus (GPa) = 33.85347 41.86031 37.85689
#
# Velocity S-wave (km/s) = 3.67244 4.08370 3.88352
# Velocity P-wave (km/s) = 5.67502 6.80212 6.26398
#
# Compressibility (1/GPa) = 0.02800912
#
# Stress axis : x y z
#
# Youngs Moduli (GPa) = 63.38500 63.79852 96.58335
#
# Poissons Ratio (x) = 0.10731 0.25111
# Poissons Ratio (y) = 0.10662 0.25265
# Poissons Ratio (z) = 0.16479 0.16689
#
# Static dielectric constant tensor:
#      x y z
#    x 1.464030 0.181790 0.552440 
#    y 0.181790 1.944960 -0.147950 
#    z 0.552440 -0.147950 1.327710 
# 
# From -- ./inp_files/10973.got.cif
#   From: 2010.05.17/outbox.cif.g08.bks.cpg/sg2_6_cif.got.tgz:10973.got - 2010.06.03 11:33:40.
