data_PCOD9022594
_publ_section_title
;
Structure prediction by ZEFSAII (Michael W. Deem and Ramdas Pophale) SiO2 
 PCOD9022594
Probable space group: P -1
;
_chemical_formula_sum "Si O2"
_cell_formula_units_Z 16
_cell_length_a 12.843653
_cell_length_b 11.085684
_cell_length_c 10.662743
_cell_angle_alpha 43.852001
_cell_angle_beta 62.690457
_cell_angle_gamma 49.386976
_cell_volume 798.271036
_symmetry_space_group_name_H-M "P -1"
_symmetry_group_IT_number 2
_symmetry_cell_setting 'triclinic'
loop_
_space_group_symop_operation_xyz
x,y,z
-x,-y,-z
loop_
_atom_site_type_symbol
_atom_site_label
_atom_site_fract_x
_atom_site_fract_y
_atom_site_fract_z
Si Si1 0.621066 0.410349 0.401711
Si Si2 0.556934 0.601521 0.713819
Si Si3 0.403751 0.805215 0.904501
Si Si4 0.598621 0.800837 0.013498
Si Si5 0.012436 0.336739 0.445522
Si Si6 0.904395 0.078213 0.616828
Si Si7 0.223562 0.275750 0.592194
Si Si8 0.890182 0.721934 0.849806
O O1 0.500000 0.500000 0.500000
O O2 0.560256 0.355264 0.356510
O O3 0.754590 0.232392 0.528444
O O4 0.646229 0.591401 0.217279
O O5 0.477339 0.724819 0.789797
O O6 0.661122 0.668529 0.552860
O O7 0.630354 0.361163 0.894780
O O8 0.513286 0.799130 0.944357
O O9 0.289169 0.042926 0.775270
O O10 0.733622 0.792232 0.900328
O O11 0.500000 0.000000 0.000000
O O12 0.127330 0.306027 0.503436
O O13 0.076931 0.285520 0.310143
O O14 0.955506 0.183630 0.605534
O O15 0.879346 0.561525 0.370298
O O16 0.910391 0.876732 0.808307
O O17 0.000000 0.000000 0.500000
O O18 0.000000 0.500000 0.000000
#
# Coordination Sequence:
#
# PCOD9022594 Si02
#       8
#     2   2   2   2   2   2   2   2
#     4  11  23  40  66  97 129 168 212 276 328 395
#     4  10  23  42  66  98 130 171 224 272 338 394
#     4  10  24  41  65  99 130 171 221 281 332 393
#     4  11  24  39  65 100 132 164 219 276 335 393
#     4  10  24  44  62  96 125 178 227 257 337 398
#     4  10  22  39  63  88 127 168 213 260 321 388
#     4  11  23  43  70  89 136 176 221 278 321 405
#     4  11  24  42  65  96 132 171 216 274 332 398
#
# _framework density 20.043317999999999
#
# number of rings (size 3 to 8) (size 9 to 14) (size 15 to 20)
#    0.000    1.500    0.000    4.125   10.500    1.000 
#    4.500    1.250    0.000    0.000    0.000    0.000 
#    0.000    0.000    0.000    0.000    0.000    0.000 
#
# Total GULP energy -89328.267568 kJ/mol
# GULP energy per Si atom -5583.016723 kJ/mol
# Density = 1.999770 g / cm^3
# Si number density = 20.043318 Si / 1000 Ang^3
#
#
#
# Elastic Constant Matrix: (Units=GPa)
#
#
# Indices 1 2 3 4 5 6 
#
# 1 87.3600 35.0853 23.2214 -8.1759 -24.4765 8.8112
# 2 35.0853 102.2799 20.4850 -9.9197 -23.7676 -1.5031
# 3 23.2214 20.4850 59.5780 -18.1051 -24.3113 -2.3318
# 4 -8.1759 -9.9197 -18.1051 42.3216 7.1132 3.1299
# 5 -24.4765 -23.7676 -24.3113 7.1132 19.5928 -3.1189
# 6 8.8112 -1.5031 -2.3318 3.1299 -3.1189 38.7819
#
#
#
# Elastic Compliance Matrix: (Units=1/GPa)
#
#
# Indices 1 2 3 4 5 6 
#
# 1 0.018366 -0.000983 0.004003 0.000782 0.026127 -0.001932
# 2 -0.000983 0.014561 0.005264 0.001416 0.022904 0.002832
# 3 0.004003 0.005264 0.040636 0.008966 0.059476 0.005797
# 4 0.000782 0.001416 0.008966 0.027451 0.003613 -0.001508
# 5 0.026127 0.022904 0.059476 0.003613 0.186051 0.013199
# 6 -0.001932 0.002832 0.005797 -0.001508 0.013199 0.027866
#
#
# Mechanical properties :
#
#
# Convention : Reuss Voigt Hill
#
# Bulk Modulus (GPa) = 11.09504 45.20014 28.14759
# Shear Modulus (GPa) = 15.22495 31.50101 23.36298
#
# Velocity S-wave (km/s) = 2.75908 3.96870 3.41783
# Velocity P-wave (km/s) = 3.96202 6.60310 5.44511
#
# Compressibility (1/GPa) = 0.09013034
#
# Stress axis : x y z
#
# Youngs Moduli (GPa) = 54.44873 68.67436 24.60875
#
# Poissons Ratio (x) = 0.06752 -0.09850
# Poissons Ratio (y) = 0.05353 -0.12954
# Poissons Ratio (z) = -0.21794 -0.36150
#
# Static dielectric constant tensor:
#      x y z
#    x 1.771400 0.006220 -0.050910 
#    y 0.006220 1.689100 -0.012540 
#    z -0.050910 -0.012540 1.762070 
# 
# From -- ./inp_files/281718.got.cif
#   From: 2010.05.17/outbox.cif.g08.bks.cpg/sg2_141_cif.got.tgz:281718.got - 2010.06.03 11:33:40.
