data_PCOD9022692
_publ_section_title
;
Structure prediction by ZEFSAII (Michael W. Deem and Ramdas Pophale) SiO2 
 PCOD9022692
Probable space group: P -1
;
_chemical_formula_sum "Si O2"
_cell_formula_units_Z 16
_cell_length_a 11.046533
_cell_length_b 11.446739
_cell_length_c 5.969507
_cell_angle_alpha 70.410390
_cell_angle_beta 77.374537
_cell_angle_gamma 85.959378
_cell_volume 693.935669
_symmetry_space_group_name_H-M "P -1"
_symmetry_group_IT_number 2
_symmetry_cell_setting 'triclinic'
loop_
_space_group_symop_operation_xyz
x,y,z
-x,-y,-z
loop_
_atom_site_type_symbol
_atom_site_label
_atom_site_fract_x
_atom_site_fract_y
_atom_site_fract_z
Si Si1 0.721890 0.840021 0.463314
Si Si2 0.673178 0.399063 0.440751
Si Si3 0.175922 0.968234 0.057169
Si Si4 0.395112 0.066060 0.151710
Si Si5 0.603668 0.671566 0.269438
Si Si6 0.087562 0.611512 0.334490
Si Si7 0.984287 0.842258 0.481872
Si Si8 0.828219 0.244707 0.164292
O O1 0.613339 0.913413 0.589979
O O2 0.665983 0.718204 0.448323
O O3 0.838381 0.832414 0.591346
O O4 0.789581 0.916214 0.187970
O O5 0.664325 0.540322 0.261140
O O6 0.540807 0.360636 0.618403
O O7 0.782426 0.396798 0.581957
O O8 0.710779 0.295595 0.311258
O O9 0.199033 0.850508 0.963505
O O10 0.044331 0.957789 0.245102
O O11 0.278236 0.977547 0.202222
O O12 0.385869 0.208276 0.972174
O O13 0.500000 0.000000 0.000000
O O14 0.013358 0.730192 0.375159
O O15 0.000000 0.500000 0.500000
O O16 0.111919 0.633407 0.050473
O O17 0.072360 0.816600 0.672483
#
# Coordination Sequence:
#
# PCOD9022692 Si02
#       8
#     2   2   2   2   2   2   2   2
#     4  11  24  42  66  96 134 177 212 278 333 381
#     4  10  23  43  66  95 131 173 224 267 321 398
#     4  10  23  41  65  98 130 175 217 274 323 400
#     4  11  27  41  67  97 133 174 227 270 322 399
#     4  10  25  43  65  96 131 173 223 272 322 389
#     4  10  22  39  63  95 130 170 217 270 322 395
#     4  10  22  40  64  98 132 168 224 265 332 396
#     4  10  23  39  69  94 131 176 209 272 336 384
#
# _framework density 23.056892999999999
#
# number of rings (size 3 to 8) (size 9 to 14) (size 15 to 20)
#    0.000    1.750    0.000    1.875    8.750   12.000 
#    0.000    2.500    0.000    0.000    0.000    0.000 
#    0.000    0.000    0.000    0.000    0.000    0.000 
#
# Total GULP energy -89318.827446 kJ/mol
# GULP energy per Si atom -5582.426715 kJ/mol
# Density = 2.300441 g / cm^3
# Si number density = 23.056893 Si / 1000 Ang^3
#
#
#
# Elastic Constant Matrix: (Units=GPa)
#
#
# Indices 1 2 3 4 5 6 
#
# 1 96.3186 35.8086 14.1745 3.9324 -28.3703 -0.0668
# 2 35.8086 92.0023 13.7529 2.3320 -10.7050 -8.1641
# 3 14.1745 13.7529 68.6579 -12.5888 -14.5625 -7.0542
# 4 3.9324 2.3320 -12.5888 35.7909 0.7038 -6.2222
# 5 -28.3703 -10.7050 -14.5625 0.7038 19.8355 0.5324
# 6 -0.0668 -8.1641 -7.0542 -6.2222 0.5324 43.0219
#
#
#
# Elastic Compliance Matrix: (Units=1/GPa)
#
#
# Indices 1 2 3 4 5 6 
#
# 1 0.020239 -0.005017 0.002319 -0.001833 0.028038 -0.001152
# 2 -0.005017 0.013123 -0.001775 -0.000529 -0.001436 0.002133
# 3 0.002319 -0.001775 0.019597 0.007074 0.016396 0.003700
# 4 -0.001833 -0.000529 0.007074 0.031621 0.001014 0.005617
# 5 0.028038 -0.001436 0.016396 0.001014 0.101707 0.001348
# 6 -0.001152 0.002133 0.003700 0.005617 0.001348 0.025049
#
#
# Mechanical properties :
#
#
# Convention : Reuss Voigt Hill
#
# Bulk Modulus (GPa) = 22.72126 42.71674 32.71900
# Shear Modulus (GPa) = 21.28084 32.61251 26.94667
#
# Velocity S-wave (km/s) = 3.04134 3.76498 3.42234
# Velocity P-wave (km/s) = 4.71262 6.12103 5.46241
#
# Compressibility (1/GPa) = 0.04401164
#
# Stress axis : x y z
#
# Youngs Moduli (GPa) = 49.41028 76.20149 51.02902
#
# Poissons Ratio (x) = 0.38233 -0.11834
# Poissons Ratio (y) = 0.24791 0.09059
# Poissons Ratio (z) = -0.11459 0.13528
#
# Static dielectric constant tensor:
#      x y z
#    x 1.916640 -0.013170 0.026430 
#    y -0.013170 1.868910 -0.027240 
#    z 0.026430 -0.027240 1.949990 
# 
# From -- ./inp_files/69027.got.cif
#   From: 2010.05.17/outbox.cif.g08.bks.cpg/sg2_35_cif.got.tgz:69027.got - 2010.06.03 11:33:40.
