data_PCOD9022402
_publ_section_title
;
Structure prediction by ZEFSAII (Michael W. Deem and Ramdas Pophale) SiO2 
 PCOD9022402
Probable space group: P -1
;
_chemical_formula_sum "Si O2"
_cell_formula_units_Z 16
_cell_length_a 5.575329
_cell_length_b 8.666134
_cell_length_c 15.286334
_cell_angle_alpha 118.942379
_cell_angle_beta 88.178412
_cell_angle_gamma 80.984807
_cell_volume 633.386788
_symmetry_space_group_name_H-M "P -1"
_symmetry_group_IT_number 2
_symmetry_cell_setting 'triclinic'
loop_
_space_group_symop_operation_xyz
x,y,z
-x,-y,-z
loop_
_atom_site_type_symbol
_atom_site_label
_atom_site_fract_x
_atom_site_fract_y
_atom_site_fract_z
Si Si1 0.647178 0.514948 0.411578
Si Si2 0.720580 0.161097 0.193680
Si Si3 0.242267 0.023708 0.220344
Si Si4 0.888558 0.806718 0.549996
Si Si5 0.713137 0.161670 0.566775
Si Si6 0.892046 0.298703 0.770319
Si Si7 0.540365 0.643925 0.912749
Si Si8 0.237952 0.368074 0.921117
O O1 0.500000 0.500000 0.500000
O O2 0.700299 0.332661 0.306405
O O3 0.866891 0.611285 0.464172
O O4 0.501334 0.667329 0.389928
O O5 0.500907 0.063171 0.198532
O O6 0.633345 0.230986 0.117384
O O7 0.004901 0.058478 0.168322
O O8 0.161622 0.160305 0.339334
O O9 0.262577 0.824313 0.206169
O O10 0.148807 0.847180 0.529526
O O11 0.692323 0.965544 0.548169
O O12 0.898782 0.221476 0.652414
O O13 0.768235 0.509728 0.827290
O O14 0.142497 0.269410 0.813425
O O15 0.392032 0.504107 0.916953
O O16 0.639339 0.731712 0.020860
O O17 0.000000 0.500000 0.000000
#
# Coordination Sequence:
#
# PCOD9022402 Si02
#       8
#     2   2   2   2   2   2   2   2
#     4  12  23  37  61  88 134 174 223 271 334 382
#     4  12  27  43  68 100 137 179 223 278 337 396
#     4  11  27  46  63  99 145 180 222 276 336 392
#     4  10  23  41  60  89 133 180 227 275 325 385
#     4  10  22  39  61  94 124 176 232 275 323 394
#     4  10  22  42  70  95 132 179 225 275 332 403
#     4  10  22  42  72 101 130 169 227 277 333 407
#     4   9  21  41  71 101 130 165 222 280 338 395
#
# _framework density 25.261026000000001
#
# number of rings (size 3 to 8) (size 9 to 14) (size 15 to 20)
#    0.000    1.500    2.500    1.125    8.750    1.000 
#    4.500    1.250    0.000    0.000    0.000    0.000 
#    0.000    0.000    0.000    0.000    0.000    0.000 
#
# Total GULP energy -89439.787212 kJ/mol
# GULP energy per Si atom -5589.986701 kJ/mol
# Density = 2.520353 g / cm^3
# Si number density = 25.261026 Si / 1000 Ang^3
#
#
#
# Elastic Constant Matrix: (Units=GPa)
#
#
# Indices 1 2 3 4 5 6 
#
# 1 83.5083 45.7867 11.9320 -0.7561 21.0619 -6.3342
# 2 45.7867 101.9921 24.2484 -2.9762 14.8584 -15.1674
# 3 11.9320 24.2484 89.3422 -2.4968 16.7571 -4.2961
# 4 -0.7561 -2.9762 -2.4968 37.2519 -5.0395 4.7718
# 5 21.0619 14.8584 16.7571 -5.0395 34.1390 -5.1868
# 6 -6.3342 -15.1674 -4.2961 4.7718 -5.1868 44.3815
#
#
#
# Elastic Compliance Matrix: (Units=1/GPa)
#
#
# Indices 1 2 3 4 5 6 
#
# 1 0.017884 -0.007158 0.001130 -0.001231 -0.008757 -0.000675
# 2 -0.007158 0.014182 -0.002747 0.000375 0.000185 0.003540
# 3 0.001130 -0.002747 0.012875 -0.000101 -0.005867 -0.000206
# 4 -0.001231 0.000375 -0.000101 0.027756 0.004359 -0.002532
# 5 -0.008757 0.000185 -0.005867 0.004359 0.038483 0.002274
# 6 -0.000675 0.003540 -0.000206 -0.002532 0.002274 0.024164
#
#
# Mechanical properties :
#
#
# Convention : Reuss Voigt Hill
#
# Bulk Modulus (GPa) = 36.50845 48.75297 42.63071
# Shear Modulus (GPa) = 30.85941 36.01285 33.43613
#
# Velocity S-wave (km/s) = 3.49896 3.77985 3.64211
# Velocity P-wave (km/s) = 5.55045 6.19607 5.88212
#
# Compressibility (1/GPa) = 0.02739092
#
# Stress axis : x y z
#
# Youngs Moduli (GPa) = 55.91478 70.51389 77.66753
#
# Poissons Ratio (x) = 0.50473 -0.08775
# Poissons Ratio (y) = 0.40023 0.21336
# Poissons Ratio (z) = -0.06317 0.19371
#
# Static dielectric constant tensor:
#      x y z
#    x 2.116950 -0.047280 0.016730 
#    y -0.047280 2.020640 0.000590 
#    z 0.016730 0.000590 1.975940 
# 
# From -- ./inp_files/52466.got.cif
#   From: 2010.05.17/outbox.cif.g08.bks.cpg/sg2_27_cif.got.tgz:52466.got - 2010.06.03 11:33:40.
