data_PCOD9022612
_publ_section_title
;
Structure prediction by ZEFSAII (Michael W. Deem and Ramdas Pophale) SiO2 
 PCOD9022612
Probable space group: P -1
;
_chemical_formula_sum "Si O2"
_cell_formula_units_Z 10
_cell_length_a 10.948760
_cell_length_b 7.492295
_cell_length_c 9.225480
_cell_angle_alpha 46.899502
_cell_angle_beta 112.823543
_cell_angle_gamma 79.061295
_cell_volume 375.403602
_symmetry_space_group_name_H-M "P -1"
_symmetry_group_IT_number 2
_symmetry_cell_setting 'triclinic'
loop_
_space_group_symop_operation_xyz
x,y,z
-x,-y,-z
loop_
_atom_site_type_symbol
_atom_site_label
_atom_site_fract_x
_atom_site_fract_y
_atom_site_fract_z
Si Si1 0.283072 0.780104 0.751220
Si Si2 0.015963 0.447999 0.828343
Si Si3 0.768371 0.592777 0.276590
Si Si4 0.434558 0.300708 0.597962
Si Si5 0.207967 0.535478 0.100319
O O1 0.208215 0.681627 0.654816
O O2 0.168337 0.165083 0.459322
O O3 0.500000 0.500000 0.000000
O O4 0.231794 0.753490 0.902410
O O5 0.959065 0.265317 0.975490
O O6 0.087810 0.394076 0.730475
O O7 0.160018 0.393961 0.034431
O O8 0.726733 0.556957 0.440555
O O9 0.589301 0.943816 0.935726
O O10 0.500000 0.500000 0.500000
O O11 0.381651 0.290188 0.417047
#
# Coordination Sequence:
#
# PCOD9022612 Si02
#       5
#     2   2   2   2   2
#     4  11  22  40  66  91 122 160 204 260 310 358
#     4  10  23  42  63  93 124 156 205 261 308 356
#     4  10  23  41  60  90 128 160 205 252 302 366
#     4  11  24  41  62  91 127 168 204 245 303 367
#     4  10  22  39  63  91 121 161 207 249 301 364
#
# _framework density 26.637998
#
# number of rings (size 3 to 8) (size 9 to 14) (size 15 to 20)
#    0.000    1.600    0.000    4.800    0.000   17.600 
#    0.000    7.000    0.000    0.000    0.000    0.000 
#    0.000    0.000    0.000    0.000    0.000    0.000 
#
# Total GULP energy -55905.358735 kJ/mol
# GULP energy per Si atom -5590.535874 kJ/mol
# Density = 2.657737 g / cm^3
# Si number density = 26.637998 Si / 1000 Ang^3
#
#
#
# Elastic Constant Matrix: (Units=GPa)
#
#
# Indices 1 2 3 4 5 6 
#
# 1 190.5220 43.1207 40.4212 9.2193 -14.8869 -43.0719
# 2 43.1207 87.9671 46.5008 20.2371 -15.7878 -29.1269
# 3 40.4212 46.5008 151.8103 23.5560 -14.5728 -16.5113
# 4 9.2193 20.2371 23.5560 56.6704 -10.2879 -7.6747
# 5 -14.8869 -15.7878 -14.5728 -10.2879 42.5564 2.5826
# 6 -43.0719 -29.1269 -16.5113 -7.6747 2.5826 38.5024
#
#
#
# Elastic Compliance Matrix: (Units=1/GPa)
#
#
# Indices 1 2 3 4 5 6 
#
# 1 0.007353 -0.000469 -0.000936 0.000700 0.001792 0.007488
# 2 -0.000469 0.018539 -0.003504 -0.002823 0.004154 0.011156
# 3 -0.000936 -0.003504 0.008219 -0.001960 0.000751 -0.000614
# 4 0.000700 -0.002823 -0.001960 0.020172 0.003306 0.001607
# 5 0.001792 0.004154 0.000751 0.003306 0.026458 0.004354
# 6 0.007488 0.011156 -0.000614 0.001607 0.004354 0.042553
#
#
# Mechanical properties :
#
#
# Convention : Reuss Voigt Hill
#
# Bulk Modulus (GPa) = 41.16533 76.70941 58.93737
# Shear Modulus (GPa) = 35.40840 47.56295 41.48568
#
# Velocity S-wave (km/s) = 3.64984 4.23014 3.95066
# Velocity P-wave (km/s) = 5.76618 7.26073 6.55619
#
# Compressibility (1/GPa) = 0.02429229
#
# Stress axis : x y z
#
# Youngs Moduli (GPa) = 136.00687 53.94132 121.66997
#
# Poissons Ratio (x) = 0.02532 0.11390
# Poissons Ratio (y) = 0.06383 0.42627
# Poissons Ratio (z) = 0.12732 0.18898
#
# Static dielectric constant tensor:
#      x y z
#    x 2.223360 0.021750 0.031160 
#    y 0.021750 2.115060 -0.025470 
#    z 0.031160 -0.025470 2.091920 
# 
# From -- ./inp_files/144208.got.cif
#   From: 2010.05.17/outbox.cif.g08.bks.cpg/sg2_73_cif.got.tgz:144208.got - 2010.06.03 11:33:40.
