data_PCOD9022277
_publ_section_title
;
Structure prediction by ZEFSAII (Michael W. Deem and Ramdas Pophale) SiO2 
 PCOD9022277
Probable space group: P -1
;
_chemical_formula_sum "Si O2"
_cell_formula_units_Z 12
_cell_length_a 15.183914
_cell_length_b 9.330674
_cell_length_c 6.093506
_cell_angle_alpha 77.421393
_cell_angle_beta 77.596517
_cell_angle_gamma 130.769949
_cell_volume 558.753459
_symmetry_space_group_name_H-M "P -1"
_symmetry_group_IT_number 2
_symmetry_cell_setting 'triclinic'
loop_
_space_group_symop_operation_xyz
x,y,z
-x,-y,-z
loop_
_atom_site_type_symbol
_atom_site_label
_atom_site_fract_x
_atom_site_fract_y
_atom_site_fract_z
Si Si1 0.775362 0.915125 0.098017
Si Si2 0.911105 0.999770 0.399630
Si Si3 0.641577 0.588372 0.914852
Si Si4 0.324560 0.936849 0.620614
Si Si5 0.571724 0.176445 0.097564
Si Si6 0.896104 0.265279 0.535536
O O1 0.891550 0.978529 0.156504
O O2 0.694034 0.929972 0.291771
O O3 0.690726 0.687820 0.100716
O O4 0.831488 0.091358 0.822326
O O5 0.759480 0.793826 0.633334
O O6 0.961586 0.222314 0.357944
O O7 0.000000 0.000000 0.500000
O O8 0.500000 0.500000 0.000000
O O9 0.630170 0.403376 0.923744
O O10 0.325258 0.809340 0.843681
O O11 0.213310 0.789506 0.541696
O O12 0.462557 0.090999 0.366467
O O13 0.500000 0.000000 0.000000
O O14 0.000000 0.500000 0.500000
#
# Coordination Sequence:
#
# PCOD9022277 Si02
#       6
#     2   2   2   2   2   2
#     4  10  22  42  62  86 124 160 206 256 305 367
#     4  10  24  40  60  92 124 160 205 253 308 366
#     4  11  23  40  64  91 123 165 205 251 309 368
#     4  10  22  39  60  90 121 158 206 255 306 361
#     4  11  23  38  61  92 125 158 202 256 308 364
#     4  10  22  39  61  86 119 162 203 249 307 365
#
# _framework density 21.476375999999998
#
# number of rings (size 3 to 8) (size 9 to 14) (size 15 to 20)
#    0.000    1.667    0.000    5.000    0.000   16.000 
#    0.000    0.000    0.000    0.000    0.000    0.000 
#    0.000    0.000    0.000    0.000    0.000    0.000 
#
# Total GULP energy -66971.113769 kJ/mol
# GULP energy per Si atom -5580.926147 kJ/mol
# Density = 2.142749 g / cm^3
# Si number density = 21.476376 Si / 1000 Ang^3
#
#
#
# Elastic Constant Matrix: (Units=GPa)
#
#
# Indices 1 2 3 4 5 6 
#
# 1 147.6703 50.4162 29.7374 11.4480 40.6084 12.1305
# 2 50.4162 170.6557 32.9470 15.0896 25.8705 -5.5541
# 3 29.7374 32.9470 58.1986 15.4918 19.1563 4.1693
# 4 11.4480 15.0896 15.4918 32.6593 4.8212 9.0724
# 5 40.6084 25.8705 19.1563 4.8212 42.6257 11.6426
# 6 12.1305 -5.5541 4.1693 9.0724 11.6426 35.1617
#
#
#
# Elastic Compliance Matrix: (Units=1/GPa)
#
#
# Indices 1 2 3 4 5 6 
#
# 1 0.009719 -0.001417 -0.001455 -0.000755 -0.007457 -0.000740
# 2 -0.001417 0.007466 -0.002137 -0.002490 -0.002902 0.003525
# 3 -0.001455 -0.002137 0.023992 -0.009385 -0.007660 0.002277
# 4 -0.000755 -0.002490 -0.009385 0.038711 0.004981 -0.010657
# 5 -0.007457 -0.002902 -0.007660 0.004981 0.038183 -0.010906
# 6 -0.000740 0.003525 0.002277 -0.010657 -0.010906 0.035343
#
#
# Mechanical properties :
#
#
# Convention : Reuss Voigt Hill
#
# Bulk Modulus (GPa) = 32.09421 66.96951 49.53186
# Shear Modulus (GPa) = 28.76574 39.65095 34.20835
#
# Velocity S-wave (km/s) = 3.66377 4.30147 3.99536
# Velocity P-wave (km/s) = 5.73359 7.47802 6.66314
#
# Compressibility (1/GPa) = 0.03115827
#
# Stress axis : x y z
#
# Youngs Moduli (GPa) = 102.89449 133.94530 41.68057
#
# Poissons Ratio (x) = 0.18981 0.06065
# Poissons Ratio (y) = 0.14581 0.08907
# Poissons Ratio (z) = 0.14972 0.28624
#
# Static dielectric constant tensor:
#      x y z
#    x 1.831670 0.003000 0.002220 
#    y 0.003000 1.749170 0.071260 
#    z 0.002220 0.071260 1.779930 
# 
# From -- ./inp_files/18747.got.cif
#   From: 2010.05.17/outbox.cif.g08.bks.cpg/sg2_10_cif.got.tgz:18747.got - 2010.06.03 11:33:40.
