data_PCOD9022693
_publ_section_title
;
Structure prediction by ZEFSAII (Michael W. Deem and Ramdas Pophale) SiO2 
 PCOD9022693
Probable space group: P -1
;
_chemical_formula_sum "Si O2"
_cell_formula_units_Z 16
_cell_length_a 5.675740
_cell_length_b 11.668195
_cell_length_c 27.430362
_cell_angle_alpha 153.892086
_cell_angle_beta 127.374490
_cell_angle_gamma 58.519921
_cell_volume 633.922234
_symmetry_space_group_name_H-M "P -1"
_symmetry_group_IT_number 2
_symmetry_cell_setting 'triclinic'
loop_
_space_group_symop_operation_xyz
x,y,z
-x,-y,-z
loop_
_atom_site_type_symbol
_atom_site_label
_atom_site_fract_x
_atom_site_fract_y
_atom_site_fract_z
Si Si1 0.417476 0.675314 0.634747
Si Si2 0.591071 0.227945 0.884096
Si Si3 0.995983 0.378629 0.164472
Si Si4 0.914437 0.500293 0.568173
Si Si5 0.091611 0.096505 0.968347
Si Si6 0.308016 0.995171 0.596611
Si Si7 0.591578 0.403743 0.848271
Si Si8 0.295869 0.773801 0.412299
O O1 0.760165 0.663608 0.653755
O O2 0.261439 0.494869 0.503443
O O3 0.250145 0.590614 0.631576
O O4 0.364824 0.986240 0.747217
O O5 0.784601 0.099293 0.901149
O O6 0.726253 0.315396 0.881973
O O7 0.500000 0.500000 0.000000
O O8 0.762191 0.564477 0.181856
O O9 0.281929 0.525982 0.281013
O O10 0.087104 0.219975 0.068550
O O11 0.851196 0.199348 0.122119
O O12 0.863563 0.196607 0.460029
O O13 0.286003 0.308526 0.042133
O O14 0.587136 0.171393 0.719387
O O15 0.057894 0.174260 0.612216
O O16 0.388347 0.796936 0.488665
O O17 0.500000 0.000000 0.500000
#
# Coordination Sequence:
#
# PCOD9022693 Si02
#       8
#     2   2   2   2   2   2   2   2
#     4  10  24  44  67 102 139 178 231 283 355 421
#     4  12  25  45  66 105 137 180 239 290 351 424
#     4  10  23  44  64  95 131 172 233 278 345 419
#     4  10  22  44  69  99 136 184 225 287 354 424
#     4  11  24  41  68  94 130 182 226 284 344 410
#     4  10  22  39  64  97 128 174 230 283 358 416
#     4  11  22  45  66  95 134 177 227 287 350 420
#     4  10  22  39  63  95 130 171 228 289 349 418
#
# _framework density 25.239688000000001
#
# number of rings (size 3 to 8) (size 9 to 14) (size 15 to 20)
#    0.000    1.500    2.500    1.500    3.500    2.000 
#    2.250    1.250    0.000    0.000    0.000    0.000 
#    0.000    0.000    0.000    0.000    0.000    0.000 
#
# Total GULP energy -89139.696792 kJ/mol
# GULP energy per Si atom -5571.231050 kJ/mol
# Density = 2.518224 g / cm^3
# Si number density = 25.239688 Si / 1000 Ang^3
#
#
#
# Elastic Constant Matrix: (Units=GPa)
#
#
# Indices 1 2 3 4 5 6 
#
# 1 82.0492 14.6742 26.1195 -0.1956 -1.4572 10.9827
# 2 14.6742 108.4930 25.1194 -3.2278 3.2891 16.7788
# 3 26.1195 25.1194 131.7968 -11.2361 -1.4108 12.9689
# 4 -0.1956 -3.2278 -11.2361 39.6696 11.3481 -1.0903
# 5 -1.4572 3.2891 -1.4108 11.3481 29.3028 11.2505
# 6 10.9827 16.7788 12.9689 -1.0903 11.2505 38.1673
#
#
#
# Elastic Compliance Matrix: (Units=1/GPa)
#
#
# Indices 1 2 3 4 5 6 
#
# 1 0.013589 -0.000884 -0.002274 -0.001494 0.002612 -0.003561
# 2 -0.000884 0.010250 -0.001377 0.000314 0.000076 -0.003797
# 3 -0.002274 -0.001377 0.008658 0.002210 0.000253 -0.001694
# 4 -0.001494 0.000314 0.002210 0.029734 -0.013157 0.004269
# 5 0.002612 0.000076 0.000253 -0.013157 0.044917 -0.014487
# 6 -0.003561 -0.003797 -0.001694 0.004269 -0.014487 0.033862
#
#
# Mechanical properties :
#
#
# Convention : Reuss Voigt Hill
#
# Bulk Modulus (GPa) = 42.68523 50.46280 46.57402
# Shear Modulus (GPa) = 31.66773 38.52300 35.09536
#
# Velocity S-wave (km/s) = 3.54599 3.91101 3.73296
# Velocity P-wave (km/s) = 5.80638 6.35858 6.08874
#
# Compressibility (1/GPa) = 0.02342730
#
# Stress axis : x y z
#
# Youngs Moduli (GPa) = 73.58737 97.56211 115.49644
#
# Poissons Ratio (x) = 0.08629 0.26258
# Poissons Ratio (y) = 0.06508 0.15905
# Poissons Ratio (z) = 0.16730 0.13435
#
# Static dielectric constant tensor:
#      x y z
#    x 2.065160 -0.009730 0.004510 
#    y -0.009730 2.478600 0.202330 
#    z 0.004510 0.202330 2.204730 
# 
# From -- ./inp_files/615462.got.cif
#   From: 2010.05.17/outbox.cif.g08.bks.cpg/sg2_308_cif.got.tgz:615462.got - 2010.06.03 11:33:40.
