data_PCOD9022091
_publ_section_title
;
Structure prediction by ZEFSAII (Michael W. Deem and Ramdas Pophale) SiO2 
 PCOD9022091
Probable space group: P -1
;
_chemical_formula_sum "Si O2"
_cell_formula_units_Z 16
_cell_length_a 25.960105
_cell_length_b 9.421615
_cell_length_c 21.745855
_cell_angle_alpha 28.836829
_cell_angle_beta 161.546627
_cell_angle_gamma 150.674625
_cell_volume 782.327946
_symmetry_space_group_name_H-M "P -1"
_symmetry_group_IT_number 2
_symmetry_cell_setting 'triclinic'
loop_
_space_group_symop_operation_xyz
x,y,z
-x,-y,-z
loop_
_atom_site_type_symbol
_atom_site_label
_atom_site_fract_x
_atom_site_fract_y
_atom_site_fract_z
Si Si1 0.866995 0.672620 0.963160
Si Si2 0.072384 0.743687 0.601506
Si Si3 0.554105 0.689988 0.686752
Si Si4 0.080225 0.667443 0.965761
Si Si5 0.286036 0.305024 0.997603
Si Si6 0.551708 0.289992 0.087752
Si Si7 0.816888 0.074978 0.204568
Si Si8 0.769416 0.878282 0.477899
O O1 0.693232 0.688154 0.792652
O O2 0.905667 0.384074 0.151581
O O3 0.865947 0.564918 0.932155
O O4 0.000000 0.000000 0.000000
O O5 0.136185 0.857770 0.697598
O O6 0.183028 0.977804 0.589723
O O7 0.115651 0.423153 0.763184
O O8 0.886838 0.794556 0.366874
O O9 0.632463 0.670711 0.851192
O O10 0.386073 0.418940 0.589818
O O11 0.500000 0.000000 0.500000
O O12 0.932125 0.795239 0.720220
O O13 0.000000 0.500000 0.000000
O O14 0.234194 0.958639 0.046339
O O15 0.400014 0.522503 0.992559
O O16 0.701219 0.141887 0.333253
O O17 0.500000 0.500000 0.000000
O O18 0.383645 0.013662 0.993939
#
# Coordination Sequence:
#
# PCOD9022091 Si02
#       8
#     2   2   2   2   2   2   2   2
#     4  12  24  45  71  94 136 182 232 276 332 406
#     4  10  22  38  71  97 133 170 221 277 338 398
#     4  12  25  46  71  97 132 181 233 279 335 402
#     4  12  27  47  68  99 139 181 229 281 337 405
#     4  11  24  44  70 100 139 173 223 280 348 398
#     4  11  24  40  65  99 141 173 213 278 346 402
#     4  11  21  41  67 103 133 169 231 272 336 403
#     4  11  23  42  69  96 135 176 224 274 338 402
#
# _framework density 20.451778999999998
#
# number of rings (size 3 to 8) (size 9 to 14) (size 15 to 20)
#    0.000    0.750    3.750    3.750    1.750    3.000 
#    2.250    1.250    0.000    0.000    0.000    0.000 
#    0.000    0.000    0.000    0.000    0.000    0.000 
#
# Total GULP energy -89360.655925 kJ/mol
# GULP energy per Si atom -5585.040995 kJ/mol
# Density = 2.040523 g / cm^3
# Si number density = 20.451779 Si / 1000 Ang^3
#
#
#
# Elastic Constant Matrix: (Units=GPa)
#
#
# Indices 1 2 3 4 5 6 
#
# 1 138.6952 37.6682 34.5493 -14.1641 10.1830 -3.0312
# 2 37.6682 100.2854 4.1069 -4.4030 -2.5316 -7.3643
# 3 34.5493 4.1069 71.0800 -17.5820 11.4604 -2.7963
# 4 -14.1641 -4.4030 -17.5820 36.1381 0.8043 4.5856
# 5 10.1830 -2.5316 11.4604 0.8043 32.5343 -13.5256
# 6 -3.0312 -7.3643 -2.7963 4.5856 -13.5256 28.9112
#
#
#
# Elastic Compliance Matrix: (Units=1/GPa)
#
#
# Indices 1 2 3 4 5 6 
#
# 1 0.009394 -0.003509 -0.003535 0.001830 -0.002779 -0.001841
# 2 -0.003509 0.011671 0.000530 -0.000339 0.003668 0.004426
# 3 -0.003535 0.000530 0.018828 0.008372 -0.006933 -0.002986
# 4 0.001830 -0.000339 0.008372 0.033611 -0.007716 -0.008025
# 5 -0.002779 0.003668 -0.006933 -0.007716 0.043478 0.021537
# 6 -0.001841 0.004426 -0.002986 -0.008025 0.021537 0.046583
#
#
# Mechanical properties :
#
#
# Convention : Reuss Voigt Hill
#
# Bulk Modulus (GPa) = 37.22372 51.41216 44.31794
# Shear Modulus (GPa) = 26.94738 35.09913 31.02325
#
# Velocity S-wave (km/s) = 3.63382 4.14719 3.89896
# Velocity P-wave (km/s) = 5.98719 6.93722 6.47964
#
# Compressibility (1/GPa) = 0.02686459
#
# Stress axis : x y z
#
# Youngs Moduli (GPa) = 106.44742 85.68613 53.11358
#
# Poissons Ratio (x) = 0.30066 0.18777
# Poissons Ratio (y) = 0.37350 -0.02816
# Poissons Ratio (z) = 0.37632 -0.04543
#
# Static dielectric constant tensor:
#      x y z
#    x 1.681750 -0.044990 0.036880 
#    y -0.044990 1.732080 -0.001330 
#    z 0.036880 -0.001330 1.760430 
# 
# From -- ./inp_files/357755.got.cif
#   From: 2010.05.17/outbox.cif.g08.bks.cpg/sg2_179_cif.got.tgz:357755.got - 2010.06.03 11:33:40.
