data_PCOD9022166
_publ_section_title
;
Structure prediction by ZEFSAII (Michael W. Deem and Ramdas Pophale) SiO2 
 PCOD9022166
Probable space group: P -1
;
_chemical_formula_sum "Si O2"
_cell_formula_units_Z 16
_cell_length_a 8.103493
_cell_length_b 6.876005
_cell_length_c 19.461530
_cell_angle_alpha 49.758848
_cell_angle_beta 106.376990
_cell_angle_gamma 121.333471
_cell_volume 704.599551
_symmetry_space_group_name_H-M "P -1"
_symmetry_group_IT_number 2
_symmetry_cell_setting 'triclinic'
loop_
_space_group_symop_operation_xyz
x,y,z
-x,-y,-z
loop_
_atom_site_type_symbol
_atom_site_label
_atom_site_fract_x
_atom_site_fract_y
_atom_site_fract_z
Si Si1 0.725513 0.960279 0.455095
Si Si2 0.542256 0.674846 0.293474
Si Si3 0.687383 0.378965 0.582647
Si Si4 0.428709 0.049205 0.098314
Si Si5 0.239966 0.393211 0.054925
Si Si6 0.742909 0.937339 0.618066
Si Si7 0.959544 0.410605 0.906257
Si Si8 0.101975 0.833162 0.708715
O O1 0.801305 0.719741 0.508128
O O2 0.496203 0.765515 0.458130
O O3 0.757917 0.055273 0.515484
O O4 0.812977 0.178889 0.353195
O O5 0.400337 0.660924 0.342641
O O6 0.468399 0.344579 0.338401
O O7 0.511436 0.853802 0.188068
O O8 0.753271 0.864005 0.307678
O O9 0.789940 0.187159 0.621325
O O10 0.351789 0.202041 0.110604
O O11 0.237687 0.856756 0.077439
O O12 0.592133 0.287972 0.015783
O O13 0.114289 0.389061 0.106642
O O14 0.090184 0.325356 0.989732
O O15 0.894264 0.815210 0.675885
O O16 0.078666 0.582622 0.814747
#
# Coordination Sequence:
#
# PCOD9022166 Si02
#       8
#     2   2   2   2   2   2   2   2
#     4   9  20  39  59  87 121 157 196 249 292 342
#     4  10  22  39  58  88 125 156 196 249 290 345
#     4   9  20  38  62  86 119 158 203 243 289 349
#     4  11  21  41  65  87 118 160 198 236 303 355
#     4  10  24  40  66  89 118 154 198 247 295 355
#     4  11  21  39  64  85 117 165 201 238 296 348
#     4  11  22  42  61  91 123 152 195 247 296 352
#     4  11  22  38  60  88 125 155 194 248 294 345
#
# _framework density 22.707932
#
# number of rings (size 3 to 8) (size 9 to 14) (size 15 to 20)
#    0.000    1.750    2.500    2.250    1.750    0.500 
#    0.000    8.750    0.000    0.000    0.000    0.000 
#    0.000    0.000    0.000    0.000    0.000    0.000 
#
# Total GULP energy -89423.933867 kJ/mol
# GULP energy per Si atom -5588.995867 kJ/mol
# Density = 2.265625 g / cm^3
# Si number density = 22.707932 Si / 1000 Ang^3
#
#
#
# Elastic Constant Matrix: (Units=GPa)
#
#
# Indices 1 2 3 4 5 6 
#
# 1 32.6241 5.5281 -7.5760 1.2884 4.3395 6.4321
# 2 5.5281 71.7142 12.3415 6.2581 -0.8421 10.5809
# 3 -7.5760 12.3415 62.6732 7.1542 -1.0782 2.6910
# 4 1.2884 6.2581 7.1542 -0.3802 -8.5008 0.0887
# 5 4.3395 -0.8421 -1.0782 -8.5008 5.0469 -1.5819
# 6 6.4321 10.5809 2.6910 0.0887 -1.5819 47.3691
#
#
#
# Elastic Compliance Matrix: (Units=1/GPa)
#
#
# Indices 1 2 3 4 5 6 
#
# 1 0.031459 -0.003962 0.002656 0.018668 0.003215 -0.003465
# 2 -0.003962 0.015123 -0.003434 0.001835 0.007536 -0.002397
# 3 0.002656 -0.003434 0.016424 0.006415 0.011408 -0.000158
# 4 0.018668 0.001835 0.006415 -0.052999 -0.105757 -0.006742
# 5 0.003215 0.007536 0.011408 -0.105757 0.020346 -0.001890
# 6 -0.003465 -0.002397 -0.000158 -0.006742 -0.001890 0.022075
#
#
# Mechanical properties :
#
#
# Convention : Reuss Voigt Hill
#
# Bulk Modulus (GPa) = 18.68278 20.84430 19.76354
# Shear Modulus (GPa) = 62.69719 20.85503 41.77611
#
# Velocity S-wave (km/s) = 5.26025 3.03380 4.29384
# Velocity P-wave (km/s) = 6.71855 4.63370 5.77105
#
# Compressibility (1/GPa) = 0.05352522
#
# Stress axis : x y z
#
# Youngs Moduli (GPa) = 31.78783 66.12626 60.88749
#
# Poissons Ratio (x) = 0.26200 -0.16172
# Poissons Ratio (y) = 0.12595 0.20907
# Poissons Ratio (z) = -0.08443 0.22706
#
# Static dielectric constant tensor:
#      x y z
#    x 1.883000 -0.025340 0.008480 
#    y -0.025340 1.868110 -0.023900 
#    z 0.008480 -0.023900 1.837150 
# 
# From -- ./inp_files/299684.got.cif
#   From: 2010.05.17/outbox.cif.g08.bks.cpg/sg2_150_cif.got.tgz:299684.got - 2010.06.03 11:33:40.
