data_PCOD9022223
_publ_section_title
;
Structure prediction by ZEFSAII (Michael W. Deem and Ramdas Pophale) SiO2 
 PCOD9022223
Probable space group: P -1
;
_chemical_formula_sum "Si O2"
_cell_formula_units_Z 14
_cell_length_a 5.399828
_cell_length_b 5.879426
_cell_length_c 19.878055
_cell_angle_alpha 110.826836
_cell_angle_beta 68.901220
_cell_angle_gamma 89.169835
_cell_volume 542.912445
_symmetry_space_group_name_H-M "P -1"
_symmetry_group_IT_number 2
_symmetry_cell_setting 'triclinic'
loop_
_space_group_symop_operation_xyz
x,y,z
-x,-y,-z
loop_
_atom_site_type_symbol
_atom_site_label
_atom_site_fract_x
_atom_site_fract_y
_atom_site_fract_z
Si Si1 0.444656 0.307987 0.197728
Si Si2 0.931494 0.258996 0.761000
Si Si3 0.217644 0.184042 0.342133
Si Si4 0.804650 0.422260 0.938325
Si Si5 0.724076 0.290065 0.487208
Si Si6 0.425407 0.166413 0.625708
Si Si7 0.930773 0.884001 0.901316
O O1 0.361397 0.589756 0.212164
O O2 0.264222 0.172785 0.148512
O O3 0.753402 0.193626 0.151823
O O4 0.360141 0.314803 0.284508
O O5 0.941565 0.982428 0.707294
O O6 0.938495 0.298605 0.843145
O O7 0.172406 0.343393 0.702853
O O8 0.427327 0.004525 0.348098
O O9 0.007967 0.325108 0.430578
O O10 0.872014 0.696248 0.945807
O O11 0.879349 0.175545 0.950521
O O12 0.500000 0.500000 0.000000
O O13 0.500000 0.500000 0.500000
O O14 0.645705 0.278931 0.572133
O O15 0.693340 0.017640 0.433612
#
# Coordination Sequence:
#
# PCOD9022223 Si02
#       7
#     2   2   2   2   2   2   2
#     4  11  25  42  72 104 144 190 245 300 364 442
#     4  10  23  41  65  98 135 184 237 296 363 437
#     4  11  22  38  66  94 135 184 235 299 359 440
#     4  11  24  49  76 109 150 196 247 308 370 440
#     4  10  22  39  59  93 131 175 232 297 362 430
#     4  10  22  39  63  90 135 174 235 291 362 435
#     4  11  26  46  75 108 149 196 248 304 371 438
#
# _framework density 25.786847000000002
#
# number of rings (size 3 to 8) (size 9 to 14) (size 15 to 20)
#    0.000    1.429    1.429    2.571    8.000    1.714 
#    0.000   10.000    0.000    0.000    0.000    0.000 
#    0.000    0.000    0.000    0.000    0.000    0.000 
#
# Total GULP energy -78099.441523 kJ/mol
# GULP energy per Si atom -5578.531537 kJ/mol
# Density = 2.572815 g / cm^3
# Si number density = 25.786847 Si / 1000 Ang^3
#
#
#
# Elastic Constant Matrix: (Units=GPa)
#
#
# Indices 1 2 3 4 5 6 
#
# 1 116.5410 28.5656 82.8403 12.9940 -16.6935 2.6622
# 2 28.5656 144.8090 38.3320 -23.5552 -11.6318 -18.1371
# 3 82.8403 38.3320 164.8058 9.0209 -8.9827 11.0535
# 4 12.9940 -23.5552 9.0209 134.5196 0.1170 64.6218
# 5 -16.6935 -11.6318 -8.9827 0.1170 55.1172 19.4514
# 6 2.6622 -18.1371 11.0535 64.6218 19.4514 99.6267
#
#
#
# Elastic Compliance Matrix: (Units=1/GPa)
#
#
# Indices 1 2 3 4 5 6 
#
# 1 0.014093 -0.000940 -0.006673 -0.001322 0.002808 0.000502
# 2 -0.000940 0.007818 -0.001405 0.001262 0.000920 0.000606
# 3 -0.006673 -0.001405 0.009807 0.000406 -0.000232 -0.001383
# 4 -0.001322 0.001262 0.000406 0.011468 0.002637 -0.007733
# 5 0.002808 0.000920 -0.000232 0.002637 0.021164 -0.005724
# 6 0.000502 0.000606 -0.001383 -0.007733 -0.005724 0.016422
#
#
# Mechanical properties :
#
#
# Convention : Reuss Voigt Hill
#
# Bulk Modulus (GPa) = 73.09934 80.62574 76.86254
# Shear Modulus (GPa) = 48.36959 76.28056 62.32508
#
# Velocity S-wave (km/s) = 4.33569 5.44476 4.92156
# Velocity P-wave (km/s) = 7.31255 8.41792 7.88463
#
# Compressibility (1/GPa) = 0.01368001
#
# Stress axis : x y z
#
# Youngs Moduli (GPa) = 70.95751 127.90618 101.96780
#
# Poissons Ratio (x) = 0.12025 0.68048
# Poissons Ratio (y) = 0.06671 0.14332
# Poissons Ratio (z) = 0.47353 0.17977
#
# Static dielectric constant tensor:
#      x y z
#    x 1.167780 -1.079560 -0.041990 
#    y -1.079560 0.580910 -0.114060 
#    z -0.041990 -0.114060 2.024850 
# 
# From -- ./inp_files/12754.got.cif
#   From: 2010.05.17/outbox.cif.g08.bks.cpg/sg2_7_cif.got.tgz:12754.got - 2010.06.03 11:33:40.
