data_PCOD9022261
_publ_section_title
;
Structure prediction by ZEFSAII (Michael W. Deem and Ramdas Pophale) SiO2 
 PCOD9022261
Probable space group: P -1
;
_chemical_formula_sum "Si O2"
_cell_formula_units_Z 16
_cell_length_a 26.455323
_cell_length_b 17.894513
_cell_length_c 11.032652
_cell_angle_alpha 142.554547
_cell_angle_beta 152.210775
_cell_angle_gamma 20.170707
_cell_volume 817.740316
_symmetry_space_group_name_H-M "P -1"
_symmetry_group_IT_number 2
_symmetry_cell_setting 'triclinic'
loop_
_space_group_symop_operation_xyz
x,y,z
-x,-y,-z
loop_
_atom_site_type_symbol
_atom_site_label
_atom_site_fract_x
_atom_site_fract_y
_atom_site_fract_z
Si Si1 0.698360 0.024241 0.273213
Si Si2 0.890757 0.373595 0.992785
Si Si3 0.325634 0.908432 0.401183
Si Si4 0.456061 0.521069 0.073842
Si Si5 0.638166 0.483767 0.810322
Si Si6 0.626148 0.827690 0.934222
Si Si7 0.881490 0.145152 0.556263
Si Si8 0.087499 0.796136 0.745053
O O1 0.681795 0.076386 0.448652
O O2 0.514290 0.271708 0.145241
O O3 0.911984 0.865920 0.478919
O O4 0.673863 0.901286 0.050992
O O5 0.748555 0.447333 0.887234
O O6 0.817705 0.578445 0.071245
O O7 0.867230 0.305250 0.740827
O O8 0.113945 0.153376 0.223858
O O9 0.379381 0.721251 0.228806
O O10 0.489594 0.847444 0.620630
O O11 0.664550 0.294798 0.283683
O O12 0.500000 0.500000 0.000000
O O13 0.282793 0.586856 0.810374
O O14 0.500000 0.500000 0.500000
O O15 0.809434 0.279239 0.002757
O O16 0.500000 0.000000 0.000000
O O17 0.000000 0.000000 0.500000
O O18 0.984240 0.001985 0.713506
#
# Coordination Sequence:
#
# PCOD9022261 Si02
#       8
#     2   2   2   2   2   2   2   2
#     4  11  23  40  59  94 131 169 206 255 320 382
#     4  12  21  38  63  91 128 170 211 255 317 375
#     4  11  21  37  62  90 126 165 210 256 310 376
#     4  12  23  41  63  92 124 161 209 267 318 373
#     4  12  24  36  60  94 137 164 204 261 325 389
#     4  10  22  39  60  88 131 174 208 255 305 388
#     4  12  24  42  64  93 125 164 214 264 316 380
#     4  12  24  39  64  92 131 166 205 259 332 380
#
# _framework density 19.566113000000001
#
# number of rings (size 3 to 8) (size 9 to 14) (size 15 to 20)
#    0.000    0.500    7.500    3.000    0.000    4.500 
#    0.000    0.000    0.000    3.000    0.000    7.000 
#    0.000    0.000    0.000    0.000    0.000    0.000 
#
# Total GULP energy -89294.985598 kJ/mol
# GULP energy per Si atom -5580.936600 kJ/mol
# Density = 1.952158 g / cm^3
# Si number density = 19.566113 Si / 1000 Ang^3
#
#
#
# Elastic Constant Matrix: (Units=GPa)
#
#
# Indices 1 2 3 4 5 6 
#
# 1 76.5471 43.6777 35.8559 3.1423 16.4991 -0.0464
# 2 43.6777 119.3703 41.6089 -23.5574 8.4741 11.7124
# 3 35.8559 41.6089 88.5726 -29.4251 24.6792 6.1237
# 4 3.1423 -23.5574 -29.4251 45.1407 -0.4655 2.1218
# 5 16.4991 8.4741 24.6792 -0.4655 38.4802 -2.8765
# 6 -0.0464 11.7124 6.1237 2.1218 -2.8765 30.8022
#
#
#
# Elastic Compliance Matrix: (Units=1/GPa)
#
#
# Indices 1 2 3 4 5 6 
#
# 1 0.022909 -0.007900 -0.009538 -0.012216 -0.001694 0.005618
# 2 -0.007900 0.013386 -0.000245 0.007640 0.000273 -0.005554
# 3 -0.009538 -0.000245 0.024710 0.016854 -0.012033 -0.007119
# 4 -0.012216 0.007640 0.016854 0.038352 -0.007509 -0.009617
# 5 -0.001694 0.000273 -0.012033 -0.007509 0.034732 0.006047
# 6 0.005618 -0.005554 -0.007119 -0.009617 0.006047 0.037228
#
#
# Mechanical properties :
#
#
# Convention : Reuss Voigt Hill
#
# Bulk Modulus (GPa) = 38.99886 58.53055 48.76470
# Shear Modulus (GPa) = 23.23114 33.77444 28.50279
#
# Velocity S-wave (km/s) = 3.44948 4.15923 3.82087
# Velocity P-wave (km/s) = 5.98668 7.28318 6.66652
#
# Compressibility (1/GPa) = 0.02564178
#
# Stress axis : x y z
#
# Youngs Moduli (GPa) = 43.65104 74.70287 40.46901
#
# Poissons Ratio (x) = 0.59012 0.38598
# Poissons Ratio (y) = 0.34483 0.00990
# Poissons Ratio (z) = 0.41633 0.01827
#
# Static dielectric constant tensor:
#      x y z
#    x 1.726920 0.017530 -0.003660 
#    y 0.017530 1.719660 -0.030600 
#    z -0.003660 -0.030600 1.731790 
# 
# From -- ./inp_files/477016.got.cif
#   From: 2010.05.17/outbox.cif.g08.bks.cpg/sg2_239_cif.got.tgz:477016.got - 2010.06.03 11:33:40.
