data_PCOD9022473
_publ_section_title
;
Structure prediction by ZEFSAII (Michael W. Deem and Ramdas Pophale) SiO2 
 PCOD9022473
Probable space group: P -1
;
_chemical_formula_sum "Si O2"
_cell_formula_units_Z 16
_cell_length_a 11.602561
_cell_length_b 15.067620
_cell_length_c 9.306759
_cell_angle_alpha 82.514753
_cell_angle_beta 37.673314
_cell_angle_gamma 68.758963
_cell_volume 891.165073
_symmetry_space_group_name_H-M "P -1"
_symmetry_group_IT_number 2
_symmetry_cell_setting 'triclinic'
loop_
_space_group_symop_operation_xyz
x,y,z
-x,-y,-z
loop_
_atom_site_type_symbol
_atom_site_label
_atom_site_fract_x
_atom_site_fract_y
_atom_site_fract_z
Si Si1 0.982056 0.251108 0.874081
Si Si2 0.618828 0.897013 0.984891
Si Si3 0.913283 0.587453 0.677525
Si Si4 0.523707 0.262898 0.338807
Si Si5 0.912296 0.563258 0.213981
Si Si6 0.483082 0.743656 0.996582
Si Si7 0.393552 0.108436 0.654892
Si Si8 0.981477 0.232231 0.542243
O O1 0.750147 0.261805 0.129944
O O2 0.035512 0.216802 0.662162
O O3 0.995076 0.356171 0.860417
O O4 0.155619 0.170206 0.821158
O O5 0.522751 0.826081 0.027536
O O6 0.856795 0.851632 0.702208
O O7 0.601865 0.900028 0.174159
O O8 0.500000 0.000000 0.000000
O O9 0.663716 0.641672 0.897709
O O10 0.000000 0.500000 0.500000
O O11 0.010201 0.527913 0.735454
O O12 0.994466 0.669513 0.545744
O O13 0.335588 0.366785 0.549785
O O14 0.489083 0.249469 0.205035
O O15 0.504562 0.175941 0.469289
O O16 0.000000 0.500000 0.000000
O O17 0.252759 0.753953 0.246142
O O18 0.500000 0.000000 0.500000
#
# Coordination Sequence:
#
# PCOD9022473 Si02
#       8
#     2   2   2   2   2   2   2   2
#     4  10  22  41  61  86 120 156 197 242 291 349
#     4  11  23  41  64  89 118 150 191 245 295 348
#     4  11  19  37  60  86 119 158 200 239 287 342
#     4  10  22  41  61  86 120 156 197 242 291 349
#     4  11  23  37  56  86 123 162 196 239 291 342
#     4  10  22  39  62  90 118 152 198 247 291 342
#     4  11  23  41  64  87 118 157 191 233 297 357
#     4  10  22  39  62  90 118 152 198 247 291 342
#
# _framework density 17.954025000000001
#
# number of rings (size 3 to 8) (size 9 to 14) (size 15 to 20)
#    0.000    1.500    2.500    3.750    7.000    4.000 
#    0.000    0.000    0.000    0.000    0.000    0.000 
#    0.000    0.000    0.000    0.000    0.000    0.000 
#
# Total GULP energy -89221.093393 kJ/mol
# GULP energy per Si atom -5576.318337 kJ/mol
# Density = 1.791316 g / cm^3
# Si number density = 17.954025 Si / 1000 Ang^3
#
#
#
# Elastic Constant Matrix: (Units=GPa)
#
#
# Indices 1 2 3 4 5 6 
#
# 1 52.4012 41.6635 56.9109 -0.7108 -7.5783 -7.2778
# 2 41.6635 97.3999 64.7080 12.4450 -4.3268 -31.0322
# 3 56.9109 64.7080 150.7937 2.6866 -0.4862 -4.6592
# 4 -0.7108 12.4450 2.6866 28.7566 2.8424 5.8546
# 5 -7.5783 -4.3268 -0.4862 2.8424 45.9754 -5.9148
# 6 -7.2778 -31.0322 -4.6592 5.8546 -5.9148 28.8899
#
#
#
# Elastic Compliance Matrix: (Units=1/GPa)
#
#
# Indices 1 2 3 4 5 6 
#
# 1 0.040562 -0.015112 -0.009260 0.009862 0.003423 -0.008806
# 2 -0.015112 0.044396 -0.011238 -0.029712 0.009851 0.050106
# 3 -0.009260 -0.011238 0.014370 0.006689 -0.004699 -0.014404
# 4 0.009862 -0.029712 0.006689 0.056771 -0.010001 -0.041904
# 5 0.003423 0.009851 -0.004699 -0.010001 0.026135 0.018064
# 6 -0.008806 0.050106 -0.014404 -0.041904 0.018064 0.096085
#
#
# Mechanical properties :
#
#
# Convention : Reuss Voigt Hill
#
# Bulk Modulus (GPa) = 35.57972 69.68441 52.63207
# Shear Modulus (GPa) = 13.93112 29.87854 21.90483
#
# Velocity S-wave (km/s) = 2.78858 4.08385 3.49671
# Velocity P-wave (km/s) = 5.49803 7.81883 6.75879
#
# Compressibility (1/GPa) = 0.02810589
#
# Stress axis : x y z
#
# Youngs Moduli (GPa) = 24.65345 22.52479 69.59146
#
# Poissons Ratio (x) = 0.34040 0.64444
# Poissons Ratio (y) = 0.37257 0.78207
# Poissons Ratio (z) = 0.22830 0.25313
#
# Static dielectric constant tensor:
#      x y z
#    x 1.586270 -0.001310 -0.023250 
#    y -0.001310 1.570710 -0.014030 
#    z -0.023250 -0.014030 1.589770 
# 
# From -- ./inp_files/273061.got.cif
#   From: 2010.05.17/outbox.cif.g08.bks.cpg/sg2_137_cif.got.tgz:273061.got - 2010.06.03 11:33:40.
