data_PCOD9022876
_publ_section_title
;
Structure prediction by ZEFSAII (Michael W. Deem and Ramdas Pophale) SiO2 
 PCOD9022876
Probable space group: P -1
;
_chemical_formula_sum "Si O2"
_cell_formula_units_Z 10
_cell_length_a 5.577162
_cell_length_b 18.962651
_cell_length_c 8.537068
_cell_angle_alpha 30.333611
_cell_angle_beta 64.771290
_cell_angle_gamma 59.971490
_cell_volume 394.739622
_symmetry_space_group_name_H-M "P -1"
_symmetry_group_IT_number 2
_symmetry_cell_setting 'triclinic'
loop_
_space_group_symop_operation_xyz
x,y,z
-x,-y,-z
loop_
_atom_site_type_symbol
_atom_site_label
_atom_site_fract_x
_atom_site_fract_y
_atom_site_fract_z
Si Si1 0.420933 0.268245 0.272281
Si Si2 0.698433 0.012497 0.122083
Si Si3 0.183012 0.286262 0.750945
Si Si4 0.085775 0.604812 0.040573
Si Si5 0.188430 0.899559 0.770303
O O1 0.571633 0.214953 0.167370
O O2 0.417949 0.119195 0.647951
O O3 0.631940 0.346690 0.140766
O O4 0.111471 0.353039 0.137929
O O5 0.737886 0.992105 0.337262
O O6 0.484780 0.172671 0.871850
O O7 0.000000 0.000000 0.000000
O O8 0.159088 0.432566 0.383128
O O9 0.077113 0.326330 0.883694
O O10 0.982081 0.196614 0.913757
O O11 0.000000 0.000000 0.500000
#
# Coordination Sequence:
#
# PCOD9022876 Si02
#       5
#     2   2   2   2   2
#     4  11  22  42  66  99 126 174 224 272 331 387
#     4  12  25  41  65  98 137 173 219 274 333 396
#     4  10  22  39  64  99 127 171 220 278 326 386
#     4  10  23  39  70  96 131 169 224 281 323 390
#     4  11  21  40  70  95 130 168 229 275 320 388
#
# _framework density 25.333155000000001
#
# number of rings (size 3 to 8) (size 9 to 14) (size 15 to 20)
#    0.000    1.200    4.000    3.000    2.800    3.200 
#    0.000    2.000    0.000    0.000    0.000    0.000 
#    0.000    0.000    0.000    0.000    0.000    0.000 
#
# Total GULP energy -55969.598035 kJ/mol
# GULP energy per Si atom -5596.959803 kJ/mol
# Density = 2.527550 g / cm^3
# Si number density = 25.333155 Si / 1000 Ang^3
#
#
#
# Elastic Constant Matrix: (Units=GPa)
#
#
# Indices 1 2 3 4 5 6 
#
# 1 135.6630 40.7923 51.7213 -23.1838 -13.9259 -25.0302
# 2 40.7923 97.3351 51.9507 3.5842 -9.5325 -14.2326
# 3 51.7213 51.9507 161.2529 -40.6549 -28.0121 -35.4184
# 4 -23.1838 3.5842 -40.6549 37.2158 -6.8408 4.2219
# 5 -13.9259 -9.5325 -28.0121 -6.8408 49.6959 9.5140
# 6 -25.0302 -14.2326 -35.4184 4.2219 9.5140 40.2674
#
#
#
# Elastic Compliance Matrix: (Units=1/GPa)
#
#
# Indices 1 2 3 4 5 6 
#
# 1 0.011139 -0.005288 0.002635 0.010461 0.004012 0.005328
# 2 -0.005288 0.017101 -0.009166 -0.015600 -0.005041 -0.002479
# 3 0.002635 -0.009166 0.017999 0.023061 0.010514 0.009327
# 4 0.010461 -0.015600 0.023061 0.062544 0.019617 0.010080
# 5 0.004012 -0.005041 0.010514 0.019617 0.028691 0.001125
# 6 0.005328 -0.002479 0.009327 0.010080 0.001125 0.034152
#
#
# Mechanical properties :
#
#
# Convention : Reuss Voigt Hill
#
# Bulk Modulus (GPa) = 44.24725 75.90882 60.07804
# Shear Modulus (GPa) = 24.65528 42.08827 33.37178
#
# Velocity S-wave (km/s) = 3.12307 4.08044 3.63342
# Velocity P-wave (km/s) = 5.52348 7.22698 6.43187
#
# Compressibility (1/GPa) = 0.02260027
#
# Stress axis : x y z
#
# Youngs Moduli (GPa) = 89.77403 58.47726 55.56000
#
# Poissons Ratio (x) = 0.30923 -0.14643
# Poissons Ratio (y) = 0.47473 0.50929
# Poissons Ratio (z) = -0.23660 0.53603
#
# Static dielectric constant tensor:
#      x y z
#    x 2.074710 -0.020670 0.033070 
#    y -0.020670 2.025590 0.024550 
#    z 0.033070 0.024550 1.979600 
# 
# From -- ./inp_files/26228.got.cif
#   From: 2010.05.17/outbox.cif.g08.bks.cpg/sg2_14_cif.got.tgz:26228.got - 2010.06.03 11:33:40.
