data_PCOD9022947
_publ_section_title
;
Structure prediction by ZEFSAII (Michael W. Deem and Ramdas Pophale) SiO2 
 PCOD9022947
Probable space group: P -1
;
_chemical_formula_sum "Si O2"
_cell_formula_units_Z 16
_cell_length_a 9.381486
_cell_length_b 12.812449
_cell_length_c 14.068234
_cell_angle_alpha 104.055134
_cell_angle_beta 30.206690
_cell_angle_gamma 115.461249
_cell_volume 736.685921
_symmetry_space_group_name_H-M "P -1"
_symmetry_group_IT_number 2
_symmetry_cell_setting 'triclinic'
loop_
_space_group_symop_operation_xyz
x,y,z
-x,-y,-z
loop_
_atom_site_type_symbol
_atom_site_label
_atom_site_fract_x
_atom_site_fract_y
_atom_site_fract_z
Si Si1 0.137938 0.662919 0.987984
Si Si2 0.528008 0.565697 0.845468
Si Si3 0.713274 0.010217 0.614394
Si Si4 0.193094 0.733075 0.418363
Si Si5 0.277157 0.767680 0.720411
Si Si6 0.594861 0.681727 0.036240
Si Si7 0.379485 0.270589 0.654848
Si Si8 0.688662 0.083829 0.996460
O O1 0.351411 0.793197 0.945758
O O2 0.783715 0.641434 0.214466
O O3 0.250147 0.569322 0.943088
O O4 0.208883 0.698088 0.844603
O O5 0.466003 0.437215 0.893737
O O6 0.850710 0.624716 0.612546
O O7 0.564034 0.645589 0.936398
O O8 0.825597 0.141857 0.537212
O O9 0.550651 0.901598 0.610542
O O10 0.000000 0.000000 0.500000
O O11 0.447027 0.986018 0.842962
O O12 0.340276 0.722800 0.230521
O O13 0.433807 0.732330 0.359908
O O14 0.389286 0.702855 0.561701
O O15 0.957871 0.772206 0.871014
O O16 0.070384 0.141804 0.787486
O O17 0.500000 0.000000 0.000000
#
# Coordination Sequence:
#
# PCOD9022947 Si02
#       8
#     2   2   2   2   2   2   2   2
#     4   9  22  41  63  95 131 167 220 267 321 386
#     4  11  25  44  68  98 128 176 223 273 330 378
#     4  11  24  39  64 100 133 170 215 264 330 394
#     4  12  23  44  67  95 133 173 216 270 328 392
#     4  11  21  45  64  96 138 167 221 268 318 398
#     4  11  25  44  69  94 133 172 225 274 321 392
#     4  10  22  39  65  92 131 171 215 264 321 385
#     4   9  19  36  57  90 130 164 209 258 315 385
#
# _framework density 21.718889999999998
#
# number of rings (size 3 to 8) (size 9 to 14) (size 15 to 20)
#    0.750    0.750    2.500    2.625    1.750    4.000 
#    0.000    0.625    0.000    0.000    0.000    0.000 
#    0.000    0.000    0.000    0.000    0.000    0.000 
#
# Total GULP energy -89413.061752 kJ/mol
# GULP energy per Si atom -5588.316359 kJ/mol
# Density = 2.166946 g / cm^3
# Si number density = 21.718890 Si / 1000 Ang^3
#
#
#
# Elastic Constant Matrix: (Units=GPa)
#
#
# Indices 1 2 3 4 5 6 
#
# 1 63.4446 7.4809 16.7486 14.5379 -13.7988 6.5320
# 2 7.4809 52.0823 3.8463 6.3998 -9.2353 -0.9521
# 3 16.7486 3.8463 114.2514 18.9334 -4.2717 4.2449
# 4 14.5379 6.3998 18.9334 26.7213 9.2365 -1.5006
# 5 -13.7988 -9.2353 -4.2717 9.2365 40.7346 7.6619
# 6 6.5320 -0.9521 4.2449 -1.5006 7.6619 30.9849
#
#
#
# Elastic Compliance Matrix: (Units=1/GPa)
#
#
# Indices 1 2 3 4 5 6 
#
# 1 0.024149 0.001334 0.000565 -0.019520 0.014799 -0.009732
# 2 0.001334 0.021476 0.001035 -0.009490 0.007995 -0.002200
# 3 0.000565 0.001035 0.010509 -0.009657 0.004292 -0.003056
# 4 -0.019520 -0.009490 -0.009657 0.067704 -0.028016 0.015353
# 5 0.014799 0.007995 0.004292 -0.028016 0.040990 -0.014955
# 6 -0.009732 -0.002200 -0.003056 0.015353 -0.014955 0.039118
#
#
# Mechanical properties :
#
#
# Convention : Reuss Voigt Hill
#
# Bulk Modulus (GPa) = 16.12864 31.76997 23.94930
# Shear Modulus (GPa) = 22.85749 33.13499 27.99624
#
# Velocity S-wave (km/s) = 3.24763 3.91017 3.59420
# Velocity P-wave (km/s) = 4.63735 5.91992 5.31745
#
# Compressibility (1/GPa) = 0.06200149
#
# Stress axis : x y z
#
# Youngs Moduli (GPa) = 41.40996 46.56396 95.15335
#
# Poissons Ratio (x) = -0.06214 -0.05373
# Poissons Ratio (y) = -0.05526 -0.09845
# Poissons Ratio (z) = -0.02338 -0.04818
#
# Static dielectric constant tensor:
#      x y z
#    x 1.788460 0.012920 0.021540 
#    y 0.012920 1.815160 -0.023250 
#    z 0.021540 -0.023250 1.832450 
# 
# From -- ./inp_files/500387.got.cif
#   From: 2010.05.17/outbox.cif.g08.bks.cpg/sg2_251_cif.got.tgz:500387.got - 2010.06.03 11:33:40.
