data_PCOD9022911
_publ_section_title
;
Structure prediction by ZEFSAII (Michael W. Deem and Ramdas Pophale) SiO2 
 PCOD9022911
Probable space group: P -1
;
_chemical_formula_sum "Si O2"
_cell_formula_units_Z 16
_cell_length_a 12.668744
_cell_length_b 14.000609
_cell_length_c 7.006623
_cell_angle_alpha 41.149904
_cell_angle_beta 46.049960
_cell_angle_gamma 47.603239
_cell_volume 557.771203
_symmetry_space_group_name_H-M "P -1"
_symmetry_group_IT_number 2
_symmetry_cell_setting 'triclinic'
loop_
_space_group_symop_operation_xyz
x,y,z
-x,-y,-z
loop_
_atom_site_type_symbol
_atom_site_label
_atom_site_fract_x
_atom_site_fract_y
_atom_site_fract_z
Si Si1 0.268874 0.065233 0.786053
Si Si2 0.578215 0.687874 0.737459
Si Si3 0.277065 0.589877 0.268307
Si Si4 0.431119 0.815072 0.238561
Si Si5 0.284489 0.570575 0.782314
Si Si6 0.273763 0.077611 0.323657
Si Si7 0.042503 0.659560 0.199305
Si Si8 0.042992 0.654996 0.717448
O O1 0.324809 0.905014 0.061869
O O2 0.263939 0.037655 0.613445
O O3 0.103577 0.187227 0.859002
O O4 0.394467 0.150394 0.547493
O O5 0.412258 0.666956 0.987535
O O6 0.658818 0.591894 0.593759
O O7 0.664254 0.605494 0.948130
O O8 0.080085 0.669099 0.402447
O O9 0.245376 0.587587 0.559455
O O10 0.418377 0.647670 0.502502
O O11 0.595761 0.840567 0.990423
O O12 0.333402 0.919827 0.372718
O O13 0.232085 0.629321 0.017555
O O14 0.091361 0.653085 0.901100
O O15 0.106086 0.192293 0.309754
O O16 0.000000 0.500000 0.500000
O O17 0.000000 0.500000 0.000000
#
# Coordination Sequence:
#
# PCOD9022911 Si02
#       8
#     2   2   2   2   2   2   2   2
#     4  12  23  48  79 101 143 198 248 294 371 435
#     4  10  24  43  73 103 144 188 235 305 363 432
#     4  10  22  39  65 111 137 178 235 300 362 426
#     4  11  29  50  72 104 151 199 242 301 358 445
#     4  11  25  46  69 106 148 189 244 298 372 424
#     4  11  27  49  73 104 149 199 247 292 372 442
#     4  11  20  43  70 105 141 186 230 301 369 430
#     4  12  25  41  73 110 142 182 240 308 364 428
#
# _framework density 28.685596
#
# number of rings (size 3 to 8) (size 9 to 14) (size 15 to 20)
#    0.000    1.000    3.750    2.625    5.250    7.500 
#    4.500    1.250    0.000    0.000    0.000    0.000 
#    0.000    0.000    0.000    0.000    0.000    0.000 
#
# Total GULP energy -89611.736074 kJ/mol
# GULP energy per Si atom -5600.733505 kJ/mol
# Density = 2.862031 g / cm^3
# Si number density = 28.685596 Si / 1000 Ang^3
#
#
#
# Elastic Constant Matrix: (Units=GPa)
#
#
# Indices 1 2 3 4 5 6 
#
# 1 196.9434 45.2639 25.6628 13.9623 36.1423 -16.0870
# 2 45.2639 126.3295 46.6370 19.4140 10.8285 8.6066
# 3 25.6628 46.6370 129.6083 33.6222 39.4021 -2.3428
# 4 13.9623 19.4140 33.6222 58.3205 4.5137 9.4109
# 5 36.1423 10.8285 39.4021 4.5137 56.7028 5.7951
# 6 -16.0870 8.6066 -2.3428 9.4109 5.7951 61.0974
#
#
#
# Elastic Compliance Matrix: (Units=1/GPa)
#
#
# Indices 1 2 3 4 5 6 
#
# 1 0.006751 -0.002512 0.001650 -0.001812 -0.005128 0.002960
# 2 -0.002512 0.010271 -0.003968 -0.000340 0.002676 -0.002462
# 3 0.001650 -0.003968 0.013496 -0.006675 -0.009492 0.003439
# 4 -0.001812 -0.000340 -0.006675 0.021913 0.004573 -0.004494
# 5 -0.005128 0.002676 -0.009492 0.004573 0.027175 -0.005373
# 6 0.002960 -0.002462 0.003439 -0.004494 -0.005373 0.018827
#
#
# Mechanical properties :
#
#
# Convention : Reuss Voigt Hill
#
# Bulk Modulus (GPa) = 47.94297 76.44541 62.19419
# Shear Modulus (GPa) = 43.46038 57.57864 50.51951
#
# Velocity S-wave (km/s) = 3.89660 4.48507 4.20115
# Velocity P-wave (km/s) = 6.08228 7.31631 6.72765
#
# Compressibility (1/GPa) = 0.02085812
#
# Stress axis : x y z
#
# Youngs Moduli (GPa) = 148.12067 97.35851 74.09417
#
# Poissons Ratio (x) = 0.24452 -0.12222
# Poissons Ratio (y) = 0.37202 0.29403
# Poissons Ratio (z) = -0.24433 0.38635
#
# Static dielectric constant tensor:
#      x y z
#    x 2.871130 0.172180 0.639170 
#    y 0.172180 2.148800 0.253780 
#    z 0.639170 0.253780 2.503600 
# 
# From -- ./inp_files/316956.got.cif
#   From: 2010.05.17/outbox.cif.g08.bks.cpg/sg2_159_cif.got.tgz:316956.got - 2010.06.03 11:33:40.
