data_PCOD9022678
_publ_section_title
;
Structure prediction by ZEFSAII (Michael W. Deem and Ramdas Pophale) SiO2 
 PCOD9022678
Probable space group: P -1
;
_chemical_formula_sum "Si O2"
_cell_formula_units_Z 14
_cell_length_a 10.785392
_cell_length_b 18.935353
_cell_length_c 14.505697
_cell_angle_alpha 159.379529
_cell_angle_beta 147.305326
_cell_angle_gamma 35.249194
_cell_volume 556.960473
_symmetry_space_group_name_H-M "P -1"
_symmetry_group_IT_number 2
_symmetry_cell_setting 'triclinic'
loop_
_space_group_symop_operation_xyz
x,y,z
-x,-y,-z
loop_
_atom_site_type_symbol
_atom_site_label
_atom_site_fract_x
_atom_site_fract_y
_atom_site_fract_z
Si Si1 0.324120 0.497074 0.251953
Si Si2 0.169757 0.388929 0.693591
Si Si3 0.679757 0.712947 0.543204
Si Si4 0.547187 0.312883 0.993553
Si Si5 0.203075 0.885211 0.549595
Si Si6 0.243033 0.301982 0.156297
Si Si7 0.027958 0.996835 0.124079
O O1 0.412847 0.326579 0.022686
O O2 0.154152 0.683795 0.326922
O O3 0.241634 0.390282 0.159030
O O4 0.544816 0.609646 0.554988
O O5 0.280068 0.308288 0.567114
O O6 0.005976 0.601625 0.840774
O O7 0.001654 0.226976 0.421372
O O8 0.367792 0.385106 0.888677
O O9 0.719026 0.480668 0.317534
O O10 0.419904 0.804598 0.520909
O O11 0.842556 0.857625 0.868184
O O12 0.710013 0.106786 0.819142
O O13 0.000000 0.000000 0.500000
O O14 0.266820 0.060536 0.870865
O O15 0.000000 0.000000 0.000000
#
# Coordination Sequence:
#
# PCOD9022678 Si02
#       7
#     2   2   2   2   2   2   2
#     4  10  24  43  70  98 130 186 227 274 337 403
#     4  11  24  42  66 104 131 173 222 276 341 393
#     4  10  23  43  69  95 133 175 222 272 337 403
#     4  11  22  42  67  97 134 172 224 280 333 394
#     4  11  25  45  70 102 137 175 226 284 340 402
#     4  11  24  44  70  94 140 175 230 277 334 407
#     4  10  22  39  63  94 132 170 219 267 327 400
#
# _framework density 25.136431000000002
#
# number of rings (size 3 to 8) (size 9 to 14) (size 15 to 20)
#    0.000    1.429    0.000    5.143    8.000    3.429 
#    5.143    0.000    0.000    0.000    0.000    0.000 
#    0.000    0.000    0.000    0.000    0.000    0.000 
#
# Total GULP energy -78435.116090 kJ/mol
# GULP energy per Si atom -5602.508292 kJ/mol
# Density = 2.507922 g / cm^3
# Si number density = 25.136431 Si / 1000 Ang^3
#
#
#
# Elastic Constant Matrix: (Units=GPa)
#
#
# Indices 1 2 3 4 5 6 
#
# 1 85.3768 14.2795 18.9189 1.8154 -14.2828 1.5738
# 2 14.2795 101.7244 -1.5835 0.7642 -8.7163 -1.6704
# 3 18.9189 -1.5835 83.1009 6.4804 -5.2961 -3.7039
# 4 1.8154 0.7642 6.4804 43.7915 0.8348 -8.8912
# 5 -14.2828 -8.7163 -5.2961 0.8348 36.6945 4.7349
# 6 1.5738 -1.6704 -3.7039 -8.8912 4.7349 33.0675
#
#
#
# Elastic Compliance Matrix: (Units=1/GPa)
#
#
# Indices 1 2 3 4 5 6 
#
# 1 0.013432 -0.001553 -0.002826 -0.000580 0.004705 -0.001864
# 2 -0.001553 0.010228 0.000698 -0.000182 0.001885 0.000350
# 3 -0.002826 0.000698 0.012916 -0.001606 0.000829 0.001066
# 4 -0.000580 -0.000182 -0.001606 0.024497 -0.001923 0.006701
# 5 0.004705 0.001885 0.000829 -0.001923 0.030326 -0.004895
# 6 -0.001864 0.000350 0.001066 0.006701 -0.004895 0.032970
#
#
# Mechanical properties :
#
#
# Convention : Reuss Voigt Hill
#
# Bulk Modulus (GPa) = 34.22751 37.04799 35.63775
# Shear Modulus (GPa) = 35.34364 38.61652 36.98008
#
# Velocity S-wave (km/s) = 3.75383 3.92379 3.83975
# Velocity P-wave (km/s) = 5.69514 5.94129 5.81951
#
# Compressibility (1/GPa) = 0.02921626
#
# Stress axis : x y z
#
# Youngs Moduli (GPa) = 74.44638 97.77145 77.42493
#
# Poissons Ratio (x) = 0.15180 0.21878
# Poissons Ratio (y) = 0.11559 -0.05407
# Poissons Ratio (z) = 0.21036 -0.06828
#
# Static dielectric constant tensor:
#      x y z
#    x 2.005370 0.014300 0.054290 
#    y 0.014300 1.965640 -0.013930 
#    z 0.054290 -0.013930 2.022230 
# 
# From -- ./inp_files/243764.got.cif
#   From: 2010.05.17/outbox.cif.g08.bks.cpg/sg2_122_cif.got.tgz:243764.got - 2010.06.03 11:33:40.
