data_PCOD9022205
_publ_section_title
;
Structure prediction by ZEFSAII (Michael W. Deem and Ramdas Pophale) SiO2 
 PCOD9022205
Probable space group: P -1
;
_chemical_formula_sum "Si O2"
_cell_formula_units_Z 12
_cell_length_a 5.129510
_cell_length_b 17.737743
_cell_length_c 5.365074
_cell_angle_alpha 84.788556
_cell_angle_beta 92.397641
_cell_angle_gamma 86.916258
_cell_volume 484.888405
_symmetry_space_group_name_H-M "P -1"
_symmetry_group_IT_number 2
_symmetry_cell_setting 'triclinic'
loop_
_space_group_symop_operation_xyz
x,y,z
-x,-y,-z
loop_
_atom_site_type_symbol
_atom_site_label
_atom_site_fract_x
_atom_site_fract_y
_atom_site_fract_z
Si Si1 0.845631 0.424690 0.522865
Si Si2 0.580727 0.376959 0.048730
Si Si3 0.235861 0.053928 0.480250
Si Si4 0.262606 0.772353 0.090943
Si Si5 0.776198 0.695975 0.268618
Si Si6 0.411836 0.089806 0.978788
O O1 0.716036 0.410783 0.794400
O O2 0.000000 0.500000 0.500000
O O3 0.066681 0.356245 0.513796
O O4 0.639147 0.421329 0.288348
O O5 0.690247 0.288875 0.110511
O O6 0.290317 0.362312 0.942272
O O7 0.253450 0.101368 0.715387
O O8 0.500000 0.000000 0.500000
O O9 0.240888 0.101891 0.215369
O O10 0.000000 0.000000 0.500000
O O11 0.493417 0.737180 0.298008
O O12 0.347286 0.856363 0.017609
O O13 0.976696 0.756933 0.174417
O O14 0.500000 0.000000 0.000000
#
# Coordination Sequence:
#
# PCOD9022205 Si02
#       6
#     2   2   2   2   2   2
#     4  11  22  42  70 100 131 172 219 271 323 389
#     4   9  23  41  64  95 137 173 217 265 332 388
#     4  10  22  39  59  89 127 158 204 270 328 381
#     4   9  21  43  64  94 131 177 218 270 328 395
#     4   9  22  44  63  97 134 176 219 264 331 394
#     4  10  22  41  67  95 126 169 221 274 325 380
#
# _framework density 24.747966999999999
#
# number of rings (size 3 to 8) (size 9 to 14) (size 15 to 20)
#    1.000    1.333    0.000    1.000    0.000   12.000 
#    0.000    1.667    0.000    0.000    0.000    0.000 
#    0.000    0.000    0.000    0.000    0.000    0.000 
#
# Total GULP energy -66941.868879 kJ/mol
# GULP energy per Si atom -5578.489073 kJ/mol
# Density = 2.469164 g / cm^3
# Si number density = 24.747967 Si / 1000 Ang^3
#
#
#
# Elastic Constant Matrix: (Units=GPa)
#
#
# Indices 1 2 3 4 5 6 
#
# 1 151.9457 47.2751 48.9224 -2.4433 9.2536 47.7179
# 2 47.2751 164.3447 46.2029 -8.1365 -0.0124 57.6872
# 3 48.9224 46.2029 191.0317 4.8684 2.4824 39.4494
# 4 -2.4433 -8.1365 4.8684 22.1754 12.6470 2.3852
# 5 9.2536 -0.0124 2.4824 12.6470 22.0360 -2.7418
# 6 47.7179 57.6872 39.4494 2.3852 -2.7418 62.9389
#
#
#
# Elastic Compliance Matrix: (Units=1/GPa)
#
#
# Indices 1 2 3 4 5 6 
#
# 1 0.010054 0.000751 -0.001112 0.008108 -0.009788 -0.008348
# 2 0.000751 0.009949 -0.000700 0.008589 -0.006386 -0.009853
# 3 -0.001112 -0.000700 0.006206 -0.001777 0.000499 -0.002316
# 4 0.008108 0.008589 -0.001777 0.081187 -0.052065 -0.018250
# 5 -0.009788 -0.006386 0.000499 -0.052065 0.081613 0.018490
# 6 -0.008348 -0.009853 -0.002316 -0.018250 0.018490 0.034197
#
#
# Mechanical properties :
#
#
# Convention : Reuss Voigt Hill
#
# Bulk Modulus (GPa) = 41.51535 88.01367 64.76451
# Shear Modulus (GPa) = 21.42663 45.75816 33.59239
#
# Velocity S-wave (km/s) = 2.94563 4.30463 3.68826
# Velocity P-wave (km/s) = 5.32735 7.76837 6.66064
#
# Compressibility (1/GPa) = 0.02408747
#
# Stress axis : x y z
#
# Youngs Moduli (GPa) = 99.46771 100.51496 161.13763
#
# Poissons Ratio (x) = -0.07553 0.17918
# Poissons Ratio (y) = -0.07474 0.11275
# Poissons Ratio (z) = 0.11061 0.07033
#
# Static dielectric constant tensor:
#      x y z
#    x 1.980940 -0.068920 0.020990 
#    y -0.068920 1.985980 0.010160 
#    z 0.020990 0.010160 1.929620 
# 
# From -- ./inp_files/7855.got.cif
#   From: 2010.05.17/outbox.cif.g08.bks.cpg/sg2_4_cif.got.tgz:7855.got - 2010.06.03 11:33:40.
