data_PCOD9022350
_publ_section_title
;
Structure prediction by ZEFSAII (Michael W. Deem and Ramdas Pophale) SiO2 
 PCOD9022350
Probable space group: P -1
;
_chemical_formula_sum "Si O2"
_cell_formula_units_Z 16
_cell_length_a 9.994196
_cell_length_b 14.342675
_cell_length_c 4.807339
_cell_angle_alpha 116.859383
_cell_angle_beta 97.263259
_cell_angle_gamma 88.273208
_cell_volume 609.542648
_symmetry_space_group_name_H-M "P -1"
_symmetry_group_IT_number 2
_symmetry_cell_setting 'triclinic'
loop_
_space_group_symop_operation_xyz
x,y,z
-x,-y,-z
loop_
_atom_site_type_symbol
_atom_site_label
_atom_site_fract_x
_atom_site_fract_y
_atom_site_fract_z
Si Si1 0.625837 0.045765 0.263895
Si Si2 0.415042 0.577195 0.265382
Si Si3 0.736915 0.850978 0.354531
Si Si4 0.286990 0.839936 0.093077
Si Si5 0.756251 0.399988 0.272771
Si Si6 0.319921 0.291300 0.358806
Si Si7 0.965393 0.655679 0.522459
Si Si8 0.014341 0.799312 0.227281
O O1 0.596656 0.132113 0.613290
O O2 0.677741 0.951895 0.338270
O O3 0.713808 0.090802 0.089000
O O4 0.500000 0.000000 0.000000
O O5 0.289460 0.600230 0.059123
O O6 0.529636 0.663661 0.492463
O O7 0.500000 0.500000 0.000000
O O8 0.657536 0.464259 0.530289
O O9 0.698409 0.812932 0.598600
O O10 0.898463 0.868829 0.407947
O O11 0.700801 0.748793 0.015053
O O12 0.281361 0.721447 0.825104
O O13 0.158963 0.850445 0.278085
O O14 0.913175 0.412998 0.417479
O O15 0.196573 0.367712 0.526016
O O16 0.006775 0.695913 0.281876
O O17 0.974835 0.758169 0.856843
#
# Coordination Sequence:
#
# PCOD9022350 Si02
#       8
#     2   2   2   2   2   2   2   2
#     4  12  26  37  53  88 133 160 217 254 288 360
#     4  12  26  43  66 100 126 156 205 259 309 384
#     4  10  22  39  61  88 121 169 203 256 307 355
#     4  11  23  40  60  87 118 168 206 259 303 352
#     4  11  23  42  69  90 125 167 206 252 316 373
#     4  10  22  41  66  87 127 167 205 249 318 373
#     4   9  18  38  62  94 117 159 212 253 295 379
#     4   9  18  36  61  86 116 154 219 255 298 355
#
# _framework density 26.249189000000001
#
# number of rings (size 3 to 8) (size 9 to 14) (size 15 to 20)
#    0.000    1.500    0.000    6.000    5.250    1.000 
#    0.000    1.250    0.000    0.000    0.000    0.000 
#    0.000    0.000    0.000    0.000    0.000    0.000 
#
# Total GULP energy -89450.453402 kJ/mol
# GULP energy per Si atom -5590.653338 kJ/mol
# Density = 2.618944 g / cm^3
# Si number density = 26.249189 Si / 1000 Ang^3
#
#
#
# Elastic Constant Matrix: (Units=GPa)
#
#
# Indices 1 2 3 4 5 6 
#
# 1 133.4767 51.9074 27.9937 -13.2982 8.6658 10.1375
# 2 51.9074 58.6312 21.5978 -22.3127 10.3212 12.3310
# 3 27.9937 21.5978 113.9463 -26.8831 1.8881 15.5786
# 4 -13.2982 -22.3127 -26.8831 44.4062 -2.8177 0.6408
# 5 8.6658 10.3212 1.8881 -2.8177 31.7585 -7.5530
# 6 10.1375 12.3310 15.5786 0.6408 -7.5530 45.2316
#
#
#
# Elastic Compliance Matrix: (Units=1/GPa)
#
#
# Indices 1 2 3 4 5 6 
#
# 1 0.011843 -0.011435 -0.001665 -0.003187 0.000581 0.001179
# 2 -0.011435 0.036159 0.000897 0.014814 -0.009610 -0.009418
# 3 -0.001665 0.000897 0.011151 0.006707 -0.000844 -0.003948
# 4 -0.003187 0.014814 0.006707 0.032974 -0.002988 -0.006600
# 5 0.000581 -0.009610 -0.000844 -0.002988 0.036352 0.008893
# 6 0.001179 -0.009418 -0.003948 -0.006600 0.008893 0.027350
#
#
# Mechanical properties :
#
#
# Convention : Reuss Voigt Hill
#
# Bulk Modulus (GPa) = 28.77816 56.56133 42.66974
# Shear Modulus (GPa) = 26.06658 37.91629 31.99143
#
# Velocity S-wave (km/s) = 3.15468 3.80475 3.49486
# Velocity P-wave (km/s) = 4.92510 6.39501 5.70757
#
# Compressibility (1/GPa) = 0.03474858
#
# Stress axis : x y z
#
# Youngs Moduli (GPa) = 84.43688 27.65593 89.67810
#
# Poissons Ratio (x) = 0.31624 0.14930
# Poissons Ratio (y) = 0.96551 -0.08048
# Poissons Ratio (z) = 0.14057 -0.02482
#
# Static dielectric constant tensor:
#      x y z
#    x 2.197600 -0.034390 0.060610 
#    y -0.034390 2.094750 0.080450 
#    z 0.060610 0.080450 2.044760 
# 
# From -- ./inp_files/76506.got.cif
#   From: 2010.05.17/outbox.cif.g08.bks.cpg/sg2_39_cif.got.tgz:76506.got - 2010.06.03 11:33:40.
