data_PCOD9022826
_publ_section_title
;
Structure prediction by ZEFSAII (Michael W. Deem and Ramdas Pophale) SiO2 
 PCOD9022826
Probable space group: P -1
;
_chemical_formula_sum "Si O2"
_cell_formula_units_Z 16
_cell_length_a 11.336255
_cell_length_b 9.030619
_cell_length_c 8.930905
_cell_angle_alpha 78.999177
_cell_angle_beta 124.679429
_cell_angle_gamma 105.355895
_cell_volume 724.090870
_symmetry_space_group_name_H-M "P -1"
_symmetry_group_IT_number 2
_symmetry_cell_setting 'triclinic'
loop_
_space_group_symop_operation_xyz
x,y,z
-x,-y,-z
loop_
_atom_site_type_symbol
_atom_site_label
_atom_site_fract_x
_atom_site_fract_y
_atom_site_fract_z
Si Si1 0.881070 0.445106 0.711543
Si Si2 0.480126 0.097573 0.216823
Si Si3 0.775142 0.870051 0.750659
Si Si4 0.555642 0.812213 0.143221
Si Si5 0.615865 0.610525 0.465578
Si Si6 0.142174 0.965124 0.694546
Si Si7 0.208395 0.829121 0.474765
Si Si8 0.945384 0.264524 0.061113
O O1 0.748550 0.524365 0.554444
O O2 0.896014 0.328660 0.613574
O O3 0.004851 0.585611 0.826612
O O4 0.849970 0.326100 0.853043
O O5 0.330898 0.105631 0.194639
O O6 0.615203 0.149956 0.418964
O O7 0.486819 0.931879 0.175170
O O8 0.501305 0.202886 0.063391
O O9 0.679745 0.764396 0.576078
O O10 0.909462 0.783504 0.898210
O O11 0.832917 0.032776 0.679774
O O12 0.544228 0.656846 0.254720
O O13 0.727921 0.887857 0.235559
O O14 0.500000 0.500000 0.500000
O O15 0.195607 0.853520 0.636077
O O16 0.117630 0.878696 0.851099
O O17 0.000000 0.000000 0.500000
#
# Coordination Sequence:
#
# PCOD9022826 Si02
#       8
#     2   2   2   2   2   2   2   2
#     4  10  24  41  60  94 129 163 215 250 315 384
#     4  10  22  39  64  94 128 154 215 271 303 372
#     4  11  21  40  63  95 123 160 217 257 308 375
#     4  10  23  40  61  98 126 166 207 257 325 365
#     4  11  22  40  64  90 129 171 200 256 323 378
#     4  11  20  40  64  89 129 167 208 262 307 371
#     4  11  22  38  64  94 124 164 212 261 314 367
#     4  10  23  43  63  92 130 168 209 256 316 377
#
# _framework density 22.096674
#
# number of rings (size 3 to 8) (size 9 to 14) (size 15 to 20)
#    0.000    1.500    3.750    1.875    3.500    4.000 
#    0.000    6.250    0.000    0.000    0.000    0.000 
#    0.000    0.000    0.000    0.000    0.000    0.000 
#
# Total GULP energy -89329.218627 kJ/mol
# GULP energy per Si atom -5583.076164 kJ/mol
# Density = 2.204638 g / cm^3
# Si number density = 22.096674 Si / 1000 Ang^3
#
#
#
# Elastic Constant Matrix: (Units=GPa)
#
#
# Indices 1 2 3 4 5 6 
#
# 1 65.7686 11.3071 1.7941 -13.4040 -7.0821 -5.8245
# 2 11.3071 65.5031 20.4585 -11.2228 3.1667 0.9091
# 3 1.7941 20.4585 82.9326 -31.3986 -3.0135 -6.6000
# 4 -13.4040 -11.2228 -31.3986 43.0586 8.8470 -4.0313
# 5 -7.0821 3.1667 -3.0135 8.8470 19.8937 -4.9943
# 6 -5.8245 0.9091 -6.6000 -4.0313 -4.9943 20.6349
#
#
#
# Elastic Compliance Matrix: (Units=1/GPa)
#
#
# Indices 1 2 3 4 5 6 
#
# 1 0.018994 -0.003867 0.004527 0.007681 0.007215 0.010227
# 2 -0.003867 0.017920 -0.004552 0.001056 -0.006574 -0.004722
# 3 0.004527 -0.004552 0.019893 0.015518 0.001255 0.011176
# 4 0.007681 0.001056 0.015518 0.040418 -0.009898 0.012586
# 5 0.007215 -0.006574 0.001255 -0.009898 0.062469 0.015913
# 6 0.010227 -0.004722 0.011176 0.012586 0.015913 0.061441
#
#
# Mechanical properties :
#
#
# Convention : Reuss Voigt Hill
#
# Bulk Modulus (GPa) = 20.39831 31.25819 25.82825
# Shear Modulus (GPa) = 20.38649 28.76041 24.57345
#
# Velocity S-wave (km/s) = 3.04074 3.61164 3.33842
# Velocity P-wave (km/s) = 4.64538 5.61861 5.15501
#
# Compressibility (1/GPa) = 0.04902368
#
# Stress axis : x y z
#
# Youngs Moduli (GPa) = 52.64731 55.80361 50.26880
#
# Poissons Ratio (x) = 0.21582 -0.22759
# Poissons Ratio (y) = 0.20361 0.22881
# Poissons Ratio (z) = -0.23835 0.25400
#
# Static dielectric constant tensor:
#      x y z
#    x 1.900120 -0.012750 0.059700 
#    y -0.012750 1.834680 0.023750 
#    z 0.059700 0.023750 1.834870 
# 
# From -- ./inp_files/225750.got.cif
#   From: 2010.05.17/outbox.cif.g08.bks.cpg/sg2_113_cif.got.tgz:225750.got - 2010.06.03 11:33:40.
