data_PCOD9022656
_publ_section_title
;
Structure prediction by ZEFSAII (Michael W. Deem and Ramdas Pophale) SiO2 
 PCOD9022656
Probable space group: P -1
;
_chemical_formula_sum "Si O2"
_cell_formula_units_Z 16
_cell_length_a 7.520304
_cell_length_b 10.160889
_cell_length_c 15.092043
_cell_angle_alpha 98.059659
_cell_angle_beta 115.652405
_cell_angle_gamma 45.813899
_cell_volume 721.798689
_symmetry_space_group_name_H-M "P -1"
_symmetry_group_IT_number 2
_symmetry_cell_setting 'triclinic'
loop_
_space_group_symop_operation_xyz
x,y,z
-x,-y,-z
loop_
_atom_site_type_symbol
_atom_site_label
_atom_site_fract_x
_atom_site_fract_y
_atom_site_fract_z
Si Si1 0.551963 0.609256 0.749731
Si Si2 0.207874 0.712464 0.506246
Si Si3 0.173016 0.695702 0.940100
Si Si4 0.897985 0.525830 0.203610
Si Si5 0.826568 0.576895 0.558707
Si Si6 0.935178 0.061570 0.220592
Si Si7 0.251504 0.967692 0.445910
Si Si8 0.684450 0.288459 0.847686
O O1 0.406712 0.658007 0.627391
O O2 0.360587 0.811994 0.778395
O O3 0.519098 0.495788 0.793808
O O4 0.884660 0.473763 0.794021
O O5 0.263857 0.536327 0.468478
O O6 0.183660 0.843395 0.442320
O O7 0.901788 0.867322 0.500827
O O8 0.039485 0.632105 0.858885
O O9 0.128740 0.834593 0.875219
O O10 0.500000 0.500000 0.000000
O O11 0.107286 0.768660 0.033197
O O12 0.556583 0.693936 0.160642
O O13 0.005897 0.467818 0.321774
O O14 0.579727 0.801756 0.515406
O O15 0.000000 0.500000 0.500000
O O16 0.127338 0.052022 0.330256
O O17 0.137706 0.847725 0.210319
#
# Coordination Sequence:
#
# PCOD9022656 Si02
#       8
#     2   2   2   2   2   2   2   2
#     4  11  22  43  71  96 137 177 218 275 327 402
#     4  10  22  41  61  91 136 173 209 263 325 383
#     4  10  22  47  71  90 135 177 214 287 345 388
#     4  11  24  43  68 102 133 176 226 268 333 395
#     4  12  24  39  64  96 136 177 217 261 321 399
#     4  11  22  42  74  95 128 181 223 268 343 400
#     4  10  22  39  63  93 130 174 211 258 326 391
#     4  11  24  47  69  97 133 175 223 281 341 386
#
# _framework density 22.166844000000001
#
# number of rings (size 3 to 8) (size 9 to 14) (size 15 to 20)
#    0.000    1.250    3.750    3.000    3.500    1.000 
#    4.500    0.625    0.000    0.000    0.000    0.000 
#    0.000    0.000    0.000    0.000    0.000    0.000 
#
# Total GULP energy -89181.028850 kJ/mol
# GULP energy per Si atom -5573.814303 kJ/mol
# Density = 2.211639 g / cm^3
# Si number density = 22.166844 Si / 1000 Ang^3
#
#
#
# Elastic Constant Matrix: (Units=GPa)
#
#
# Indices 1 2 3 4 5 6 
#
# 1 77.3047 6.9756 12.2901 2.7521 6.6358 -1.8159
# 2 6.9756 83.1023 5.6359 9.6416 0.3022 -24.4187
# 3 12.2901 5.6359 110.3697 12.9468 -7.5900 -1.7553
# 4 2.7521 9.6416 12.9468 32.6712 1.8684 -12.7867
# 5 6.6358 0.3022 -7.5900 1.8684 23.5933 6.9481
# 6 -1.8159 -24.4187 -1.7553 -12.7867 6.9481 22.5847
#
#
#
# Elastic Compliance Matrix: (Units=1/GPa)
#
#
# Indices 1 2 3 4 5 6 
#
# 1 0.013777 -0.000235 -0.001996 0.001226 -0.005522 0.003091
# 2 -0.000235 0.019536 -0.001914 0.006265 -0.009360 0.027381
# 3 -0.001996 -0.001914 0.010497 -0.006620 0.006606 -0.007195
# 4 0.001226 0.006265 -0.006620 0.047416 -0.017691 0.038645
# 5 -0.005522 -0.009360 0.006606 -0.017691 0.058823 -0.038163
# 6 0.003091 0.027381 -0.007195 0.038645 -0.038163 0.107192
#
#
# Mechanical properties :
#
#
# Convention : Reuss Voigt Hill
#
# Bulk Modulus (GPa) = 28.15441 35.61997 31.88719
# Shear Modulus (GPa) = 18.02637 32.16152 25.09394
#
# Velocity S-wave (km/s) = 2.85478 3.81318 3.36824
# Velocity P-wave (km/s) = 4.85748 5.95743 5.43535
#
# Compressibility (1/GPa) = 0.03551841
#
# Stress axis : x y z
#
# Youngs Moduli (GPa) = 72.58279 51.18843 95.26534
#
# Poissons Ratio (x) = 0.01202 0.19020
# Poissons Ratio (y) = 0.01705 0.18238
# Poissons Ratio (z) = 0.14491 0.09800
#
# Static dielectric constant tensor:
#      x y z
#    x 1.888030 -0.042500 0.022380 
#    y -0.042500 1.852560 0.012220 
#    z 0.022380 0.012220 1.761650 
# 
# From -- ./inp_files/500475.got.cif
#   From: 2010.05.17/outbox.cif.g08.bks.cpg/sg2_251_cif.got.tgz:500475.got - 2010.06.03 11:33:40.
