data_PCOD9022227
_publ_section_title
;
Structure prediction by ZEFSAII (Michael W. Deem and Ramdas Pophale) SiO2 
 PCOD9022227
Probable space group: P -1
;
_chemical_formula_sum "Si O2"
_cell_formula_units_Z 12
_cell_length_a 9.705237
_cell_length_b 13.128993
_cell_length_c 9.771920
_cell_angle_alpha 68.357975
_cell_angle_beta 137.155727
_cell_angle_gamma 134.591880
_cell_volume 574.925142
_symmetry_space_group_name_H-M "P -1"
_symmetry_group_IT_number 2
_symmetry_cell_setting 'triclinic'
loop_
_space_group_symop_operation_xyz
x,y,z
-x,-y,-z
loop_
_atom_site_type_symbol
_atom_site_label
_atom_site_fract_x
_atom_site_fract_y
_atom_site_fract_z
Si Si1 0.266457 0.392634 0.048359
Si Si2 0.214767 0.048803 0.751209
Si Si3 0.225007 0.144232 0.002950
Si Si4 0.261344 0.838246 0.040604
Si Si5 0.609513 0.097647 0.392144
Si Si6 0.137199 0.431136 0.653211
O O1 0.221777 0.262771 0.000293
O O2 0.588577 0.497452 0.271973
O O3 0.230716 0.466560 0.864077
O O4 0.018773 0.308810 0.019486
O O5 0.539370 0.175078 0.882244
O O6 0.180531 0.910040 0.847369
O O7 0.000000 0.000000 0.500000
O O8 0.166700 0.105799 0.820468
O O9 0.489866 0.171964 0.225050
O O10 0.000000 0.000000 0.000000
O O11 0.478486 0.970318 0.244005
O O12 0.925480 0.252154 0.562902
O O13 0.500000 0.000000 0.500000
O O14 0.000000 0.500000 0.500000
#
# Coordination Sequence:
#
# PCOD9022227 Si02
#       6
#     2   2   2   2   2   2
#     4  11  22  38  62  91 128 163 209 262 308 373
#     4  10  23  36  60  95 131 159 206 262 316 359
#     4  11  20  37  62  97 122 159 212 258 303 375
#     4  10  22  39  59  94 125 163 211 257 306 379
#     4  11  20  35  64  94 125 161 208 256 310 364
#     4  11  23  36  58  99 129 160 207 262 318 365
#
# _framework density 20.872281000000001
#
# number of rings (size 3 to 8) (size 9 to 14) (size 15 to 20)
#    0.000    1.333    6.667    0.000    4.667    1.333 
#    0.000    0.000    0.000   13.000    0.000    0.000 
#    0.000    0.000    0.000    0.000    0.000    0.000 
#
# Total GULP energy -66873.620552 kJ/mol
# GULP energy per Si atom -5572.801713 kJ/mol
# Density = 2.082477 g / cm^3
# Si number density = 20.872281 Si / 1000 Ang^3
#
#
#
# Elastic Constant Matrix: (Units=GPa)
#
#
# Indices 1 2 3 4 5 6 
#
# 1 100.3422 34.4966 27.7893 4.9371 3.5822 31.6200
# 2 34.4966 92.4653 37.4242 9.3985 12.0588 28.0861
# 3 27.7893 37.4242 110.6079 -5.2507 2.8912 12.9808
# 4 4.9371 9.3985 -5.2507 43.8230 8.7801 14.7295
# 5 3.5822 12.0588 2.8912 8.7801 30.1323 2.9158
# 6 31.6200 28.0861 12.9808 14.7295 2.9158 42.0657
#
#
#
# Elastic Compliance Matrix: (Units=1/GPa)
#
#
# Indices 1 2 3 4 5 6 
#
# 1 0.013928 -0.001802 -0.001693 0.001841 -0.000403 -0.009360
# 2 -0.001802 0.016135 -0.003961 -0.000088 -0.005081 -0.007813
# 3 -0.001693 -0.003961 0.010960 0.002453 0.000052 -0.000327
# 4 0.001841 -0.000088 0.002453 0.028291 -0.007553 -0.011465
# 5 -0.000403 -0.005081 0.000052 -0.007553 0.037101 0.003753
# 6 -0.009360 -0.007813 -0.000327 -0.011465 0.003753 0.039880
#
#
# Mechanical properties :
#
#
# Convention : Reuss Voigt Hill
#
# Bulk Modulus (GPa) = 38.29888 55.87063 47.08475
# Shear Modulus (GPa) = 29.42700 36.78455 33.10578
#
# Velocity S-wave (km/s) = 3.75888 4.20261 3.98692
# Velocity P-wave (km/s) = 6.10147 7.09755 6.61827
#
# Compressibility (1/GPa) = 0.02611043
#
# Stress axis : x y z
#
# Youngs Moduli (GPa) = 71.79875 61.97631 91.24086
#
# Poissons Ratio (x) = 0.11171 0.15447
# Poissons Ratio (y) = 0.12941 0.36140
# Poissons Ratio (z) = 0.12155 0.24548
#
# Static dielectric constant tensor:
#      x y z
#    x 1.798680 0.065400 0.001700 
#    y 0.065400 1.766670 0.065000 
#    z 0.001700 0.065000 1.781960 
# 
# From -- ./inp_files/196690.got.cif
#   From: 2010.05.17/outbox.cif.g08.bks.cpg/sg2_99_cif.got.tgz:196690.got - 2010.06.03 11:33:40.
