data_PCOD9022206
_publ_section_title
;
Structure prediction by ZEFSAII (Michael W. Deem and Ramdas Pophale) SiO2 
 PCOD9022206
Probable space group: P -1
;
_chemical_formula_sum "Si O2"
_cell_formula_units_Z 16
_cell_length_a 19.826451
_cell_length_b 7.111211
_cell_length_c 5.371564
_cell_angle_alpha 70.080607
_cell_angle_beta 67.995252
_cell_angle_gamma 86.730147
_cell_volume 657.988920
_symmetry_space_group_name_H-M "P -1"
_symmetry_group_IT_number 2
_symmetry_cell_setting 'triclinic'
loop_
_space_group_symop_operation_xyz
x,y,z
-x,-y,-z
loop_
_atom_site_type_symbol
_atom_site_label
_atom_site_fract_x
_atom_site_fract_y
_atom_site_fract_z
Si Si1 0.118227 0.053456 0.279235
Si Si2 0.724209 0.723306 0.133397
Si Si3 0.438346 0.819381 0.396438
Si Si4 0.642463 0.486486 0.736547
Si Si5 0.042633 0.449015 0.214422
Si Si6 0.143968 0.829051 0.863144
Si Si7 0.584859 0.785542 0.042343
Si Si8 0.708080 0.280244 0.114368
O O1 0.939170 0.780511 0.691698
O O2 0.126282 0.925251 0.578429
O O3 0.103174 0.927337 0.105218
O O4 0.196515 0.173557 0.062179
O O5 0.688951 0.680046 0.471341
O O6 0.719865 0.496713 0.134140
O O7 0.664469 0.840500 0.018986
O O8 0.408617 0.648830 0.316122
O O9 0.374811 0.807598 0.691803
O O10 0.436962 0.041550 0.187611
O O11 0.521840 0.774139 0.345208
O O12 0.593348 0.578591 0.976946
O O13 0.705585 0.345124 0.801995
O O14 0.000000 0.500000 0.500000
O O15 0.000000 0.500000 0.000000
O O16 0.116345 0.595480 0.021700
O O17 0.229592 0.848000 0.810391
#
# Coordination Sequence:
#
# PCOD9022206 Si02
#       8
#     2   2   2   2   2   2   2   2
#     4  12  28  47  79 113 151 197 246 295 361 431
#     4  10  23  41  65  95 138 183 243 299 362 426
#     4  10  22  39  59  89 130 178 240 304 366 425
#     4  10  23  37  62  87 128 180 234 302 371 416
#     4  12  28  53  82 115 159 190 237 296 357 438
#     4  12  28  47  79 113 151 197 246 295 361 431
#     4  10  22  39  59  89 130 178 240 304 366 425
#     4  10  23  41  65  95 138 183 243 299 362 426
#
# _framework density 24.316519
#
# number of rings (size 3 to 8) (size 9 to 14) (size 15 to 20)
#    0.000    1.250    1.250    2.625   10.500    9.500 
#    0.000    2.500    0.000    0.000    0.000    0.000 
#    0.000    0.000    0.000    0.000    0.000    0.000 
#
# Total GULP energy -89454.935437 kJ/mol
# GULP energy per Si atom -5590.933465 kJ/mol
# Density = 2.426117 g / cm^3
# Si number density = 24.316519 Si / 1000 Ang^3
#
#
#
# Elastic Constant Matrix: (Units=GPa)
#
#
# Indices 1 2 3 4 5 6 
#
# 1 77.7652 10.3387 22.9010 11.2911 0.3800 -18.5692
# 2 10.3387 81.6435 32.4509 -2.5080 5.7998 -23.9847
# 3 22.9010 32.4509 81.9858 6.6468 10.8338 -7.7222
# 4 11.2911 -2.5080 6.6468 32.6950 1.9368 -3.2326
# 5 0.3800 5.7998 10.8338 1.9368 37.5758 -7.8284
# 6 -18.5692 -23.9847 -7.7222 -3.2326 -7.8284 36.6517
#
#
#
# Elastic Compliance Matrix: (Units=1/GPa)
#
#
# Indices 1 2 3 4 5 6 
#
# 1 0.016705 0.002113 -0.004716 -0.003920 0.002971 0.009141
# 2 0.002113 0.018428 -0.007207 0.003265 0.001594 0.012240
# 3 -0.004716 -0.007207 0.016720 -0.002527 -0.004525 -0.004772
# 4 -0.003920 0.003265 -0.002527 0.032990 -0.000952 0.002324
# 5 0.002971 0.001594 -0.004525 -0.000952 0.029309 0.007771
# 6 0.009141 0.012240 -0.004772 0.002324 0.007771 0.040784
#
#
# Mechanical properties :
#
#
# Convention : Reuss Voigt Hill
#
# Bulk Modulus (GPa) = 31.02365 41.41953 36.22159
# Shear Modulus (GPa) = 26.98316 33.09808 30.04062
#
# Velocity S-wave (km/s) = 3.33478 3.69336 3.51864
# Velocity P-wave (km/s) = 5.25486 5.93787 5.60678
#
# Compressibility (1/GPa) = 0.03223347
#
# Stress axis : x y z
#
# Youngs Moduli (GPa) = 59.86358 54.26527 59.80706
#
# Poissons Ratio (x) = -0.11467 0.28207
# Poissons Ratio (y) = -0.12650 0.43101
# Poissons Ratio (z) = 0.28234 0.39107
#
# Static dielectric constant tensor:
#      x y z
#    x 1.916670 0.006830 0.005130 
#    y 0.006830 1.951040 0.015660 
#    z 0.005130 0.015660 2.017480 
# 
# From -- ./inp_files/43847.got.cif
#   From: 2010.05.17/outbox.cif.g08.bks.cpg/sg2_22_cif.got.tgz:43847.got - 2010.06.03 11:33:40.
