data_PCOD9022429
_publ_section_title
;
Structure prediction by ZEFSAII (Michael W. Deem and Ramdas Pophale) SiO2 
 PCOD9022429
Probable space group: P -1
;
_chemical_formula_sum "Si O2"
_cell_formula_units_Z 16
_cell_length_a 10.377046
_cell_length_b 11.231228
_cell_length_c 9.422902
_cell_angle_alpha 53.290406
_cell_angle_beta 67.196683
_cell_angle_gamma 102.350399
_cell_volume 647.497639
_symmetry_space_group_name_H-M "P -1"
_symmetry_group_IT_number 2
_symmetry_cell_setting 'triclinic'
loop_
_space_group_symop_operation_xyz
x,y,z
-x,-y,-z
loop_
_atom_site_type_symbol
_atom_site_label
_atom_site_fract_x
_atom_site_fract_y
_atom_site_fract_z
Si Si1 0.813734 0.418682 0.711524
Si Si2 0.892815 0.266784 0.027538
Si Si3 0.530942 0.763386 0.142361
Si Si4 0.941510 0.725868 0.779398
Si Si5 0.082591 0.967154 0.280794
Si Si6 0.759241 0.868043 0.310909
Si Si7 0.249519 0.421187 0.615452
Si Si8 0.449664 0.524692 0.848291
O O1 0.620163 0.235767 0.874283
O O2 0.790972 0.564682 0.543261
O O3 0.000000 0.500000 0.500000
O O4 0.834258 0.376930 0.892631
O O5 0.915320 0.264051 0.189116
O O6 0.781476 0.058527 0.158805
O O7 0.090509 0.363924 0.820864
O O8 0.414235 0.634500 0.419943
O O9 0.553369 0.620208 0.150763
O O10 0.724883 0.954814 0.912881
O O11 0.008701 0.793358 0.542393
O O12 0.914542 0.877599 0.740698
O O13 0.746230 0.537743 0.016428
O O14 0.945985 0.928862 0.246489
O O15 0.729072 0.741273 0.278949
O O16 0.600950 0.730953 0.583433
O O17 0.500000 0.500000 0.000000
#
# Coordination Sequence:
#
# PCOD9022429 Si02
#       8
#     2   2   2   2   2   2   2   2
#     4   8  16  33  55  67  97 139 172 194 243 306
#     4  10  18  31  52  75 103 127 166 209 252 286
#     4   8  17  30  53  73  92 134 177 193 238 306
#     4   9  18  28  48  75 101 131 159 208 249 297
#     4   9  16  30  47  76  99 126 168 205 248 294
#     4  10  18  29  53  77  98 127 165 218 246 287
#     4   8  17  33  51  73  94 135 168 200 250 294
#     4  10  17  31  51  74 100 131 170 196 253 300
#
# _framework density 24.710518
#
# number of rings (size 3 to 8) (size 9 to 14) (size 15 to 20)
#    0.750    2.250    1.250    0.375    1.750    0.000 
#    0.000   11.875    2.750    3.000    0.000    0.000 
#    0.000    0.000    0.000    0.000    0.000    0.000 
#
# Total GULP energy -89097.511772 kJ/mol
# GULP energy per Si atom -5568.594486 kJ/mol
# Density = 2.465428 g / cm^3
# Si number density = 24.710518 Si / 1000 Ang^3
#
#
#
# Elastic Constant Matrix: (Units=GPa)
#
#
# Indices 1 2 3 4 5 6 
#
# 1 98.0468 28.2080 65.9192 -12.0763 -6.3401 16.4289
# 2 28.2080 32.2177 9.1661 8.7550 4.7783 5.6509
# 3 65.9192 9.1661 129.8474 -4.1419 -7.9779 18.7917
# 4 -12.0763 8.7550 -4.1419 21.9904 12.7135 7.1291
# 5 -6.3401 4.7783 -7.9779 12.7135 46.3522 -0.2446
# 6 16.4289 5.6509 18.7917 7.1291 -0.2446 27.6940
#
#
#
# Elastic Compliance Matrix: (Units=1/GPa)
#
#
# Indices 1 2 3 4 5 6 
#
# 1 0.035683 -0.034838 -0.012427 0.038720 -0.004369 -0.015633
# 2 -0.034838 0.070030 0.009392 -0.051853 0.003925 0.013387
# 3 -0.012427 0.009392 0.013387 -0.008783 0.002038 -0.001350
# 4 0.038720 -0.051853 -0.008783 0.109107 -0.020979 -0.034701
# 5 -0.004369 0.003925 0.002038 -0.020979 0.026709 0.006045
# 6 -0.015633 0.013387 -0.001350 -0.034701 0.006045 0.052554
#
#
# Mechanical properties :
#
#
# Convention : Reuss Voigt Hill
#
# Bulk Modulus (GPa) = 23.06546 51.85540 37.46043
# Shear Modulus (GPa) = 12.57339 29.66189 21.11764
#
# Velocity S-wave (km/s) = 2.25817 3.46840 2.92653
# Velocity P-wave (km/s) = 4.01916 6.08855 5.15869
#
# Compressibility (1/GPa) = 0.04335487
#
# Stress axis : x y z
#
# Youngs Moduli (GPa) = 28.02454 14.27969 74.69761
#
# Poissons Ratio (x) = 0.49748 0.92824
# Poissons Ratio (y) = 0.97633 -0.70160
# Poissons Ratio (z) = 0.34825 -0.13412
#
# Static dielectric constant tensor:
#      x y z
#    x 2.029220 0.130240 -0.049460 
#    y 0.130240 2.097250 -0.072760 
#    z -0.049460 -0.072760 2.036470 
# 
# From -- ./inp_files/249789.got.cif
#   From: 2010.05.17/outbox.cif.g08.bks.cpg/sg2_125_cif.got.tgz:249789.got - 2010.06.03 11:33:40.
