data_PCOD9022365
_publ_section_title
;
Structure prediction by ZEFSAII (Michael W. Deem and Ramdas Pophale) SiO2 
 PCOD9022365
Probable space group: P -1
;
_chemical_formula_sum "Si O2"
_cell_formula_units_Z 16
_cell_length_a 8.274914
_cell_length_b 6.599235
_cell_length_c 17.490078
_cell_angle_alpha 88.930346
_cell_angle_beta 130.500147
_cell_angle_gamma 91.504505
_cell_volume 726.010110
_symmetry_space_group_name_H-M "P -1"
_symmetry_group_IT_number 2
_symmetry_cell_setting 'triclinic'
loop_
_space_group_symop_operation_xyz
x,y,z
-x,-y,-z
loop_
_atom_site_type_symbol
_atom_site_label
_atom_site_fract_x
_atom_site_fract_y
_atom_site_fract_z
Si Si1 0.725840 0.751436 0.045971
Si Si2 0.907162 0.962851 0.816994
Si Si3 0.834785 0.060521 0.626344
Si Si4 0.479201 0.076871 0.870518
Si Si5 0.596974 0.019766 0.316952
Si Si6 0.150761 0.634323 0.991376
Si Si7 0.167483 0.648779 0.509324
Si Si8 0.596255 0.732477 0.453568
O O1 0.653508 0.800905 0.108920
O O2 0.723727 0.521440 0.021944
O O3 0.966131 0.841955 0.111918
O O4 0.575164 0.882142 0.943911
O O5 0.656631 0.945806 0.754963
O O6 0.017136 0.776293 0.893538
O O7 0.943452 0.979169 0.736796
O O8 0.926394 0.210584 0.587936
O O9 0.638698 0.193930 0.597908
O O10 0.744934 0.862707 0.555732
O O11 0.358197 0.010362 0.757866
O O12 0.681314 0.223492 0.913047
O O13 0.724383 0.200960 0.396586
O O14 0.638732 0.821315 0.381392
O O15 0.000000 0.500000 0.000000
O O16 0.346900 0.502128 0.529743
O O17 0.000000 0.500000 0.500000
#
# Coordination Sequence:
#
# PCOD9022365 Si02
#       8
#     2   2   2   2   2   2   2   2
#     4  10  22  39  61  91 124 161 202 247 302 359
#     4  10  22  39  61  90 120 159 205 248 300 359
#     4   9  20  40  62  84 120 158 197 251 302 358
#     4  10  22  41  60  86 128 163 197 249 303 359
#     4  10  22  40  61  86 120 161 203 250 303 360
#     4  11  22  38  64  94 124 158 203 252 298 357
#     4  11  24  39  61  92 122 156 202 252 308 364
#     4   9  20  39  61  86 115 156 204 250 300 357
#
# _framework density 22.038260000000001
#
# number of rings (size 3 to 8) (size 9 to 14) (size 15 to 20)
#    0.000    2.000    0.000    3.000    0.000   11.000 
#    0.000    2.500    0.000    0.000    0.000    0.000 
#    0.000    0.000    0.000    0.000    0.000    0.000 
#
# Total GULP energy -89430.423982 kJ/mol
# GULP energy per Si atom -5589.401499 kJ/mol
# Density = 2.198810 g / cm^3
# Si number density = 22.038260 Si / 1000 Ang^3
#
#
#
# Elastic Constant Matrix: (Units=GPa)
#
#
# Indices 1 2 3 4 5 6 
#
# 1 83.2937 30.2221 37.1558 2.0184 -15.3618 6.3989
# 2 30.2221 101.0195 53.5223 -1.6814 -10.8734 7.5245
# 3 37.1558 53.5223 106.7676 -2.6352 -27.7962 -0.2274
# 4 2.0184 -1.6814 -2.6352 11.5754 1.6703 -3.4540
# 5 -15.3618 -10.8734 -27.7962 1.6703 38.4058 0.3948
# 6 6.3989 7.5245 -0.2274 -3.4540 0.3948 31.1327
#
#
#
# Elastic Compliance Matrix: (Units=1/GPa)
#
#
# Indices 1 2 3 4 5 6 
#
# 1 0.015358 -0.002222 -0.003528 -0.005244 0.003222 -0.003268
# 2 -0.002222 0.014207 -0.006811 0.000270 -0.001777 -0.002974
# 3 -0.003528 -0.006811 0.016236 0.002940 0.008255 0.002711
# 4 -0.005244 0.000270 0.002940 0.091960 -0.004009 0.011288
# 5 0.003222 -0.001777 0.008255 -0.004009 0.032983 -0.001035
# 6 -0.003268 -0.002974 0.002711 0.011288 -0.001035 0.034796
#
#
# Mechanical properties :
#
#
# Convention : Reuss Voigt Hill
#
# Bulk Modulus (GPa) = 48.36043 59.20905 53.78474
# Shear Modulus (GPa) = 21.04759 27.56816 24.30788
#
# Velocity S-wave (km/s) = 3.09374 3.54068 3.32473
# Velocity P-wave (km/s) = 5.89518 6.60606 6.26071
#
# Compressibility (1/GPa) = 0.02067806
#
# Stress axis : x y z
#
# Youngs Moduli (GPa) = 65.11114 70.38607 61.59177
#
# Poissons Ratio (x) = 0.15643 0.21731
# Poissons Ratio (y) = 0.14471 0.41950
# Poissons Ratio (z) = 0.22973 0.47940
#
# Static dielectric constant tensor:
#      x y z
#    x 1.920690 0.015670 0.029060 
#    y 0.015670 1.741220 0.002630 
#    z 0.029060 0.002630 1.789920 
# 
# From -- ./inp_files/106945.got.cif
#   From: 2010.05.17/outbox.cif.g08.bks.cpg/sg2_54_cif.got.tgz:106945.got - 2010.06.03 11:33:40.
