data_PCOD9022529
_publ_section_title
;
Structure prediction by ZEFSAII (Michael W. Deem and Ramdas Pophale) SiO2 
 PCOD9022529
Probable space group: P -1
;
_chemical_formula_sum "Si O2"
_cell_formula_units_Z 14
_cell_length_a 17.737898
_cell_length_b 6.514842
_cell_length_c 14.927478
_cell_angle_alpha 140.121086
_cell_angle_beta 152.419015
_cell_angle_gamma 41.490575
_cell_volume 498.117876
_symmetry_space_group_name_H-M "P -1"
_symmetry_group_IT_number 2
_symmetry_cell_setting 'triclinic'
loop_
_space_group_symop_operation_xyz
x,y,z
-x,-y,-z
loop_
_atom_site_type_symbol
_atom_site_label
_atom_site_fract_x
_atom_site_fract_y
_atom_site_fract_z
Si Si1 0.069306 0.609841 0.963647
Si Si2 0.657009 0.737467 0.352549
Si Si3 0.748835 0.661985 0.762653
Si Si4 0.364448 0.584054 0.602969
Si Si5 0.712181 0.454359 0.991561
Si Si6 0.697371 0.214533 0.074569
Si Si7 0.934118 0.886922 0.580402
O O1 0.214216 0.513004 0.160719
O O2 0.142935 0.489760 0.901908
O O3 0.910564 0.539714 0.827508
O O4 0.000000 0.000000 0.000000
O O5 0.653760 0.701904 0.442905
O O6 0.684668 0.378072 0.213415
O O7 0.813579 0.883219 0.537900
O O8 0.472110 0.894883 0.169424
O O9 0.614149 0.550051 0.520820
O O10 0.721331 0.058041 0.866110
O O11 0.537935 0.658998 0.839793
O O12 0.200789 0.876382 0.544718
O O13 0.702539 0.504060 0.104206
O O14 0.888609 0.006345 0.193998
O O15 0.000000 0.500000 0.500000
#
# Coordination Sequence:
#
# PCOD9022529 Si02
#       7
#     2   2   2   2   2   2   2
#     4   9  21  38  60  89 128 163 213 256 314 381
#     4   9  21  44  62  92 130 166 214 275 317 374
#     4  10  22  39  62  94 128 167 211 264 316 391
#     4  11  24  39  64  96 129 169 217 261 326 385
#     4  10  22  40  62  96 129 167 214 259 320 388
#     4   9  20  40  67  89 127 167 215 264 314 386
#     4  10  23  41  62  92 127 170 221 266 315 381
#
# _framework density 28.105799000000001
#
# number of rings (size 3 to 8) (size 9 to 14) (size 15 to 20)
#    0.000    2.286    0.000    0.429    8.000    6.286 
#    0.000   20.714    0.000    0.000    0.000    0.000 
#    0.000    0.000    0.000    0.000    0.000    0.000 
#
# Total GULP energy -78134.596112 kJ/mol
# GULP energy per Si atom -5581.042579 kJ/mol
# Density = 2.804183 g / cm^3
# Si number density = 28.105799 Si / 1000 Ang^3
#
#
#
# Elastic Constant Matrix: (Units=GPa)
#
#
# Indices 1 2 3 4 5 6 
#
# 1 112.8803 27.8917 5.3036 -13.7144 15.4445 9.8923
# 2 27.8917 113.7227 46.4380 -25.6101 2.9840 6.5299
# 3 5.3036 46.4380 114.2922 -33.6198 4.0100 -14.5874
# 4 -13.7144 -25.6101 -33.6198 48.0050 -6.8005 0.8327
# 5 15.4445 2.9840 4.0100 -6.8005 65.9884 -19.3511
# 6 9.8923 6.5299 -14.5874 0.8327 -19.3511 55.7528
#
#
#
# Elastic Compliance Matrix: (Units=1/GPa)
#
#
# Indices 1 2 3 4 5 6 
#
# 1 0.010187 -0.002170 0.000777 0.001937 -0.002826 -0.002360
# 2 -0.002170 0.011767 -0.004133 0.002784 -0.000119 -0.002157
# 3 0.000777 -0.004133 0.012986 0.007204 0.001141 0.004032
# 4 0.001937 0.002784 0.007204 0.028222 0.002365 0.001614
# 5 -0.002826 -0.000119 0.001141 0.002365 0.018062 0.007048
# 6 -0.002360 -0.002157 0.004032 0.001614 0.007048 0.022085
#
#
# Mechanical properties :
#
#
# Convention : Reuss Voigt Hill
#
# Bulk Modulus (GPa) = 41.85973 55.57353 48.71663
# Shear Modulus (GPa) = 40.87522 51.36672 46.12097
#
# Velocity S-wave (km/s) = 3.81771 4.27971 4.05529
# Velocity P-wave (km/s) = 5.86167 6.65110 6.26882
#
# Compressibility (1/GPa) = 0.02388931
#
# Stress axis : x y z
#
# Youngs Moduli (GPa) = 98.16027 84.98404 77.00494
#
# Poissons Ratio (x) = 0.18440 -0.05981
# Poissons Ratio (y) = 0.21299 0.31823
# Poissons Ratio (z) = -0.07624 0.35120
#
# Static dielectric constant tensor:
#      x y z
#    x 2.176270 0.016350 -0.012460 
#    y 0.016350 2.461310 0.082170 
#    z -0.012460 0.082170 2.329770 
# 
# From -- ./inp_files/273040.got.cif
#   From: 2010.05.17/outbox.cif.g08.bks.cpg/sg2_137_cif.got.tgz:273040.got - 2010.06.03 11:33:40.
