data_PCOD9022515
_publ_section_title
;
Structure prediction by ZEFSAII (Michael W. Deem and Ramdas Pophale) SiO2 
 PCOD9022515
Probable space group: P -1
;
_chemical_formula_sum "Si O2"
_cell_formula_units_Z 16
_cell_length_a 17.745898
_cell_length_b 5.436109
_cell_length_c 11.215545
_cell_angle_alpha 59.797730
_cell_angle_beta 50.773219
_cell_angle_gamma 86.725477
_cell_volume 667.043508
_symmetry_space_group_name_H-M "P -1"
_symmetry_group_IT_number 2
_symmetry_cell_setting 'triclinic'
loop_
_space_group_symop_operation_xyz
x,y,z
-x,-y,-z
loop_
_atom_site_type_symbol
_atom_site_label
_atom_site_fract_x
_atom_site_fract_y
_atom_site_fract_z
Si Si1 0.256917 0.739106 0.992610
Si Si2 0.539716 0.441707 0.847768
Si Si3 0.893675 0.568196 0.958949
Si Si4 0.226724 0.684009 0.537240
Si Si5 0.305372 0.385282 0.713417
Si Si6 0.898128 0.028477 0.237964
Si Si7 0.322073 0.881714 0.154342
Si Si8 0.453773 0.686623 0.692223
O O1 0.146989 0.478520 0.124676
O O2 0.262992 0.840820 0.098733
O O3 0.357346 0.652426 0.886547
O O4 0.272360 0.021927 0.816823
O O5 0.647324 0.406972 0.775151
O O6 0.548641 0.683935 0.678393
O O7 0.500000 0.500000 0.000000
O O8 0.439473 0.151186 0.964894
O O9 0.993069 0.871721 0.821723
O O10 0.792010 0.576413 0.129154
O O11 0.920877 0.277071 0.046138
O O12 0.319122 0.610187 0.532455
O O13 0.177863 0.866221 0.628034
O O14 0.261575 0.890369 0.332875
O O15 0.148140 0.328723 0.669540
O O16 0.401468 0.456120 0.692139
O O17 0.500000 0.000000 0.500000
#
# Coordination Sequence:
#
# PCOD9022515 Si02
#       8
#     2   2   2   2   2   2   2   2
#     4  11  21  42  60  93 123 175 211 259 334 384
#     4  11  24  43  60  88 126 175 219 253 332 391
#     4   9  21  38  68  92 129 167 209 273 322 397
#     4  11  25  41  67  99 130 171 215 277 324 384
#     4  10  22  39  62  92 130 164 219 263 330 377
#     4  10  22  41  67 102 128 166 220 268 336 383
#     4  11  26  41  64  87 129 179 214 267 320 403
#     4  11  25  38  64  96 127 165 218 284 318 383
#
# _framework density 23.986443000000001
#
# number of rings (size 3 to 8) (size 9 to 14) (size 15 to 20)
#    0.000    1.500    3.750    0.000    7.000    2.000 
#    0.000    1.250    0.000    0.000    0.000    0.000 
#    0.000    0.000    0.000    0.000    0.000    0.000 
#
# Total GULP energy -89343.501363 kJ/mol
# GULP energy per Si atom -5583.968835 kJ/mol
# Density = 2.393185 g / cm^3
# Si number density = 23.986443 Si / 1000 Ang^3
#
#
#
# Elastic Constant Matrix: (Units=GPa)
#
#
# Indices 1 2 3 4 5 6 
#
# 1 114.9020 17.0479 19.1009 0.3384 13.2647 21.5588
# 2 17.0479 70.2719 7.7936 -4.3854 -7.5886 13.9373
# 3 19.1009 7.7936 44.4425 1.1565 17.2178 5.0080
# 4 0.3384 -4.3854 1.1565 41.1413 5.9151 -4.2249
# 5 13.2647 -7.5886 17.2178 5.9151 28.8148 0.2793
# 6 21.5588 13.9373 5.0080 -4.2249 0.2793 39.2502
#
#
#
# Elastic Compliance Matrix: (Units=1/GPa)
#
#
# Indices 1 2 3 4 5 6 
#
# 1 0.010732 -0.001828 -0.002159 -0.000149 -0.004053 -0.004957
# 2 -0.001828 0.017003 -0.004888 0.000328 0.008216 -0.004433
# 3 -0.002159 -0.004888 0.031966 0.001335 -0.019660 -0.000873
# 4 -0.000149 0.000328 0.001335 0.025415 -0.005885 0.002572
# 5 -0.004053 0.008216 -0.019660 -0.005885 0.051681 0.000816
# 6 -0.004957 -0.004433 -0.000873 0.002572 0.000816 0.030157
#
#
# Mechanical properties :
#
#
# Convention : Reuss Voigt Hill
#
# Bulk Modulus (GPa) = 23.83737 35.27791 29.55764
# Shear Modulus (GPa) = 25.16508 34.21954 29.69231
#
# Velocity S-wave (km/s) = 3.24255 3.78116 3.52217
# Velocity P-wave (km/s) = 4.89676 5.81397 5.37497
#
# Compressibility (1/GPa) = 0.04195093
#
# Stress axis : x y z
#
# Youngs Moduli (GPa) = 93.18277 58.81362 31.28288
#
# Poissons Ratio (x) = 0.10750 0.06755
# Poissons Ratio (y) = 0.17032 0.15291
# Poissons Ratio (z) = 0.20120 0.28748
#
# Static dielectric constant tensor:
#      x y z
#    x 2.078710 -0.085030 0.045350 
#    y -0.085030 2.261520 -0.126780 
#    z 0.045350 -0.126780 2.060570 
# 
# From -- ./inp_files/37309.got.cif
#   From: 2010.05.17/outbox.cif.g08.bks.cpg/sg2_19_cif.got.tgz:37309.got - 2010.06.03 11:33:40.
