data_PCOD9022798
_publ_section_title
;
Structure prediction by ZEFSAII (Michael W. Deem and Ramdas Pophale) SiO2 
 PCOD9022798
Probable space group: P -1
;
_chemical_formula_sum "Si O2"
_cell_formula_units_Z 12
_cell_length_a 8.684684
_cell_length_b 17.521539
_cell_length_c 13.389737
_cell_angle_alpha 22.144563
_cell_angle_beta 43.051162
_cell_angle_gamma 49.436319
_cell_volume 521.496016
_symmetry_space_group_name_H-M "P -1"
_symmetry_group_IT_number 2
_symmetry_cell_setting 'triclinic'
loop_
_space_group_symop_operation_xyz
x,y,z
-x,-y,-z
loop_
_atom_site_type_symbol
_atom_site_label
_atom_site_fract_x
_atom_site_fract_y
_atom_site_fract_z
Si Si1 0.383584 0.567640 0.343637
Si Si2 0.498274 0.447157 0.919092
Si Si3 0.921669 0.889536 0.452392
Si Si4 0.369483 0.804657 0.245588
Si Si5 0.933123 0.350013 0.919088
Si Si6 0.108684 0.689744 0.784583
O O1 0.400049 0.601832 0.177622
O O2 0.430476 0.769942 0.143379
O O3 0.554296 0.399520 0.492750
O O4 0.140322 0.466009 0.620389
O O5 0.371233 0.650969 0.719654
O O6 0.305872 0.263028 0.257708
O O7 0.706168 0.460061 0.880590
O O8 0.105449 0.823145 0.367195
O O9 0.042078 0.870467 0.527521
O O10 0.882412 0.122641 0.175483
O O11 0.500000 0.000000 0.000000
O O12 0.986965 0.325513 0.040160
O O13 0.000000 0.500000 0.000000
#
# Coordination Sequence:
#
# PCOD9022798 Si02
#       6
#     2   2   2   2   2   2
#     4  11  24  41  70  96 132 174 222 265 331 391
#     4  11  24  43  64  96 135 172 215 270 333 391
#     4  11  23  42  66  97 129 169 225 268 320 392
#     4  11  23  42  69  99 129 173 222 277 317 386
#     4  12  24  42  66  97 134 173 213 275 333 386
#     4  10  22  39  64  92 124 170 223 262 318 388
#
# _framework density 23.010722999999999
#
# number of rings (size 3 to 8) (size 9 to 14) (size 15 to 20)
#    0.000    1.000    3.333    4.000    7.000    1.333 
#    0.000    0.833    0.000    0.000    0.000    0.000 
#    0.000    0.000    0.000    0.000    0.000    0.000 
#
# Total GULP energy -67150.122360 kJ/mol
# GULP energy per Si atom -5595.843530 kJ/mol
# Density = 2.295835 g / cm^3
# Si number density = 23.010723 Si / 1000 Ang^3
#
#
#
# Elastic Constant Matrix: (Units=GPa)
#
#
# Indices 1 2 3 4 5 6 
#
# 1 81.6968 23.3221 20.0691 1.3584 -1.7652 -13.2221
# 2 23.3221 104.4298 53.7375 12.9854 -10.3088 8.1271
# 3 20.0691 53.7375 71.5416 4.7566 -16.2003 1.8950
# 4 1.3584 12.9854 4.7566 38.4305 -1.3412 1.5583
# 5 -1.7652 -10.3088 -16.2003 -1.3412 22.9829 7.3339
# 6 -13.2221 8.1271 1.8950 1.5583 7.3339 52.0769
#
#
#
# Elastic Compliance Matrix: (Units=1/GPa)
#
#
# Indices 1 2 3 4 5 6 
#
# 1 0.014367 -0.002279 -0.003304 0.000354 -0.003706 0.004635
# 2 -0.002279 0.016778 -0.011692 -0.004046 -0.000294 -0.002609
# 3 -0.003304 -0.011692 0.026859 0.001319 0.014157 -0.002025
# 4 0.000354 -0.004046 0.001319 0.027251 0.000815 -0.000257
# 5 -0.003706 -0.000294 0.014157 0.000815 0.056100 -0.009335
# 6 0.004635 -0.002609 -0.002025 -0.000257 -0.009335 0.022182
#
#
# Mechanical properties :
#
#
# Convention : Reuss Voigt Hill
#
# Bulk Modulus (GPa) = 42.63649 50.21395 46.42522
# Shear Modulus (GPa) = 24.28303 33.40069 28.84186
#
# Velocity S-wave (km/s) = 3.25205 3.81402 3.54419
# Velocity P-wave (km/s) = 5.71579 6.42379 6.08011
#
# Compressibility (1/GPa) = 0.02345409
#
# Stress axis : x y z
#
# Youngs Moduli (GPa) = 69.60530 59.60052 37.23165
#
# Poissons Ratio (x) = 0.13582 0.12301
# Poissons Ratio (y) = 0.15862 0.43532
# Poissons Ratio (z) = 0.22997 0.69686
#
# Static dielectric constant tensor:
#      x y z
#    x 1.894960 0.004800 0.009440 
#    y 0.004800 1.885540 0.012190 
#    z 0.009440 0.012190 1.855460 
# 
# From -- ./inp_files/243759.got.cif
#   From: 2010.05.17/outbox.cif.g08.bks.cpg/sg2_122_cif.got.tgz:243759.got - 2010.06.03 11:33:40.
