data_PCOD9022357
_publ_section_title
;
Structure prediction by ZEFSAII (Michael W. Deem and Ramdas Pophale) SiO2 
 PCOD9022357
Probable space group: P -1
;
_chemical_formula_sum "Si O2"
_cell_formula_units_Z 14
_cell_length_a 22.755314
_cell_length_b 4.961008
_cell_length_c 5.526549
_cell_angle_alpha 96.539343
_cell_angle_beta 89.307941
_cell_angle_gamma 115.777279
_cell_volume 557.661561
_symmetry_space_group_name_H-M "P -1"
_symmetry_group_IT_number 2
_symmetry_cell_setting 'triclinic'
loop_
_space_group_symop_operation_xyz
x,y,z
-x,-y,-z
loop_
_atom_site_type_symbol
_atom_site_label
_atom_site_fract_x
_atom_site_fract_y
_atom_site_fract_z
Si Si1 0.083809 0.419087 0.401723
Si Si2 0.208617 0.956437 0.385834
Si Si3 0.309445 0.949304 0.073176
Si Si4 0.451526 0.648966 0.481940
Si Si5 0.232511 0.253163 0.913685
Si Si6 0.013740 0.765569 0.215563
Si Si7 0.422960 0.767789 0.995373
O O1 0.160282 0.606621 0.388517
O O2 0.053234 0.289866 0.650784
O O3 0.059303 0.678956 0.384361
O O4 0.052041 0.123190 0.201577
O O5 0.282310 0.993926 0.340051
O O6 0.202208 0.124101 0.642813
O O7 0.194069 0.079222 0.141776
O O8 0.378143 0.940044 0.052023
O O9 0.257545 0.608727 0.965962
O O10 0.294593 0.175742 0.929551
O O11 0.500000 0.500000 0.500000
O O12 0.415010 0.575309 0.219950
O O13 0.500000 0.000000 0.500000
O O14 0.409627 0.607045 0.719902
O O15 0.000000 0.500000 0.000000
O O16 0.500000 0.000000 0.000000
#
# Coordination Sequence:
#
# PCOD9022357 Si02
#       7
#     2   2   2   2   2   2   2
#     4  10  23  38  63  93 126 170 215 261 318 382
#     4  10  26  44  69  96 133 173 225 268 326 383
#     4  10  26  43  67  97 130 171 218 273 329 393
#     4  10  22  39  61  89 121 158 204 249 311 383
#     4  10  26  42  68  94 132 167 225 269 327 382
#     4  10  22  40  61  95 130 166 212 263 320 377
#     4  10  23  42  66  93 129 165 211 262 331 389
#
# _framework density 25.104832999999999
#
# number of rings (size 3 to 8) (size 9 to 14) (size 15 to 20)
#    0.857    1.143    0.000    0.857    8.000    4.571 
#    2.571    0.000    0.000    0.000    0.000    0.000 
#    0.000    0.000    0.000    0.000    0.000    0.000 
#
# Total GULP energy -78162.102527 kJ/mol
# GULP energy per Si atom -5583.007323 kJ/mol
# Density = 2.504769 g / cm^3
# Si number density = 25.104833 Si / 1000 Ang^3
#
#
#
# Elastic Constant Matrix: (Units=GPa)
#
#
# Indices 1 2 3 4 5 6 
#
# 1 78.1694 15.9975 13.6436 -14.8685 -24.4073 -1.4816
# 2 15.9975 118.2911 37.8039 10.0067 -8.5745 -6.0229
# 3 13.6436 37.8039 196.4369 -1.3696 -15.1222 5.7590
# 4 -14.8685 10.0067 -1.3696 36.8116 -1.8555 -5.1114
# 5 -24.4073 -8.5745 -15.1222 -1.8555 18.2924 -0.2729
# 6 -1.4816 -6.0229 5.7590 -5.1114 -0.2729 54.5226
#
#
#
# Elastic Compliance Matrix: (Units=1/GPa)
#
#
# Indices 1 2 3 4 5 6 
#
# 1 0.027906 -0.002581 0.001592 0.014243 0.038813 0.001835
# 2 -0.002581 0.009673 -0.001790 -0.003659 -0.000748 0.000841
# 3 0.001592 -0.001790 0.005835 0.001580 0.006260 -0.000591
# 4 0.014243 -0.003659 0.001580 0.035546 0.022250 0.003260
# 5 0.038813 -0.000748 0.006260 0.022250 0.113581 0.002965
# 6 0.001835 0.000841 -0.000591 0.003260 0.002965 0.018867
#
#
# Mechanical properties :
#
#
# Convention : Reuss Voigt Hill
#
# Bulk Modulus (GPa) = 26.41601 58.64306 42.52954
# Shear Modulus (GPa) = 21.77857 43.62214 32.70035
#
# Velocity S-wave (km/s) = 2.94854 4.17297 3.61300
# Velocity P-wave (km/s) = 4.70499 6.82849 5.86367
#
# Compressibility (1/GPa) = 0.03785583
#
# Stress axis : x y z
#
# Youngs Moduli (GPa) = 35.83487 103.38092 171.38297
#
# Poissons Ratio (x) = 0.26680 -0.27282
# Poissons Ratio (y) = 0.09248 0.30678
# Poissons Ratio (z) = -0.05704 0.18505
#
# Static dielectric constant tensor:
#      x y z
#    x 2.039140 0.061190 0.059750 
#    y 0.061190 1.995550 0.003440 
#    z 0.059750 0.003440 2.094610 
# 
# From -- ./inp_files/125375.got.cif
#   From: 2010.05.17/outbox.cif.g08.bks.cpg/sg2_63_cif.got.tgz:125375.got - 2010.06.03 11:33:40.
