data_PCOD9022252
_publ_section_title
;
Structure prediction by ZEFSAII (Michael W. Deem and Ramdas Pophale) SiO2 
 PCOD9022252
Probable space group: P -1
;
_chemical_formula_sum "Si O2"
_cell_formula_units_Z 14
_cell_length_a 5.526315
_cell_length_b 15.689016
_cell_length_c 15.948037
_cell_angle_alpha 152.080611
_cell_angle_beta 62.874117
_cell_angle_gamma 105.238454
_cell_volume 542.711595
_symmetry_space_group_name_H-M "P -1"
_symmetry_group_IT_number 2
_symmetry_cell_setting 'triclinic'
loop_
_space_group_symop_operation_xyz
x,y,z
-x,-y,-z
loop_
_atom_site_type_symbol
_atom_site_label
_atom_site_fract_x
_atom_site_fract_y
_atom_site_fract_z
Si Si1 0.310554 0.780884 0.075160
Si Si2 0.021080 0.516384 0.847089
Si Si3 0.461738 0.811427 0.440646
Si Si4 0.038852 0.217337 0.265164
Si Si5 0.426094 0.784412 0.235808
Si Si6 0.567852 0.012984 0.130619
Si Si7 0.854817 0.411551 0.618173
O O1 0.083524 0.719310 0.003798
O O2 0.590719 0.594626 0.849641
O O3 0.219038 0.791518 0.195902
O O4 0.416327 0.954390 0.182944
O O5 0.237368 0.360789 0.739183
O O6 0.078150 0.417343 0.660227
O O7 0.706551 0.598258 0.010005
O O8 0.337732 0.783285 0.344598
O O9 0.242969 0.774009 0.509412
O O10 0.501016 0.017451 0.613144
O O11 0.300552 0.096782 0.181566
O O12 0.762814 0.146200 0.233274
O O13 0.926492 0.408191 0.506472
O O14 0.202632 0.175025 0.113567
#
# Coordination Sequence:
#
# PCOD9022252 Si02
#       7
#     2   2   2   2   2   2   2
#     4  10  23  38  60  88 124 164 210 262 320 381
#     4  10  23  38  57  90 124 170 205 266 319 378
#     4  10  22  39  60  88 121 165 216 264 320 381
#     4  10  23  42  67  95 125 165 213 265 323 384
#     4  10  22  39  60  88 121 165 216 264 320 381
#     4  10  23  42  67  95 125 165 213 265 323 384
#     4  10  23  38  60  88 124 164 210 262 320 381
#
# _framework density 25.796389000000001
#
# number of rings (size 3 to 8) (size 9 to 14) (size 15 to 20)
#    0.000    2.000    0.000    1.286   12.000    6.857 
#    0.000    3.571    0.000    0.000    0.000    0.000 
#    0.000    0.000    0.000    0.000    0.000    0.000 
#
# Total GULP energy -78140.524350 kJ/mol
# GULP energy per Si atom -5581.466025 kJ/mol
# Density = 2.573767 g / cm^3
# Si number density = 25.796389 Si / 1000 Ang^3
#
#
#
# Elastic Constant Matrix: (Units=GPa)
#
#
# Indices 1 2 3 4 5 6 
#
# 1 66.0178 19.6812 9.2883 9.4045 -1.6684 12.4100
# 2 19.6812 65.2329 2.1395 -25.6919 8.7616 -2.2790
# 3 9.2883 2.1395 98.3055 -1.2858 1.5978 -2.0506
# 4 9.4045 -25.6919 -1.2858 50.9798 -3.3443 12.9717
# 5 -1.6684 8.7616 1.5978 -3.3443 37.7445 -7.5800
# 6 12.4100 -2.2790 -2.0506 12.9717 -7.5800 16.3328
#
#
#
# Elastic Compliance Matrix: (Units=1/GPa)
#
#
# Indices 1 2 3 4 5 6 
#
# 1 0.021379 -0.008767 -0.002181 -0.004881 -0.000159 -0.013939
# 2 -0.008767 0.024285 0.000497 0.014522 -0.005563 -0.004004
# 3 -0.002181 0.000497 0.010431 0.000184 -0.000062 0.002862
# 4 -0.004881 0.014522 0.000184 0.033403 -0.005300 -0.023231
# 5 -0.000159 -0.005563 -0.000062 -0.005300 0.030904 0.017889
# 6 -0.013939 -0.004004 0.002862 -0.023231 0.017889 0.098371
#
#
# Mechanical properties :
#
#
# Convention : Reuss Voigt Hill
#
# Bulk Modulus (GPa) = 28.41469 32.41935 30.41702
# Shear Modulus (GPa) = 19.88817 34.24125 27.06471
#
# Velocity S-wave (km/s) = 2.77964 3.64726 3.24260
# Velocity P-wave (km/s) = 4.61961 5.50739 5.08292
#
# Compressibility (1/GPa) = 0.03519307
#
# Stress axis : x y z
#
# Youngs Moduli (GPa) = 46.77417 41.17717 95.87034
#
# Poissons Ratio (x) = 0.36098 0.20912
# Poissons Ratio (y) = 0.41005 -0.04761
# Poissons Ratio (z) = 0.10203 -0.02045
#
# Static dielectric constant tensor:
#      x y z
#    x 2.166300 -0.015530 0.009810 
#    y -0.015530 2.010550 0.038280 
#    z 0.009810 0.038280 2.052400 
# 
# From -- ./inp_files/35367.got.cif
#   From: 2010.05.17/outbox.cif.g08.bks.cpg/sg2_18_cif.got.tgz:35367.got - 2010.06.03 11:33:40.
