data_PCOD9022400
_publ_section_title
;
Structure prediction by ZEFSAII (Michael W. Deem and Ramdas Pophale) SiO2 
 PCOD9022400
Probable space group: P -1
;
_chemical_formula_sum "Si O2"
_cell_formula_units_Z 12
_cell_length_a 13.938152
_cell_length_b 8.390026
_cell_length_c 13.517846
_cell_angle_alpha 53.880879
_cell_angle_beta 148.750149
_cell_angle_gamma 104.449382
_cell_volume 526.390332
_symmetry_space_group_name_H-M "P -1"
_symmetry_group_IT_number 2
_symmetry_cell_setting 'triclinic'
loop_
_space_group_symop_operation_xyz
x,y,z
-x,-y,-z
loop_
_atom_site_type_symbol
_atom_site_label
_atom_site_fract_x
_atom_site_fract_y
_atom_site_fract_z
Si Si1 0.534610 0.396662 0.178125
Si Si2 0.764502 0.874887 0.311591
Si Si3 0.623444 0.919280 0.781134
Si Si4 0.976680 0.361797 0.622312
Si Si5 0.892289 0.169120 0.224261
Si Si6 0.785175 0.589538 0.847743
O O1 0.520738 0.173969 0.268575
O O2 0.778976 0.327340 0.451632
O O3 0.500000 0.500000 0.000000
O O4 0.316930 0.627297 0.961809
O O5 0.878558 0.588968 0.529766
O O6 0.860510 0.926994 0.474542
O O7 0.869204 0.948135 0.289905
O O8 0.500000 0.000000 0.000000
O O9 0.756770 0.744568 0.865408
O O10 0.454204 0.203974 0.494877
O O11 0.792751 0.865258 0.039627
O O12 0.000000 0.500000 0.500000
O O13 0.831368 0.334599 0.014629
O O14 0.000000 0.500000 0.000000
#
# Coordination Sequence:
#
# PCOD9022400 Si02
#       6
#     2   2   2   2   2   2
#     4  11  20  38  63  93 130 167 207 271 336 381
#     4  11  21  37  63  93 128 162 206 273 323 381
#     4  10  23  44  63  96 134 166 223 267 320 395
#     4  12  22  38  63  98 129 163 210 267 337 388
#     4  10  22  39  61  93 129 169 219 262 323 386
#     4  10  22  43  69  89 130 185 216 264 320 384
#
# _framework density 22.796773999999999
#
# number of rings (size 3 to 8) (size 9 to 14) (size 15 to 20)
#    0.000    1.333    6.667    0.000    0.000    5.333 
#    0.000    9.167    0.000   11.000    0.000    0.000 
#    0.000    0.000    0.000    0.000    0.000    0.000 
#
# Total GULP energy -66991.091729 kJ/mol
# GULP energy per Si atom -5582.590977 kJ/mol
# Density = 2.274489 g / cm^3
# Si number density = 22.796774 Si / 1000 Ang^3
#
#
#
# Elastic Constant Matrix: (Units=GPa)
#
#
# Indices 1 2 3 4 5 6 
#
# 1 130.6593 25.2014 49.3366 5.5049 -4.3788 17.0611
# 2 25.2014 89.0034 60.3439 23.3219 -6.4684 34.9220
# 3 49.3366 60.3439 193.9842 21.3194 -31.3201 16.5767
# 4 5.5049 23.3219 21.3194 48.9740 5.2610 -1.2831
# 5 -4.3788 -6.4684 -31.3201 5.2610 47.1130 -7.3059
# 6 17.0611 34.9220 16.5767 -1.2831 -7.3059 29.7870
#
#
#
# Elastic Compliance Matrix: (Units=1/GPa)
#
#
# Indices 1 2 3 4 5 6 
#
# 1 0.009033 0.001478 -0.002400 -0.000680 -0.001399 -0.005943
# 2 0.001478 0.033713 -0.006736 -0.013850 -0.004092 -0.038224
# 3 -0.002400 -0.006736 0.008273 -0.000541 0.005336 0.005953
# 4 -0.000680 -0.013850 -0.000541 0.028080 -0.002752 0.017463
# 5 -0.001399 -0.004092 0.005336 -0.002752 0.025757 0.008829
# 6 -0.005943 -0.038224 0.005953 0.017463 0.008829 0.081394
#
#
# Mechanical properties :
#
#
# Convention : Reuss Voigt Hill
#
# Bulk Modulus (GPa) = 28.00848 75.93454 51.97151
# Shear Modulus (GPa) = 23.42291 43.75915 33.59103
#
# Velocity S-wave (km/s) = 3.20889 4.38600 3.84278
# Velocity P-wave (km/s) = 5.10315 7.68316 6.52200
#
# Compressibility (1/GPa) = 0.03570348
#
# Stress axis : x y z
#
# Youngs Moduli (GPa) = 110.71039 29.66196 120.87355
#
# Poissons Ratio (x) = -0.04385 0.29015
# Poissons Ratio (y) = -0.16367 0.81415
# Poissons Ratio (z) = 0.26576 0.19979
#
# Static dielectric constant tensor:
#      x y z
#    x 1.933030 -0.191920 -0.025540 
#    y -0.191920 2.161040 0.111150 
#    z -0.025540 0.111150 1.943580 
# 
# From -- ./inp_files/354435.got.cif
#   From: 2010.05.17/outbox.cif.g08.bks.cpg/sg2_178_cif.got.tgz:354435.got - 2010.06.03 11:33:40.
