data_PCOD9022185
_publ_section_title
;
Structure prediction by ZEFSAII (Michael W. Deem and Ramdas Pophale) SiO2 
 PCOD9022185
Probable space group: P -1
;
_chemical_formula_sum "Si O2"
_cell_formula_units_Z 14
_cell_length_a 19.447110
_cell_length_b 9.587408
_cell_length_c 8.941078
_cell_angle_alpha 50.616748
_cell_angle_beta 155.188501
_cell_angle_gamma 129.903204
_cell_volume 529.533739
_symmetry_space_group_name_H-M "P -1"
_symmetry_group_IT_number 2
_symmetry_cell_setting 'triclinic'
loop_
_space_group_symop_operation_xyz
x,y,z
-x,-y,-z
loop_
_atom_site_type_symbol
_atom_site_label
_atom_site_fract_x
_atom_site_fract_y
_atom_site_fract_z
Si Si1 0.686026 0.859536 0.294981
Si Si2 0.339537 0.628076 0.186504
Si Si3 0.165980 0.862286 0.852860
Si Si4 0.672851 0.817740 0.842067
Si Si5 0.974343 0.699593 0.851637
Si Si6 0.415306 0.586671 0.044834
Si Si7 0.841030 0.004617 0.785250
O O1 0.801585 0.713332 0.579107
O O2 0.494541 0.747714 0.978003
O O3 0.793162 0.025663 0.295980
O O4 0.693300 0.946338 0.415844
O O5 0.496354 0.793639 0.423870
O O6 0.305246 0.623394 0.945086
O O7 0.417833 0.453732 0.509699
O O8 0.199264 0.665936 0.996473
O O9 0.005754 0.815130 0.678195
O O10 0.296979 0.002230 0.119881
O O11 0.660571 0.616968 0.030453
O O12 0.813197 0.854769 0.965322
O O13 0.000000 0.500000 0.000000
O O14 0.118932 0.801763 0.181311
O O15 0.000000 0.000000 0.000000
#
# Coordination Sequence:
#
# PCOD9022185 Si02
#       7
#     2   2   2   2   2   2   2
#     4  11  20  37  54  85 110 136 178 226 275 307
#     4   9  17  34  54  77 104 148 184 205 257 324
#     4  11  22  33  56  83 113 137 172 235 272 305
#     4   9  18  35  54  81 106 148 183 209 261 325
#     4  10  22  39  59  76 104 145 187 216 264 326
#     4   9  18  33  58  75 110 142 186 211 252 327
#     4   9  18  35  59  77 102 146 183 215 259 330
#
# _framework density 26.438354
#
# number of rings (size 3 to 8) (size 9 to 14) (size 15 to 20)
#    0.857    1.429    1.429    1.714    0.000    2.286 
#    0.000    2.143    0.000    0.000    0.000    0.000 
#    0.000    0.000    0.000    0.000    0.000    0.000 
#
# Total GULP energy -78037.113753 kJ/mol
# GULP energy per Si atom -5574.079554 kJ/mol
# Density = 2.637818 g / cm^3
# Si number density = 26.438354 Si / 1000 Ang^3
#
#
#
# Elastic Constant Matrix: (Units=GPa)
#
#
# Indices 1 2 3 4 5 6 
#
# 1 167.5695 49.8898 22.8415 7.9631 -1.3779 1.0077
# 2 49.8898 124.0860 11.4096 -0.8904 -1.9065 -5.4155
# 3 22.8415 11.4096 33.0200 10.0405 1.2518 -2.5916
# 4 7.9631 -0.8904 10.0405 28.6068 4.7322 0.3056
# 5 -1.3779 -1.9065 1.2518 4.7322 36.8002 -0.4758
# 6 1.0077 -5.4155 -2.5916 0.3056 -0.4758 56.5992
#
#
#
# Elastic Compliance Matrix: (Units=1/GPa)
#
#
# Indices 1 2 3 4 5 6 
#
# 1 0.007330 -0.002604 -0.003993 -0.000775 0.000368 -0.000555
# 2 -0.002604 0.009329 -0.001857 0.001616 0.000252 0.000847
# 3 -0.003993 -0.001857 0.037509 -0.012139 0.000061 0.001677
# 4 -0.000775 0.001616 -0.012139 0.040271 -0.004719 -0.000645
# 5 0.000368 0.000252 0.000061 -0.004719 0.027809 0.000280
# 6 -0.000555 0.000847 0.001677 -0.000645 0.000280 0.017842
#
#
# Mechanical properties :
#
#
# Convention : Reuss Voigt Hill
#
# Bulk Modulus (GPa) = 26.83763 54.77303 40.80533
# Shear Modulus (GPa) = 29.51284 40.43689 34.97486
#
# Velocity S-wave (km/s) = 3.34472 3.91510 3.64109
# Velocity P-wave (km/s) = 5.00891 6.41869 5.75712
#
# Compressibility (1/GPa) = 0.03726111
#
# Stress axis : x y z
#
# Youngs Moduli (GPa) = 136.41635 107.19073 26.66046
#
# Poissons Ratio (x) = 0.27916 0.10645
# Poissons Ratio (y) = 0.35527 0.04950
# Poissons Ratio (z) = 0.54468 0.19900
#
# Static dielectric constant tensor:
#      x y z
#    x 2.054310 0.015120 -0.028900 
#    y 0.015120 2.140140 -0.124920 
#    z -0.028900 -0.124920 2.291250 
# 
# From -- ./inp_files/182845.got.cif
#   From: 2010.05.17/outbox.cif.g08.bks.cpg/sg2_92_cif.got.tgz:182845.got - 2010.06.03 11:33:40.
