data_PCOD9022396
_publ_section_title
;
Structure prediction by ZEFSAII (Michael W. Deem and Ramdas Pophale) SiO2 
 PCOD9022396
Probable space group: P -1
;
_chemical_formula_sum "Si O2"
_cell_formula_units_Z 16
_cell_length_a 25.069863
_cell_length_b 9.417674
_cell_length_c 8.252610
_cell_angle_alpha 51.144410
_cell_angle_beta 133.098823
_cell_angle_gamma 152.176594
_cell_volume 662.518308
_symmetry_space_group_name_H-M "P -1"
_symmetry_group_IT_number 2
_symmetry_cell_setting 'triclinic'
loop_
_space_group_symop_operation_xyz
x,y,z
-x,-y,-z
loop_
_atom_site_type_symbol
_atom_site_label
_atom_site_fract_x
_atom_site_fract_y
_atom_site_fract_z
Si Si1 0.579583 0.803987 0.542992
Si Si2 0.944313 0.247565 0.190036
Si Si3 0.133617 0.836027 0.592744
Si Si4 0.242527 0.377186 0.924898
Si Si5 0.647105 0.126420 0.755346
Si Si6 0.141014 0.228656 0.163114
Si Si7 0.441201 0.827958 0.760411
Si Si8 0.198912 0.710613 0.552639
O O1 0.500000 0.500000 0.500000
O O2 0.531789 0.910133 0.314560
O O3 0.596198 0.858465 0.732156
O O4 0.717257 0.053398 0.587946
O O5 0.854728 0.164646 0.191871
O O6 0.060564 0.417875 0.413853
O O7 0.873363 0.945249 0.172061
O O8 0.000000 0.500000 0.000000
O O9 0.217718 0.883152 0.618551
O O10 0.000000 0.500000 0.500000
O O11 0.141730 0.066269 0.408669
O O12 0.238038 0.585884 0.761460
O O13 0.215771 0.290055 0.121815
O O14 0.357559 0.564543 0.910467
O O15 0.786268 0.445344 0.864041
O O16 0.563377 0.975685 0.848399
O O17 0.625093 0.253607 0.490916
O O18 0.000000 0.000000 0.000000
#
# Coordination Sequence:
#
# PCOD9022396 Si02
#       8
#     2   2   2   2   2   2   2   2
#     4   9  19  35  64  93 117 166 222 274 324 381
#     4  11  23  40  62  94 131 171 220 269 331 393
#     4  10  22  41  58  90 128 175 215 264 327 395
#     4  11  22  38  64  97 130 177 215 273 323 399
#     4   9  20  40  62  94 125 170 224 267 326 394
#     4  12  25  38  67  97 136 178 218 270 334 395
#     4   8  19  39  63  92 124 167 230 270 321 387
#     4  10  22  39  61  92 133 167 216 269 331 393
#
# _framework density 24.150276000000002
#
# number of rings (size 3 to 8) (size 9 to 14) (size 15 to 20)
#    0.750    1.250    0.000    4.125    3.500    1.500 
#    0.000    0.000    0.000    3.000    0.000    0.000 
#    0.000    0.000    0.000    0.000    0.000    0.000 
#
# Total GULP energy -89277.746463 kJ/mol
# GULP energy per Si atom -5579.859154 kJ/mol
# Density = 2.409531 g / cm^3
# Si number density = 24.150276 Si / 1000 Ang^3
#
#
#
# Elastic Constant Matrix: (Units=GPa)
#
#
# Indices 1 2 3 4 5 6 
#
# 1 146.2279 60.0995 37.1441 -12.8051 -25.4984 -3.7815
# 2 60.0995 158.3168 22.9664 5.0497 -5.1668 -11.2438
# 3 37.1441 22.9664 51.0780 -4.4231 -22.4149 5.1557
# 4 -12.8051 5.0497 -4.4231 28.7212 2.3199 -3.6196
# 5 -25.4984 -5.1668 -22.4149 2.3199 32.8052 -7.2932
# 6 -3.7815 -11.2438 5.1557 -3.6196 -7.2932 41.0591
#
#
#
# Elastic Compliance Matrix: (Units=1/GPa)
#
#
# Indices 1 2 3 4 5 6 
#
# 1 0.010466 -0.003287 -0.003637 0.004494 0.005224 0.001845
# 2 -0.003287 0.008089 -0.002822 -0.002914 -0.002661 0.001537
# 3 -0.003637 -0.002822 0.031676 0.002094 0.017839 -0.001732
# 4 0.004494 -0.002914 0.002094 0.037850 0.002484 0.003131
# 5 0.005224 -0.002661 0.017839 0.002484 0.047509 0.006170
# 6 0.001845 0.001537 -0.001732 0.003131 0.006170 0.026535
#
#
# Mechanical properties :
#
#
# Convention : Reuss Voigt Hill
#
# Bulk Modulus (GPa) = 32.53289 66.22695 49.37992
# Shear Modulus (GPa) = 26.06009 36.21128 31.13568
#
# Velocity S-wave (km/s) = 3.28850 3.87643 3.59450
# Velocity P-wave (km/s) = 5.28387 6.89333 6.14155
#
# Compressibility (1/GPa) = 0.03073812
#
# Stress axis : x y z
#
# Youngs Moduli (GPa) = 95.54948 123.62556 31.56940
#
# Poissons Ratio (x) = 0.40638 0.11482
# Poissons Ratio (y) = 0.31409 0.08909
# Poissons Ratio (z) = 0.34753 0.34887
#
# Static dielectric constant tensor:
#      x y z
#    x 2.031450 0.044310 0.003440 
#    y 0.044310 1.900650 0.022900 
#    z 0.003440 0.022900 1.985120 
# 
# From -- ./inp_files/356359.got.cif
#   From: 2010.05.17/outbox.cif.g08.bks.cpg/sg2_179_cif.got.tgz:356359.got - 2010.06.03 11:33:40.
