data_PCOD9022724
_publ_section_title
;
Structure prediction by ZEFSAII (Michael W. Deem and Ramdas Pophale) SiO2 
 PCOD9022724
Probable space group: P -1
;
_chemical_formula_sum "Si O2"
_cell_formula_units_Z 16
_cell_length_a 17.212941
_cell_length_b 5.201387
_cell_length_c 8.785980
_cell_angle_alpha 92.824078
_cell_angle_beta 65.272606
_cell_angle_gamma 88.830439
_cell_volume 712.894969
_symmetry_space_group_name_H-M "P -1"
_symmetry_group_IT_number 2
_symmetry_cell_setting 'triclinic'
loop_
_space_group_symop_operation_xyz
x,y,z
-x,-y,-z
loop_
_atom_site_type_symbol
_atom_site_label
_atom_site_fract_x
_atom_site_fract_y
_atom_site_fract_z
Si Si1 0.519417 0.029516 0.750283
Si Si2 0.051294 0.250584 0.513559
Si Si3 0.201708 0.109817 0.169390
Si Si4 0.167705 0.883807 0.909356
Si Si5 0.703174 0.495912 0.105148
Si Si6 0.379102 0.794542 0.073689
Si Si7 0.915377 0.607359 0.161793
Si Si8 0.573597 0.706042 0.444183
O O1 0.581571 0.816629 0.609935
O O2 0.578435 0.226690 0.795595
O O3 0.462828 0.111310 0.654959
O O4 0.450009 0.931135 0.920475
O O5 0.144084 0.221856 0.355516
O O6 0.062964 0.307364 0.683869
O O7 0.000000 0.500000 0.500000
O O8 0.000000 0.000000 0.500000
O O9 0.287650 0.956127 0.155476
O O10 0.228911 0.331396 0.032958
O O11 0.140963 0.929487 0.110405
O O12 0.264978 0.789786 0.870876
O O13 0.141176 0.640088 0.825645
O O14 0.132257 0.138776 0.862994
O O15 0.662585 0.613921 0.293420
O O16 0.636403 0.457458 0.021230
O O17 0.000000 0.500000 0.000000
O O18 0.500000 0.500000 0.500000
#
# Coordination Sequence:
#
# PCOD9022724 Si02
#       8
#     2   2   2   2   2   2   2   2
#     4  10  22  39  63  98 134 178 238 288 348 410
#     4  12  28  48  74 105 141 181 230 287 351 423
#     4  11  24  46  70  98 141 183 234 285 360 417
#     4  11  24  44  71 101 139 181 229 280 347 415
#     4  11  23  42  69  96 138 188 230 287 353 409
#     4  10  22  40  65  94 136 182 228 291 348 420
#     4  12  24  46  74 105 137 179 227 282 349 421
#     4  11  22  40  62  93 130 180 231 287 340 408
#
# _framework density 22.443695000000002
#
# number of rings (size 3 to 8) (size 9 to 14) (size 15 to 20)
#    0.000    1.000    3.750    2.625    3.500    2.500 
#    2.250    0.000    0.000    0.000    0.000    0.000 
#    0.000    0.000    0.000    0.000    0.000    0.000 
#
# Total GULP energy -89112.280124 kJ/mol
# GULP energy per Si atom -5569.517508 kJ/mol
# Density = 2.239261 g / cm^3
# Si number density = 22.443695 Si / 1000 Ang^3
#
#
#
# Elastic Constant Matrix: (Units=GPa)
#
#
# Indices 1 2 3 4 5 6 
#
# 1 95.0273 25.1742 53.2239 15.5536 21.0082 7.7929
# 2 25.1742 89.6265 18.6796 16.9634 -0.4794 -4.1331
# 3 53.2239 18.6796 130.8995 22.0528 -12.2453 -6.8753
# 4 15.5536 16.9634 22.0528 26.6388 6.1613 0.4736
# 5 21.0082 -0.4794 -12.2453 6.1613 41.2278 6.5181
# 6 7.7929 -4.1331 -6.8753 0.4736 6.5181 41.7524
#
#
#
# Elastic Compliance Matrix: (Units=1/GPa)
#
#
# Indices 1 2 3 4 5 6 
#
# 1 0.019297 -0.004099 -0.008849 0.001549 -0.012174 -0.003582
# 2 -0.004099 0.013700 0.001597 -0.008542 0.003698 0.001904
# 3 -0.008849 0.001597 0.013625 -0.009387 0.009556 0.002668
# 4 0.001549 -0.008542 -0.009387 0.052481 -0.011280 -0.001515
# 5 -0.012174 0.003698 0.009556 -0.011280 0.035209 -0.001157
# 6 -0.003582 0.001904 0.002668 -0.001515 -0.001157 0.025445
#
#
# Mechanical properties :
#
#
# Convention : Reuss Voigt Hill
#
# Bulk Modulus (GPa) = 41.80749 56.63431 49.22090
# Shear Modulus (GPa) = 26.25570 36.48884 31.37227
#
# Velocity S-wave (km/s) = 3.42401 4.03649 3.74280
# Velocity P-wave (km/s) = 5.85662 6.85661 6.37625
#
# Compressibility (1/GPa) = 0.02391916
#
# Stress axis : x y z
#
# Youngs Moduli (GPa) = 51.82049 72.99115 73.39323
#
# Poissons Ratio (x) = 0.29921 0.64948
# Poissons Ratio (y) = 0.21243 -0.11719
# Poissons Ratio (z) = 0.45857 -0.11654
#
# Static dielectric constant tensor:
#      x y z
#    x 1.931080 -0.018630 -0.087510 
#    y -0.018630 1.997330 0.105440 
#    z -0.087510 0.105440 1.740350 
# 
# From -- ./inp_files/322721.got.cif
#   From: 2010.05.17/outbox.cif.g08.bks.cpg/sg2_162_cif.got.tgz:322721.got - 2010.06.03 11:33:40.
