data_PCOD9022018
_publ_section_title
;
Structure prediction by ZEFSAII (Michael W. Deem and Ramdas Pophale) SiO2 
 PCOD9022018
Probable space group: P -1
;
_chemical_formula_sum "Si O2"
_cell_formula_units_Z 15
_cell_length_a 8.968048
_cell_length_b 11.381718
_cell_length_c 8.781460
_cell_angle_alpha 93.509075
_cell_angle_beta 79.844226
_cell_angle_gamma 129.687307
_cell_volume 677.398053
_symmetry_space_group_name_H-M "P -1"
_symmetry_group_IT_number 2
_symmetry_cell_setting 'triclinic'
loop_
_space_group_symop_operation_xyz
x,y,z
-x,-y,-z
loop_
_atom_site_type_symbol
_atom_site_label
_atom_site_fract_x
_atom_site_fract_y
_atom_site_fract_z
Si Si1 0.523344 0.068762 0.331749
Si Si2 0.714311 0.404212 0.251822
Si Si3 0.099978 0.547830 0.318740
Si Si4 0.500000 0.500000 0.500000
Si Si5 0.571148 0.667200 0.961723
Si Si6 0.825623 0.000529 0.488635
Si Si7 0.855380 0.695215 0.696040
Si Si8 0.551360 0.833374 0.249410
O O1 0.669424 0.250009 0.306717
O O2 0.306558 0.019367 0.349366
O O3 0.500000 0.000000 0.500000
O O4 0.582369 0.985960 0.214221
O O5 0.612277 0.449888 0.380693
O O6 0.603669 0.361998 0.108102
O O7 0.948815 0.536611 0.231515
O O8 0.127963 0.427218 0.251473
O O9 0.317594 0.707603 0.306597
O O10 0.000000 0.500000 0.500000
O O11 0.692225 0.607775 0.586820
O O12 0.769487 0.746205 0.835129
O O13 0.500000 0.500000 0.000000
O O14 0.606844 0.765141 0.109159
O O15 0.675554 0.867803 0.383059
O O16 0.000000 0.000000 0.500000
O O17 0.937105 0.162331 0.398262
#
# Coordination Sequence:
#
# PCOD9022018 Si02
#       8
#     2   2   2   1   2   2   2   2
#     4  10  22  42  66  99 137 166 217 287 345 396
#     4  11  24  41  71 102 134 180 226 274 346 404
#     4  12  21  39  69 101 127 172 226 284 343 391
#     4  10  22  38  68  96 132 164 228 280 336 382
#     4  11  25  47  66  95 138 183 229 280 328 411
#     4  11  23  40  67 101 131 168 226 286 348 403
#     4  11  23  39  68  96 133 175 226 281 339 399
#     4  11  25  44  65  92 144 178 218 285 340 398
#
# _framework density 22.143554000000002
#
# number of rings (size 3 to 8) (size 9 to 14) (size 15 to 20)
#    0.000    1.067    2.667    5.600    1.867    1.600 
#    0.000    0.000    0.000    0.000    0.000    0.000 
#    0.000    0.000    0.000    0.000    0.000    0.000 
#
# Total GULP energy -83607.162837 kJ/mol
# GULP energy per Si atom -5573.810856 kJ/mol
# Density = 2.209315 g / cm^3
# Si number density = 22.143554 Si / 1000 Ang^3
#
#
#
# Elastic Constant Matrix: (Units=GPa)
#
#
# Indices 1 2 3 4 5 6 
#
# 1 130.1493 31.4832 18.6521 22.8389 8.4099 18.9093
# 2 31.4832 65.2045 19.8305 13.1429 1.0097 6.8214
# 3 18.6521 19.8305 64.1157 28.5166 -11.7451 -5.0107
# 4 22.8389 13.1429 28.5166 31.2993 -7.8699 -6.8878
# 5 8.4099 1.0097 -11.7451 -7.8699 33.1893 2.0958
# 6 18.9093 6.8214 -5.0107 -6.8878 2.0958 42.0630
#
#
#
# Elastic Compliance Matrix: (Units=1/GPa)
#
#
# Indices 1 2 3 4 5 6 
#
# 1 0.011197 -0.002943 0.000899 -0.010174 -0.004470 -0.005892
# 2 -0.002943 0.018955 -0.004208 -0.003033 -0.001871 -0.002656
# 3 0.000899 -0.004208 0.027663 -0.023121 0.004234 -0.000423
# 4 -0.010174 -0.003033 -0.023121 0.066929 0.009550 0.012795
# 5 -0.004470 -0.001871 0.004234 0.009550 0.034916 0.002642
# 6 -0.005892 -0.002656 -0.000423 0.012795 0.002642 0.028767
#
#
# Mechanical properties :
#
#
# Convention : Reuss Voigt Hill
#
# Bulk Modulus (GPa) = 22.07018 44.37789 33.22404
# Shear Modulus (GPa) = 23.14439 33.94390 28.54415
#
# Velocity S-wave (km/s) = 3.23646 3.91948 3.59423
# Velocity P-wave (km/s) = 4.89436 6.36927 5.67989
#
# Compressibility (1/GPa) = 0.04531000
#
# Stress axis : x y z
#
# Youngs Moduli (GPa) = 89.31026 52.75551 36.14970
#
# Poissons Ratio (x) = 0.15527 -0.03249
# Poissons Ratio (y) = 0.26286 0.15211
# Poissons Ratio (z) = -0.08026 0.22199
#
# Static dielectric constant tensor:
#      x y z
#    x 1.868420 -0.026140 0.008070 
#    y -0.026140 1.867150 -0.032640 
#    z 0.008070 -0.032640 1.856020 
# 
# From -- ./inp_files/180253.got.cif
#   From: 2010.05.17/outbox.cif.g08.bks.cpg/sg2_91_cif.got.tgz:180253.got - 2010.06.03 11:33:40.
