data_PCOD9022338
_publ_section_title
;
Structure prediction by ZEFSAII (Michael W. Deem and Ramdas Pophale) SiO2 
 PCOD9022338
Probable space group: P -1
;
_chemical_formula_sum "Si O2"
_cell_formula_units_Z 14
_cell_length_a 8.277611
_cell_length_b 5.118790
_cell_length_c 14.865016
_cell_angle_alpha 110.607486
_cell_angle_beta 65.332101
_cell_angle_gamma 100.259695
_cell_volume 535.387075
_symmetry_space_group_name_H-M "P -1"
_symmetry_group_IT_number 2
_symmetry_cell_setting 'triclinic'
loop_
_space_group_symop_operation_xyz
x,y,z
-x,-y,-z
loop_
_atom_site_type_symbol
_atom_site_label
_atom_site_fract_x
_atom_site_fract_y
_atom_site_fract_z
Si Si1 0.910167 0.700852 0.974056
Si Si2 0.700122 0.815948 0.345174
Si Si3 0.759934 0.830083 0.854265
Si Si4 0.362524 0.649471 0.934048
Si Si5 0.752336 0.847856 0.654213
Si Si6 0.734066 0.224344 0.545814
Si Si7 0.321838 0.795344 0.756915
O O1 0.705995 0.648631 0.047774
O O2 0.895942 0.669636 0.866419
O O3 0.000000 0.500000 0.000000
O O4 0.000000 0.000000 0.000000
O O5 0.774246 0.028573 0.428684
O O6 0.751428 0.946438 0.251282
O O7 0.482946 0.800562 0.399652
O O8 0.740239 0.494250 0.311459
O O9 0.573556 0.654957 0.876813
O O10 0.817460 0.877647 0.744788
O O11 0.707888 0.118974 0.951490
O O12 0.292905 0.722688 0.859702
O O13 0.791771 0.547473 0.566519
O O14 0.535935 0.841316 0.708106
O O15 0.807468 0.094581 0.604493
#
# Coordination Sequence:
#
# PCOD9022338 Si02
#       7
#     2   2   2   2   2   2   2
#     4  12  25  42  59  82 118 158 198 242 291 340
#     4   9  16  27  43  68 106 146 179 221 279 336
#     4  10  22  39  61  87 119 158 197 237 287 346
#     4  10  22  39  61  87 119 158 197 237 287 346
#     4   9  18  29  47  74 105 144 187 224 272 339
#     4   9  16  27  43  68 106 146 179 221 279 336
#     4   9  18  29  47  74 105 144 187 224 272 339
#
# _framework density 26.149307
#
# number of rings (size 3 to 8) (size 9 to 14) (size 15 to 20)
#    0.000    2.286    1.429    1.286    4.000    3.429 
#    0.000    0.000    0.000    0.000    0.000    0.000 
#    0.000   22.857    0.000    0.000    0.000    0.000 
#
# Total GULP energy -78340.524629 kJ/mol
# GULP energy per Si atom -5595.751759 kJ/mol
# Density = 2.608979 g / cm^3
# Si number density = 26.149307 Si / 1000 Ang^3
#
#
#
# Elastic Constant Matrix: (Units=GPa)
#
#
# Indices 1 2 3 4 5 6 
#
# 1 77.5208 3.2962 16.7926 -8.7839 10.0386 -17.2854
# 2 3.2962 101.2009 -20.1288 -15.2452 -5.2187 -11.6104
# 3 16.7926 -20.1288 71.2421 -3.1163 14.3801 -2.8314
# 4 -8.7839 -15.2452 -3.1163 32.1386 -1.9549 4.8542
# 5 10.0386 -5.2187 14.3801 -1.9549 38.1135 -15.7993
# 6 -17.2854 -11.6104 -2.8314 4.8542 -15.7993 26.0058
#
#
#
# Elastic Compliance Matrix: (Units=1/GPa)
#
#
# Indices 1 2 3 4 5 6 
#
# 1 0.016218 0.000603 -0.003477 0.002788 0.001969 0.011347
# 2 0.000603 0.012357 0.003128 0.005422 0.003750 0.007525
# 3 -0.003477 0.003128 0.016986 0.002300 -0.006332 -0.003341
# 4 0.002788 0.005422 0.002300 0.034970 0.000138 -0.001920
# 5 0.001969 0.003750 -0.006332 0.000138 0.039522 0.026279
# 6 0.011347 0.007525 -0.003341 -0.001920 0.026279 0.065314
#
#
# Mechanical properties :
#
#
# Convention : Reuss Voigt Hill
#
# Bulk Modulus (GPa) = 21.70535 27.76487 24.73511
# Shear Modulus (GPa) = 24.97320 35.91852 30.44586
#
# Velocity S-wave (km/s) = 3.09370 3.71022 3.41590
# Velocity P-wave (km/s) = 4.59128 5.38472 5.00375
#
# Compressibility (1/GPa) = 0.04607158
#
# Stress axis : x y z
#
# Youngs Moduli (GPa) = 61.65905 80.92338 58.87217
#
# Poissons Ratio (x) = -0.04884 0.20469
# Poissons Ratio (y) = -0.03721 -0.18418
# Poissons Ratio (z) = 0.21438 -0.25316
#
# Static dielectric constant tensor:
#      x y z
#    x 2.159220 0.016610 -0.058310 
#    y 0.016610 2.005250 0.061110 
#    z -0.058310 0.061110 2.120570 
# 
# From -- ./inp_files/487907.got.cif
#   From: 2010.05.17/outbox.cif.g08.bks.cpg/sg2_244_cif.got.tgz:487907.got - 2010.06.03 11:33:40.
