data_PCOD9022208
_publ_section_title
;
Structure prediction by ZEFSAII (Michael W. Deem and Ramdas Pophale) SiO2 
 PCOD9022208
Probable space group: P -1
;
_chemical_formula_sum "Si O2"
_cell_formula_units_Z 12
_cell_length_a 7.783116
_cell_length_b 9.257369
_cell_length_c 11.557483
_cell_angle_alpha 72.770719
_cell_angle_beta 49.824914
_cell_angle_gamma 108.869774
_cell_volume 430.998505
_symmetry_space_group_name_H-M "P -1"
_symmetry_group_IT_number 2
_symmetry_cell_setting 'triclinic'
loop_
_space_group_symop_operation_xyz
x,y,z
-x,-y,-z
loop_
_atom_site_type_symbol
_atom_site_label
_atom_site_fract_x
_atom_site_fract_y
_atom_site_fract_z
Si Si1 0.844428 0.837244 0.713072
Si Si2 0.332716 0.358872 0.791566
Si Si3 0.747004 0.456684 0.794615
Si Si4 0.403036 0.204075 0.517392
Si Si5 0.787009 0.168772 0.921719
Si Si6 0.305720 0.886695 0.773511
O O1 0.913449 0.696116 0.681105
O O2 0.498719 0.664484 0.961732
O O3 0.000000 0.000000 0.500000
O O4 0.038769 0.003055 0.693135
O O5 0.569763 0.373695 0.765356
O O6 0.511418 0.584910 0.602243
O O7 0.072756 0.196054 0.840481
O O8 0.077962 0.297383 0.011841
O O9 0.941617 0.395123 0.747971
O O10 0.584328 0.185064 0.347909
O O11 0.438441 0.117194 0.636019
O O12 0.608349 0.112957 0.133906
O O13 0.500000 0.000000 0.000000
#
# Coordination Sequence:
#
# PCOD9022208 Si02
#       6
#     2   2   2   2   2   2
#     4  11  21  33  58  99 127 151 195 249 318 370
#     4  10  22  39  59  90 122 156 200 249 307 353
#     4  11  23  38  60  92 124 157 201 251 302 365
#     4  11  19  35  63  94 127 154 189 257 318 361
#     4  10  24  44  63  83 121 173 209 242 292 358
#     4   9  22  35  61  89 124 160 196 248 307 361
#
# _framework density 27.842326
#
# number of rings (size 3 to 8) (size 9 to 14) (size 15 to 20)
#    1.000    0.667    3.333    1.500    7.000    0.667 
#    0.000    0.833    0.000    2.000    0.000    0.000 
#    0.000    0.000    0.000    0.000    0.000    0.000 
#
# Total GULP energy -66935.078836 kJ/mol
# GULP energy per Si atom -5577.923236 kJ/mol
# Density = 2.777896 g / cm^3
# Si number density = 27.842326 Si / 1000 Ang^3
#
#
#
# Elastic Constant Matrix: (Units=GPa)
#
#
# Indices 1 2 3 4 5 6 
#
# 1 173.9510 46.9500 42.6731 7.3072 53.6729 13.9209
# 2 46.9500 95.7791 28.0714 0.1210 25.8153 21.8278
# 3 42.6731 28.0714 161.1256 -17.5084 52.0385 -9.4501
# 4 7.3072 0.1210 -17.5084 24.8937 4.4782 0.2290
# 5 53.6729 25.8153 52.0385 4.4782 61.8398 7.3279
# 6 13.9209 21.8278 -9.4501 0.2290 7.3279 45.2050
#
#
#
# Elastic Compliance Matrix: (Units=1/GPa)
#
#
# Indices 1 2 3 4 5 6 
#
# 1 0.008365 -0.002346 0.000004 -0.001333 -0.006136 -0.000441
# 2 -0.002346 0.013899 -0.001641 -0.000180 -0.001654 -0.006063
# 3 0.000004 -0.001641 0.010930 0.009405 -0.009743 0.004608
# 4 -0.001333 -0.000180 0.009405 0.049066 -0.010703 0.003950
# 5 -0.006136 -0.001654 -0.009743 -0.010703 0.031686 -0.004431
# 6 -0.000441 -0.006063 0.004608 0.003950 -0.004431 0.026847
#
#
# Mechanical properties :
#
#
# Convention : Reuss Voigt Hill
#
# Bulk Modulus (GPa) = 39.63726 74.02720 56.83223
# Shear Modulus (GPa) = 31.81273 47.26514 39.53894
#
# Velocity S-wave (km/s) = 3.38391 4.12466 3.77251
# Velocity P-wave (km/s) = 5.43461 7.02350 6.27951
#
# Compressibility (1/GPa) = 0.02522878
#
# Stress axis : x y z
#
# Youngs Moduli (GPa) = 119.53882 71.94570 91.48997
#
# Poissons Ratio (x) = 0.16877 -0.00038
# Poissons Ratio (y) = 0.28042 0.15018
# Poissons Ratio (z) = -0.00050 0.11809
#
# Static dielectric constant tensor:
#      x y z
#    x 2.518470 -0.035500 -0.003580 
#    y -0.035500 2.281540 0.049100 
#    z -0.003580 0.049100 2.174760 
# 
# From -- ./inp_files/389391.got.cif
#   From: 2010.05.17/outbox.cif.g08.bks.cpg/sg2_195_cif.got.tgz:389391.got - 2010.06.03 11:33:40.
