data_PCOD9022604
_publ_section_title
;
Structure prediction by ZEFSAII (Michael W. Deem and Ramdas Pophale) SiO2 
 PCOD9022604
Probable space group: P -1
;
_chemical_formula_sum "Si O2"
_cell_formula_units_Z 16
_cell_length_a 5.881378
_cell_length_b 28.935964
_cell_length_c 8.921130
_cell_angle_alpha 146.592821
_cell_angle_beta 104.527368
_cell_angle_gamma 89.565891
_cell_volume 748.931013
_symmetry_space_group_name_H-M "P -1"
_symmetry_group_IT_number 2
_symmetry_cell_setting 'triclinic'
loop_
_space_group_symop_operation_xyz
x,y,z
-x,-y,-z
loop_
_atom_site_type_symbol
_atom_site_label
_atom_site_fract_x
_atom_site_fract_y
_atom_site_fract_z
Si Si1 0.710199 0.372181 0.585907
Si Si2 0.234623 0.425213 0.305713
Si Si3 0.192460 0.263694 0.032377
Si Si4 0.356129 0.107846 0.584174
Si Si5 0.141237 0.780593 0.875477
Si Si6 0.294791 0.047327 0.107435
Si Si7 0.091573 0.513528 0.803079
Si Si8 0.982678 0.937561 0.181663
O O1 0.443502 0.314544 0.310602
O O2 0.849403 0.301551 0.444191
O O3 0.872694 0.446246 0.691737
O O4 0.700882 0.422439 0.874219
O O5 0.500000 0.500000 0.500000
O O6 0.224145 0.324192 0.054176
O O7 0.187005 0.457316 0.550053
O O8 0.025516 0.430129 0.168878
O O9 0.962902 0.260304 0.089895
O O10 0.168501 0.161200 0.722070
O O11 0.424929 0.122176 0.459426
O O12 0.235853 0.001253 0.308671
O O13 0.578392 0.149581 0.852179
O O14 0.986346 0.840017 0.955421
O O15 0.242443 0.072081 0.997490
O O16 0.500000 0.000000 0.000000
O O17 0.000000 0.000000 0.000000
O O18 0.000000 0.000000 0.500000
#
# Coordination Sequence:
#
# PCOD9022604 Si02
#       8
#     2   2   2   2   2   2   2   2
#     4  10  22  40  60  93 125 162 208 268 322 390
#     4  11  22  39  64  87 120 164 211 260 319 398
#     4  11  22  39  62  93 124 163 211 262 324 379
#     4  10  23  40  65  90 130 171 210 264 327 387
#     4  11  22  39  64  92 130 164 213 267 321 387
#     4  10  23  42  65  95 129 170 222 269 325 387
#     4  10  22  39  63  90 122 162 210 262 329 387
#     4  11  21  40  68  95 123 172 219 260 322 388
#
# _framework density 21.363785
#
# number of rings (size 3 to 8) (size 9 to 14) (size 15 to 20)
#    0.000    1.500    3.750    1.125    1.750    3.500 
#    0.000    1.250    0.000    0.000    0.000    0.000 
#    0.000    0.000    0.000    0.000    0.000    0.000 
#
# Total GULP energy -89185.549742 kJ/mol
# GULP energy per Si atom -5574.096859 kJ/mol
# Density = 2.131516 g / cm^3
# Si number density = 21.363785 Si / 1000 Ang^3
#
#
#
# Elastic Constant Matrix: (Units=GPa)
#
#
# Indices 1 2 3 4 5 6 
#
# 1 39.4226 11.4670 -8.7397 3.2874 -9.2229 -7.0426
# 2 11.4670 113.1086 29.7589 3.6391 -9.7537 -17.1453
# 3 -8.7397 29.7589 54.9106 -10.9005 -11.5716 -5.3529
# 4 3.2874 3.6391 -10.9005 43.1818 7.2243 -2.7524
# 5 -9.2229 -9.7537 -11.5716 7.2243 20.6695 4.6068
# 6 -7.0426 -17.1453 -5.3529 -2.7524 4.6068 33.1653
#
#
#
# Elastic Compliance Matrix: (Units=1/GPa)
#
#
# Indices 1 2 3 4 5 6 
#
# 1 0.034966 -0.004270 0.012082 -0.002376 0.020255 0.004157
# 2 -0.004270 0.011794 -0.007224 -0.002159 -0.000502 0.003915
# 3 0.012082 -0.007224 0.028434 0.004278 0.016061 0.001544
# 4 -0.002376 -0.002159 0.004278 0.026348 -0.009466 0.002571
# 5 0.020255 -0.000502 0.016061 -0.009466 0.070356 -0.003925
# 6 0.004157 0.003915 0.001544 0.002571 -0.003925 0.034066
#
#
# Mechanical properties :
#
#
# Convention : Reuss Voigt Hill
#
# Bulk Modulus (GPa) = 13.09452 30.26825 21.68139
# Shear Modulus (GPa) = 21.71574 31.06701 26.39137
#
# Velocity S-wave (km/s) = 3.19168 3.81752 3.51854
# Velocity P-wave (km/s) = 4.44129 5.79914 5.16503
#
# Compressibility (1/GPa) = 0.07636781
#
# Stress axis : x y z
#
# Youngs Moduli (GPa) = 28.59921 84.78640 35.16910
#
# Poissons Ratio (x) = 0.36207 -0.42490
# Poissons Ratio (y) = 0.12213 0.25408
# Poissons Ratio (z) = -0.34552 0.61254
#
# Static dielectric constant tensor:
#      x y z
#    x 1.836200 0.011970 -0.003690 
#    y 0.011970 1.812020 -0.007430 
#    z -0.003690 -0.007430 1.800780 
# 
# From -- ./inp_files/43622.got.cif
#   From: 2010.05.17/outbox.cif.g08.bks.cpg/sg2_22_cif.got.tgz:43622.got - 2010.06.03 11:33:40.
