data_PCOD9022299
_publ_section_title
;
Structure prediction by ZEFSAII (Michael W. Deem and Ramdas Pophale) SiO2 
 PCOD9022299
Probable space group: P -1
;
_chemical_formula_sum "Si O2"
_cell_formula_units_Z 14
_cell_length_a 14.044101
_cell_length_b 15.618925
_cell_length_c 5.494406
_cell_angle_alpha 78.505411
_cell_angle_beta 109.908366
_cell_angle_gamma 144.422827
_cell_volume 652.609652
_symmetry_space_group_name_H-M "P -1"
_symmetry_group_IT_number 2
_symmetry_cell_setting 'triclinic'
loop_
_space_group_symop_operation_xyz
x,y,z
-x,-y,-z
loop_
_atom_site_type_symbol
_atom_site_label
_atom_site_fract_x
_atom_site_fract_y
_atom_site_fract_z
Si Si1 0.577566 0.823019 0.053936
Si Si2 0.510478 0.584849 0.145867
Si Si3 0.103044 0.675813 0.250312
Si Si4 0.782599 0.718189 0.681739
Si Si5 0.863695 0.952303 0.591017
Si Si6 0.773085 0.320799 0.143178
Si Si7 0.896325 0.119349 0.898166
O O1 0.506488 0.679299 0.987678
O O2 0.700702 0.882140 0.353100
O O3 0.415559 0.770121 0.998937
O O4 0.704620 0.959097 0.900725
O O5 0.688475 0.689021 0.378905
O O6 0.346286 0.448000 0.249272
O O7 0.500000 0.500000 0.000000
O O8 0.203300 0.710169 0.557140
O O9 0.087590 0.768622 0.213810
O O10 0.917899 0.498264 0.177421
O O11 0.188876 0.711885 0.043456
O O12 0.799450 0.824832 0.772037
O O13 0.971037 0.808762 0.808114
O O14 0.944128 0.085882 0.743800
O O15 0.000000 0.000000 0.500000
#
# Coordination Sequence:
#
# PCOD9022299 Si02
#       7
#     2   2   2   2   2   2   2
#     4  11  25  41  66  99 135 179 225 281 353 405
#     4  10  22  40  62  93 128 176 219 280 322 406
#     4  10  25  48  77  97 139 176 238 291 355 409
#     4  10  22  39  60  92 130 171 226 263 334 401
#     4  11  24  41  62  97 142 181 222 277 339 417
#     4  10  24  51  70 104 133 181 229 301 347 413
#     4  12  25  40  68  99 130 188 220 288 343 419
#
# _framework density 21.452335000000001
#
# number of rings (size 3 to 8) (size 9 to 14) (size 15 to 20)
#    0.000    1.429    1.429    2.143    8.000    1.143 
#    7.714    0.000    0.000    0.000    0.000    0.000 
#    0.000    0.000    0.000    0.000    0.000    0.000 
#
# Total GULP energy -78091.921407 kJ/mol
# GULP energy per Si atom -5577.994386 kJ/mol
# Density = 2.140351 g / cm^3
# Si number density = 21.452335 Si / 1000 Ang^3
#
#
#
# Elastic Constant Matrix: (Units=GPa)
#
#
# Indices 1 2 3 4 5 6 
#
# 1 124.7469 54.8593 67.9891 18.2445 12.7638 -5.4004
# 2 54.8593 89.0439 31.6364 7.1773 9.2446 -12.3462
# 3 67.9891 31.6364 99.9465 7.4448 9.8342 -1.0728
# 4 18.2445 7.1773 7.4448 23.1314 -2.0502 7.6025
# 5 12.7638 9.2446 9.8342 -2.0502 34.6792 2.7988
# 6 -5.4004 -12.3462 -1.0728 7.6025 2.7988 52.2281
#
#
#
# Elastic Compliance Matrix: (Units=1/GPa)
#
#
# Indices 1 2 3 4 5 6 
#
# 1 0.017355 -0.006237 -0.008797 -0.009747 -0.002945 0.001716
# 2 -0.006237 0.016051 -0.000494 -0.001225 -0.002193 0.003435
# 3 -0.008797 -0.000494 0.016073 0.002146 -0.000984 -0.000956
# 4 -0.009747 -0.001225 0.002146 0.054398 0.007293 -0.009562
# 5 -0.002945 -0.002193 -0.000984 0.007293 0.031504 -0.003593
# 6 0.001716 0.003435 -0.000956 -0.009562 -0.003593 0.021701
#
#
# Mechanical properties :
#
#
# Convention : Reuss Voigt Hill
#
# Bulk Modulus (GPa) = 54.28268 69.18967 61.73617
# Shear Modulus (GPa) = 25.73604 32.62456 29.18030
#
# Velocity S-wave (km/s) = 3.46740 3.90397 3.69214
# Velocity P-wave (km/s) = 6.43345 7.25562 6.85687
#
# Compressibility (1/GPa) = 0.01842208
#
# Stress axis : x y z
#
# Youngs Moduli (GPa) = 57.62056 62.29972 62.21684
#
# Poissons Ratio (x) = 0.38859 0.54734
# Poissons Ratio (y) = 0.35940 0.03073
# Poissons Ratio (z) = 0.50690 0.03077
#
# Static dielectric constant tensor:
#      x y z
#    x 1.750790 -0.073640 -0.069050 
#    y -0.073640 1.679140 0.025410 
#    z -0.069050 0.025410 1.825410 
# 
# From -- ./inp_files/77683.got.cif
#   From: 2010.05.17/outbox.cif.g08.bks.cpg/sg2_39_cif.got.tgz:77683.got - 2010.06.03 11:33:40.
