data_PCOD9022951
_publ_section_title
;
Structure prediction by ZEFSAII (Michael W. Deem and Ramdas Pophale) SiO2 
 PCOD9022951
Probable space group: P -1
;
_chemical_formula_sum "Si O2"
_cell_formula_units_Z 15
_cell_length_a 14.114260
_cell_length_b 6.276980
_cell_length_c 14.569457
_cell_angle_alpha 113.858484
_cell_angle_beta 138.873893
_cell_angle_gamma 78.534866
_cell_volume 764.293789
_symmetry_space_group_name_H-M "P -1"
_symmetry_group_IT_number 2
_symmetry_cell_setting 'triclinic'
loop_
_space_group_symop_operation_xyz
x,y,z
-x,-y,-z
loop_
_atom_site_type_symbol
_atom_site_label
_atom_site_fract_x
_atom_site_fract_y
_atom_site_fract_z
Si Si1 0.000000 0.500000 0.000000
Si Si2 0.915054 0.793565 0.282000
Si Si3 0.894443 0.692644 0.449863
Si Si4 0.839650 0.882486 0.046360
Si Si5 0.707392 0.727252 0.492547
Si Si6 0.033622 0.359878 0.211002
Si Si7 0.418430 0.409522 0.297495
Si Si8 0.396272 0.823536 0.460620
O O1 0.951385 0.725161 0.058404
O O2 0.014179 0.369977 0.089748
O O3 0.839636 0.703425 0.307182
O O4 0.819043 0.829751 0.130037
O O5 0.011214 0.601970 0.285862
O O6 0.013422 0.047983 0.416583
O O7 0.775173 0.648751 0.435147
O O8 0.000000 0.500000 0.500000
O O9 0.687495 0.786250 0.869088
O O10 0.910140 0.151931 0.125055
O O11 0.809602 0.688612 0.646922
O O12 0.546856 0.573618 0.363588
O O13 0.702401 0.008152 0.536027
O O14 0.325171 0.598097 0.307814
O O15 0.501464 0.281567 0.411862
O O16 0.500000 0.000000 0.500000
#
# Coordination Sequence:
#
# PCOD9022951 Si02
#       8
#     1   2   2   2   2   2   2   2
#     4  10  26  36  62  88 130 166 210 252 316 360
#     4  10  22  39  65  93 125 158 205 264 319 370
#     4  11  21  40  68  97 121 157 210 269 316 371
#     4  11  23  41  60  92 128 168 205 261 313 375
#     4  11  23  39  66  94 125 162 215 260 308 371
#     4  11  23  41  60  95 128 163 210 257 310 378
#     4  10  24  40  61  88 132 169 210 251 308 372
#     4   9  22  40  58  88 125 173 209 250 300 371
#
# _framework density 19.625959000000002
#
# number of rings (size 3 to 8) (size 9 to 14) (size 15 to 20)
#    0.000    1.600    2.667    0.400    9.333    4.267 
#    0.000    0.667    0.000    4.000    0.000    0.000 
#    0.000    0.000    0.000    0.000    0.000    0.000 
#
# Total GULP energy -83508.265994 kJ/mol
# GULP energy per Si atom -5567.217733 kJ/mol
# Density = 1.958129 g / cm^3
# Si number density = 19.625959 Si / 1000 Ang^3
#
#
#
# Elastic Constant Matrix: (Units=GPa)
#
#
# Indices 1 2 3 4 5 6 
#
# 1 111.5311 43.0404 21.6952 -1.3948 -24.3801 5.4027
# 2 43.0404 119.6913 31.0451 8.1611 -7.1562 -3.2829
# 3 21.6952 31.0451 75.9266 9.8448 -12.5063 5.9448
# 4 -1.3948 8.1611 9.8448 26.1974 12.4485 -8.2555
# 5 -24.3801 -7.1562 -12.5063 12.4485 40.4706 -1.1469
# 6 5.4027 -3.2829 5.9448 -8.2555 -1.1469 31.4044
#
#
#
# Elastic Compliance Matrix: (Units=1/GPa)
#
#
# Indices 1 2 3 4 5 6 
#
# 1 0.012166 -0.003803 -0.000184 -0.002446 0.007272 -0.002833
# 2 -0.003803 0.010692 -0.003502 -0.001021 -0.001108 0.002126
# 3 -0.000184 -0.003502 0.018037 -0.011670 0.008248 -0.006515
# 4 -0.002446 -0.001021 -0.011670 0.059071 -0.022942 0.017214
# 5 0.007272 -0.001108 0.008248 -0.022942 0.038285 -0.007561
# 6 -0.002833 0.002126 -0.006515 0.017214 -0.007561 0.038035
#
#
# Mechanical properties :
#
#
# Convention : Reuss Voigt Hill
#
# Bulk Modulus (GPa) = 38.58571 55.41228 46.99900
# Shear Modulus (GPa) = 25.01199 33.70571 29.35885
#
# Velocity S-wave (km/s) = 3.57379 4.14865 3.87191
# Velocity P-wave (km/s) = 6.06074 7.15848 6.63236
#
# Compressibility (1/GPa) = 0.02591633
#
# Stress axis : x y z
#
# Youngs Moduli (GPa) = 82.19776 93.52481 55.44135
#
# Poissons Ratio (x) = 0.35568 0.01023
# Poissons Ratio (y) = 0.31260 0.19415
# Poissons Ratio (z) = 0.01516 0.32751
#
# Static dielectric constant tensor:
#      x y z
#    x 1.708620 -0.001620 0.008300 
#    y -0.001620 1.712710 -0.021170 
#    z 0.008300 -0.021170 1.682650 
# 
# From -- ./inp_files/98591.got.cif
#   From: 2010.05.17/outbox.cif.g08.bks.cpg/sg2_50_cif.got.tgz:98591.got - 2010.06.03 11:33:40.
