data_PCOD9022182
_publ_section_title
;
Structure prediction by ZEFSAII (Michael W. Deem and Ramdas Pophale) SiO2 
 PCOD9022182
Probable space group: P -1
;
_chemical_formula_sum "Si O2"
_cell_formula_units_Z 16
_cell_length_a 23.573457
_cell_length_b 5.689496
_cell_length_c 10.174687
_cell_angle_alpha 122.120558
_cell_angle_beta 146.987235
_cell_angle_gamma 65.239892
_cell_volume 628.603915
_symmetry_space_group_name_H-M "P -1"
_symmetry_group_IT_number 2
_symmetry_cell_setting 'triclinic'
loop_
_space_group_symop_operation_xyz
x,y,z
-x,-y,-z
loop_
_atom_site_type_symbol
_atom_site_label
_atom_site_fract_x
_atom_site_fract_y
_atom_site_fract_z
Si Si1 0.962558 0.577759 0.785508
Si Si2 0.795207 0.193443 0.427640
Si Si3 0.305814 0.651196 0.259325
Si Si4 0.522883 0.832545 0.857400
Si Si5 0.869883 0.388699 0.274633
Si Si6 0.591622 0.398936 0.050792
Si Si7 0.164137 0.171999 0.851579
Si Si8 0.837576 0.078802 0.753729
O O1 0.916136 0.310326 0.693144
O O2 0.904092 0.537013 0.519395
O O3 0.913489 0.833686 0.838375
O O4 0.083991 0.643885 0.018628
O O5 0.713963 0.436960 0.336637
O O6 0.777052 0.053117 0.491037
O O7 0.790974 0.002353 0.234406
O O8 0.422824 0.721048 0.546455
O O9 0.241440 0.888130 0.273357
O O10 0.255520 0.628780 0.009432
O O11 0.261386 0.360733 0.153058
O O12 0.575476 0.561284 0.933195
O O13 0.500000 0.000000 0.000000
O O14 0.578782 0.064024 0.940726
O O15 0.905436 0.600545 0.288758
O O16 0.891229 0.061657 0.232778
O O17 0.500000 0.500000 0.000000
#
# Coordination Sequence:
#
# PCOD9022182 Si02
#       8
#     2   2   2   2   2   2   2   2
#     4  10  23  38  65  93 133 163 223 253 324 380
#     4  11  22  41  66  87 135 169 211 263 329 364
#     4  10  23  38  68  89 138 161 218 259 326 366
#     4  10  22  39  58  95 125 157 207 264 311 378
#     4   9  20  42  62  88 128 172 209 253 313 377
#     4  10  23  37  62  92 124 159 210 256 319 375
#     4   9  21  40  64  88 122 178 208 250 316 384
#     4  11  21  39  63 101 123 170 211 270 315 381
#
# _framework density 25.453230000000001
#
# number of rings (size 3 to 8) (size 9 to 14) (size 15 to 20)
#    0.750    1.250    1.250    1.875    7.000    1.500 
#    0.000    3.750    0.000    0.000    0.000    0.000 
#    0.000    0.000    0.000    0.000    0.000    0.000 
#
# Total GULP energy -89220.216478 kJ/mol
# GULP energy per Si atom -5576.263530 kJ/mol
# Density = 2.539530 g / cm^3
# Si number density = 25.453230 Si / 1000 Ang^3
#
#
#
# Elastic Constant Matrix: (Units=GPa)
#
#
# Indices 1 2 3 4 5 6 
#
# 1 75.3966 24.5428 13.6694 -8.4760 -3.4395 -7.7697
# 2 24.5428 144.3333 36.3853 -3.5766 11.8896 35.9314
# 3 13.6694 36.3853 107.6341 -7.1635 2.3615 13.1497
# 4 -8.4760 -3.5766 -7.1635 53.2054 7.6819 4.1983
# 5 -3.4395 11.8896 2.3615 7.6819 34.2004 -1.2428
# 6 -7.7697 35.9314 13.1497 4.1983 -1.2428 40.3594
#
#
#
# Elastic Compliance Matrix: (Units=1/GPa)
#
#
# Indices 1 2 3 4 5 6 
#
# 1 0.016029 -0.004492 -0.001448 0.000980 0.003328 0.007557
# 2 -0.004492 0.011194 -0.001726 0.001347 -0.004910 -0.010559
# 3 -0.001448 -0.001726 0.010443 0.001335 -0.000650 -0.002303
# 4 0.000980 0.001347 0.001335 0.020257 -0.005147 -0.003711
# 5 0.003328 -0.004910 -0.000650 -0.005147 0.032728 0.006767
# 6 0.007557 -0.010559 -0.002303 -0.003711 0.006767 0.036978
#
#
# Mechanical properties :
#
#
# Convention : Reuss Voigt Hill
#
# Bulk Modulus (GPa) = 44.77687 52.95100 48.86393
# Shear Modulus (GPa) = 33.24361 42.40414 37.82387
#
# Velocity S-wave (km/s) = 3.61787 4.08605 3.85907
# Velocity P-wave (km/s) = 5.92301 6.56578 6.25266
#
# Compressibility (1/GPa) = 0.02233296
#
# Stress axis : x y z
#
# Youngs Moduli (GPa) = 62.38860 89.33430 95.76066
#
# Poissons Ratio (x) = 0.40125 0.13869
# Poissons Ratio (y) = 0.28022 0.16531
# Poissons Ratio (z) = 0.09036 0.15421
#
# Static dielectric constant tensor:
#      x y z
#    x 2.002880 0.033260 0.022540 
#    y 0.033260 2.061800 0.048990 
#    z 0.022540 0.048990 2.100010 
# 
# From -- ./inp_files/475942.got.cif
#   From: 2010.05.17/outbox.cif.g08.bks.cpg/sg2_238_cif.got.tgz:475942.got - 2010.06.03 11:33:40.
