data_PCOD9022161
_publ_section_title
;
Structure prediction by ZEFSAII (Michael W. Deem and Ramdas Pophale) SiO2 
 PCOD9022161
Probable space group: P -1
;
_chemical_formula_sum "Si O2"
_cell_formula_units_Z 16
_cell_length_a 5.270076
_cell_length_b 20.480944
_cell_length_c 15.489157
_cell_angle_alpha 27.352133
_cell_angle_beta 97.616797
_cell_angle_gamma 111.774981
_cell_volume 632.797901
_symmetry_space_group_name_H-M "P -1"
_symmetry_group_IT_number 2
_symmetry_cell_setting 'triclinic'
loop_
_space_group_symop_operation_xyz
x,y,z
-x,-y,-z
loop_
_atom_site_type_symbol
_atom_site_label
_atom_site_fract_x
_atom_site_fract_y
_atom_site_fract_z
Si Si1 0.611249 0.385372 0.508448
Si Si2 0.270260 0.120240 0.940332
Si Si3 0.759973 0.230082 0.465166
Si Si4 0.192808 0.497772 0.302199
Si Si5 0.578805 0.363011 0.173002
Si Si6 0.086107 0.903837 0.538798
Si Si7 0.683292 0.252003 0.138261
Si Si8 0.317291 0.021732 0.823141
O O1 0.478455 0.307735 0.688138
O O2 0.493189 0.504050 0.336716
O O3 0.969779 0.474332 0.398228
O O4 0.451124 0.209368 0.650511
O O5 0.499030 0.056850 0.036767
O O6 0.050023 0.091453 0.045200
O O7 0.000000 0.000000 0.000000
O O8 0.697573 0.369971 0.265739
O O9 0.874902 0.188772 0.433000
O O10 0.008215 0.321411 0.444291
O O11 0.448188 0.066088 0.680184
O O12 0.240679 0.647239 0.065968
O O13 0.745173 0.375240 0.077584
O O14 0.270504 0.172447 0.382489
O O15 0.500000 0.500000 0.000000
O O16 0.164830 0.843357 0.702157
O O17 0.323845 0.100376 0.297857
#
# Coordination Sequence:
#
# PCOD9022161 Si02
#       8
#     2   2   2   2   2   2   2   2
#     4  10  20  33  53  84 119 152 186 240 289 355
#     4  10  17  31  50  79 117 154 181 226 299 350
#     4  10  22  34  53  88 110 152 189 243 287 340
#     4  11  22  35  58  86 119 150 195 240 293 342
#     4  11  22  35  60  83 117 149 191 240 294 345
#     4  10  22  40  57  75 120 148 206 237 285 345
#     4  10  23  39  55  83 107 163 195 241 287 342
#     4  10  19  29  53  80 117 151 185 232 289 352
#
# _framework density 25.284535999999999
#
# number of rings (size 3 to 8) (size 9 to 14) (size 15 to 20)
#    0.000    1.750    0.000    7.125   10.500    2.000 
#    0.000    0.000    0.000    0.000    0.000    5.250 
#    0.000    0.000    0.000    0.000    0.000    0.000 
#
# Total GULP energy -89381.453184 kJ/mol
# GULP energy per Si atom -5586.340824 kJ/mol
# Density = 2.522699 g / cm^3
# Si number density = 25.284536 Si / 1000 Ang^3
#
#
#
# Elastic Constant Matrix: (Units=GPa)
#
#
# Indices 1 2 3 4 5 6 
#
# 1 121.8567 12.9092 43.8580 14.3948 -5.1935 -6.4657
# 2 12.9092 36.8155 20.2157 -4.5760 -0.0667 -1.0625
# 3 43.8580 20.2157 141.1091 17.4059 -16.5316 -4.4541
# 4 14.3948 -4.5760 17.4059 25.2172 -4.0778 -3.8398
# 5 -5.1935 -0.0667 -16.5316 -4.0778 42.4863 3.0859
# 6 -6.4657 -1.0625 -4.4541 -3.8398 3.0859 24.6575
#
#
#
# Elastic Compliance Matrix: (Units=1/GPa)
#
#
# Indices 1 2 3 4 5 6 
#
# 1 0.009855 -0.002840 -0.002071 -0.004521 -0.000141 0.001401
# 2 -0.002840 0.032478 -0.005259 0.011167 -0.001388 0.001617
# 3 -0.002071 -0.005259 0.009547 -0.005943 0.002907 -0.000334
# 4 -0.004521 0.011167 -0.005943 0.049479 0.001484 0.005741
# 5 -0.000141 -0.001388 0.002907 0.001484 0.024970 -0.002466
# 6 0.001401 0.001617 -0.000334 0.005741 -0.002466 0.042135
#
#
# Mechanical properties :
#
#
# Convention : Reuss Voigt Hill
#
# Bulk Modulus (GPa) = 31.70599 50.41633 41.06116
# Shear Modulus (GPa) = 25.08554 33.32544 29.20549
#
# Velocity S-wave (km/s) = 3.15323 3.63439 3.40232
# Velocity P-wave (km/s) = 5.08173 6.13144 5.63110
#
# Compressibility (1/GPa) = 0.03153978
#
# Stress axis : x y z
#
# Youngs Moduli (GPa) = 101.47184 30.78968 104.74673
#
# Poissons Ratio (x) = 0.08745 0.21690
# Poissons Ratio (y) = 0.28821 0.55088
# Poissons Ratio (z) = 0.21012 0.16193
#
# Static dielectric constant tensor:
#      x y z
#    x 2.046280 0.012650 -0.018750 
#    y 0.012650 2.093350 -0.026790 
#    z -0.018750 -0.026790 2.000780 
# 
# From -- ./inp_files/104992.got.cif
#   From: 2010.05.17/outbox.cif.g08.bks.cpg/sg2_53_cif.got.tgz:104992.got - 2010.06.03 11:33:40.
