data_PCOD9022082
_publ_section_title
;
Structure prediction by ZEFSAII (Michael W. Deem and Ramdas Pophale) SiO2 
 PCOD9022082
Probable space group: P -1
;
_chemical_formula_sum "Si O2"
_cell_formula_units_Z 14
_cell_length_a 9.890176
_cell_length_b 12.918186
_cell_length_c 5.194876
_cell_angle_alpha 101.054125
_cell_angle_beta 84.611374
_cell_angle_gamma 56.732029
_cell_volume 528.371998
_symmetry_space_group_name_H-M "P -1"
_symmetry_group_IT_number 2
_symmetry_cell_setting 'triclinic'
loop_
_space_group_symop_operation_xyz
x,y,z
-x,-y,-z
loop_
_atom_site_type_symbol
_atom_site_label
_atom_site_fract_x
_atom_site_fract_y
_atom_site_fract_z
Si Si1 0.626775 0.579324 0.621996
Si Si2 0.423209 0.615039 0.264290
Si Si3 0.395329 0.937049 0.341568
Si Si4 0.761723 0.695247 0.989742
Si Si5 0.837261 0.775239 0.504746
Si Si6 0.916945 0.143081 0.484839
Si Si7 0.297888 0.858298 0.852629
O O1 0.580313 0.612090 0.342176
O O2 0.653058 0.442193 0.560561
O O3 0.750527 0.589515 0.782946
O O4 0.448123 0.707795 0.805054
O O5 0.500000 0.500000 0.000000
O O6 0.262830 0.755061 0.302325
O O7 0.351949 0.903737 0.610352
O O8 0.341363 0.083896 0.430011
O O9 0.574524 0.823629 0.139158
O O10 0.278690 0.946061 0.132276
O O11 0.844690 0.730229 0.771541
O O12 0.848237 0.678022 0.241410
O O13 0.973583 0.804066 0.455724
O O14 0.859731 0.140584 0.203069
O O15 0.000000 0.000000 0.500000
#
# Coordination Sequence:
#
# PCOD9022082 Si02
#       7
#     2   2   2   2   2   2   2
#     4   9  22  42  68 104 128 178 236 301 339 404
#     4  10  23  45  77 104 133 183 248 294 352 418
#     4  11  21  40  65 101 138 188 240 290 345 418
#     4  11  24  41  67  98 145 187 237 285 349 429
#     4  12  25  41  62 103 145 192 232 280 365 431
#     4  11  25  46  70 106 149 186 232 302 364 422
#     4  10  22  38  71 101 135 182 236 300 357 398
#
# _framework density 26.496483999999999
#
# number of rings (size 3 to 8) (size 9 to 14) (size 15 to 20)
#    0.000    1.429    1.429    3.429   10.000    1.714 
#    5.143    1.429    0.000    0.000    0.000    0.000 
#    0.000    0.000    0.000    0.000    0.000    0.000 
#
# Total GULP energy -78138.056635 kJ/mol
# GULP energy per Si atom -5581.289760 kJ/mol
# Density = 2.643618 g / cm^3
# Si number density = 26.496484 Si / 1000 Ang^3
#
#
#
# Elastic Constant Matrix: (Units=GPa)
#
#
# Indices 1 2 3 4 5 6 
#
# 1 101.0644 -1.3418 47.8288 -0.7995 29.1729 15.7701
# 2 -1.3418 88.2391 23.2455 5.8214 10.6935 3.1576
# 3 47.8288 23.2455 177.7366 18.8896 20.8882 11.7097
# 4 -0.7995 5.8214 18.8896 35.2488 20.4900 10.6648
# 5 29.1729 10.6935 20.8882 20.4900 51.1158 2.5500
# 6 15.7701 3.1576 11.7097 10.6648 2.5500 34.6245
#
#
#
# Elastic Compliance Matrix: (Units=1/GPa)
#
#
# Indices 1 2 3 4 5 6 
#
# 1 0.017421 0.002489 -0.004168 0.013014 -0.013490 -0.009767
# 2 0.002489 0.012284 -0.001895 0.001869 -0.003870 -0.001903
# 3 -0.004168 -0.001895 0.007252 -0.005007 0.001767 0.001031
# 4 0.013014 0.001869 -0.005007 0.051393 -0.025457 -0.018359
# 5 -0.013490 -0.003870 0.001767 -0.025457 0.037005 0.011015
# 6 -0.009767 -0.001903 0.001031 -0.018359 0.011015 0.037999
#
#
# Mechanical properties :
#
#
# Convention : Reuss Voigt Hill
#
# Bulk Modulus (GPa) = 33.54662 56.27834 44.91248
# Shear Modulus (GPa) = 27.71050 44.01832 35.86441
#
# Velocity S-wave (km/s) = 3.23742 4.08031 3.68306
# Velocity P-wave (km/s) = 5.16360 6.59429 5.92231
#
# Compressibility (1/GPa) = 0.02980926
#
# Stress axis : x y z
#
# Youngs Moduli (GPa) = 57.40196 81.40930 137.88916
#
# Poissons Ratio (x) = -0.20259 0.57469
# Poissons Ratio (y) = -0.14285 0.26124
# Poissons Ratio (z) = 0.23924 0.15424
#
# Static dielectric constant tensor:
#      x y z
#    x 2.279860 0.041960 0.016820 
#    y 0.041960 2.149840 -0.145730 
#    z 0.016820 -0.145730 2.237020 
# 
# From -- ./inp_files/36299.got.cif
#   From: 2010.05.17/outbox.cif.g08.bks.cpg/sg2_19_cif.got.tgz:36299.got - 2010.06.03 11:33:40.
