data_PCOD9022168
_publ_section_title
;
Structure prediction by ZEFSAII (Michael W. Deem and Ramdas Pophale) SiO2 
 PCOD9022168
Probable space group: P -1
;
_chemical_formula_sum "Si O2"
_cell_formula_units_Z 14
_cell_length_a 7.476022
_cell_length_b 7.008081
_cell_length_c 12.027800
_cell_angle_alpha 112.546286
_cell_angle_beta 83.408496
_cell_angle_gamma 101.725195
_cell_volume 569.385482
_symmetry_space_group_name_H-M "P -1"
_symmetry_group_IT_number 2
_symmetry_cell_setting 'triclinic'
loop_
_space_group_symop_operation_xyz
x,y,z
-x,-y,-z
loop_
_atom_site_type_symbol
_atom_site_label
_atom_site_fract_x
_atom_site_fract_y
_atom_site_fract_z
Si Si1 0.644264 0.647521 0.943616
Si Si2 0.780176 0.536684 0.300138
Si Si3 0.066256 0.296280 0.897021
Si Si4 0.127954 0.712013 0.445143
Si Si5 0.236776 0.310931 0.446830
Si Si6 0.505863 0.847310 0.789665
Si Si7 0.715150 0.215856 0.766992
O O1 0.561512 0.795558 0.898093
O O2 0.709746 0.462631 0.824663
O O3 0.500000 0.500000 0.000000
O O4 0.814556 0.775606 0.028753
O O5 0.795304 0.632628 0.198600
O O6 0.685861 0.667248 0.427588
O O7 0.687229 0.297092 0.249157
O O8 0.984530 0.569773 0.340293
O O9 0.883156 0.173335 0.824621
O O10 0.000000 0.500000 0.000000
O O11 0.224346 0.553245 0.471722
O O12 0.257059 0.848925 0.377664
O O13 0.978002 0.802644 0.551090
O O14 0.354216 0.230973 0.325835
O O15 0.534218 0.088423 0.808233
#
# Coordination Sequence:
#
# PCOD9022168 Si02
#       7
#     2   2   2   2   2   2   2
#     4  11  22  40  61  81 117 152 186 237 293 337
#     4   9  18  35  58  85 112 157 188 226 292 338
#     4   9  19  38  60  78 114 156 184 234 286 336
#     4   8  17  36  60  77 116 152 187 225 275 345
#     4   9  18  35  64  80 114 159 191 220 292 343
#     4  12  22  35  62  89 113 150 189 242 285 331
#     4  10  22  39  58  89 114 144 198 234 281 341
#
# _framework density 24.587913
#
# number of rings (size 3 to 8) (size 9 to 14) (size 15 to 20)
#    0.857    1.429    2.857    0.429    0.000    1.714 
#    0.000    2.143    0.000    0.000    0.000    0.000 
#    0.000    0.000    0.000    0.000    0.000    0.000 
#
# Total GULP energy -78074.343782 kJ/mol
# GULP energy per Si atom -5576.738842 kJ/mol
# Density = 2.453195 g / cm^3
# Si number density = 24.587913 Si / 1000 Ang^3
#
#
#
# Elastic Constant Matrix: (Units=GPa)
#
#
# Indices 1 2 3 4 5 6 
#
# 1 42.2917 0.2311 12.7854 2.7390 -7.2191 -0.5764
# 2 0.2311 73.2218 9.1562 -9.2641 2.9992 7.9533
# 3 12.7854 9.1562 102.9848 -17.0396 -2.8490 -11.1794
# 4 2.7390 -9.2641 -17.0396 37.5540 3.2516 -3.6108
# 5 -7.2191 2.9992 -2.8490 3.2516 34.8607 0.7885
# 6 -0.5764 7.9533 -11.1794 -3.6108 0.7885 25.5371
#
#
#
# Elastic Compliance Matrix: (Units=1/GPa)
#
#
# Indices 1 2 3 4 5 6 
#
# 1 0.026064 -0.000160 -0.004008 -0.004422 0.005539 -0.001913
# 2 -0.000160 0.014758 -0.001411 0.002687 -0.001560 -0.004789
# 3 -0.004008 -0.001411 0.012028 0.006063 -0.000438 0.006485
# 4 -0.004422 0.002687 0.006063 0.031288 -0.003711 0.006256
# 5 0.005539 -0.001560 -0.000438 -0.003711 0.030301 -0.001041
# 6 -0.001913 -0.004789 0.006485 0.006256 -0.001041 0.044363
#
#
# Mechanical properties :
#
#
# Convention : Reuss Voigt Hill
#
# Bulk Modulus (GPa) = 23.98449 29.20484 26.59466
# Shear Modulus (GPa) = 27.19518 32.67874 29.93696
#
# Velocity S-wave (km/s) = 3.32932 3.64958 3.49312
# Velocity P-wave (km/s) = 4.95530 5.44635 5.20662
#
# Compressibility (1/GPa) = 0.04169361
#
# Stress axis : x y z
#
# Youngs Moduli (GPa) = 38.36758 67.75929 83.13733
#
# Poissons Ratio (x) = 0.01083 0.33319
# Poissons Ratio (y) = 0.00613 0.11729
# Poissons Ratio (z) = 0.15376 0.09560
#
# Static dielectric constant tensor:
#      x y z
#    x 1.995330 0.020820 -0.033950 
#    y 0.020820 2.009630 0.003570 
#    z -0.033950 0.003570 2.025810 
# 
# From -- ./inp_files/214696.got.cif
#   From: 2010.05.17/outbox.cif.g08.bks.cpg/sg2_108_cif.got.tgz:214696.got - 2010.06.03 11:33:40.
