data_PCOD9022101
_publ_section_title
;
Structure prediction by ZEFSAII (Michael W. Deem and Ramdas Pophale) SiO2 
 PCOD9022101
Probable space group: P -1
;
_chemical_formula_sum "Si O2"
_cell_formula_units_Z 16
_cell_length_a 10.779863
_cell_length_b 28.888925
_cell_length_c 8.198180
_cell_angle_alpha 43.045482
_cell_angle_beta 113.784891
_cell_angle_gamma 147.377031
_cell_volume 767.526804
_symmetry_space_group_name_H-M "P -1"
_symmetry_group_IT_number 2
_symmetry_cell_setting 'triclinic'
loop_
_space_group_symop_operation_xyz
x,y,z
-x,-y,-z
loop_
_atom_site_type_symbol
_atom_site_label
_atom_site_fract_x
_atom_site_fract_y
_atom_site_fract_z
Si Si1 0.376648 0.514961 0.320286
Si Si2 0.666800 0.878801 0.609755
Si Si3 0.868943 0.823383 0.895366
Si Si4 0.247163 0.067720 0.862463
Si Si5 0.805413 0.106880 0.820381
Si Si6 0.790115 0.599897 0.832177
Si Si7 0.918579 0.391216 0.910319
Si Si8 0.855651 0.368258 0.557940
O O1 0.500000 0.500000 0.500000
O O2 0.261483 0.452199 0.240664
O O3 0.108353 0.427005 0.502369
O O4 0.640446 0.682671 0.032792
O O5 0.708140 0.823310 0.856979
O O6 0.761484 0.916586 0.374371
O O7 0.341982 0.752586 0.758380
O O8 0.846417 0.016845 0.435272
O O9 0.988970 0.827220 0.091017
O O10 0.556380 0.220776 0.700307
O O11 0.222446 0.974751 0.088236
O O12 0.000000 0.000000 0.000000
O O13 0.968801 0.237355 0.474555
O O14 0.500000 0.000000 0.000000
O O15 0.500000 0.500000 0.000000
O O16 0.855858 0.568172 0.071513
O O17 0.818999 0.358673 0.757527
O O18 0.031145 0.508322 0.751139
#
# Coordination Sequence:
#
# PCOD9022101 Si02
#       8
#     2   2   2   2   2   2   2   2
#     4  12  23  43  71  97 136 180 226 275 346 417
#     4  10  22  42  68 100 133 177 221 284 344 403
#     4  10  22  38  72  96 130 172 230 271 344 401
#     4  11  27  43  71 101 138 178 234 284 344 413
#     4  11  24  48  68  95 143 188 224 284 359 413
#     4  12  27  43  68 100 137 179 232 284 349 408
#     4  11  25  44  69  97 142 172 227 283 345 407
#     4  11  26  44  69 101 135 180 226 284 346 409
#
# _framework density 20.84618
#
# number of rings (size 3 to 8) (size 9 to 14) (size 15 to 20)
#    0.000    1.000    2.500    3.750    8.750    1.000 
#    0.000    0.625    0.000    0.000    0.000    0.000 
#    0.000    0.000    0.000    0.000    0.000    0.000 
#
# Total GULP energy -89279.014125 kJ/mol
# GULP energy per Si atom -5579.938383 kJ/mol
# Density = 2.079873 g / cm^3
# Si number density = 20.846180 Si / 1000 Ang^3
#
#
#
# Elastic Constant Matrix: (Units=GPa)
#
#
# Indices 1 2 3 4 5 6 
#
# 1 126.3151 28.9939 50.1227 -27.3507 -3.1081 12.9393
# 2 28.9939 102.0753 31.6422 -34.0365 12.2200 -1.8794
# 3 50.1227 31.6422 81.8258 -33.7922 5.2748 -7.8167
# 4 -27.3507 -34.0365 -33.7922 45.1007 -1.5183 7.6277
# 5 -3.1081 12.2200 5.2748 -1.5183 40.5073 -0.5487
# 6 12.9393 -1.8794 -7.8167 7.6277 -0.5487 41.3058
#
#
#
# Elastic Compliance Matrix: (Units=1/GPa)
#
#
# Indices 1 2 3 4 5 6 
#
# 1 0.011876 -0.000793 -0.006492 0.002731 0.002024 -0.005462
# 2 -0.000793 0.013850 -0.000851 0.009386 -0.003791 -0.001066
# 3 -0.006492 -0.000851 0.021534 0.010784 -0.002586 0.004044
# 4 0.002731 0.009386 0.010784 0.039883 -0.002610 -0.005787
# 5 0.002024 -0.003791 -0.002586 -0.002610 0.026218 -0.000466
# 6 -0.005462 -0.001066 0.004044 -0.005787 -0.000466 0.027700
#
#
# Mechanical properties :
#
#
# Convention : Reuss Voigt Hill
#
# Bulk Modulus (GPa) = 32.27268 59.08154 45.67711
# Shear Modulus (GPa) = 29.82195 38.67993 34.25094
#
# Velocity S-wave (km/s) = 3.78639 4.31222 4.05783
# Velocity P-wave (km/s) = 5.88478 7.29361 6.62674
#
# Compressibility (1/GPa) = 0.03098596
#
# Stress axis : x y z
#
# Youngs Moduli (GPa) = 84.20681 72.20365 46.43907
#
# Poissons Ratio (x) = 0.05725 0.30149
# Poissons Ratio (y) = 0.06677 0.03953
# Poissons Ratio (z) = 0.54669 0.06146
#
# Static dielectric constant tensor:
#      x y z
#    x 1.711810 0.005900 0.020300 
#    y 0.005900 1.765500 0.012190 
#    z 0.020300 0.012190 1.790120 
# 
# From -- ./inp_files/227723.got.cif
#   From: 2010.05.17/outbox.cif.g08.bks.cpg/sg2_114_cif.got.tgz:227723.got - 2010.06.03 11:33:40.
