data_PCOD9022441
_publ_section_title
;
Structure prediction by ZEFSAII (Michael W. Deem and Ramdas Pophale) SiO2 
 PCOD9022441
Probable space group: P -1
;
_chemical_formula_sum "Si O2"
_cell_formula_units_Z 12
_cell_length_a 11.252001
_cell_length_b 15.132615
_cell_length_c 11.696506
_cell_angle_alpha 40.852455
_cell_angle_beta 58.801120
_cell_angle_gamma 26.780457
_cell_volume 496.438504
_symmetry_space_group_name_H-M "P -1"
_symmetry_group_IT_number 2
_symmetry_cell_setting 'triclinic'
loop_
_space_group_symop_operation_xyz
x,y,z
-x,-y,-z
loop_
_atom_site_type_symbol
_atom_site_label
_atom_site_fract_x
_atom_site_fract_y
_atom_site_fract_z
Si Si1 0.823962 0.751154 0.251929
Si Si2 0.632203 0.343574 0.361061
Si Si3 0.467096 0.178692 0.384080
Si Si4 0.257519 0.596521 0.958776
Si Si5 0.684980 0.008290 0.697386
Si Si6 0.830988 0.053579 0.936041
O O1 0.507422 0.946435 0.195252
O O2 0.000000 0.500000 0.500000
O O3 0.093249 0.523467 0.247037
O O4 0.773404 0.951602 0.111973
O O5 0.569476 0.438519 0.167348
O O6 0.513000 0.303990 0.506452
O O7 0.495114 0.582627 0.271677
O O8 0.000000 0.000000 0.500000
O O9 0.658866 0.017045 0.564659
O O10 0.500000 0.000000 0.500000
O O11 0.519204 0.262091 0.196824
O O12 0.026321 0.722887 0.859665
O O13 0.020142 0.866942 0.906313
O O14 0.000000 0.000000 0.000000
#
# Coordination Sequence:
#
# PCOD9022441 Si02
#       6
#     2   2   2   2   2   2
#     4   9  20  40  63  94 132 165 217 277 322 397
#     4  10  23  44  63  98 134 172 225 272 328 402
#     4  10  22  39  62 100 128 169 220 268 337 390
#     4  10  24  44  67  94 135 174 221 274 331 395
#     4  10  22  44  63  94 135 166 221 272 326 398
#     4  11  23  41  70  96 129 180 223 268 343 396
#
# _framework density 24.172177999999999
#
# number of rings (size 3 to 8) (size 9 to 14) (size 15 to 20)
#    0.000    2.000    0.000    3.000    4.667    8.667 
#   12.000    0.000    0.000    0.000    0.000    0.000 
#    0.000    0.000    0.000    0.000    0.000    0.000 
#
# Total GULP energy -66883.819445 kJ/mol
# GULP energy per Si atom -5573.651620 kJ/mol
# Density = 2.411716 g / cm^3
# Si number density = 24.172178 Si / 1000 Ang^3
#
#
#
# Elastic Constant Matrix: (Units=GPa)
#
#
# Indices 1 2 3 4 5 6 
#
# 1 146.7616 24.8770 55.1712 -16.5049 -14.3130 0.2972
# 2 24.8770 74.9686 24.4974 -14.3211 -3.7454 20.2275
# 3 55.1712 24.4974 121.4372 -4.6066 -27.0964 24.0758
# 4 -16.5049 -14.3211 -4.6066 44.7092 2.5740 -9.6232
# 5 -14.3130 -3.7454 -27.0964 2.5740 61.4317 -4.5246
# 6 0.2972 20.2275 24.0758 -9.6232 -4.5246 40.2755
#
#
#
# Elastic Compliance Matrix: (Units=1/GPa)
#
#
# Indices 1 2 3 4 5 6 
#
# 1 0.009242 -0.002196 -0.004472 0.003202 0.000244 0.004501
# 2 -0.002196 0.016879 -0.000991 0.002973 -0.000576 -0.007223
# 3 -0.004472 -0.000991 0.012709 -0.002442 0.004076 -0.007192
# 4 0.003202 0.002973 -0.002442 0.025579 -0.000782 0.005967
# 5 0.000244 -0.000576 0.004076 -0.000782 0.018108 -0.000301
# 6 0.004501 -0.007223 -0.007192 0.005967 -0.000301 0.034114
#
#
# Mechanical properties :
#
#
# Convention : Reuss Voigt Hill
#
# Bulk Modulus (GPa) = 42.53138 61.36208 51.94673
# Shear Modulus (GPa) = 35.76846 45.19140 40.47993
#
# Velocity S-wave (km/s) = 3.85091 4.32853 4.09669
# Velocity P-wave (km/s) = 6.11605 7.10086 6.62677
#
# Compressibility (1/GPa) = 0.02351205
#
# Stress axis : x y z
#
# Youngs Moduli (GPa) = 108.20183 59.24388 78.68334
#
# Poissons Ratio (x) = 0.13009 0.35188
# Poissons Ratio (y) = 0.23759 0.07800
# Poissons Ratio (z) = 0.48390 0.05873
#
# Static dielectric constant tensor:
#      x y z
#    x 2.160820 -0.152080 -0.088370 
#    y -0.152080 2.099570 0.126850 
#    z -0.088370 0.126850 2.220280 
# 
# From -- ./inp_files/432439.got.cif
#   From: 2010.05.17/outbox.cif.g08.bks.cpg/sg2_217_cif.got.tgz:432439.got - 2010.06.03 11:33:40.
