data_PCOD9022643
_publ_section_title
;
Structure prediction by ZEFSAII (Michael W. Deem and Ramdas Pophale) SiO2 
 PCOD9022643
Probable space group: P -1
;
_chemical_formula_sum "Si O2"
_cell_formula_units_Z 14
_cell_length_a 9.149845
_cell_length_b 6.609210
_cell_length_c 12.226188
_cell_angle_alpha 79.813316
_cell_angle_beta 96.288939
_cell_angle_gamma 76.892870
_cell_volume 700.054624
_symmetry_space_group_name_H-M "P -1"
_symmetry_group_IT_number 2
_symmetry_cell_setting 'triclinic'
loop_
_space_group_symop_operation_xyz
x,y,z
-x,-y,-z
loop_
_atom_site_type_symbol
_atom_site_label
_atom_site_fract_x
_atom_site_fract_y
_atom_site_fract_z
Si Si1 0.163812 0.529781 0.545408
Si Si2 0.158640 0.843213 0.128946
Si Si3 0.333621 0.084384 0.528132
Si Si4 0.194381 0.813494 0.711870
Si Si5 0.152900 0.927099 0.354728
Si Si6 0.899143 0.704137 0.035217
Si Si7 0.678870 0.425031 0.037685
O O1 0.293184 0.319043 0.551678
O O2 0.174153 0.608774 0.662081
O O3 0.179644 0.723648 0.453001
O O4 0.000000 0.500000 0.500000
O O5 0.229025 0.851223 0.252497
O O6 0.004486 0.759811 0.134404
O O7 0.253697 0.693055 0.058053
O O8 0.125329 0.085008 0.060274
O O9 0.500000 0.000000 0.500000
O O10 0.294474 0.932016 0.634110
O O11 0.220795 0.088374 0.415553
O O12 0.266149 0.739151 0.842305
O O13 0.024996 0.966891 0.689864
O O14 0.747567 0.627666 0.050392
O O15 0.000000 0.500000 0.000000
O O16 0.500000 0.500000 0.000000
#
# Coordination Sequence:
#
# PCOD9022643 Si02
#       7
#     2   2   2   2   2   2   2
#     4  11  21  40  68  95 124 170 214 260 326 379
#     4  10  22  39  63  93 125 164 217 268 315 378
#     4  11  25  42  64 100 135 165 212 274 330 383
#     4  11  23  41  66  94 127 171 223 263 316 398
#     4  11  22  39  68  98 126 164 224 264 318 399
#     4   9  19  38  59  86 118 161 212 259 310 371
#     4  11  26  42  62  94 135 173 218 266 330 394
#
# _framework density 19.998439000000001
#
# number of rings (size 3 to 8) (size 9 to 14) (size 15 to 20)
#    0.000    1.429    2.857    3.429    2.000    9.714 
#    0.000    0.000    0.000    0.000    0.000    0.000 
#    0.000    0.000    0.000    0.000    0.000    0.000 
#
# Total GULP energy -78125.868661 kJ/mol
# GULP energy per Si atom -5580.419190 kJ/mol
# Density = 1.995292 g / cm^3
# Si number density = 19.998439 Si / 1000 Ang^3
#
#
#
# Elastic Constant Matrix: (Units=GPa)
#
#
# Indices 1 2 3 4 5 6 
#
# 1 117.2771 38.1427 27.5826 -6.4226 -0.1766 -10.1593
# 2 38.1427 115.7941 17.6044 12.7341 -5.6448 -3.4446
# 3 27.5826 17.6044 103.7416 18.5017 -4.2483 -0.7608
# 4 -6.4226 12.7341 18.5017 30.2854 -8.4958 -3.1295
# 5 -0.1766 -5.6448 -4.2483 -8.4958 13.2631 4.9551
# 6 -10.1593 -3.4446 -0.7608 -3.1295 4.9551 20.4263
#
#
#
# Elastic Compliance Matrix: (Units=1/GPa)
#
#
# Indices 1 2 3 4 5 6 
#
# 1 0.011514 -0.003832 -0.003587 0.006703 -0.000621 0.006124
# 2 -0.003832 0.010463 0.000193 -0.004968 0.001777 -0.001327
# 3 -0.003587 0.000193 0.012058 -0.008669 -0.000741 -0.002451
# 4 0.006703 -0.004968 -0.008669 0.049339 0.025475 0.003552
# 5 -0.000621 0.001777 -0.000741 0.025475 0.099830 -0.020351
# 6 0.006124 -0.001327 -0.002451 0.003552 -0.020351 0.057168
#
#
# Mechanical properties :
#
#
# Convention : Reuss Voigt Hill
#
# Bulk Modulus (GPa) = 51.07000 55.94134 53.50567
# Shear Modulus (GPa) = 19.13128 29.69383 24.41256
#
# Velocity S-wave (km/s) = 3.09631 3.85750 3.49768
# Velocity P-wave (km/s) = 6.19478 6.91910 6.56694
#
# Compressibility (1/GPa) = 0.01958097
#
# Stress axis : x y z
#
# Youngs Moduli (GPa) = 86.85452 95.57782 82.93194
#
# Poissons Ratio (x) = 0.36630 0.29746
# Poissons Ratio (y) = 0.33287 -0.01597
# Poissons Ratio (z) = 0.31153 -0.01841
#
# Static dielectric constant tensor:
#      x y z
#    x 1.738990 0.033590 -0.005460 
#    y 0.033590 1.785910 0.026080 
#    z -0.005460 0.026080 1.711070 
# 
# From -- ./inp_files/38552.got.cif
#   From: 2010.05.17/outbox.cif.g08.bks.cpg/sg2_20_cif.got.tgz:38552.got - 2010.06.03 11:33:40.
