data_PCOD9022926
_publ_section_title
;
Structure prediction by ZEFSAII (Michael W. Deem and Ramdas Pophale) SiO2 
 PCOD9022926
Probable space group: P -1
;
_chemical_formula_sum "Si O2"
_cell_formula_units_Z 16
_cell_length_a 13.972935
_cell_length_b 8.696909
_cell_length_c 27.678278
_cell_angle_alpha 135.320341
_cell_angle_beta 19.351313
_cell_angle_gamma 126.302342
_cell_volume 737.452633
_symmetry_space_group_name_H-M "P -1"
_symmetry_group_IT_number 2
_symmetry_cell_setting 'triclinic'
loop_
_space_group_symop_operation_xyz
x,y,z
-x,-y,-z
loop_
_atom_site_type_symbol
_atom_site_label
_atom_site_fract_x
_atom_site_fract_y
_atom_site_fract_z
Si Si1 0.684943 0.817526 0.678418
Si Si2 0.825577 0.303063 0.496005
Si Si3 0.149799 0.093081 0.672150
Si Si4 0.146903 0.987688 0.041511
Si Si5 0.785417 0.544720 0.901063
Si Si6 0.560472 0.287782 0.797395
Si Si7 0.701460 0.728005 0.188330
Si Si8 0.423760 0.790417 0.963712
O O1 0.754027 0.561490 0.567328
O O2 0.903248 0.768580 0.610179
O O3 0.748443 0.020528 0.662923
O O4 0.335065 0.902705 0.883340
O O5 0.536264 0.283639 0.659758
O O6 0.914840 0.119376 0.369976
O O7 0.059250 0.304059 0.724123
O O8 0.913091 0.183622 0.848849
O O9 0.500000 0.000000 0.500000
O O10 0.122165 0.252280 0.122109
O O11 0.364150 0.836026 0.945953
O O12 0.828095 0.941161 0.181759
O O13 0.500000 0.500000 0.000000
O O14 0.670616 0.641738 0.030937
O O15 0.431666 0.273304 0.802222
O O16 0.647787 0.525273 0.807028
O O17 0.000000 0.500000 0.000000
O O18 0.500000 0.000000 0.000000
#
# Coordination Sequence:
#
# PCOD9022926 Si02
#       8
#     2   2   2   2   2   2   2   2
#     4  10  22  40  64  89 116 167 207 261 305 370
#     4  11  23  41  61  87 132 161 205 254 327 363
#     4  11  24  39  61  91 129 165 200 258 319 378
#     4  11  21  40  66  90 122 161 218 252 312 365
#     4  10  22  42  66  94 126 169 215 259 305 382
#     4  10  22  39  65  91 123 160 220 251 309 373
#     4  12  23  40  62  92 125 163 202 266 312 371
#     4  11  21  38  65  92 119 167 215 257 303 380
#
# _framework density 21.696307999999998
#
# number of rings (size 3 to 8) (size 9 to 14) (size 15 to 20)
#    0.000    1.250    2.500    4.500    1.750    4.500 
#    0.000    5.000    0.000    0.000    0.000    0.000 
#    0.000    0.000    0.000    0.000    0.000    0.000 
#
# Total GULP energy -89298.494765 kJ/mol
# GULP energy per Si atom -5581.155923 kJ/mol
# Density = 2.164693 g / cm^3
# Si number density = 21.696308 Si / 1000 Ang^3
#
#
#
# Elastic Constant Matrix: (Units=GPa)
#
#
# Indices 1 2 3 4 5 6 
#
# 1 59.6891 33.5602 15.9314 17.0876 2.2254 -7.0918
# 2 33.5602 178.7251 50.6522 39.7157 -8.1567 0.2366
# 3 15.9314 50.6522 83.7386 -1.4503 -4.9763 -14.8298
# 4 17.0876 39.7157 -1.4503 53.3154 -8.7398 -7.2832
# 5 2.2254 -8.1567 -4.9763 -8.7398 33.0510 1.5831
# 6 -7.0918 0.2366 -14.8298 -7.2832 1.5831 31.6276
#
#
#
# Elastic Compliance Matrix: (Units=1/GPa)
#
#
# Indices 1 2 3 4 5 6 
#
# 1 0.020595 -0.002136 -0.002521 -0.005378 -0.003831 0.002405
# 2 -0.002136 0.009391 -0.006323 -0.007214 -0.000151 -0.005168
# 3 -0.002521 -0.006323 0.018277 0.007828 0.002966 0.009706
# 4 -0.005378 -0.007214 0.007828 0.028379 0.006848 0.008711
# 5 -0.003831 -0.000151 0.002966 0.006848 0.032712 0.000472
# 6 0.002405 -0.005168 0.009706 0.008711 0.000472 0.038729
#
#
# Mechanical properties :
#
#
# Convention : Reuss Voigt Hill
#
# Bulk Modulus (GPa) = 38.01823 58.04892 48.03357
# Shear Modulus (GPa) = 27.96217 38.39939 33.18078
#
# Velocity S-wave (km/s) = 3.59388 4.21153 3.91491
# Velocity P-wave (km/s) = 5.89765 7.10371 6.52859
#
# Compressibility (1/GPa) = 0.02630317
#
# Stress axis : x y z
#
# Youngs Moduli (GPa) = 48.55456 106.48060 54.71248
#
# Poissons Ratio (x) = 0.22741 0.13795
# Poissons Ratio (y) = 0.10370 0.34597
# Poissons Ratio (z) = 0.12242 0.67333
#
# Static dielectric constant tensor:
#      x y z
#    x 1.753990 -0.024030 0.006570 
#    y -0.024030 1.849000 0.019400 
#    z 0.006570 0.019400 1.773380 
# 
# From -- ./inp_files/205733.got.cif
#   From: 2010.05.17/outbox.cif.g08.bks.cpg/sg2_103_cif.got.tgz:205733.got - 2010.06.03 11:33:40.
