data_PCOD9022298
_publ_section_title
;
Structure prediction by ZEFSAII (Michael W. Deem and Ramdas Pophale) SiO2 
 PCOD9022298
Probable space group: P -1
;
_chemical_formula_sum "Si O2"
_cell_formula_units_Z 11
_cell_length_a 4.840209
_cell_length_b 20.480766
_cell_length_c 5.915415
_cell_angle_alpha 119.799532
_cell_angle_beta 81.912745
_cell_angle_gamma 113.420070
_cell_volume 465.748044
_symmetry_space_group_name_H-M "P -1"
_symmetry_group_IT_number 2
_symmetry_cell_setting 'triclinic'
loop_
_space_group_symop_operation_xyz
x,y,z
-x,-y,-z
loop_
_atom_site_type_symbol
_atom_site_label
_atom_site_fract_x
_atom_site_fract_y
_atom_site_fract_z
Si Si1 0.123820 0.629281 0.134838
Si Si2 0.000000 0.000000 0.500000
Si Si3 0.454972 0.937366 0.102405
Si Si4 0.737717 0.248250 0.300292
Si Si5 0.253052 0.518046 0.310296
Si Si6 0.371394 0.333554 0.239878
O O1 0.134445 0.709157 0.401339
O O2 0.183852 0.572957 0.223085
O O3 0.401760 0.652809 0.970365
O O4 0.814158 0.569354 0.946438
O O5 0.757408 0.960845 0.253916
O O6 0.195203 0.944918 0.303615
O O7 0.367832 0.847561 0.856779
O O8 0.500000 0.000000 0.000000
O O9 0.474230 0.277421 0.301762
O O10 0.018153 0.288302 0.164925
O O11 0.557594 0.578534 0.497865
O O12 0.000000 0.500000 0.500000
#
# Coordination Sequence:
#
# PCOD9022298 Si02
#       6
#     2   1   2   2   2   2
#     4   9  19  37  62  89 126 173 209 261 322 369
#     4  10  24  44  68  96 128 168 214 270 334 402
#     4  11  24  45  71  99 131 173 221 273 338 408
#     4  11  24  40  62  95 127 162 217 270 321 389
#     4   8  16  36  60  89 126 168 216 257 307 379
#     4  10  22  39  60  92 130 168 214 264 315 382
#
# _framework density 23.617918
#
# number of rings (size 3 to 8) (size 9 to 14) (size 15 to 20)
#    0.000    2.182    0.000    1.636    0.000    8.000 
#    0.000   32.727    0.000    0.000    0.000    0.000 
#    0.000    0.000    0.000    0.000    0.000    0.000 
#
# Total GULP energy -61294.074133 kJ/mol
# GULP energy per Si atom -5572.188558 kJ/mol
# Density = 2.356416 g / cm^3
# Si number density = 23.617918 Si / 1000 Ang^3
#
#
#
# Elastic Constant Matrix: (Units=GPa)
#
#
# Indices 1 2 3 4 5 6 
#
# 1 136.6945 35.8654 22.9068 14.0983 13.1379 3.7251
# 2 35.8654 119.3865 82.4800 40.6485 8.0178 -7.1800
# 3 22.9068 82.4800 169.3894 44.8394 3.1014 1.0544
# 4 14.0983 40.6485 44.8394 49.2636 3.0662 -4.2381
# 5 13.1379 8.0178 3.1014 3.0662 33.8581 5.2022
# 6 3.7251 -7.1800 1.0544 -4.2381 5.2022 16.0907
#
#
#
# Elastic Compliance Matrix: (Units=1/GPa)
#
#
# Indices 1 2 3 4 5 6 
#
# 1 0.008262 -0.002473 0.000329 -0.000702 -0.002201 -0.002511
# 2 -0.002473 0.015847 -0.005681 -0.006399 -0.002805 0.007237
# 3 0.000329 -0.005681 0.009952 -0.004997 0.001539 -0.005077
# 4 -0.000702 -0.006399 -0.004997 0.030963 -0.001524 0.006282
# 5 -0.002201 -0.002805 0.001539 -0.001524 0.032875 -0.011873
# 6 -0.002511 0.007237 -0.005077 0.006282 -0.011873 0.071784
#
#
# Mechanical properties :
#
#
# Convention : Reuss Voigt Hill
#
# Bulk Modulus (GPa) = 54.32376 78.66388 66.49382
# Shear Modulus (GPa) = 26.11371 38.79036 32.45203
#
# Velocity S-wave (km/s) = 3.32877 4.05707 3.71083
# Velocity P-wave (km/s) = 6.15023 7.43811 6.82462
#
# Compressibility (1/GPa) = 0.01840815
#
# Stress axis : x y z
#
# Youngs Moduli (GPa) = 121.03933 63.10443 100.48601
#
# Poissons Ratio (x) = 0.15608 -0.03304
# Poissons Ratio (y) = 0.29938 0.57091
# Poissons Ratio (z) = -0.03980 0.35852
#
# Static dielectric constant tensor:
#      x y z
#    x 1.883300 0.003700 0.028640 
#    y 0.003700 1.892370 -0.037450 
#    z 0.028640 -0.037450 1.939530 
# 
# From -- ./inp_files/5999.got.cif
#   From: 2010.05.17/outbox.cif.g08.bks.cpg/sg2_3_cif.got.tgz:5999.got - 2010.06.03 11:33:40.
