data_PCOD9022466
_publ_section_title
;
Structure prediction by ZEFSAII (Michael W. Deem and Ramdas Pophale) SiO2 
 PCOD9022466
Probable space group: P -1
;
_chemical_formula_sum "Si O2"
_cell_formula_units_Z 14
_cell_length_a 10.495296
_cell_length_b 25.357856
_cell_length_c 11.520492
_cell_angle_alpha 157.455916
_cell_angle_beta 37.870749
_cell_angle_gamma 154.160971
_cell_volume 496.008731
_symmetry_space_group_name_H-M "P -1"
_symmetry_group_IT_number 2
_symmetry_cell_setting 'triclinic'
loop_
_space_group_symop_operation_xyz
x,y,z
-x,-y,-z
loop_
_atom_site_type_symbol
_atom_site_label
_atom_site_fract_x
_atom_site_fract_y
_atom_site_fract_z
Si Si1 0.518048 0.351408 0.278573
Si Si2 0.643041 0.302584 0.860269
Si Si3 0.019752 0.177442 0.850823
Si Si4 0.706011 0.929443 0.790138
Si Si5 0.195752 0.610382 0.330244
Si Si6 0.689437 0.627893 0.298686
Si Si7 0.479560 0.941650 0.200759
O O1 0.326623 0.349159 0.503850
O O2 0.881763 0.539603 0.407645
O O3 0.468117 0.318104 0.107192
O O4 0.490033 0.184555 0.009326
O O5 0.588011 0.270827 0.697065
O O6 0.574030 0.114462 0.562005
O O7 0.000000 0.500000 0.000000
O O8 0.816031 0.156816 0.860716
O O9 0.878334 0.108690 0.940433
O O10 0.000000 0.000000 0.500000
O O11 0.343299 0.409910 0.080371
O O12 0.387987 0.738696 0.566549
O O13 0.792030 0.816073 0.541375
O O14 0.699261 0.015932 0.085875
O O15 0.123271 0.412392 0.962616
#
# Coordination Sequence:
#
# PCOD9022466 Si02
#       7
#     2   2   2   2   2   2   2
#     4  10  24  40  66  86 121 172 205 251 305 358
#     4  10  22  39  62  89 118 165 211 253 303 356
#     4  12  23  36  62  96 125 163 198 248 319 371
#     4  11  23  38  63  92 127 157 200 254 310 371
#     4  11  21  41  62  91 129 159 198 259 307 361
#     4  11  24  41  62  96 129 159 204 252 310 370
#     4  11  22  40  63  89 122 162 207 252 310 367
#
# _framework density 28.225307999999998
#
# number of rings (size 3 to 8) (size 9 to 14) (size 15 to 20)
#    0.000    1.143    2.857    3.000    6.000    2.857 
#    0.000    0.000    0.000    7.714    0.000    0.000 
#    0.000    0.000    0.000    0.000    0.000    0.000 
#
# Total GULP energy -78219.129105 kJ/mol
# GULP energy per Si atom -5587.080650 kJ/mol
# Density = 2.816107 g / cm^3
# Si number density = 28.225308 Si / 1000 Ang^3
#
#
#
# Elastic Constant Matrix: (Units=GPa)
#
#
# Indices 1 2 3 4 5 6 
#
# 1 82.7389 26.0741 24.4486 13.4571 -15.1634 -27.7164
# 2 26.0741 91.6290 17.0048 -7.5057 -0.8267 -28.7664
# 3 24.4486 17.0048 138.0929 -12.6781 -3.2248 -7.2692
# 4 13.4571 -7.5057 -12.6781 48.3037 -7.9285 0.5936
# 5 -15.1634 -0.8267 -3.2248 -7.9285 46.6650 5.5133
# 6 -27.7164 -28.7664 -7.2692 0.5936 5.5133 53.6955
#
#
#
# Elastic Compliance Matrix: (Units=1/GPa)
#
#
# Indices 1 2 3 4 5 6 
#
# 1 0.017726 -0.002750 -0.002858 -0.005587 0.003741 0.006967
# 2 -0.002750 0.013910 -0.000702 0.002509 -0.000980 0.006010
# 3 -0.002858 -0.000702 0.008057 0.002844 0.000195 -0.000812
# 4 -0.005587 0.002509 0.002844 0.023856 0.002679 -0.001694
# 5 0.003741 -0.000980 0.000195 0.002679 0.023212 -0.000980
# 6 0.006967 0.006010 -0.000812 -0.001694 -0.000980 0.025449
#
#
# Mechanical properties :
#
#
# Convention : Reuss Voigt Hill
#
# Bulk Modulus (GPa) = 36.94000 49.72396 43.33198
# Shear Modulus (GPa) = 37.35388 46.06173 41.70780
#
# Velocity S-wave (km/s) = 3.64183 4.04410 3.84822
# Velocity P-wave (km/s) = 5.54976 6.28183 5.92711
#
# Compressibility (1/GPa) = 0.02707093
#
# Stress axis : x y z
#
# Youngs Moduli (GPa) = 56.41491 71.89048 124.11702
#
# Poissons Ratio (x) = 0.19772 0.35478
# Poissons Ratio (y) = 0.15516 0.08715
# Poissons Ratio (z) = 0.16126 0.05048
#
# Static dielectric constant tensor:
#      x y z
#    x 2.395650 -0.378020 0.218330 
#    y -0.378020 3.199140 -0.712820 
#    z 0.218330 -0.712820 2.773190 
# 
# From -- ./inp_files/161747.got.cif
#   From: 2010.05.17/outbox.cif.g08.bks.cpg/sg2_81_cif.got.tgz:161747.got - 2010.06.03 11:33:40.
