data_PCOD9022504
_publ_section_title
;
Structure prediction by ZEFSAII (Michael W. Deem and Ramdas Pophale) SiO2 
 PCOD9022504
Probable space group: P -1
;
_chemical_formula_sum "Si O2"
_cell_formula_units_Z 16
_cell_length_a 8.584899
_cell_length_b 21.330715
_cell_length_c 5.986679
_cell_angle_alpha 99.869961
_cell_angle_beta 47.396247
_cell_angle_gamma 114.597098
_cell_volume 723.664736
_symmetry_space_group_name_H-M "P -1"
_symmetry_group_IT_number 2
_symmetry_cell_setting 'triclinic'
loop_
_space_group_symop_operation_xyz
x,y,z
-x,-y,-z
loop_
_atom_site_type_symbol
_atom_site_label
_atom_site_fract_x
_atom_site_fract_y
_atom_site_fract_z
Si Si1 0.306164 0.470641 0.359987
Si Si2 0.534399 0.728530 0.329336
Si Si3 0.150905 0.973532 0.181279
Si Si4 0.249283 0.775927 0.990075
Si Si5 0.009554 0.845408 0.950704
Si Si6 0.551876 0.401880 0.398956
Si Si7 0.392806 0.901560 0.232027
Si Si8 0.167504 0.646120 0.257445
O O1 0.387336 0.428673 0.437619
O O2 0.300243 0.536803 0.535519
O O3 0.062481 0.416311 0.467433
O O4 0.500000 0.500000 0.000000
O O5 0.408538 0.760018 0.644962
O O6 0.584667 0.669115 0.375204
O O7 0.354439 0.687103 0.287449
O O8 0.765822 0.791588 0.056645
O O9 0.276795 0.938197 0.199132
O O10 0.004345 0.914213 0.111000
O O11 0.000000 0.000000 0.500000
O O12 0.356350 0.040077 0.909624
O O13 0.078409 0.802924 0.047570
O O14 0.405086 0.837495 0.043944
O O15 0.115717 0.705708 0.217092
O O16 0.217841 0.871238 0.587549
O O17 0.716827 0.386480 0.054740
#
# Coordination Sequence:
#
# PCOD9022504 Si02
#       8
#     2   2   2   2   2   2   2   2
#     4  11  24  42  65  91 122 162 205 253 307 362
#     4  11  24  40  63  93 123 162 205 250 306 366
#     4  10  22  40  62  89 125 162 202 252 304 357
#     4  10  23  41  62  88 125 162 202 252 306 362
#     4  11  23  40  64  92 124 161 205 252 304 363
#     4  10  24  42  63  90 124 160 204 252 306 364
#     4  10  22  39  62  92 121 159 207 253 301 358
#     4  11  24  42  64  91 125 161 203 252 305 366
#
# _framework density 22.109686
#
# number of rings (size 3 to 8) (size 9 to 14) (size 15 to 20)
#    0.000    1.500    0.000    3.750    0.000   16.500 
#    0.000    0.000    0.000    0.000    0.000    0.000 
#    0.000    0.000    0.000    0.000    0.000    0.000 
#
# Total GULP energy -89549.317314 kJ/mol
# GULP energy per Si atom -5596.832332 kJ/mol
# Density = 2.205936 g / cm^3
# Si number density = 22.109686 Si / 1000 Ang^3
#
#
#
# Elastic Constant Matrix: (Units=GPa)
#
#
# Indices 1 2 3 4 5 6 
#
# 1 59.3782 56.9664 30.3692 -6.1029 -0.7599 28.4518
# 2 56.9664 190.4047 88.5859 1.0282 -10.2535 29.6116
# 3 30.3692 88.5859 123.9813 -14.6971 1.7844 26.6588
# 4 -6.1029 1.0282 -14.6971 42.0677 10.9784 -14.7678
# 5 -0.7599 -10.2535 1.7844 10.9784 22.0188 -3.3831
# 6 28.4518 29.6116 26.6588 -14.7678 -3.3831 28.1594
#
#
#
# Elastic Compliance Matrix: (Units=1/GPa)
#
#
# Indices 1 2 3 4 5 6 
#
# 1 0.041512 -0.008332 0.003962 -0.004805 -0.006556 -0.040240
# 2 -0.008332 0.011397 -0.007181 -0.005840 0.008700 0.001215
# 3 0.003962 -0.007181 0.014846 0.004970 -0.008254 -0.008893
# 4 -0.004805 -0.005840 0.004970 0.038299 -0.018676 0.024133
# 5 -0.006556 0.008700 -0.008254 -0.018676 0.059630 0.002659
# 6 -0.040240 0.001215 -0.008893 0.024133 0.002659 0.096287
#
#
# Mechanical properties :
#
#
# Convention : Reuss Voigt Hill
#
# Bulk Modulus (GPa) = 22.39469 80.62302 51.50886
# Shear Modulus (GPa) = 16.66903 31.63870 24.15387
#
# Velocity S-wave (km/s) = 2.74875 3.78694 3.30882
# Velocity P-wave (km/s) = 4.49723 7.46093 6.15997
#
# Compressibility (1/GPa) = 0.04465344
#
# Stress axis : x y z
#
# Youngs Moduli (GPa) = 24.08921 87.74262 67.35789
#
# Poissons Ratio (x) = 0.73111 -0.26690
# Poissons Ratio (y) = 0.20072 0.48370
# Poissons Ratio (z) = -0.09545 0.63008
#
# Static dielectric constant tensor:
#      x y z
#    x 1.822220 -0.009050 0.005550 
#    y -0.009050 1.806820 -0.011830 
#    z 0.005550 -0.011830 1.763270 
# 
# From -- ./inp_files/12778.got.cif
#   From: 2010.05.17/outbox.cif.g08.bks.cpg/sg2_7_cif.got.tgz:12778.got - 2010.06.03 11:33:40.
