data_PCOD9022585
_publ_section_title
;
Structure prediction by ZEFSAII (Michael W. Deem and Ramdas Pophale) SiO2 
 PCOD9022585
Probable space group: P -1
;
_chemical_formula_sum "Si O2"
_cell_formula_units_Z 10
_cell_length_a 5.280907
_cell_length_b 9.810651
_cell_length_c 10.224229
_cell_angle_alpha 104.031723
_cell_angle_beta 76.378961
_cell_angle_gamma 61.828072
_cell_volume 413.356816
_symmetry_space_group_name_H-M "P -1"
_symmetry_group_IT_number 2
_symmetry_cell_setting 'triclinic'
loop_
_space_group_symop_operation_xyz
x,y,z
-x,-y,-z
loop_
_atom_site_type_symbol
_atom_site_label
_atom_site_fract_x
_atom_site_fract_y
_atom_site_fract_z
Si Si1 0.408643 0.221547 0.812045
Si Si2 0.236171 0.696731 0.601766
Si Si3 0.834125 0.823247 0.945646
Si Si4 0.399841 0.115985 0.411525
Si Si5 0.796752 0.320213 0.879988
O O1 0.685850 0.244962 0.766498
O O2 0.088133 0.325856 0.794915
O O3 0.522708 0.028427 0.737940
O O4 0.287617 0.280297 0.989648
O O5 0.500000 0.500000 0.500000
O O6 0.398878 0.802079 0.602198
O O7 0.052562 0.740584 0.773968
O O8 0.967380 0.751241 0.538575
O O9 0.057838 0.804205 0.037535
O O10 0.500000 0.000000 0.000000
O O11 0.500000 0.000000 0.500000
O O12 0.500000 0.500000 0.000000
#
# Coordination Sequence:
#
# PCOD9022585 Si02
#       5
#     2   2   2   2   2
#     4  10  23  40  71  97 133 176 241 278 345 411
#     4  12  27  48  72 109 143 185 237 302 358 410
#     4  10  24  42  75  99 138 177 237 289 349 417
#     4  12  27  48  73  99 145 196 239 283 355 438
#     4  10  22  39  63 104 138 173 224 293 352 404
#
# _framework density 24.192176
#
# number of rings (size 3 to 8) (size 9 to 14) (size 15 to 20)
#    1.200    0.000    2.000    3.000    2.800    4.800 
#    0.000    0.000    0.000    0.000    0.000    0.000 
#    0.000    0.000    0.000    0.000    0.000    0.000 
#
# Total GULP energy -55680.688668 kJ/mol
# GULP energy per Si atom -5568.068867 kJ/mol
# Density = 2.413711 g / cm^3
# Si number density = 24.192176 Si / 1000 Ang^3
#
#
#
# Elastic Constant Matrix: (Units=GPa)
#
#
# Indices 1 2 3 4 5 6 
#
# 1 191.0569 68.8010 45.7963 2.2480 -13.7685 -21.6182
# 2 68.8010 89.3777 54.1308 29.5745 -17.2828 -5.0526
# 3 45.7963 54.1308 125.1128 1.0385 -11.5855 -7.9495
# 4 2.2480 29.5745 1.0385 44.8133 -9.3431 -11.3377
# 5 -13.7685 -17.2828 -11.5855 -9.3431 26.6795 11.4398
# 6 -21.6182 -5.0526 -7.9495 -11.3377 11.4398 50.2991
#
#
#
# Elastic Compliance Matrix: (Units=1/GPa)
#
#
# Indices 1 2 3 4 5 6 
#
# 1 0.008849 -0.009679 0.001117 0.006950 -0.000826 0.004762
# 2 -0.009679 0.033342 -0.010518 -0.021886 0.008363 -0.009308
# 3 0.001117 -0.010518 0.012301 0.007438 0.000448 0.002942
# 4 0.006950 -0.021886 0.007438 0.039267 0.001942 0.010373
# 5 -0.000826 0.008363 0.000448 0.001942 0.047560 -0.009823
# 6 0.004762 -0.009308 0.002942 0.010373 -0.009823 0.026030
#
#
# Mechanical properties :
#
#
# Convention : Reuss Voigt Hill
#
# Bulk Modulus (GPa) = 61.22710 82.55595 71.89152
# Shear Modulus (GPa) = 23.70182 40.14634 31.92408
#
# Velocity S-wave (km/s) = 3.13346 4.07809 3.63658
# Velocity P-wave (km/s) = 6.20121 7.50823 6.88580
#
# Compressibility (1/GPa) = 0.01633264
#
# Stress axis : x y z
#
# Youngs Moduli (GPa) = 113.00453 29.99213 81.29104
#
# Poissons Ratio (x) = 0.29028 -0.09078
# Poissons Ratio (y) = 1.09372 0.85504
# Poissons Ratio (z) = -0.12619 0.31546
#
# Static dielectric constant tensor:
#      x y z
#    x 2.169530 -0.018040 0.067110 
#    y -0.018040 1.954110 -0.005850 
#    z 0.067110 -0.005850 2.135190 
# 
# From -- ./inp_files/360236.got.cif
#   From: 2010.05.17/outbox.cif.g08.bks.cpg/sg2_181_cif.got.tgz:360236.got - 2010.06.03 11:33:40.
