data_PCOD9022998
_publ_section_title
;
Structure prediction by ZEFSAII (Michael W. Deem and Ramdas Pophale) SiO2 
 PCOD9022998
Probable space group: P -1
;
_chemical_formula_sum "Si O2"
_cell_formula_units_Z 16
_cell_length_a 11.166261
_cell_length_b 19.206582
_cell_length_c 8.941791
_cell_angle_alpha 147.359073
_cell_angle_beta 43.676518
_cell_angle_gamma 132.022610
_cell_volume 704.860362
_symmetry_space_group_name_H-M "P -1"
_symmetry_group_IT_number 2
_symmetry_cell_setting 'triclinic'
loop_
_space_group_symop_operation_xyz
x,y,z
-x,-y,-z
loop_
_atom_site_type_symbol
_atom_site_label
_atom_site_fract_x
_atom_site_fract_y
_atom_site_fract_z
Si Si1 0.538239 0.509198 0.807586
Si Si2 0.752633 0.885052 0.947906
Si Si3 0.426266 0.742367 0.837020
Si Si4 0.948282 0.674063 0.497971
Si Si5 0.725439 0.449975 0.134630
Si Si6 0.692705 0.030871 0.803639
Si Si7 0.806509 0.150903 0.218124
Si Si8 0.595152 0.808998 0.274800
O O1 0.611490 0.375647 0.460676
O O2 0.372152 0.499401 0.826060
O O3 0.500000 0.500000 0.000000
O O4 0.629445 0.660099 0.976804
O O5 0.622075 0.821260 0.818998
O O6 0.902674 0.796827 0.669385
O O7 0.651143 0.871462 0.175063
O O8 0.813991 0.033190 0.114266
O O9 0.394719 0.668387 0.888739
O O10 0.311163 0.852580 0.101119
O O11 0.782114 0.562087 0.409764
O O12 0.032519 0.733599 0.684558
O O13 0.106647 0.609258 0.173304
O O14 0.706079 0.900134 0.463955
O O15 0.814590 0.089403 0.935422
O O16 0.500000 0.000000 0.000000
O O17 0.612969 0.192038 0.499724
#
# Coordination Sequence:
#
# PCOD9022998 Si02
#       8
#     2   2   2   2   2   2   2   2
#     4  12  23  37  67  99 123 156 207 269 316 359
#     4  12  22  37  68  95 120 162 219 263 306 373
#     4  12  22  41  69  96 121 161 220 266 304 366
#     4  11  24  41  62  90 132 171 209 248 317 388
#     4  11  24  42  66  90 128 170 210 256 314 379
#     4  10  22  39  65  96 128 160 206 269 321 360
#     4  11  22  41  64  90 130 168 207 257 324 370
#     4  11  22  38  65  98 121 157 216 270 309 358
#
# _framework density 22.699534
#
# number of rings (size 3 to 8) (size 9 to 14) (size 15 to 20)
#    0.000    0.750    6.250    3.375    1.750    0.000 
#    0.000    1.250    5.500    0.000    0.000    0.000 
#    0.000    0.000    0.000    0.000    0.000    0.000 
#
# Total GULP energy -89313.118547 kJ/mol
# GULP energy per Si atom -5582.069909 kJ/mol
# Density = 2.264787 g / cm^3
# Si number density = 22.699534 Si / 1000 Ang^3
#
#
#
# Elastic Constant Matrix: (Units=GPa)
#
#
# Indices 1 2 3 4 5 6 
#
# 1 107.1082 34.0135 40.5892 11.3576 38.8010 6.9013
# 2 34.0135 45.8296 22.0039 10.2558 8.1461 -3.1031
# 3 40.5892 22.0039 127.4484 18.1401 42.9763 12.9899
# 4 11.3576 10.2558 18.1401 7.2908 1.7762 21.1443
# 5 38.8010 8.1461 42.9763 1.7762 49.9671 4.0408
# 6 6.9013 -3.1031 12.9899 21.1443 4.0408 23.5046
#
#
#
# Elastic Compliance Matrix: (Units=1/GPa)
#
#
# Indices 1 2 3 4 5 6 
#
# 1 0.017232 -0.010927 0.001145 -0.002018 -0.012253 -0.003214
# 2 -0.010927 0.026187 -0.006085 0.019478 0.009496 -0.009125
# 3 0.001145 -0.006085 0.012438 0.002164 -0.010006 -0.008240
# 4 -0.002018 0.019478 0.002164 -0.062325 -0.006031 0.059072
# 5 -0.012253 0.009496 -0.010006 -0.006031 0.036023 0.009614
# 6 -0.003214 -0.009125 -0.008240 0.059072 0.009614 -0.007955
#
#
# Mechanical properties :
#
#
# Convention : Reuss Voigt Hill
#
# Bulk Modulus (GPa) = 41.45488 52.62217 47.03853
# Shear Modulus (GPa) = 81.46497 28.40448 54.93473
#
# Velocity S-wave (km/s) = 5.99719 3.54124 4.92477
# Velocity P-wave (km/s) = 8.13985 6.32083 7.28732
#
# Compressibility (1/GPa) = 0.02412261
#
# Stress axis : x y z
#
# Youngs Moduli (GPa) = 58.03020 38.18658 80.39856
#
# Poissons Ratio (x) = 0.41728 -0.09206
# Poissons Ratio (y) = 0.63411 0.48925
# Poissons Ratio (z) = -0.06645 0.23238
#
# Static dielectric constant tensor:
#      x y z
#    x 1.860010 0.043510 0.026480 
#    y 0.043510 1.853100 -0.005440 
#    z 0.026480 -0.005440 1.872040 
# 
# From -- ./inp_files/208195.got.cif
#   From: 2010.05.17/outbox.cif.g08.bks.cpg/sg2_105_cif.got.tgz:208195.got - 2010.06.03 11:33:40.
