data_PCOD9022221
_publ_section_title
;
Structure prediction by ZEFSAII (Michael W. Deem and Ramdas Pophale) SiO2 
 PCOD9022221
Probable space group: P -1
;
_chemical_formula_sum "Si O2"
_cell_formula_units_Z 16
_cell_length_a 9.058855
_cell_length_b 17.256985
_cell_length_c 16.676032
_cell_angle_alpha 24.786812
_cell_angle_beta 51.805262
_cell_angle_gamma 39.736133
_cell_volume 666.962532
_symmetry_space_group_name_H-M "P -1"
_symmetry_group_IT_number 2
_symmetry_cell_setting 'triclinic'
loop_
_space_group_symop_operation_xyz
x,y,z
-x,-y,-z
loop_
_atom_site_type_symbol
_atom_site_label
_atom_site_fract_x
_atom_site_fract_y
_atom_site_fract_z
Si Si1 0.069610 0.780006 0.570660
Si Si2 0.006513 0.547437 0.290950
Si Si3 0.872441 0.694551 0.022664
Si Si4 0.447129 0.416663 0.335951
Si Si5 0.178254 0.931569 0.877901
Si Si6 0.254434 0.765741 0.823148
Si Si7 0.222405 0.708889 0.407594
Si Si8 0.335725 0.156502 0.726628
O O1 0.071215 0.554914 0.783892
O O2 0.264670 0.730838 0.616642
O O3 0.181663 0.781266 0.446414
O O4 0.803695 0.034611 0.409192
O O5 0.908370 0.697747 0.102212
O O6 0.924587 0.388889 0.459958
O O7 0.864100 0.715037 0.257681
O O8 0.295131 0.398967 0.336171
O O9 0.062779 0.725628 0.896806
O O10 0.597786 0.916685 0.887492
O O11 0.371300 0.343028 0.507654
O O12 0.315847 0.694685 0.107357
O O13 0.239298 0.863748 0.826568
O O14 0.247832 0.079290 0.757324
O O15 0.887287 0.099115 0.807505
O O16 0.500000 0.500000 0.000000
O O17 0.500000 0.500000 0.500000
#
# Coordination Sequence:
#
# PCOD9022221 Si02
#       8
#     2   2   2   2   2   2   2   2
#     4  10  23  40  67  95 129 172 215 271 327 387
#     4  11  24  38  62  96 139 185 216 253 316 390
#     4  11  23  45  66  97 134 173 220 271 319 397
#     4  12  22  40  64  97 137 172 221 261 319 382
#     4  11  25  42  66  96 131 174 218 271 331 381
#     4  11  25  49  73  93 124 171 223 283 340 386
#     4  10  22  39  59  92 136 178 223 257 311 389
#     4  12  24  41  63  97 145 176 216 262 317 391
#
# _framework density 23.989355
#
# number of rings (size 3 to 8) (size 9 to 14) (size 15 to 20)
#    0.000    1.000    5.000    1.500    3.500    3.000 
#    0.000    1.250    0.000    0.000    0.000    0.000 
#    0.000    0.000    0.000    0.000    0.000    0.000 
#
# Total GULP energy -89244.847123 kJ/mol
# GULP energy per Si atom -5577.802945 kJ/mol
# Density = 2.393475 g / cm^3
# Si number density = 23.989355 Si / 1000 Ang^3
#
#
#
# Elastic Constant Matrix: (Units=GPa)
#
#
# Indices 1 2 3 4 5 6 
#
# 1 170.8666 33.9246 47.7702 -23.3232 9.7957 -20.2897
# 2 33.9246 38.9356 14.0803 -30.2729 2.5465 -6.2453
# 3 47.7702 14.0803 146.9436 -24.9235 16.5116 -13.4843
# 4 -23.3232 -30.2729 -24.9235 34.4253 -17.1344 11.9755
# 5 9.7957 2.5465 16.5116 -17.1344 53.6229 -6.4370
# 6 -20.2897 -6.2453 -13.4843 11.9755 -6.4370 31.0882
#
#
#
# Elastic Compliance Matrix: (Units=1/GPa)
#
#
# Indices 1 2 3 4 5 6 
#
# 1 0.009089 -0.018527 -0.002921 -0.016709 -0.004445 0.006459
# 2 -0.018527 0.164054 0.011850 0.172887 0.043394 -0.031608
# 3 -0.002921 0.011850 0.009046 0.016691 0.002333 -0.001549
# 4 -0.016709 0.172887 0.016691 0.225222 0.056385 -0.044017
# 5 -0.004445 0.043394 0.002333 0.056385 0.033750 -0.007904
# 6 0.006459 -0.031608 -0.001549 -0.044017 -0.007904 0.044680
#
#
# Mechanical properties :
#
#
# Convention : Reuss Voigt Hill
#
# Bulk Modulus (GPa) = 6.13522 60.92178 33.52850
# Shear Modulus (GPa) = 8.93866 41.22534 25.08200
#
# Velocity S-wave (km/s) = 1.93240 4.14996 3.23700
# Velocity P-wave (km/s) = 2.74626 6.95797 5.28939
#
# Compressibility (1/GPa) = 0.16299326
#
# Stress axis : x y z
#
# Youngs Moduli (GPa) = 110.02635 6.09554 110.54285
#
# Poissons Ratio (x) = 0.11293 0.32293
# Poissons Ratio (y) = 2.03848 -1.30999
# Poissons Ratio (z) = 0.32142 -0.07224
#
# Static dielectric constant tensor:
#      x y z
#    x 1.918330 0.022080 0.007170 
#    y 0.022080 2.019600 -0.014140 
#    z 0.007170 -0.014140 2.078860 
# 
# From -- ./inp_files/246092.got.cif
#   From: 2010.05.17/outbox.cif.g08.bks.cpg/sg2_124_cif.got.tgz:246092.got - 2010.06.03 11:33:40.
