data_PCOD9022703
_publ_section_title
;
Structure prediction by ZEFSAII (Michael W. Deem and Ramdas Pophale) SiO2 
 PCOD9022703
Probable space group: P -1
;
_chemical_formula_sum "Si O2"
_cell_formula_units_Z 12
_cell_length_a 9.335507
_cell_length_b 7.611668
_cell_length_c 18.225531
_cell_angle_alpha 134.119418
_cell_angle_beta 146.697884
_cell_angle_gamma 44.060722
_cell_volume 478.756950
_symmetry_space_group_name_H-M "P -1"
_symmetry_group_IT_number 2
_symmetry_cell_setting 'triclinic'
loop_
_space_group_symop_operation_xyz
x,y,z
-x,-y,-z
loop_
_atom_site_type_symbol
_atom_site_label
_atom_site_fract_x
_atom_site_fract_y
_atom_site_fract_z
Si Si1 0.836341 0.128367 0.255854
Si Si2 0.148740 0.368170 0.366317
Si Si3 0.731968 0.532052 0.944507
Si Si4 0.963147 0.742071 0.874250
Si Si5 0.637044 0.185098 0.692766
Si Si6 0.364676 0.702677 0.635289
O O1 0.949047 0.358902 0.345464
O O2 0.524101 0.217639 0.117398
O O3 0.828019 0.096981 0.330248
O O4 0.060002 0.896252 0.240428
O O5 0.000666 0.323606 0.215665
O O6 0.230205 0.623412 0.483062
O O7 0.408861 0.091038 0.404755
O O8 0.651119 0.286193 0.809704
O O9 0.000000 0.500000 0.000000
O O10 0.817590 0.490774 0.053131
O O11 0.647291 0.755536 0.757854
O O12 0.000000 0.000000 0.000000
O O13 0.449103 0.430651 0.638461
#
# Coordination Sequence:
#
# PCOD9022703 Si02
#       6
#     2   2   2   2   2   2
#     4   9  21  38  66  93 116 158 212 253 298 367
#     4  10  22  39  63  96 124 156 203 259 309 355
#     4  11  20  41  63  89 124 166 204 250 305 367
#     4  12  23  40  61  92 128 167 199 254 309 357
#     4   9  20  38  65  94 116 158 209 249 301 363
#     4  11  21  42  66  88 127 164 204 249 304 368
#
# _framework density 25.064910000000001
#
# number of rings (size 3 to 8) (size 9 to 14) (size 15 to 20)
#    1.000    0.667    5.000    1.500    0.000    1.333 
#    3.000    1.667    0.000    3.000    0.000    0.000 
#    0.000    0.000    0.000    0.000    0.000    0.000 
#
# Total GULP energy -66946.397652 kJ/mol
# GULP energy per Si atom -5578.866471 kJ/mol
# Density = 2.500786 g / cm^3
# Si number density = 25.064910 Si / 1000 Ang^3
#
#
#
# Elastic Constant Matrix: (Units=GPa)
#
#
# Indices 1 2 3 4 5 6 
#
# 1 72.5083 4.1387 28.7252 3.6569 -1.3259 -9.0428
# 2 4.1387 45.2227 23.9344 -6.1801 -10.6016 -7.2293
# 3 28.7252 23.9344 136.8286 29.1134 -0.8058 3.1951
# 4 3.6569 -6.1801 29.1134 43.7845 -1.9673 -0.2055
# 5 -1.3259 -10.6016 -0.8058 -1.9673 35.0620 -2.8008
# 6 -9.0428 -7.2293 3.1951 -0.2055 -2.8008 36.0197
#
#
#
# Elastic Compliance Matrix: (Units=1/GPa)
#
#
# Indices 1 2 3 4 5 6 
#
# 1 0.015896 0.002237 -0.004240 0.001906 0.001683 0.004958
# 2 0.002237 0.031608 -0.008334 0.010338 0.010712 0.008537
# 3 -0.004240 -0.008334 0.011581 -0.008686 -0.003226 -0.004065
# 4 0.001906 0.010338 -0.008686 0.030158 0.005001 0.003885
# 5 0.001683 0.010712 -0.003226 0.005001 0.032462 0.005411
# 6 0.004958 0.008537 -0.004065 0.003885 0.005411 0.031524
#
#
# Mechanical properties :
#
#
# Convention : Reuss Voigt Hill
#
# Bulk Modulus (GPa) = 26.03497 40.90623 33.47060
# Shear Modulus (GPa) = 26.77988 36.15732 31.46860
#
# Velocity S-wave (km/s) = 3.27222 3.80221 3.54713
# Velocity P-wave (km/s) = 4.96851 5.96919 5.49169
#
# Compressibility (1/GPa) = 0.03840988
#
# Stress axis : x y z
#
# Youngs Moduli (GPa) = 62.90694 31.63780 86.35161
#
# Poissons Ratio (x) = -0.07077 0.36613
# Poissons Ratio (y) = -0.14071 0.71968
# Poissons Ratio (z) = 0.26672 0.26368
#
# Static dielectric constant tensor:
#      x y z
#    x 1.962810 0.035510 -0.027820 
#    y 0.035510 2.048060 -0.004080 
#    z -0.027820 -0.004080 2.102500 
# 
# From -- ./inp_files/395292.got.cif
#   From: 2010.05.17/outbox.cif.g08.bks.cpg/sg2_198_cif.got.tgz:395292.got - 2010.06.03 11:33:40.
