data_PCOD9022961
_publ_section_title
;
Structure prediction by ZEFSAII (Michael W. Deem and Ramdas Pophale) SiO2 
 PCOD9022961
Probable space group: P -1
;
_chemical_formula_sum "Si O2"
_cell_formula_units_Z 16
_cell_length_a 7.357586
_cell_length_b 12.066613
_cell_length_c 8.680790
_cell_angle_alpha 101.062357
_cell_angle_beta 125.475562
_cell_angle_gamma 85.453165
_cell_volume 615.463528
_symmetry_space_group_name_H-M "P -1"
_symmetry_group_IT_number 2
_symmetry_cell_setting 'triclinic'
loop_
_space_group_symop_operation_xyz
x,y,z
-x,-y,-z
loop_
_atom_site_type_symbol
_atom_site_label
_atom_site_fract_x
_atom_site_fract_y
_atom_site_fract_z
Si Si1 0.699907 0.277377 0.285520
Si Si2 0.476722 0.470387 0.751240
Si Si3 0.859640 0.551476 0.147407
Si Si4 0.144895 0.356258 0.355806
Si Si5 0.016375 0.247435 0.946509
Si Si6 0.660055 0.055741 0.373329
Si Si7 0.308682 0.863533 0.050728
Si Si8 0.016792 0.008050 0.761733
O O1 0.595944 0.399930 0.279078
O O2 0.648056 0.190574 0.376836
O O3 0.964747 0.299170 0.374309
O O4 0.605383 0.209794 0.068788
O O5 0.333017 0.428625 0.817838
O O6 0.386292 0.388121 0.551462
O O7 0.733690 0.480877 0.929683
O O8 0.036365 0.475611 0.296028
O O9 0.958332 0.664700 0.154330
O O10 0.139940 0.293000 0.173471
O O11 0.762807 0.219923 0.870203
O O12 0.099744 0.129884 0.893679
O O13 0.768023 0.019880 0.578275
O O14 0.456437 0.970976 0.205221
O O15 0.837184 0.027589 0.319957
O O16 0.076605 0.916343 0.892660
#
# Coordination Sequence:
#
# PCOD9022961 Si02
#       8
#     2   2   2   2   2   2   2   2
#     4   9  18  36  64  90 117 164 200 253 310 356
#     4  10  22  39  65  94 121 159 216 255 298 373
#     4  10  22  40  62  92 123 163 210 256 299 369
#     4  10  22  42  59  90 132 161 199 259 311 368
#     4  11  24  40  66  90 133 168 196 257 328 358
#     4  10  22  39  65  94 121 159 216 255 298 373
#     4  10  22  42  59  90 132 161 199 259 311 368
#     4  10  22  40  62  92 123 163 210 256 299 369
#
# _framework density 25.996666000000001
#
# number of rings (size 3 to 8) (size 9 to 14) (size 15 to 20)
#    0.000    2.000    0.000    3.750    7.000    1.000 
#    0.000    2.500    0.000    0.000    0.000    0.000 
#    0.000    0.000    0.000    0.000    0.000    0.000 
#
# Total GULP energy -89572.818334 kJ/mol
# GULP energy per Si atom -5598.301146 kJ/mol
# Density = 2.593750 g / cm^3
# Si number density = 25.996666 Si / 1000 Ang^3
#
#
#
# Elastic Constant Matrix: (Units=GPa)
#
#
# Indices 1 2 3 4 5 6 
#
# 1 34.8598 25.1486 12.3219 -6.7025 8.9270 16.2685
# 2 25.1486 154.5691 47.6054 1.8764 7.3002 34.6385
# 3 12.3219 47.6054 115.6710 8.3741 18.4036 13.5263
# 4 -6.7025 1.8764 8.3741 27.7728 -10.5319 -4.3610
# 5 8.9270 7.3002 18.4036 -10.5319 19.2400 14.4538
# 6 16.2685 34.6385 13.5263 -4.3610 14.4538 45.8656
#
#
#
# Elastic Compliance Matrix: (Units=1/GPa)
#
#
# Indices 1 2 3 4 5 6 
#
# 1 0.038295 -0.003948 -0.001064 0.006368 -0.005887 -0.007827
# 2 -0.003948 0.009563 -0.004161 0.001756 0.008478 -0.007099
# 3 -0.001064 -0.004161 0.014173 -0.011675 -0.021678 0.005061
# 4 0.006368 0.001756 -0.011675 0.056744 0.045412 -0.009057
# 5 -0.005887 0.008478 -0.021678 0.045412 0.120901 -0.031703
# 6 -0.007827 -0.007099 0.005061 -0.009057 -0.031703 0.037577
#
#
# Mechanical properties :
#
#
# Convention : Reuss Voigt Hill
#
# Bulk Modulus (GPa) = 22.89063 52.80575 37.84819
# Shear Modulus (GPa) = 16.12065 33.24395 24.68230
#
# Velocity S-wave (km/s) = 2.49289 3.57988 3.08464
# Velocity P-wave (km/s) = 4.13647 6.11915 5.22275
#
# Compressibility (1/GPa) = 0.04368599
#
# Stress axis : x y z
#
# Youngs Moduli (GPa) = 26.11283 104.57377 70.55498
#
# Poissons Ratio (x) = 0.41290 0.07504
# Poissons Ratio (y) = 0.10310 0.29356
# Poissons Ratio (z) = 0.02777 0.43511
#
# Static dielectric constant tensor:
#      x y z
#    x 2.059340 -0.009800 -0.002580 
#    y -0.009800 2.024890 -0.017410 
#    z -0.002580 -0.017410 2.093230 
# 
# From -- ./inp_files/188919.got.cif
#   From: 2010.05.17/outbox.cif.g08.bks.cpg/sg2_95_cif.got.tgz:188919.got - 2010.06.03 11:33:40.
