data_PCOD9022328
_publ_section_title
;
Structure prediction by ZEFSAII (Michael W. Deem and Ramdas Pophale) SiO2 
 PCOD9022328
Probable space group: P -1
;
_chemical_formula_sum "Si O2"
_cell_formula_units_Z 12
_cell_length_a 5.206946
_cell_length_b 7.186999
_cell_length_c 19.016413
_cell_angle_alpha 138.228723
_cell_angle_beta 113.264236
_cell_angle_gamma 63.182507
_cell_volume 421.024281
_symmetry_space_group_name_H-M "P -1"
_symmetry_group_IT_number 2
_symmetry_cell_setting 'triclinic'
loop_
_space_group_symop_operation_xyz
x,y,z
-x,-y,-z
loop_
_atom_site_type_symbol
_atom_site_label
_atom_site_fract_x
_atom_site_fract_y
_atom_site_fract_z
Si Si1 0.070377 0.401934 0.303209
Si Si2 0.597639 0.449824 0.151940
Si Si3 0.483474 0.874096 0.132620
Si Si4 0.690143 0.190075 0.463913
Si Si5 0.901704 0.831864 0.608963
Si Si6 0.864848 0.805721 0.013124
O O1 0.135875 0.692308 0.423553
O O2 0.056021 0.195152 0.310805
O O3 0.776931 0.471155 0.247178
O O4 0.336811 0.208347 0.232453
O O5 0.607104 0.689074 0.162756
O O6 0.759301 0.120418 0.055098
O O7 0.265916 0.419244 0.109116
O O8 0.703718 0.841980 0.082455
O O9 0.202419 0.755891 0.049863
O O10 0.500000 0.500000 0.500000
O O11 0.432159 0.046033 0.413672
O O12 0.888410 0.039013 0.378839
O O13 0.000000 0.500000 0.500000
#
# Coordination Sequence:
#
# PCOD9022328 Si02
#       6
#     2   2   2   2   2   2
#     4   9  19  33  56  84 109 143 189 232 274 328
#     4  10  22  39  61  85 114 150 193 235 279 336
#     4  11  23  39  59  84 117 150 188 236 284 334
#     4   8  15  29  50  72 104 146 175 214 280 329
#     4   8  15  29  50  72 104 146 175 214 280 329
#     4  10  24  41  58  82 116 155 188 229 287 339
#
# _framework density 28.501918
#
# number of rings (size 3 to 8) (size 9 to 14) (size 15 to 20)
#    0.000    3.000    0.000    1.000    0.000   19.333 
#    0.000    0.000    0.000   18.000    0.000    0.000 
#    0.000    0.000    0.000    0.000    0.000    0.000 
#
# Total GULP energy -67184.791851 kJ/mol
# GULP energy per Si atom -5598.732654 kJ/mol
# Density = 2.843705 g / cm^3
# Si number density = 28.501918 Si / 1000 Ang^3
#
#
#
# Elastic Constant Matrix: (Units=GPa)
#
#
# Indices 1 2 3 4 5 6 
#
# 1 232.1861 56.5478 79.4359 -38.9855 -6.0843 -17.5843
# 2 56.5478 166.3817 63.0873 -38.3954 17.1529 7.7900
# 3 79.4359 63.0873 149.6499 -29.5467 19.3341 -9.9984
# 4 -38.9855 -38.3954 -29.5467 68.0562 -14.0243 13.7079
# 5 -6.0843 17.1529 19.3341 -14.0243 44.6053 -15.3080
# 6 -17.5843 7.7900 -9.9984 13.7079 -15.3080 30.7197
#
#
#
# Elastic Compliance Matrix: (Units=1/GPa)
#
#
# Indices 1 2 3 4 5 6 
#
# 1 0.006360 -0.001456 -0.002732 0.001660 0.004765 0.004755
# 2 -0.001456 0.009062 -0.002240 0.004012 -0.004090 -0.007689
# 3 -0.002732 -0.002240 0.009656 0.000622 -0.003449 0.000151
# 4 0.001660 0.004012 0.000622 0.020183 0.002069 -0.007840
# 5 0.004765 -0.004090 -0.003449 0.002069 0.033025 0.018176
# 6 0.004755 -0.007689 0.000151 -0.007840 0.018176 0.049828
#
#
# Mechanical properties :
#
#
# Convention : Reuss Voigt Hill
#
# Bulk Modulus (GPa) = 81.83823 105.15108 93.49465
# Shear Modulus (GPa) = 34.47188 51.95269 43.21228
#
# Velocity S-wave (km/s) = 3.48150 4.27403 3.89796
# Velocity P-wave (km/s) = 6.70348 7.83130 7.28923
#
# Compressibility (1/GPa) = 0.01221923
#
# Stress axis : x y z
#
# Youngs Moduli (GPa) = 157.23202 110.34869 103.56755
#
# Poissons Ratio (x) = 0.16072 0.28298
# Poissons Ratio (y) = 0.22900 0.23204
# Poissons Ratio (z) = 0.42961 0.24724
#
# Static dielectric constant tensor:
#      x y z
#    x 2.741530 -0.052450 0.210660 
#    y -0.052450 2.312380 -0.008580 
#    z 0.210660 -0.008580 2.326820 
# 
# From -- ./inp_files/603919.got.cif
#   From: 2010.05.17/outbox.cif.g08.bks.cpg/sg2_302_cif.got.tgz:603919.got - 2010.06.03 11:33:40.
