data_PCOD9022747
_publ_section_title
;
Structure prediction by ZEFSAII (Michael W. Deem and Ramdas Pophale) SiO2 
 PCOD9022747
Probable space group: P -1
;
_chemical_formula_sum "Si O2"
_cell_formula_units_Z 16
_cell_length_a 15.729629
_cell_length_b 15.208520
_cell_length_c 5.321991
_cell_angle_alpha 58.995575
_cell_angle_beta 80.746360
_cell_angle_gamma 43.211498
_cell_volume 695.418039
_symmetry_space_group_name_H-M "P -1"
_symmetry_group_IT_number 2
_symmetry_cell_setting 'triclinic'
loop_
_space_group_symop_operation_xyz
x,y,z
-x,-y,-z
loop_
_atom_site_type_symbol
_atom_site_label
_atom_site_fract_x
_atom_site_fract_y
_atom_site_fract_z
Si Si1 0.521786 0.075379 0.707990
Si Si2 0.344181 0.907550 0.977518
Si Si3 0.615702 0.665198 0.908573
Si Si4 0.977488 0.313346 0.975647
Si Si5 0.861504 0.521466 0.229507
Si Si6 0.761857 0.344624 0.090849
Si Si7 0.212216 0.178402 0.294862
Si Si8 0.661265 0.326262 0.666904
O O1 0.633993 0.940405 0.660173
O O2 0.385677 0.233723 0.413995
O O3 0.500000 0.000000 0.000000
O O4 0.584031 0.110318 0.788842
O O5 0.466043 0.788841 0.892027
O O6 0.230406 0.089945 0.663458
O O7 0.308121 0.822184 0.153730
O O8 0.716492 0.598327 0.183089
O O9 0.663104 0.530272 0.911327
O O10 0.931629 0.424498 0.597854
O O11 0.931790 0.404960 0.128098
O O12 0.904273 0.269704 0.076654
O O13 0.136201 0.173605 0.140020
O O14 0.851777 0.650855 0.976534
O O15 0.736622 0.309276 0.418391
O O16 0.718723 0.317548 0.913357
O O17 0.500000 0.500000 0.500000
#
# Coordination Sequence:
#
# PCOD9022747 Si02
#       8
#     2   2   2   2   2   2   2   2
#     4  11  24  40  68  95 141 176 217 269 341 401
#     4  11  25  40  66  98 137 176 220 275 340 398
#     4  10  22  39  64 101 132 169 218 278 337 401
#     4  11  26  45  70  98 135 178 230 272 326 397
#     4  11  24  42  72  99 135 176 224 272 332 394
#     4  11  24  42  68  98 130 171 222 283 332 385
#     4  11  26  43  64  99 136 182 224 270 329 404
#     4  12  24  42  70  98 133 168 224 279 342 391
#
# _framework density 23.007745
#
# number of rings (size 3 to 8) (size 9 to 14) (size 15 to 20)
#    0.000    1.000    1.250    4.875   14.000    2.000 
#    0.000    1.250    0.000    0.000    0.000    0.000 
#    0.000    0.000    0.000    0.000    0.000    0.000 
#
# Total GULP energy -89326.231320 kJ/mol
# GULP energy per Si atom -5582.889458 kJ/mol
# Density = 2.295538 g / cm^3
# Si number density = 23.007745 Si / 1000 Ang^3
#
#
#
# Elastic Constant Matrix: (Units=GPa)
#
#
# Indices 1 2 3 4 5 6 
#
# 1 102.3603 24.4395 28.2298 3.2199 -8.4930 17.3148
# 2 24.4395 48.5714 27.0656 16.9386 -6.4072 13.8309
# 3 28.2298 27.0656 123.2339 20.0886 -2.8002 -0.7654
# 4 3.2199 16.9386 20.0886 22.8180 6.6052 10.7215
# 5 -8.4930 -6.4072 -2.8002 6.6052 44.9752 2.1805
# 6 17.3148 13.8309 -0.7654 10.7215 2.1805 33.2522
#
#
#
# Elastic Compliance Matrix: (Units=1/GPa)
#
#
# Indices 1 2 3 4 5 6 
#
# 1 0.012963 -0.005513 -0.003133 0.008241 0.000608 -0.007226
# 2 -0.005513 0.035162 -0.002594 -0.022869 0.007404 -0.004926
# 3 -0.003133 -0.002594 0.011227 -0.010812 0.001016 0.006389
# 4 0.008241 -0.022869 -0.010812 0.082878 -0.013535 -0.020863
# 5 0.000608 0.007404 0.001016 -0.013535 0.025488 -0.000680
# 6 -0.007226 -0.004926 0.006389 -0.020863 -0.000680 0.042804
#
#
# Mechanical properties :
#
#
# Convention : Reuss Voigt Hill
#
# Bulk Modulus (GPa) = 27.12048 48.18172 37.65110
# Shear Modulus (GPa) = 20.38365 33.17116 26.77740
#
# Velocity S-wave (km/s) = 2.97972 3.80114 3.41522
# Velocity P-wave (km/s) = 4.86327 6.34444 5.65258
#
# Compressibility (1/GPa) = 0.03687251
#
# Stress axis : x y z
#
# Youngs Moduli (GPa) = 77.14079 28.43944 89.06712
#
# Poissons Ratio (x) = 0.15678 0.27907
# Poissons Ratio (y) = 0.42527 0.23106
# Poissons Ratio (z) = 0.24170 0.07378
#
# Static dielectric constant tensor:
#      x y z
#    x 1.900990 -0.059870 -0.017410 
#    y -0.059870 1.928330 0.032980 
#    z -0.017410 0.032980 1.933370 
# 
# From -- ./inp_files/97491.got.cif
#   From: 2010.05.17/outbox.cif.g08.bks.cpg/sg2_49_cif.got.tgz:97491.got - 2010.06.03 11:33:40.
