data_PCOD9022239
_publ_section_title
;
Structure prediction by ZEFSAII (Michael W. Deem and Ramdas Pophale) SiO2 
 PCOD9022239
Probable space group: P -1
;
_chemical_formula_sum "Si O2"
_cell_formula_units_Z 16
_cell_length_a 5.427108
_cell_length_b 17.702799
_cell_length_c 9.727892
_cell_angle_alpha 81.940764
_cell_angle_beta 100.795885
_cell_angle_gamma 126.288025
_cell_volume 739.500254
_symmetry_space_group_name_H-M "P -1"
_symmetry_group_IT_number 2
_symmetry_cell_setting 'triclinic'
loop_
_space_group_symop_operation_xyz
x,y,z
-x,-y,-z
loop_
_atom_site_type_symbol
_atom_site_label
_atom_site_fract_x
_atom_site_fract_y
_atom_site_fract_z
Si Si1 0.693884 0.512227 0.384126
Si Si2 0.626821 0.479094 0.886943
Si Si3 0.207932 0.702089 0.461236
Si Si4 0.238508 0.010283 0.910785
Si Si5 0.220528 0.786297 0.150760
Si Si6 0.138017 0.191764 0.123373
Si Si7 0.742208 0.700306 0.630010
Si Si8 0.223075 0.660681 0.952429
O O1 0.500000 0.500000 0.500000
O O2 0.610157 0.559845 0.249704
O O3 0.539706 0.408054 0.338114
O O4 0.048509 0.591876 0.432031
O O5 0.931880 0.581052 0.853745
O O6 0.500000 0.500000 0.000000
O O7 0.683380 0.403340 0.954834
O O8 0.191792 0.753452 0.312435
O O9 0.552517 0.738957 0.535599
O O10 0.989452 0.704375 0.552343
O O11 0.438942 0.115560 0.847879
O O12 0.026030 0.915774 0.823670
O O13 0.500000 0.000000 0.000000
O O14 0.000000 0.000000 0.000000
O O15 0.172761 0.706366 0.064724
O O16 0.992550 0.805453 0.041513
O O17 0.091411 0.244705 0.226033
O O18 0.504082 0.254150 0.127578
#
# Coordination Sequence:
#
# PCOD9022239 Si02
#       8
#     2   2   2   2   2   2   2   2
#     4  10  22  39  60  84 133 170 226 253 322 379
#     4  11  23  39  54  98 129 172 213 275 325 391
#     4  11  26  43  65  96 135 179 221 269 331 393
#     4  10  22  42  68 104 130 164 219 281 336 392
#     4  11  24  42  70  97 130 171 226 276 335 396
#     4  11  24  42  70  97 130 171 226 276 335 396
#     4  11  26  43  65  96 135 179 221 269 331 393
#     4  11  22  35  70  88 134 165 222 273 332 384
#
# _framework density 21.636232
#
# number of rings (size 3 to 8) (size 9 to 14) (size 15 to 20)
#    0.000    1.250    1.250    4.125   10.500    1.000 
#    0.000    1.250    0.000    0.000    0.000    0.000 
#    0.000    0.000    0.000    0.000    0.000    0.000 
#
# Total GULP energy -89280.949528 kJ/mol
# GULP energy per Si atom -5580.059345 kJ/mol
# Density = 2.158699 g / cm^3
# Si number density = 21.636232 Si / 1000 Ang^3
#
#
#
# Elastic Constant Matrix: (Units=GPa)
#
#
# Indices 1 2 3 4 5 6 
#
# 1 85.5433 15.7555 21.6042 -1.9622 5.2382 6.4185
# 2 15.7555 130.2118 15.9155 5.3018 -5.0429 20.7494
# 3 21.6042 15.9155 90.8081 -6.9875 5.9862 4.4015
# 4 -1.9622 5.3018 -6.9875 24.2168 1.4200 -5.0812
# 5 5.2382 -5.0429 5.9862 1.4200 34.8011 -0.0935
# 6 6.4185 20.7494 4.4015 -5.0812 -0.0935 34.9625
#
#
#
# Elastic Compliance Matrix: (Units=1/GPa)
#
#
# Indices 1 2 3 4 5 6 
#
# 1 0.012766 -0.001087 -0.002649 0.000327 -0.001640 -0.001322
# 2 -0.001087 0.009106 -0.001483 -0.003787 0.001878 -0.005563
# 3 -0.002649 -0.001483 0.012320 0.003865 -0.002092 0.000372
# 4 0.000327 -0.003787 0.003865 0.045178 -0.003084 0.008258
# 5 -0.001640 0.001878 -0.002092 -0.003084 0.029737 -0.000919
# 6 -0.001322 -0.005563 0.000372 0.008258 -0.000919 0.033297
#
#
# Mechanical properties :
#
#
# Convention : Reuss Voigt Hill
#
# Bulk Modulus (GPa) = 42.09903 45.90153 44.00028
# Shear Modulus (GPa) = 31.10205 35.68195 33.39200
#
# Velocity S-wave (km/s) = 3.79555 4.06541 3.93279
# Velocity P-wave (km/s) = 6.22159 6.58012 6.40336
#
# Compressibility (1/GPa) = 0.02375352
#
# Stress axis : x y z
#
# Youngs Moduli (GPa) = 78.33033 109.81766 81.17033
#
# Poissons Ratio (x) = 0.11938 0.21505
# Poissons Ratio (y) = 0.08515 0.12036
# Poissons Ratio (z) = 0.20753 0.16284
#
# Static dielectric constant tensor:
#      x y z
#    x 1.945080 -0.006830 0.068070 
#    y -0.006830 1.827570 -0.001390 
#    z 0.068070 -0.001390 1.800550 
# 
# From -- ./inp_files/138970.got.cif
#   From: 2010.05.17/outbox.cif.g08.bks.cpg/sg2_70_cif.got.tgz:138970.got - 2010.06.03 11:33:40.
