data_PCOD9022138
_publ_section_title
;
Structure prediction by ZEFSAII (Michael W. Deem and Ramdas Pophale) SiO2 
 PCOD9022138
Probable space group: P -1
;
_chemical_formula_sum "Si O2"
_cell_formula_units_Z 14
_cell_length_a 17.393918
_cell_length_b 15.887042
_cell_length_c 14.802080
_cell_angle_alpha 147.596541
_cell_angle_beta 156.180114
_cell_angle_gamma 23.001195
_cell_volume 645.437157
_symmetry_space_group_name_H-M "P -1"
_symmetry_group_IT_number 2
_symmetry_cell_setting 'triclinic'
loop_
_space_group_symop_operation_xyz
x,y,z
-x,-y,-z
loop_
_atom_site_type_symbol
_atom_site_label
_atom_site_fract_x
_atom_site_fract_y
_atom_site_fract_z
Si Si1 0.259752 0.453272 0.720649
Si Si2 0.257131 0.338732 0.901430
Si Si3 0.334763 0.125609 0.029032
Si Si4 0.228431 0.655752 0.033809
Si Si5 0.305744 0.395255 0.503577
Si Si6 0.360972 0.019553 0.275357
Si Si7 0.729639 0.497645 0.741846
O O1 0.287203 0.445215 0.635806
O O2 0.000000 0.500000 0.500000
O O3 0.480692 0.223837 0.797094
O O4 0.247007 0.621010 0.914195
O O5 0.978537 0.406949 0.662452
O O6 0.250881 0.473554 0.939875
O O7 0.258824 0.433373 0.083104
O O8 0.502242 0.084083 0.922630
O O9 0.020837 0.271371 0.823151
O O10 0.343070 0.308476 0.221688
O O11 0.500000 0.000000 0.000000
O O12 0.448001 0.644356 0.299352
O O13 0.933342 0.870202 0.928401
O O14 0.355610 0.179772 0.354402
O O15 0.500000 0.000000 0.500000
O O16 0.500000 0.500000 0.500000
#
# Coordination Sequence:
#
# PCOD9022138 Si02
#       7
#     2   2   2   2   2   2   2
#     4  11  19  39  60  79 117 159 203 246 292 339
#     4  10  22  39  58  89 125 155 189 252 296 351
#     4   9  21  41  66  90 120 158 194 239 306 359
#     4  11  22  38  57  87 118 157 203 244 294 349
#     4  10  22  39  57  84 121 158 200 247 292 349
#     4   9  19  36  55  78 111 154 194 252 291 334
#     4  10  22  41  66  94 119 155 200 242 297 368
#
# _framework density 21.690725
#
# number of rings (size 3 to 8) (size 9 to 14) (size 15 to 20)
#    0.000    2.000    4.286    0.429    0.000   11.429 
#    2.571    0.000    0.000    0.000    0.000    0.000 
#    0.000    0.000    0.000    0.000    0.000    0.000 
#
# Total GULP energy -78084.381252 kJ/mol
# GULP energy per Si atom -5577.455804 kJ/mol
# Density = 2.164136 g / cm^3
# Si number density = 21.690725 Si / 1000 Ang^3
#
#
#
# Elastic Constant Matrix: (Units=GPa)
#
#
# Indices 1 2 3 4 5 6 
#
# 1 50.3682 25.4313 27.8788 -8.6557 3.0797 -14.1970
# 2 25.4313 148.2252 59.8870 -47.5228 18.7347 -17.9165
# 3 27.8788 59.8870 175.5052 -24.9133 40.4742 -18.8211
# 4 -8.6557 -47.5228 -24.9133 28.2158 -9.8039 0.5443
# 5 3.0797 18.7347 40.4742 -9.8039 40.5093 -4.1289
# 6 -14.1970 -17.9165 -18.8211 0.5443 -4.1289 25.8011
#
#
#
# Elastic Compliance Matrix: (Units=1/GPa)
#
#
# Indices 1 2 3 4 5 6 
#
# 1 0.025813 -0.000438 -0.002595 0.005874 0.003523 0.012447
# 2 -0.000438 0.017658 -0.000878 0.028918 0.000855 0.010907
# 3 -0.002595 -0.000878 0.008827 0.002965 -0.007173 0.003191
# 4 0.005874 0.028918 0.002965 0.090767 0.007712 0.024794
# 5 0.003523 0.000855 -0.007173 0.007712 0.033307 0.002467
# 6 0.012447 0.010907 0.003191 0.024794 0.002467 0.055380
#
#
# Mechanical properties :
#
#
# Convention : Reuss Voigt Hill
#
# Bulk Modulus (GPa) = 22.48404 66.72143 44.60273
# Shear Modulus (GPa) = 19.65403 36.29867 27.97635
#
# Velocity S-wave (km/s) = 3.01342 4.09524 3.59525
# Velocity P-wave (km/s) = 4.74298 7.29304 6.15160
#
# Compressibility (1/GPa) = 0.04447600
#
# Stress axis : x y z
#
# Youngs Moduli (GPa) = 38.73950 56.63074 113.28901
#
# Poissons Ratio (x) = 0.02481 0.29397
# Poissons Ratio (y) = 0.01697 0.09951
# Poissons Ratio (z) = 0.10052 0.04974
#
# Static dielectric constant tensor:
#      x y z
#    x 1.918160 0.030480 -0.012520 
#    y 0.030480 1.818460 0.009680 
#    z -0.012520 0.009680 1.830210 
# 
# From -- ./inp_files/578374.got.cif
#   From: 2010.05.17/outbox.cif.g08.bks.cpg/sg2_290_cif.got.tgz:578374.got - 2010.06.03 11:33:40.
