data_PCOD9022068
_publ_section_title
;
Structure prediction by ZEFSAII (Michael W. Deem and Ramdas Pophale) SiO2 
 PCOD9022068
Probable space group: P -1
;
_chemical_formula_sum "Si O2"
_cell_formula_units_Z 14
_cell_length_a 10.079695
_cell_length_b 27.600328
_cell_length_c 5.420651
_cell_angle_alpha 63.589446
_cell_angle_beta 71.632109
_cell_angle_gamma 30.041506
_cell_volume 667.896048
_symmetry_space_group_name_H-M "P -1"
_symmetry_group_IT_number 2
_symmetry_cell_setting 'triclinic'
loop_
_space_group_symop_operation_xyz
x,y,z
-x,-y,-z
loop_
_atom_site_type_symbol
_atom_site_label
_atom_site_fract_x
_atom_site_fract_y
_atom_site_fract_z
Si Si1 0.861203 0.210937 0.204331
Si Si2 0.258679 0.085010 0.642139
Si Si3 0.480793 0.434134 0.906703
Si Si4 0.572484 0.787027 0.166325
Si Si5 0.759868 0.123544 0.341364
Si Si6 0.349971 0.119675 0.908367
Si Si7 0.188849 0.566025 0.278551
O O1 0.847777 0.157146 0.210948
O O2 0.970161 0.167655 0.517202
O O3 0.601237 0.334151 0.064699
O O4 0.099020 0.169078 0.048165
O O5 0.280863 0.138126 0.617811
O O6 0.500000 0.000000 0.500000
O O7 0.364676 0.004804 0.950904
O O8 0.318212 0.498365 0.604260
O O9 0.717357 0.401657 0.846991
O O10 0.309945 0.501444 0.101873
O O11 0.415311 0.821691 0.428043
O O12 0.623934 0.833129 0.081415
O O13 0.869696 0.664153 0.249434
O O14 0.406337 0.833279 0.908389
O O15 0.000000 0.000000 0.500000
#
# Coordination Sequence:
#
# PCOD9022068 Si02
#       7
#     2   2   2   2   2   2   2
#     4  11  24  42  66  99 133 185 223 282 342 406
#     4   9  21  36  62  98 129 164 235 289 328 400
#     4  10  22  40  71 101 133 166 231 289 343 392
#     4  12  26  47  69  99 139 189 223 284 343 405
#     4  12  30  46  67 100 150 184 224 275 346 413
#     4  10  22  38  70  94 129 176 239 279 337 409
#     4  10  22  43  67 104 131 170 224 297 340 391
#
# _framework density 20.961345999999999
#
# number of rings (size 3 to 8) (size 9 to 14) (size 15 to 20)
#    0.000    1.429    1.429    2.143   14.000    1.143 
#    0.000    4.286    0.000    0.000    0.000    0.000 
#    0.000    0.000    0.000    0.000    0.000    0.000 
#
# Total GULP energy -78100.761681 kJ/mol
# GULP energy per Si atom -5578.625834 kJ/mol
# Density = 2.091364 g / cm^3
# Si number density = 20.961346 Si / 1000 Ang^3
#
#
#
# Elastic Constant Matrix: (Units=GPa)
#
#
# Indices 1 2 3 4 5 6 
#
# 1 159.5208 49.1873 70.7947 -8.6115 12.5536 15.0012
# 2 49.1873 134.4248 81.7130 -5.5756 4.7770 -1.8442
# 3 70.7947 81.7130 97.5108 7.0909 27.3728 3.7024
# 4 -8.6115 -5.5756 7.0909 39.6031 0.3775 -5.3823
# 5 12.5536 4.7770 27.3728 0.3775 41.4708 -1.7044
# 6 15.0012 -1.8442 3.7024 -5.3823 -1.7044 31.5560
#
#
#
# Elastic Compliance Matrix: (Units=1/GPa)
#
#
# Indices 1 2 3 4 5 6 
#
# 1 0.010718 0.003414 -0.012055 0.004594 0.004176 -0.002472
# 2 0.003414 0.021084 -0.024561 0.008619 0.012862 0.004656
# 3 -0.012055 -0.024561 0.047987 -0.015148 -0.025274 -0.005284
# 4 0.004594 0.008619 -0.015148 0.030888 0.007571 0.005774
# 5 0.004176 0.012862 -0.025274 0.007571 0.038190 0.005086
# 6 -0.002472 0.004656 -0.005284 0.005774 0.005086 0.035017
#
#
# Mechanical properties :
#
#
# Convention : Reuss Voigt Hill
#
# Bulk Modulus (GPa) = 74.71172 88.31626 81.51399
# Shear Modulus (GPa) = 19.62720 35.17673 27.40196
#
# Velocity S-wave (km/s) = 3.06331 4.10099 3.61953
# Velocity P-wave (km/s) = 6.94491 8.04043 7.51267
#
# Compressibility (1/GPa) = 0.01338478
#
# Stress axis : x y z
#
# Youngs Moduli (GPa) = 93.30343 47.42877 20.83914
#
# Poissons Ratio (x) = -0.16194 0.25121
# Poissons Ratio (y) = -0.31856 0.51184
# Poissons Ratio (z) = 1.12475 1.16492
#
# Static dielectric constant tensor:
#      x y z
#    x 1.798580 0.026360 0.038980 
#    y 0.026360 1.773840 0.049680 
#    z 0.038980 0.049680 2.107480 
# 
# From -- ./inp_files/56303.got.cif
#   From: 2010.05.17/outbox.cif.g08.bks.cpg/sg2_29_cif.got.tgz:56303.got - 2010.06.03 11:33:40.
