data_PCOD9022523
_publ_section_title
;
Structure prediction by ZEFSAII (Michael W. Deem and Ramdas Pophale) SiO2 
 PCOD9022523
Probable space group: P -1
;
_chemical_formula_sum "Si O2"
_cell_formula_units_Z 15
_cell_length_a 14.895971
_cell_length_b 8.807283
_cell_length_c 15.123688
_cell_angle_alpha 88.874140
_cell_angle_beta 160.620843
_cell_angle_gamma 89.067006
_cell_volume 654.605084
_symmetry_space_group_name_H-M "P -1"
_symmetry_group_IT_number 2
_symmetry_cell_setting 'triclinic'
loop_
_space_group_symop_operation_xyz
x,y,z
-x,-y,-z
loop_
_atom_site_type_symbol
_atom_site_label
_atom_site_fract_x
_atom_site_fract_y
_atom_site_fract_z
Si Si1 0.260030 0.037109 0.005134
Si Si2 0.500000 0.500000 0.500000
Si Si3 0.543758 0.249607 0.398535
Si Si4 0.161290 0.029984 0.237599
Si Si5 0.923543 0.642829 0.789816
Si Si6 0.498109 0.701379 0.246093
Si Si7 0.474527 0.452852 0.077758
Si Si8 0.952306 0.281817 0.625180
O O1 0.376541 0.173894 0.166673
O O2 0.462617 0.882190 0.188318
O O3 0.030242 0.985006 0.855791
O O4 0.114981 0.112011 0.782559
O O5 0.429768 0.389575 0.351230
O O6 0.802675 0.512507 0.735514
O O7 0.609054 0.106535 0.527955
O O8 0.799846 0.295039 0.578442
O O9 0.215811 0.203372 0.293982
O O10 0.000000 0.000000 0.000000
O O11 0.774526 0.654943 0.556413
O O12 0.242581 0.660480 0.071453
O O13 0.495346 0.597386 0.158880
O O14 0.717854 0.325126 0.335102
O O15 0.500000 0.500000 0.000000
O O16 0.184687 0.392433 0.826886
#
# Coordination Sequence:
#
# PCOD9022523 Si02
#       8
#     2   1   2   2   2   2   2   2
#     4  10  22  42  71  91 131 185 225 270 336 394
#     4  12  26  36  60  96 132 176 232 270 330 374
#     4  11  22  43  64  94 135 182 219 280 329 386
#     4  10  22  39  62  93 132 176 234 282 324 371
#     4  11  25  42  63  96 133 179 227 281 321 395
#     4  11  24  46  70  98 129 178 227 271 341 408
#     4  12  25  46  74 104 136 170 214 279 346 413
#     4  11  24  46  71 100 138 176 220 272 342 408
#
# _framework density 22.914580000000001
#
# number of rings (size 3 to 8) (size 9 to 14) (size 15 to 20)
#    0.000    1.067    2.667    3.600    3.733    1.600 
#    0.000    1.333    0.000    0.000    0.000    0.000 
#    0.000    0.000    0.000    0.000    0.000    0.000 
#
# Total GULP energy -83534.396288 kJ/mol
# GULP energy per Si atom -5568.959753 kJ/mol
# Density = 2.286243 g / cm^3
# Si number density = 22.914580 Si / 1000 Ang^3
#
#
#
# Elastic Constant Matrix: (Units=GPa)
#
#
# Indices 1 2 3 4 5 6 
#
# 1 50.1386 18.9166 6.9659 5.0113 -3.7224 14.7286
# 2 18.9166 61.1000 21.2729 -2.8773 0.5376 12.3502
# 3 6.9659 21.2729 102.2645 -4.2122 0.9386 17.6143
# 4 5.0113 -2.8773 -4.2122 42.0317 12.8394 -3.2658
# 5 -3.7224 0.5376 0.9386 12.8394 25.5239 -5.1962
# 6 14.7286 12.3502 17.6143 -3.2658 -5.1962 22.1109
#
#
#
# Elastic Compliance Matrix: (Units=1/GPa)
#
#
# Indices 1 2 3 4 5 6 
#
# 1 0.027777 -0.006250 0.001987 -0.005971 0.003734 -0.016599
# 2 -0.006250 0.020544 -0.002742 0.002563 -0.003676 -0.005612
# 3 0.001987 -0.002742 0.011953 0.000768 -0.002469 -0.009781
# 4 -0.005971 0.002563 0.000768 0.029644 -0.015313 0.002714
# 5 0.003734 -0.003676 -0.002469 -0.015313 0.049830 0.010982
# 6 -0.016599 -0.005612 -0.009781 0.002714 0.010982 0.070192
#
#
# Mechanical properties :
#
#
# Convention : Reuss Voigt Hill
#
# Bulk Modulus (GPa) = 21.61553 34.20153 27.90853
# Shear Modulus (GPa) = 20.88810 29.02315 24.95563
#
# Velocity S-wave (km/s) = 3.02249 3.56277 3.30369
# Velocity P-wave (km/s) = 4.65125 5.64646 5.17284
#
# Compressibility (1/GPa) = 0.04626304
#
# Stress axis : x y z
#
# Youngs Moduli (GPa) = 36.00111 48.67655 83.66437
#
# Poissons Ratio (x) = 0.30425 -0.16624
# Poissons Ratio (y) = 0.22502 0.22938
# Poissons Ratio (z) = -0.07153 0.13346
#
# Static dielectric constant tensor:
#      x y z
#    x 1.972770 0.203680 0.116860 
#    y 0.203680 1.877190 0.042830 
#    z 0.116860 0.042830 1.991940 
# 
# From -- ./inp_files/528691.got.cif
#   From: 2010.05.17/outbox.cif.g08.bks.cpg/sg2_265_cif.got.tgz:528691.got - 2010.06.03 11:33:40.
