data_PCOD9022538
_publ_section_title
;
Structure prediction by ZEFSAII (Michael W. Deem and Ramdas Pophale) SiO2 
 PCOD9022538
Probable space group: P -1
;
_chemical_formula_sum "Si O2"
_cell_formula_units_Z 16
_cell_length_a 23.910131
_cell_length_b 20.566671
_cell_length_c 5.699682
_cell_angle_alpha 131.112248
_cell_angle_beta 56.980314
_cell_angle_gamma 160.017873
_cell_volume 691.995343
_symmetry_space_group_name_H-M "P -1"
_symmetry_group_IT_number 2
_symmetry_cell_setting 'triclinic'
loop_
_space_group_symop_operation_xyz
x,y,z
-x,-y,-z
loop_
_atom_site_type_symbol
_atom_site_label
_atom_site_fract_x
_atom_site_fract_y
_atom_site_fract_z
Si Si1 0.789895 0.568008 0.570106
Si Si2 0.374972 0.645762 0.970185
Si Si3 0.870374 0.288699 0.630733
Si Si4 0.426887 0.192876 0.718646
Si Si5 0.628840 0.083138 0.299027
Si Si6 0.589901 0.628472 0.849563
Si Si7 0.188201 0.563790 0.532425
Si Si8 0.042786 0.007338 0.170305
O O1 0.782371 0.581147 0.345252
O O2 0.605972 0.385247 0.638027
O O3 0.815763 0.495211 0.359542
O O4 0.935609 0.790503 0.900087
O O5 0.500720 0.727899 0.994246
O O6 0.288413 0.612373 0.262564
O O7 0.505717 0.856074 0.009892
O O8 0.775872 0.230797 0.502314
O O9 0.000134 0.369878 0.426744
O O10 0.720521 0.055725 0.551017
O O11 0.000000 0.500000 0.000000
O O12 0.369501 0.220837 0.869191
O O13 0.703677 0.219517 0.223147
O O14 0.500000 0.000000 0.500000
O O15 0.500000 0.500000 0.500000
O O16 0.760396 0.777817 0.791806
O O17 0.500000 0.500000 0.000000
O O18 0.000000 0.000000 0.500000
O O19 0.000000 0.000000 0.000000
#
# Coordination Sequence:
#
# PCOD9022538 Si02
#       8
#     2   2   2   2   2   2   2   2
#     4  11  24  43  73 101 134 192 236 297 368 438
#     4   9  22  41  67  94 136 185 233 293 361 434
#     4  11  24  41  65 101 139 189 238 297 363 432
#     4  10  24  46  66 103 145 182 247 295 372 437
#     4   9  20  41  60  92 129 178 229 288 346 420
#     4  12  27  51  80 117 152 196 246 316 386 454
#     4  10  22  39  62  94 136 173 236 290 352 424
#     4  12  28  50  78 113 152 195 250 309 378 460
#
# _framework density 23.121542999999999
#
# number of rings (size 3 to 8) (size 9 to 14) (size 15 to 20)
#    0.000    1.500    0.000    4.125   12.250    0.500 
#    2.250    0.000    0.000    0.000    0.000    0.000 
#    0.000    0.000    0.000    0.000    0.000    0.000 
#
# Total GULP energy -89164.697948 kJ/mol
# GULP energy per Si atom -5572.793622 kJ/mol
# Density = 2.306892 g / cm^3
# Si number density = 23.121543 Si / 1000 Ang^3
#
#
#
# Elastic Constant Matrix: (Units=GPa)
#
#
# Indices 1 2 3 4 5 6 
#
# 1 151.2034 46.4482 47.5984 0.9279 3.4891 13.6634
# 2 46.4482 122.0679 24.7351 -6.1543 8.3640 14.5526
# 3 47.5984 24.7351 105.4324 13.5872 17.9992 -5.0773
# 4 0.9279 -6.1543 13.5872 26.7250 7.2157 2.8663
# 5 3.4891 8.3640 17.9992 7.2157 27.4820 10.3141
# 6 13.6634 14.5526 -5.0773 2.8663 10.3141 46.5269
#
#
#
# Elastic Compliance Matrix: (Units=1/GPa)
#
#
# Indices 1 2 3 4 5 6 
#
# 1 0.008880 -0.002328 -0.004287 0.000763 0.003367 -0.003141
# 2 -0.002328 0.010026 -0.001623 0.003968 -0.001806 -0.002473
# 3 -0.004287 -0.001623 0.014343 -0.005699 -0.008990 0.005676
# 4 0.000763 0.003968 -0.005699 0.043660 -0.007900 -0.003025
# 5 0.003367 -0.001806 -0.008990 -0.007900 0.048883 -0.011755
# 6 -0.003141 -0.002473 0.005676 -0.003025 -0.011755 0.026601
#
#
# Mechanical properties :
#
#
# Convention : Reuss Voigt Hill
#
# Bulk Modulus (GPa) = 59.62233 68.47411 64.04822
# Shear Modulus (GPa) = 28.65988 37.47492 33.06740
#
# Velocity S-wave (km/s) = 3.52452 4.03026 3.78584
# Velocity P-wave (km/s) = 6.51195 7.16495 6.84624
#
# Compressibility (1/GPa) = 0.01677224
#
# Stress axis : x y z
#
# Youngs Moduli (GPa) = 112.61583 99.74536 69.71804
#
# Poissons Ratio (x) = 0.23220 0.29889
# Poissons Ratio (y) = 0.26216 0.11316
# Poissons Ratio (z) = 0.48280 0.16190
#
# Static dielectric constant tensor:
#      x y z
#    x 2.000750 -0.095430 -0.075960 
#    y -0.095430 1.956110 -0.106260 
#    z -0.075960 -0.106260 2.045200 
# 
# From -- ./inp_files/125040.got.cif
#   From: 2010.05.17/outbox.cif.g08.bks.cpg/sg2_63_cif.got.tgz:125040.got - 2010.06.03 11:33:40.
