data_PCOD9022810
_publ_section_title
;
Structure prediction by ZEFSAII (Michael W. Deem and Ramdas Pophale) SiO2 
 PCOD9022810
Probable space group: P -1
;
_chemical_formula_sum "Si O2"
_cell_formula_units_Z 16
_cell_length_a 8.721648
_cell_length_b 18.623636
_cell_length_c 5.463936
_cell_angle_alpha 64.072788
_cell_angle_beta 55.297308
_cell_angle_gamma 60.520855
_cell_volume 619.683497
_symmetry_space_group_name_H-M "P -1"
_symmetry_group_IT_number 2
_symmetry_cell_setting 'triclinic'
loop_
_space_group_symop_operation_xyz
x,y,z
-x,-y,-z
loop_
_atom_site_type_symbol
_atom_site_label
_atom_site_fract_x
_atom_site_fract_y
_atom_site_fract_z
Si Si1 0.971726 0.197554 0.501867
Si Si2 0.516947 0.947181 0.316087
Si Si3 0.211016 0.212824 0.868322
Si Si4 0.465604 0.759452 0.171959
Si Si5 0.290043 0.470944 0.936968
Si Si6 0.839320 0.668833 0.645816
Si Si7 0.472472 0.597492 0.675307
Si Si8 0.106845 0.005387 0.645801
O O1 0.031284 0.273709 0.462509
O O2 0.115612 0.100405 0.511247
O O3 0.757466 0.196308 0.775012
O O4 0.004674 0.216789 0.160649
O O5 0.708612 0.865207 0.269672
O O6 0.500000 0.000000 0.500000
O O7 0.311642 0.929457 0.547426
O O8 0.500000 0.000000 0.000000
O O9 0.402004 0.189611 0.907833
O O10 0.183379 0.305526 0.653926
O O11 0.434755 0.693803 0.496977
O O12 0.621013 0.708999 0.902045
O O13 0.281473 0.567043 0.852297
O O14 0.377536 0.449547 0.613770
O O15 0.115440 0.429963 0.192546
O O16 0.439365 0.427215 0.095898
O O17 0.000000 0.000000 0.500000
O O18 0.000000 0.000000 0.000000
#
# Coordination Sequence:
#
# PCOD9022810 Si02
#       8
#     2   2   2   2   2   2   2   2
#     4  11  25  42  63  92 131 164 210 273 320 377
#     4  12  25  44  67  89 123 164 210 260 320 380
#     4  11  23  41  65  89 124 166 209 264 320 380
#     4  10  22  40  62  95 125 169 213 257 320 382
#     4   9  17  34  62  91 126 166 214 255 310 371
#     4  10  22  39  64  93 123 170 212 260 319 379
#     4   9  17  34  60  93 126 167 210 260 305 375
#     4  12  27  45  65  93 124 165 213 264 322 383
#
# _framework density 25.819633
#
# number of rings (size 3 to 8) (size 9 to 14) (size 15 to 20)
#    0.000    1.500    2.500    2.250    5.250    1.000 
#    0.000    0.625    0.000    0.750    0.000    0.000 
#    0.000    0.000    0.000    0.000    0.000    0.000 
#
# Total GULP energy -89168.092988 kJ/mol
# GULP energy per Si atom -5573.005812 kJ/mol
# Density = 2.576087 g / cm^3
# Si number density = 25.819633 Si / 1000 Ang^3
#
#
#
# Elastic Constant Matrix: (Units=GPa)
#
#
# Indices 1 2 3 4 5 6 
#
# 1 93.0794 27.1094 23.7661 16.1483 -3.7041 28.1023
# 2 27.1094 56.8137 17.2334 -14.2238 -1.4536 17.8895
# 3 23.7661 17.2334 143.8745 -8.1137 1.9203 -4.1824
# 4 16.1483 -14.2238 -8.1137 44.6052 1.2013 -4.5935
# 5 -3.7041 -1.4536 1.9203 1.2013 38.9359 2.6725
# 6 28.1023 17.8895 -4.1824 -4.5935 2.6725 44.5720
#
#
#
# Elastic Compliance Matrix: (Units=1/GPa)
#
#
# Indices 1 2 3 4 5 6 
#
# 1 0.018907 -0.007403 -0.003197 -0.010946 0.002741 -0.010542
# 2 -0.007403 0.025580 -0.001414 0.010086 0.000333 -0.004713
# 3 -0.003197 -0.001414 0.007912 0.002551 -0.001077 0.003653
# 4 -0.010946 0.010086 0.002551 0.030779 -0.002179 0.006396
# 5 0.002741 0.000333 -0.001077 -0.002179 0.026335 -0.003767
# 6 -0.010542 -0.004713 0.003653 0.006396 -0.003767 0.032201
#
#
# Mechanical properties :
#
#
# Convention : Reuss Voigt Hill
#
# Bulk Modulus (GPa) = 35.24580 47.77617 41.51098
# Shear Modulus (GPa) = 28.53890 40.66654 34.60272
#
# Velocity S-wave (km/s) = 3.32824 3.97296 3.66481
# Velocity P-wave (km/s) = 5.33385 6.29205 5.83266
#
# Compressibility (1/GPa) = 0.02837217
#
# Stress axis : x y z
#
# Youngs Moduli (GPa) = 52.89109 39.09291 126.38507
#
# Poissons Ratio (x) = 0.28940 0.40402
# Poissons Ratio (y) = 0.39155 0.17868
# Poissons Ratio (z) = 0.16908 0.05527
#
# Static dielectric constant tensor:
#      x y z
#    x 2.024250 0.042030 -0.011970 
#    y 0.042030 2.114990 -0.029820 
#    z -0.011970 -0.029820 2.051220 
# 
# From -- ./inp_files/52316.got.cif
#   From: 2010.05.17/outbox.cif.g08.bks.cpg/sg2_27_cif.got.tgz:52316.got - 2010.06.03 11:33:40.
