data_PCOD9022059
_publ_section_title
;
Structure prediction by ZEFSAII (Michael W. Deem and Ramdas Pophale) SiO2 
 PCOD9022059
Probable space group: P -1
;
_chemical_formula_sum "Si O2"
_cell_formula_units_Z 15
_cell_length_a 9.525452
_cell_length_b 11.848372
_cell_length_c 15.338072
_cell_angle_alpha 26.418335
_cell_angle_beta 113.790058
_cell_angle_gamma 112.185674
_cell_volume 704.179615
_symmetry_space_group_name_H-M "P -1"
_symmetry_group_IT_number 2
_symmetry_cell_setting 'triclinic'
loop_
_space_group_symop_operation_xyz
x,y,z
-x,-y,-z
loop_
_atom_site_type_symbol
_atom_site_label
_atom_site_fract_x
_atom_site_fract_y
_atom_site_fract_z
Si Si1 0.430187 0.275498 0.879594
Si Si2 0.625328 0.057800 0.221671
Si Si3 0.378088 0.527421 0.372665
Si Si4 0.863783 0.058472 0.990933
Si Si5 0.419443 0.257045 0.313523
Si Si6 0.936682 0.225064 0.087679
Si Si7 0.081497 0.191852 0.320248
Si Si8 0.500000 0.500000 0.000000
O O1 0.535125 0.327045 0.786015
O O2 0.455798 0.536599 0.759294
O O3 0.495518 0.071098 0.104480
O O4 0.261656 0.176044 0.880409
O O5 0.771428 0.192228 0.116827
O O6 0.661842 0.769091 0.451656
O O7 0.563506 0.219896 0.174191
O O8 0.500000 0.500000 0.500000
O O9 0.227171 0.690774 0.234656
O O10 0.923888 0.102169 0.074378
O O11 0.000000 0.000000 0.000000
O O12 0.264157 0.222646 0.351794
O O13 0.500000 0.000000 0.500000
O O14 0.385580 0.360950 0.137260
O O15 0.046186 0.112232 0.266373
O O16 0.978081 0.524098 0.879242
O O17 0.000000 0.000000 0.500000
#
# Coordination Sequence:
#
# PCOD9022059 Si02
#       8
#     2   2   2   2   2   2   2   1
#     4  11  23  47  71 103 145 191 245 308 373 446
#     4  11  22  43  75 104 143 193 247 308 370 455
#     4  12  23  42  77 104 137 198 251 292 374 457
#     4  12  27  49  74 109 157 198 250 324 384 449
#     4  11  24  43  69 107 143 184 248 307 366 442
#     4  11  25  47  71 101 152 196 242 305 395 446
#     4  11  26  45  73 105 142 199 246 303 379 464
#     4  10  22  38  70 102 142 178 240 308 366 416
#
# _framework density 21.301382
#
# number of rings (size 3 to 8) (size 9 to 14) (size 15 to 20)
#    0.000    0.800    5.333    2.000    5.600    3.200 
#    2.400    1.333    0.000    0.000    0.000    0.000 
#    0.000    0.000    0.000    0.000    0.000    0.000 
#
# Total GULP energy -83512.547426 kJ/mol
# GULP energy per Si atom -5567.503162 kJ/mol
# Density = 2.125290 g / cm^3
# Si number density = 21.301382 Si / 1000 Ang^3
#
#
#
# Elastic Constant Matrix: (Units=GPa)
#
#
# Indices 1 2 3 4 5 6 
#
# 1 114.1625 61.2053 71.8294 -11.5796 -19.4309 -23.3113
# 2 61.2053 114.5905 61.5095 -1.6006 -4.1757 -1.8219
# 3 71.8294 61.5095 146.6088 -11.2888 -8.8420 -6.6441
# 4 -11.5796 -1.6006 -11.2888 42.7085 -2.7495 1.0205
# 5 -19.4309 -4.1757 -8.8420 -2.7495 37.8817 -4.4901
# 6 -23.3113 -1.8219 -6.6441 1.0205 -4.4901 34.3616
#
#
#
# Elastic Compliance Matrix: (Units=1/GPa)
#
#
# Indices 1 2 3 4 5 6 
#
# 1 0.022009 -0.007963 -0.005756 0.004513 0.011140 0.014718
# 2 -0.007963 0.014177 -0.002734 -0.002474 -0.004007 -0.005629
# 3 -0.005756 -0.002734 0.010726 0.001164 -0.000918 -0.002131
# 4 0.004513 -0.002474 0.001164 0.025070 0.004489 0.002998
# 5 0.011140 -0.004007 -0.000918 0.004489 0.033129 0.011363
# 6 0.014718 -0.005629 -0.002131 0.002998 0.011363 0.039772
#
#
# Mechanical properties :
#
#
# Convention : Reuss Voigt Hill
#
# Bulk Modulus (GPa) = 71.39542 84.93889 78.16716
# Shear Modulus (GPa) = 27.40341 35.04487 31.22414
#
# Velocity S-wave (km/s) = 3.59062 4.06050 3.83277
# Velocity P-wave (km/s) = 7.12598 7.87051 7.50748
#
# Compressibility (1/GPa) = 0.01400650
#
# Stress axis : x y z
#
# Youngs Moduli (GPa) = 45.43512 70.53474 93.23440
#
# Poissons Ratio (x) = 0.56167 0.53666
# Poissons Ratio (y) = 0.36180 0.25490
# Poissons Ratio (z) = 0.26153 0.19284
#
# Static dielectric constant tensor:
#      x y z
#    x 1.735790 0.035720 0.033760 
#    y 0.035720 1.894790 0.029890 
#    z 0.033760 0.029890 1.815650 
# 
# From -- ./inp_files/499785.got.cif
#   From: 2010.05.17/outbox.cif.g08.bks.cpg/sg2_250_cif.got.tgz:499785.got - 2010.06.03 11:33:40.
