data_PCOD9022966
_publ_section_title
;
Structure prediction by ZEFSAII (Michael W. Deem and Ramdas Pophale) SiO2 
 PCOD9022966
Probable space group: P -1
;
_chemical_formula_sum "Si O2"
_cell_formula_units_Z 12
_cell_length_a 9.528528
_cell_length_b 17.249387
_cell_length_c 9.532896
_cell_angle_alpha 40.463611
_cell_angle_beta 122.829925
_cell_angle_gamma 146.403139
_cell_volume 544.051654
_symmetry_space_group_name_H-M "P -1"
_symmetry_group_IT_number 2
_symmetry_cell_setting 'triclinic'
loop_
_space_group_symop_operation_xyz
x,y,z
-x,-y,-z
loop_
_atom_site_type_symbol
_atom_site_label
_atom_site_fract_x
_atom_site_fract_y
_atom_site_fract_z
Si Si1 0.526261 0.996609 0.849868
Si Si2 0.333235 0.324275 0.467149
Si Si3 0.919230 0.437344 0.880265
Si Si4 0.192200 0.017974 0.664460
Si Si5 0.885891 0.675649 0.386948
Si Si6 0.786562 0.617312 0.955674
O O1 0.409564 0.059609 0.644468
O O2 0.338317 0.788069 0.975117
O O3 0.825807 0.144465 0.764438
O O4 0.500000 0.000000 0.000000
O O5 0.321572 0.178404 0.623655
O O6 0.635569 0.532094 0.346378
O O7 0.197322 0.274035 0.610383
O O8 0.182794 0.320099 0.274662
O O9 0.884713 0.545789 0.640939
O O10 0.000000 0.500000 0.000000
O O11 0.147459 0.484767 0.864562
O O12 0.000000 0.000000 0.500000
O O13 0.992890 0.805777 0.899055
O O14 0.500000 0.500000 0.000000
#
# Coordination Sequence:
#
# PCOD9022966 Si02
#       6
#     2   2   2   2   2   2
#     4  11  26  44  67  99 131 173 222 269 330 390
#     4  10  22  44  62  95 130 172 219 261 335 386
#     4  11  24  45  66  99 130 169 224 268 329 390
#     4   9  21  40  62  92 125 163 216 262 320 388
#     4  11  25  43  68  92 136 175 212 277 325 393
#     4  10  22  39  65  94 128 167 216 271 321 389
#
# _framework density 22.056730000000002
#
# number of rings (size 3 to 8) (size 9 to 14) (size 15 to 20)
#    0.000    1.667    1.667    1.000    9.333    3.333 
#    0.000    2.500    0.000    0.000    0.000    0.000 
#    0.000    0.000    0.000    0.000    0.000    0.000 
#
# Total GULP energy -66992.274626 kJ/mol
# GULP energy per Si atom -5582.689552 kJ/mol
# Density = 2.200653 g / cm^3
# Si number density = 22.056730 Si / 1000 Ang^3
#
#
#
# Elastic Constant Matrix: (Units=GPa)
#
#
# Indices 1 2 3 4 5 6 
#
# 1 109.6692 48.0664 12.5911 -27.1118 -14.7774 11.5628
# 2 48.0664 154.7913 36.1039 -18.1181 -21.7765 -1.4356
# 3 12.5911 36.1039 46.0654 -3.0757 -3.9385 -6.0122
# 4 -27.1118 -18.1181 -3.0757 35.5179 13.6874 7.4404
# 5 -14.7774 -21.7765 -3.9385 13.6874 37.1764 -9.3652
# 6 11.5628 -1.4356 -6.0122 7.4404 -9.3652 46.1671
#
#
#
# Elastic Compliance Matrix: (Units=1/GPa)
#
#
# Indices 1 2 3 4 5 6 
#
# 1 0.013578 -0.002900 -0.001643 0.010680 -0.001870 -0.005805
# 2 -0.002900 0.009364 -0.006075 0.000384 0.003782 0.000932
# 3 -0.001643 -0.006075 0.027380 -0.003344 0.001064 0.004543
# 4 0.010680 0.000384 -0.003344 0.045220 -0.015965 -0.013625
# 5 -0.001870 0.003782 0.001064 -0.015965 0.037087 0.010821
# 6 -0.005805 0.000932 0.004543 -0.013625 0.010821 0.028126
#
#
# Mechanical properties :
#
#
# Convention : Reuss Voigt Hill
#
# Bulk Modulus (GPa) = 34.38249 56.00541 45.19395
# Shear Modulus (GPa) = 26.08427 38.02324 32.05376
#
# Velocity S-wave (km/s) = 3.44262 4.15647 3.81628
# Velocity P-wave (km/s) = 5.60574 6.96288 6.32084
#
# Compressibility (1/GPa) = 0.02908457
#
# Stress axis : x y z
#
# Youngs Moduli (GPa) = 73.64677 106.79749 36.52347
#
# Poissons Ratio (x) = 0.30972 0.06001
# Poissons Ratio (y) = 0.21358 0.22190
# Poissons Ratio (z) = 0.12100 0.64884
#
# Static dielectric constant tensor:
#      x y z
#    x 1.808330 -0.001870 -0.045830 
#    y -0.001870 1.850350 -0.000620 
#    z -0.045830 -0.000620 1.533350 
# 
# From -- ./inp_files/167022.got.cif
#   From: 2010.05.17/outbox.cif.g08.bks.cpg/sg2_84_cif.got.tgz:167022.got - 2010.06.03 11:33:40.
