data_PCOD9022462
_publ_section_title
;
Structure prediction by ZEFSAII (Michael W. Deem and Ramdas Pophale) SiO2 
 PCOD9022462
Probable space group: P -1
;
_chemical_formula_sum "Si O2"
_cell_formula_units_Z 14
_cell_length_a 12.260887
_cell_length_b 11.621188
_cell_length_c 11.019365
_cell_angle_alpha 25.111206
_cell_angle_beta 125.454741
_cell_angle_gamma 128.098591
_cell_volume 523.284014
_symmetry_space_group_name_H-M "P -1"
_symmetry_group_IT_number 2
_symmetry_cell_setting 'triclinic'
loop_
_space_group_symop_operation_xyz
x,y,z
-x,-y,-z
loop_
_atom_site_type_symbol
_atom_site_label
_atom_site_fract_x
_atom_site_fract_y
_atom_site_fract_z
Si Si1 0.450585 0.926428 0.899761
Si Si2 0.712622 0.668193 0.591151
Si Si3 0.269957 0.144287 0.850238
Si Si4 0.114021 0.903032 0.532964
Si Si5 0.973248 0.318738 0.911324
Si Si6 0.659320 0.994233 0.621398
Si Si7 0.199312 0.427577 0.757401
O O1 0.319763 0.650579 0.079967
O O2 0.581054 0.844307 0.006640
O O3 0.500000 0.000000 0.000000
O O4 0.414062 0.205891 0.566099
O O5 0.712407 0.695015 0.420435
O O6 0.841643 0.901042 0.508060
O O7 0.184303 0.272323 0.768376
O O8 0.187851 0.823912 0.074509
O O9 0.969931 0.931460 0.760717
O O10 0.254389 0.912308 0.537549
O O11 0.021584 0.583017 0.780035
O O12 0.055666 0.396156 0.765088
O O13 0.728973 0.244140 0.520013
O O14 0.500000 0.000000 0.500000
O O15 0.700986 0.714550 0.959428
#
# Coordination Sequence:
#
# PCOD9022462 Si02
#       7
#     2   2   2   2   2   2   2
#     4  10  23  40  60  91 125 158 204 252 309 361
#     4  11  24  42  64  93 126 160 208 260 304 366
#     4  11  24  40  67  90 128 166 202 253 314 367
#     4  10  23  41  63  88 128 163 206 260 297 358
#     4  10  23  43  61  92 125 164 210 251 301 368
#     4  10  22  39  62  88 123 161 205 249 307 362
#     4  10  23  39  61  94 120 159 206 253 303 363
#
# _framework density 26.754111999999999
#
# number of rings (size 3 to 8) (size 9 to 14) (size 15 to 20)
#    0.000    1.714    0.000    3.429    4.000    8.000 
#    0.000    4.286    0.000    0.000    0.000    0.000 
#    0.000    0.000    0.000    0.000    0.000    0.000 
#
# Total GULP energy -78476.004020 kJ/mol
# GULP energy per Si atom -5605.428859 kJ/mol
# Density = 2.669322 g / cm^3
# Si number density = 26.754112 Si / 1000 Ang^3
#
#
#
# Elastic Constant Matrix: (Units=GPa)
#
#
# Indices 1 2 3 4 5 6 
#
# 1 111.9138 32.1471 33.0098 -12.5924 -1.6878 -3.3566
# 2 32.1471 92.7942 12.0046 -22.1710 -5.5599 -7.9103
# 3 33.0098 12.0046 110.6911 -26.1762 6.0626 2.3004
# 4 -12.5924 -22.1710 -26.1762 48.1334 -0.5355 -1.8123
# 5 -1.6878 -5.5599 6.0626 -0.5355 36.4658 -3.7004
# 6 -3.3566 -7.9103 2.3004 -1.8123 -3.7004 44.7430
#
#
#
# Elastic Compliance Matrix: (Units=1/GPa)
#
#
# Indices 1 2 3 4 5 6 
#
# 1 0.010755 -0.003355 -0.002955 -0.000318 0.000513 0.000395
# 2 -0.003355 0.013598 0.000755 0.005915 0.002136 0.002530
# 3 -0.002955 0.000755 0.011290 0.005671 -0.001876 -0.000594
# 4 -0.000318 0.005915 0.005671 0.026577 0.000522 0.001850
# 5 0.000513 0.002136 -0.001876 0.000522 0.028384 0.002881
# 6 0.000395 0.002530 -0.000594 0.001850 0.002881 0.023171
#
#
# Mechanical properties :
#
#
# Convention : Reuss Voigt Hill
#
# Bulk Modulus (GPa) = 40.76202 52.19136 46.47669
# Shear Modulus (GPa) = 37.57677 41.75096 39.66386
#
# Velocity S-wave (km/s) = 3.75176 3.95466 3.85455
# Velocity P-wave (km/s) = 5.83408 6.35630 6.10078
#
# Compressibility (1/GPa) = 0.02453264
#
# Stress axis : x y z
#
# Youngs Moduli (GPa) = 92.98409 73.53931 88.57695
#
# Poissons Ratio (x) = 0.24673 0.26173
# Poissons Ratio (y) = 0.31197 -0.06689
# Poissons Ratio (z) = 0.27475 -0.05553
#
# Static dielectric constant tensor:
#      x y z
#    x 2.155720 0.032370 -0.003450 
#    y 0.032370 2.094080 0.041650 
#    z -0.003450 0.041650 2.003200 
# 
# From -- ./inp_files/427276.got.cif
#   From: 2010.05.17/outbox.cif.g08.bks.cpg/sg2_214_cif.got.tgz:427276.got - 2010.06.03 11:33:40.
