data_PCOD9022375
_publ_section_title
;
Structure prediction by ZEFSAII (Michael W. Deem and Ramdas Pophale) SiO2 
 PCOD9022375
Probable space group: P -1
;
_chemical_formula_sum "Si O2"
_cell_formula_units_Z 12
_cell_length_a 6.361012
_cell_length_b 13.668584
_cell_length_c 13.302172
_cell_angle_alpha 30.080281
_cell_angle_beta 83.272033
_cell_angle_gamma 96.154622
_cell_volume 522.709775
_symmetry_space_group_name_H-M "P -1"
_symmetry_group_IT_number 2
_symmetry_cell_setting 'triclinic'
loop_
_space_group_symop_operation_xyz
x,y,z
-x,-y,-z
loop_
_atom_site_type_symbol
_atom_site_label
_atom_site_fract_x
_atom_site_fract_y
_atom_site_fract_z
Si Si1 0.937200 0.532197 0.361398
Si Si2 0.418551 0.907268 0.932963
Si Si3 0.031818 0.286587 0.220253
Si Si4 0.701991 0.187410 0.516131
Si Si5 0.651748 0.879051 0.552259
Si Si6 0.270873 0.162932 0.849793
O O1 0.000000 0.500000 0.500000
O O2 0.837766 0.327214 0.478563
O O3 0.739128 0.617402 0.314775
O O4 0.170102 0.706850 0.139431
O O5 0.541526 0.951973 0.778632
O O6 0.377486 0.116944 0.782719
O O7 0.595865 0.890932 0.019512
O O8 0.274682 0.271279 0.245899
O O9 0.895034 0.217827 0.395209
O O10 0.889969 0.089654 0.327509
O O11 0.000000 0.500000 0.000000
O O12 0.510359 0.250886 0.414967
O O13 0.500000 0.000000 0.500000
O O14 0.000000 0.000000 0.000000
#
# Coordination Sequence:
#
# PCOD9022375 Si02
#       6
#     2   2   2   2   2   2
#     4  11  24  40  63  95 134 180 224 265 330 399
#     4  10  22  39  61  90 130 173 219 277 327 385
#     4  10  23  45  73  99 137 178 225 285 351 419
#     4  11  24  40  64 102 129 175 225 278 336 405
#     4   9  22  45  69 100 136 174 224 288 346 409
#     4   9  19  39  61  85 127 177 220 271 322 383
#
# _framework density 22.957288999999999
#
# number of rings (size 3 to 8) (size 9 to 14) (size 15 to 20)
#    0.000    2.000    0.000    3.000    2.333   10.667 
#    6.000    0.000    0.000    0.000    0.000    0.000 
#    0.000    0.000    0.000    0.000    0.000    0.000 
#
# Total GULP energy -66867.612770 kJ/mol
# GULP energy per Si atom -5572.301064 kJ/mol
# Density = 2.290504 g / cm^3
# Si number density = 22.957289 Si / 1000 Ang^3
#
#
#
# Elastic Constant Matrix: (Units=GPa)
#
#
# Indices 1 2 3 4 5 6 
#
# 1 132.4460 26.4013 42.0115 2.0922 16.3092 6.5995
# 2 26.4013 71.5445 25.5884 8.0385 -4.0959 9.7564
# 3 42.0115 25.5884 108.4793 5.4259 -5.4201 -15.7461
# 4 2.0922 8.0385 5.4259 34.0341 -6.1594 -9.9710
# 5 16.3092 -4.0959 -5.4201 -6.1594 43.8969 -3.2633
# 6 6.5995 9.7564 -15.7461 -9.9710 -3.2633 38.6151
#
#
#
# Elastic Compliance Matrix: (Units=1/GPa)
#
#
# Indices 1 2 3 4 5 6 
#
# 1 0.010056 -0.001810 -0.004185 -0.001519 -0.004916 -0.003776
# 2 -0.001810 0.017806 -0.004260 -0.005462 0.000499 -0.007295
# 3 -0.004185 -0.004260 0.013079 0.002187 0.003674 0.008000
# 4 -0.001519 -0.005462 0.002187 0.035077 0.006147 0.012108
# 5 -0.004916 0.000499 0.003674 0.006147 0.026418 0.006032
# 6 -0.003776 -0.007295 0.008000 0.012108 0.006032 0.035284
#
#
# Mechanical properties :
#
#
# Convention : Reuss Voigt Hill
#
# Bulk Modulus (GPa) = 48.94434 55.60804 52.27619
# Shear Modulus (GPa) = 30.29564 37.87377 34.08470
#
# Velocity S-wave (km/s) = 3.63664 4.06612 3.85736
# Velocity P-wave (km/s) = 6.24496 6.80583 6.53142
#
# Compressibility (1/GPa) = 0.02043137
#
# Stress axis : x y z
#
# Youngs Moduli (GPa) = 99.44326 56.16152 76.45571
#
# Poissons Ratio (x) = 0.10164 0.31998
# Poissons Ratio (y) = 0.17997 0.32569
# Poissons Ratio (z) = 0.41619 0.23924
#
# Static dielectric constant tensor:
#      x y z
#    x 1.922620 -0.012630 0.012340 
#    y -0.012630 1.941000 -0.013210 
#    z 0.012340 -0.013210 1.925610 
# 
# From -- ./inp_files/484088.got.cif
#   From: 2010.05.17/outbox.cif.g08.bks.cpg/sg2_243_cif.got.tgz:484088.got - 2010.06.03 11:33:40.
