data_PCOD9022916
_publ_section_title
;
Structure prediction by ZEFSAII (Michael W. Deem and Ramdas Pophale) SiO2 
 PCOD9022916
Probable space group: P -1
;
_chemical_formula_sum "Si O2"
_cell_formula_units_Z 16
_cell_length_a 11.599016
_cell_length_b 14.618170
_cell_length_c 8.622906
_cell_angle_alpha 52.205191
_cell_angle_beta 42.688278
_cell_angle_gamma 37.742977
_cell_volume 605.033245
_symmetry_space_group_name_H-M "P -1"
_symmetry_group_IT_number 2
_symmetry_cell_setting 'triclinic'
loop_
_space_group_symop_operation_xyz
x,y,z
-x,-y,-z
loop_
_atom_site_type_symbol
_atom_site_label
_atom_site_fract_x
_atom_site_fract_y
_atom_site_fract_z
Si Si1 0.235886 0.504030 0.257145
Si Si2 0.917819 0.124997 0.317988
Si Si3 0.460994 0.306243 0.932223
Si Si4 0.618672 0.012351 0.153428
Si Si5 0.204735 0.305188 0.698559
Si Si6 0.206114 0.968632 0.735705
Si Si7 0.127833 0.603528 0.798601
Si Si8 0.862199 0.281961 0.639887
O O1 0.281784 0.394821 0.464964
O O2 0.273292 0.611016 0.190292
O O3 0.984471 0.633278 0.310770
O O4 0.346849 0.401081 0.104037
O O5 0.765116 0.127253 0.340654
O O6 0.819536 0.290049 0.298624
O O7 0.000000 0.000000 0.500000
O O8 0.140203 0.069231 0.070902
O O9 0.459169 0.168789 0.057974
O O10 0.331746 0.430510 0.799987
O O11 0.710044 0.245292 0.761911
O O12 0.386297 0.124194 0.707287
O O13 0.624301 0.067001 0.262170
O O14 0.072882 0.357349 0.937913
O O15 0.098475 0.131778 0.607674
O O16 0.000000 0.000000 0.000000
O O17 0.091650 0.642455 0.614063
#
# Coordination Sequence:
#
# PCOD9022916 Si02
#       8
#     2   2   2   2   2   2   2   2
#     4  10  22  36  58  80 111 145 188 228 266 320
#     4  10  17  31  51  79 108 141 176 217 268 327
#     4  11  22  35  54  85 114 146 173 225 286 326
#     4  10  19  34  57  77 111 140 183 227 267 322
#     4   9  20  40  57  80 105 149 192 224 262 321
#     4  10  18  30  53  81 111 138 179 223 265 325
#     4  10  22  35  57  82 113 147 179 223 276 329
#     4  12  20  35  57  86 114 140 179 228 280 324
#
# _framework density 26.444827
#
# number of rings (size 3 to 8) (size 9 to 14) (size 15 to 20)
#    0.000    1.750    5.000    0.750    1.750    2.000 
#    0.000    0.000    0.000    0.750    0.000    0.000 
#    0.000    0.000    0.000    0.000    0.000    0.000 
#
# Total GULP energy -89452.554006 kJ/mol
# GULP energy per Si atom -5590.784625 kJ/mol
# Density = 2.638464 g / cm^3
# Si number density = 26.444827 Si / 1000 Ang^3
#
#
#
# Elastic Constant Matrix: (Units=GPa)
#
#
# Indices 1 2 3 4 5 6 
#
# 1 53.5809 21.7325 -10.1220 -5.9742 3.7084 8.9232
# 2 21.7325 167.8313 -1.1573 -29.3513 11.2217 -3.6137
# 3 -10.1220 -1.1573 80.4879 -10.4668 10.8583 -9.3958
# 4 -5.9742 -29.3513 -10.4668 49.6690 -1.5352 9.8295
# 5 3.7084 11.2217 10.8583 -1.5352 28.9659 -5.8954
# 6 8.9232 -3.6137 -9.3958 9.8295 -5.8954 30.9534
#
#
#
# Elastic Compliance Matrix: (Units=1/GPa)
#
#
# Indices 1 2 3 4 5 6 
#
# 1 0.022023 -0.002105 0.002890 0.003388 -0.004463 -0.007643
# 2 -0.002105 0.007111 0.000693 0.004040 -0.002556 -0.000122
# 3 0.002890 0.000693 0.014131 0.003278 -0.005466 0.001455
# 4 0.003388 0.004040 0.003278 0.025125 -0.003558 -0.008166
# 5 -0.004463 -0.002556 -0.005466 -0.003558 0.039573 0.007996
# 6 -0.007643 -0.000122 0.001455 -0.008166 0.007996 0.039054
#
#
# Mechanical properties :
#
#
# Convention : Reuss Voigt Hill
#
# Bulk Modulus (GPa) = 21.63561 35.86739 28.75150
# Shear Modulus (GPa) = 31.35435 41.34745 36.35090
#
# Velocity S-wave (km/s) = 3.44706 3.95845 3.71157
# Velocity P-wave (km/s) = 4.90328 5.87239 5.40958
#
# Compressibility (1/GPa) = 0.04622011
#
# Stress axis : x y z
#
# Youngs Moduli (GPa) = 45.40742 140.63576 70.76543
#
# Poissons Ratio (x) = 0.29609 -0.20450
# Poissons Ratio (y) = 0.09560 -0.04907
# Poissons Ratio (z) = -0.13122 -0.09751
#
# Static dielectric constant tensor:
#      x y z
#    x 2.062090 -0.014070 -0.077550 
#    y -0.014070 2.079830 0.021100 
#    z -0.077550 0.021100 2.180770 
# 
# From -- ./inp_files/337102.got.cif
#   From: 2010.05.17/outbox.cif.g08.bks.cpg/sg2_169_cif.got.tgz:337102.got - 2010.06.03 11:33:40.
