data_PCOD9022452
_publ_section_title
;
Structure prediction by ZEFSAII (Michael W. Deem and Ramdas Pophale) SiO2 
 PCOD9022452
Probable space group: P -1
;
_chemical_formula_sum "Si O2"
_cell_formula_units_Z 12
_cell_length_a 9.227343
_cell_length_b 7.474150
_cell_length_c 22.701442
_cell_angle_alpha 38.252438
_cell_angle_beta 27.386471
_cell_angle_gamma 46.433786
_cell_volume 445.702753
_symmetry_space_group_name_H-M "P -1"
_symmetry_group_IT_number 2
_symmetry_cell_setting 'triclinic'
loop_
_space_group_symop_operation_xyz
x,y,z
-x,-y,-z
loop_
_atom_site_type_symbol
_atom_site_label
_atom_site_fract_x
_atom_site_fract_y
_atom_site_fract_z
Si Si1 0.182799 0.963410 0.086467
Si Si2 0.338319 0.856051 0.836540
Si Si3 0.689655 0.543190 0.688707
Si Si4 0.388587 0.140515 0.133733
Si Si5 0.589191 0.460485 0.546687
Si Si6 0.747421 0.081634 0.327363
O O1 0.025098 0.191570 0.038973
O O2 0.934473 0.966681 0.229808
O O3 0.500000 0.000000 0.000000
O O4 0.335972 0.745749 0.039675
O O5 0.463315 0.828297 0.863729
O O6 0.382126 0.197272 0.715553
O O7 0.533497 0.646460 0.778974
O O8 0.661719 0.206587 0.770300
O O9 0.055435 0.629579 0.543782
O O10 0.515398 0.715252 0.656324
O O11 0.033187 0.229979 0.222854
O O12 0.500000 0.500000 0.500000
O O13 0.585124 0.787117 0.487508
#
# Coordination Sequence:
#
# PCOD9022452 Si02
#       6
#     2   2   2   2   2   2
#     4   9  18  37  63  83 119 160 190 241 296 339
#     4  11  22  38  63  90 116 158 198 239 296 347
#     4  10  22  39  62  86 121 158 191 241 299 344
#     4  10  22  40  59  90 122 150 200 244 284 350
#     4  11  20  38  63  88 118 155 199 239 293 355
#     4   9  20  38  60  89 119 157 193 240 295 347
#
# _framework density 26.923773000000001
#
# number of rings (size 3 to 8) (size 9 to 14) (size 15 to 20)
#    0.000    2.000    3.333    1.000    0.000    5.333 
#    3.000    1.667    0.000   16.000    0.000    0.000 
#    0.000    0.000    0.000    0.000    0.000    0.000 
#
# Total GULP energy -67011.857522 kJ/mol
# GULP energy per Si atom -5584.321460 kJ/mol
# Density = 2.686249 g / cm^3
# Si number density = 26.923773 Si / 1000 Ang^3
#
#
#
# Elastic Constant Matrix: (Units=GPa)
#
#
# Indices 1 2 3 4 5 6 
#
# 1 267.6402 62.7524 31.7288 -5.9933 -6.0253 -14.4498
# 2 62.7524 103.1280 33.9342 -14.4153 -14.7811 -25.0187
# 3 31.7288 33.9342 69.4045 -9.3990 -20.0121 -10.8479
# 4 -5.9933 -14.4153 -9.3990 39.5782 -11.3249 -13.9113
# 5 -6.0253 -14.7811 -20.0121 -11.3249 49.7170 5.4752
# 6 -14.4498 -25.0187 -10.8479 -13.9113 5.4752 53.3930
#
#
#
# Elastic Compliance Matrix: (Units=1/GPa)
#
#
# Indices 1 2 3 4 5 6 
#
# 1 0.004442 -0.002704 -0.001190 -0.001028 -0.000926 -0.000480
# 2 -0.002704 0.016145 -0.002906 0.008900 0.004437 0.008107
# 3 -0.001190 -0.002906 0.020324 0.007218 0.008436 0.003461
# 4 -0.001028 0.008900 0.007218 0.038661 0.012677 0.014131
# 5 -0.000926 0.004437 0.008436 0.012677 0.027157 0.004061
# 6 -0.000480 0.008107 0.003461 0.014131 0.004061 0.026367
#
#
# Mechanical properties :
#
#
# Convention : Reuss Voigt Hill
#
# Bulk Modulus (GPa) = 36.61512 77.44484 57.02998
# Shear Modulus (GPa) = 32.09295 49.32146 40.70720
#
# Velocity S-wave (km/s) = 3.45627 4.28470 3.89259
# Velocity P-wave (km/s) = 5.43662 7.30104 6.43669
#
# Compressibility (1/GPa) = 0.02731112
#
# Stress axis : x y z
#
# Youngs Moduli (GPa) = 225.14258 61.93895 49.20347
#
# Poissons Ratio (x) = 0.16749 0.05853
# Poissons Ratio (y) = 0.60880 0.14298
# Poissons Ratio (z) = 0.26784 0.17999
#
# Static dielectric constant tensor:
#      x y z
#    x 2.091350 0.036110 0.040580 
#    y 0.036110 2.155650 0.046160 
#    z 0.040580 0.046160 2.300450 
# 
# From -- ./inp_files/179743.got.cif
#   From: 2010.05.17/outbox.cif.g08.bks.cpg/sg2_90_cif.got.tgz:179743.got - 2010.06.03 11:33:40.
