data_PCOD9022453
_publ_section_title
;
Structure prediction by ZEFSAII (Michael W. Deem and Ramdas Pophale) SiO2 
 PCOD9022453
Probable space group: P -1
;
_chemical_formula_sum "Si O2"
_cell_formula_units_Z 16
_cell_length_a 30.768272
_cell_length_b 5.740699
_cell_length_c 28.127075
_cell_angle_alpha 111.532106
_cell_angle_beta 8.109871
_cell_angle_gamma 110.228673
_cell_volume 646.070816
_symmetry_space_group_name_H-M "P -1"
_symmetry_group_IT_number 2
_symmetry_cell_setting 'triclinic'
loop_
_space_group_symop_operation_xyz
x,y,z
-x,-y,-z
loop_
_atom_site_type_symbol
_atom_site_label
_atom_site_fract_x
_atom_site_fract_y
_atom_site_fract_z
Si Si1 0.012915 0.907592 0.726193
Si Si2 0.791936 0.641298 0.776518
Si Si3 0.759223 0.885946 0.173010
Si Si4 0.134329 0.568532 0.909862
Si Si5 0.277590 0.329836 0.898447
Si Si6 0.856933 0.050536 0.517045
Si Si7 0.372303 0.358887 0.394202
Si Si8 0.498857 0.403041 0.155691
O O1 0.952074 0.963798 0.740638
O O2 0.254683 0.654887 0.441948
O O3 0.730971 0.851080 0.060258
O O4 0.198242 0.113971 0.565052
O O5 0.000000 0.500000 0.500000
O O6 0.936551 0.884450 0.657748
O O7 0.438650 0.727229 0.149033
O O8 0.775144 0.465561 0.827918
O O9 0.932449 0.628937 0.991066
O O10 0.500000 0.000000 0.500000
O O11 0.933698 0.126269 0.986995
O O12 0.592537 0.802741 0.299827
O O13 0.500000 0.500000 0.500000
O O14 0.000000 0.500000 0.000000
O O15 0.917846 0.419060 0.281106
O O16 0.428963 0.568720 0.771249
O O17 0.685158 0.804283 0.684550
O O18 0.566401 0.344711 0.133567
#
# Coordination Sequence:
#
# PCOD9022453 Si02
#       8
#     2   2   2   2   2   2   2   2
#     4   9  21  41  64  91 121 164 210 262 322 386
#     4  11  23  38  59  90 124 164 209 257 313 376
#     4  10  24  45  67 101 133 179 220 277 338 407
#     4  10  22  42  67  91 127 170 219 262 319 393
#     4  11  24  40  64  93 129 161 213 265 325 390
#     4  10  22  39  62  86 123 162 209 259 313 378
#     4  10  23  41  63  93 124 164 211 265 326 386
#     4   9  21  40  62  89 122 164 208 260 320 378
#
# _framework density 24.765084999999999
#
# number of rings (size 3 to 8) (size 9 to 14) (size 15 to 20)
#    0.000    2.000    0.000    1.500    1.750   18.000 
#    0.000    0.000    0.000    0.000    0.000    0.000 
#    0.000    0.000    0.000    0.000    0.000    0.000 
#
# Total GULP energy -89512.128066 kJ/mol
# GULP energy per Si atom -5594.508004 kJ/mol
# Density = 2.470872 g / cm^3
# Si number density = 24.765085 Si / 1000 Ang^3
#
#
#
# Elastic Constant Matrix: (Units=GPa)
#
#
# Indices 1 2 3 4 5 6 
#
# 1 107.5448 59.1864 46.0881 -0.7525 -0.5708 23.8121
# 2 59.1864 144.5723 7.4072 -15.4463 14.7492 0.3120
# 3 46.0881 7.4072 78.1297 0.5928 7.6114 12.2919
# 4 -0.7525 -15.4463 0.5928 20.5854 9.0638 -3.4163
# 5 -0.5708 14.7492 7.6114 9.0638 47.6502 5.5568
# 6 23.8121 0.3120 12.2919 -3.4163 5.5568 58.8754
#
#
#
# Elastic Compliance Matrix: (Units=1/GPa)
#
#
# Indices 1 2 3 4 5 6 
#
# 1 0.021390 -0.010247 -0.011153 -0.011522 0.008301 -0.007720
# 2 -0.010247 0.013147 0.004753 0.013688 -0.008096 0.004641
# 3 -0.011153 0.004753 0.019248 0.005407 -0.005864 0.001334
# 4 -0.011522 0.013688 0.005407 0.068308 -0.019310 0.009245
# 5 0.008301 -0.008096 -0.005864 -0.019310 0.028894 -0.005938
# 6 -0.007720 0.004641 0.001334 0.009245 -0.005938 0.020901
#
#
# Mechanical properties :
#
#
# Convention : Reuss Voigt Hill
#
# Bulk Modulus (GPa) = 48.80206 61.73447 55.26827
# Shear Modulus (GPa) = 23.58346 39.92655 31.75500
#
# Velocity S-wave (km/s) = 3.08926 4.01959 3.58474
# Velocity P-wave (km/s) = 5.69855 6.82092 6.28484
#
# Compressibility (1/GPa) = 0.02049094
#
# Stress axis : x y z
#
# Youngs Moduli (GPa) = 46.75041 76.06444 51.95328
#
# Poissons Ratio (x) = 0.77941 0.57944
# Poissons Ratio (y) = 0.47904 -0.24693
# Poissons Ratio (z) = 0.52141 -0.36152
#
# Static dielectric constant tensor:
#      x y z
#    x 2.064310 -0.116660 -0.031840 
#    y -0.116660 2.009700 0.023740 
#    z -0.031840 0.023740 1.960760 
# 
# From -- ./inp_files/14648.got.cif
#   From: 2010.05.17/outbox.cif.g08.bks.cpg/sg2_8_cif.got.tgz:14648.got - 2010.06.03 11:33:40.
