data_PCOD9022199
_publ_section_title
;
Structure prediction by ZEFSAII (Michael W. Deem and Ramdas Pophale) SiO2 
 PCOD9022199
Probable space group: P -1
;
_chemical_formula_sum "Si O2"
_cell_formula_units_Z 16
_cell_length_a 11.775864
_cell_length_b 15.379478
_cell_length_c 6.783048
_cell_angle_alpha 87.136731
_cell_angle_beta 104.784820
_cell_angle_gamma 138.441502
_cell_volume 768.682171
_symmetry_space_group_name_H-M "P -1"
_symmetry_group_IT_number 2
_symmetry_cell_setting 'triclinic'
loop_
_space_group_symop_operation_xyz
x,y,z
-x,-y,-z
loop_
_atom_site_type_symbol
_atom_site_label
_atom_site_fract_x
_atom_site_fract_y
_atom_site_fract_z
Si Si1 0.962891 0.625455 0.974087
Si Si2 0.905866 0.446939 0.673101
Si Si3 0.675562 0.158346 0.087602
Si Si4 0.271150 0.207079 0.691173
Si Si5 0.001789 0.093540 0.244871
Si Si6 0.894737 0.754862 0.116954
Si Si7 0.798567 0.104830 0.441851
Si Si8 0.461937 0.788347 0.269652
O O1 0.980664 0.558398 0.147105
O O2 0.842703 0.636587 0.995845
O O3 0.165196 0.775106 0.002681
O O4 0.914235 0.547824 0.761445
O O5 0.697355 0.303295 0.630869
O O6 0.000000 0.500000 0.500000
O O7 0.744838 0.170810 0.334560
O O8 0.615515 0.218440 0.972986
O O9 0.500000 0.000000 0.000000
O O10 0.179517 0.171451 0.441967
O O11 0.254560 0.284850 0.804359
O O12 0.455600 0.259716 0.731631
O O13 0.137964 0.063897 0.762029
O O14 0.909883 0.123465 0.310233
O O15 0.044617 0.143109 0.036199
O O16 0.067921 0.828029 0.322389
O O17 0.620379 0.943233 0.396459
#
# Coordination Sequence:
#
# PCOD9022199 Si02
#       8
#     2   2   2   2   2   2   2   2
#     4  10  22  39  59  88 113 151 205 242 292 354
#     4  10  23  43  62  78 112 162 204 247 291 344
#     4   9  17  35  58  84 122 151 181 249 301 342
#     4   9  19  33  56  86 124 161 192 230 298 350
#     4   9  17  33  53  85 127 159 194 231 281 365
#     4  11  20  33  61  91 122 154 195 238 297 361
#     4   9  18  33  58  92 119 155 186 242 308 348
#     4   9  19  39  59  84 125 155 198 245 286 358
#
# _framework density 20.814844999999998
#
# number of rings (size 3 to 8) (size 9 to 14) (size 15 to 20)
#    0.000    2.500    1.250    1.125    1.750    0.000 
#    2.250    8.750    0.000    1.500    0.000    0.000 
#    0.000    0.000    0.000    0.000    0.000    0.000 
#
# Total GULP energy -89200.327460 kJ/mol
# GULP energy per Si atom -5575.020466 kJ/mol
# Density = 2.076747 g / cm^3
# Si number density = 20.814845 Si / 1000 Ang^3
#
#
#
# Elastic Constant Matrix: (Units=GPa)
#
#
# Indices 1 2 3 4 5 6 
#
# 1 130.7181 31.6040 50.2524 2.2713 -1.8885 -1.9671
# 2 31.6040 49.6767 31.8542 -16.0346 -3.0076 3.8952
# 3 50.2524 31.8542 120.0910 -18.9972 -0.9911 3.1826
# 4 2.2713 -16.0346 -18.9972 12.8629 -3.3017 -5.3613
# 5 -1.8885 -3.0076 -0.9911 -3.3017 34.2056 0.4210
# 6 -1.9671 3.8952 3.1826 -5.3613 0.4210 23.8888
#
#
#
# Elastic Compliance Matrix: (Units=1/GPa)
#
#
# Indices 1 2 3 4 5 6 
#
# 1 0.015349 -0.017035 -0.007890 -0.038174 -0.004522 -0.003395
# 2 -0.017035 0.055509 0.006215 0.088037 0.012517 0.008256
# 3 -0.007890 0.006215 0.015357 0.034455 0.003833 0.003956
# 4 -0.038174 0.088037 0.034455 0.269094 0.032141 0.037737
# 5 -0.004522 0.012517 0.003833 0.032141 0.033254 0.003703
# 6 -0.003395 0.008256 0.003956 0.037737 0.003703 0.048112
#
#
# Mechanical properties :
#
#
# Convention : Reuss Voigt Hill
#
# Bulk Modulus (GPa) = 20.49346 58.65631 39.57489
# Shear Modulus (GPa) = 10.19661 26.64316 18.41989
#
# Velocity S-wave (km/s) = 2.21571 3.58160 2.97802
# Velocity P-wave (km/s) = 4.05127 6.73387 5.55688
#
# Compressibility (1/GPa) = 0.04879605
#
# Stress axis : x y z
#
# Youngs Moduli (GPa) = 65.15191 18.01513 65.11532
#
# Poissons Ratio (x) = 0.30688 0.51379
# Poissons Ratio (y) = 1.10984 -0.40472
# Poissons Ratio (z) = 0.51407 -0.11197
#
# Static dielectric constant tensor:
#      x y z
#    x 1.784530 -0.034780 0.018640 
#    y -0.034780 1.774720 0.034580 
#    z 0.018640 0.034580 1.768090 
# 
# From -- ./inp_files/80495.got.cif
#   From: 2010.05.17/outbox.cif.g08.bks.cpg/sg2_41_cif.got.tgz:80495.got - 2010.06.03 11:33:40.
