data_PCOD9022415
_publ_section_title
;
Structure prediction by ZEFSAII (Michael W. Deem and Ramdas Pophale) SiO2 
 PCOD9022415
Probable space group: P -1
;
_chemical_formula_sum "Si O2"
_cell_formula_units_Z 14
_cell_length_a 5.328343
_cell_length_b 21.379933
_cell_length_c 9.904055
_cell_angle_alpha 29.921991
_cell_angle_beta 95.011465
_cell_angle_gamma 91.062561
_cell_volume 556.928239
_symmetry_space_group_name_H-M "P -1"
_symmetry_group_IT_number 2
_symmetry_cell_setting 'triclinic'
loop_
_space_group_symop_operation_xyz
x,y,z
-x,-y,-z
loop_
_atom_site_type_symbol
_atom_site_label
_atom_site_fract_x
_atom_site_fract_y
_atom_site_fract_z
Si Si1 0.074162 0.203668 0.148410
Si Si2 0.936460 0.263696 0.306456
Si Si3 0.232805 0.008005 0.894982
Si Si4 0.104554 0.160723 0.938795
Si Si5 0.300436 0.369696 0.385511
Si Si6 0.373968 0.903728 0.541084
Si Si7 0.780251 0.456404 0.186406
O O1 0.025466 0.300093 0.091361
O O2 0.071511 0.243910 0.917603
O O3 0.347083 0.124588 0.335603
O O4 0.841264 0.120254 0.314819
O O5 0.150696 0.145317 0.569493
O O6 0.853845 0.349426 0.272513
O O7 0.682422 0.199172 0.380972
O O8 0.235948 0.236349 0.686882
O O9 0.162403 0.892874 0.010840
O O10 0.500000 0.000000 0.000000
O O11 0.000000 0.000000 0.000000
O O12 0.296131 0.037762 0.217617
O O13 0.571172 0.410986 0.358892
O O14 0.054419 0.457649 0.261659
O O15 0.305635 0.414752 0.141476
#
# Coordination Sequence:
#
# PCOD9022415 Si02
#       7
#     2   2   2   2   2   2   2
#     4  10  22  39  61  95 123 174 204 253 324 373
#     4   9  23  38  66  84 132 166 209 254 326 376
#     4  11  26  38  57  94 129 169 207 254 319 372
#     4  11  23  41  66  92 131 163 221 262 306 389
#     4  10  24  40  66  91 121 169 216 263 320 370
#     4   9  22  36  59  93 123 166 206 247 318 374
#     4  10  22  44  62  90 126 167 212 266 324 372
#
# _framework density 25.137886000000002
#
# number of rings (size 3 to 8) (size 9 to 14) (size 15 to 20)
#    0.857    1.143    0.000    1.714    6.000    6.857 
#    0.000    1.429    0.000    0.857    0.000    0.000 
#    0.000    0.000    0.000    0.000    0.000    0.000 
#
# Total GULP energy -77970.304205 kJ/mol
# GULP energy per Si atom -5569.307443 kJ/mol
# Density = 2.508067 g / cm^3
# Si number density = 25.137886 Si / 1000 Ang^3
#
#
#
# Elastic Constant Matrix: (Units=GPa)
#
#
# Indices 1 2 3 4 5 6 
#
# 1 207.0332 47.4959 49.6542 -1.6564 -11.6180 36.1281
# 2 47.4959 112.2027 40.4522 11.7541 1.1449 -3.5936
# 3 49.6542 40.4522 118.6722 -4.1612 -16.5589 6.9624
# 4 -1.6564 11.7541 -4.1612 34.1329 3.6128 -0.0411
# 5 -11.6180 1.1449 -16.5589 3.6128 38.1665 -0.8548
# 6 36.1281 -3.5936 6.9624 -0.0411 -0.8548 32.8687
#
#
#
# Elastic Compliance Matrix: (Units=1/GPa)
#
#
# Indices 1 2 3 4 5 6 
#
# 1 0.007340 -0.003014 -0.001328 0.001067 0.001467 -0.008077
# 2 -0.003014 0.012192 -0.003694 -0.004541 -0.002336 0.005362
# 3 -0.001328 -0.003694 0.010975 0.002095 0.004244 -0.001156
# 4 0.001067 -0.004541 0.002095 0.031340 -0.001644 -0.002117
# 5 0.001467 -0.002336 0.004244 -0.001644 0.028669 -0.002023
# 6 -0.008077 0.005362 -0.001156 -0.002117 -0.002023 0.040078
#
#
# Mechanical properties :
#
#
# Convention : Reuss Voigt Hill
#
# Bulk Modulus (GPa) = 69.27999 79.23474 74.25737
# Shear Modulus (GPa) = 33.00813 41.05402 37.03108
#
# Velocity S-wave (km/s) = 3.62758 4.04561 3.84229
# Velocity P-wave (km/s) = 6.72054 7.30829 7.02057
#
# Compressibility (1/GPa) = 0.01443418
#
# Stress axis : x y z
#
# Youngs Moduli (GPa) = 136.23240 82.02436 91.11567
#
# Poissons Ratio (x) = 0.24721 0.12100
# Poissons Ratio (y) = 0.41059 0.33662
# Poissons Ratio (z) = 0.18092 0.30304
#
# Static dielectric constant tensor:
#      x y z
#    x 2.116740 0.046940 -0.013740 
#    y 0.046940 2.237840 -0.024110 
#    z -0.013740 -0.024110 2.104190 
# 
# From -- ./inp_files/139822.got.cif
#   From: 2010.05.17/outbox.cif.g08.bks.cpg/sg2_70_cif.got.tgz:139822.got - 2010.06.03 11:33:40.
