data_PCOD9022870
_publ_section_title
;
Structure prediction by ZEFSAII (Michael W. Deem and Ramdas Pophale) SiO2 
 PCOD9022870
Probable space group: P -1
;
_chemical_formula_sum "Si O2"
_cell_formula_units_Z 14
_cell_length_a 25.739789
_cell_length_b 4.805596
_cell_length_c 5.133324
_cell_angle_alpha 89.022330
_cell_angle_beta 65.080827
_cell_angle_gamma 64.481375
_cell_volume 509.076896
_symmetry_space_group_name_H-M "P -1"
_symmetry_group_IT_number 2
_symmetry_cell_setting 'triclinic'
loop_
_space_group_symop_operation_xyz
x,y,z
-x,-y,-z
loop_
_atom_site_type_symbol
_atom_site_label
_atom_site_fract_x
_atom_site_fract_y
_atom_site_fract_z
Si Si1 0.513111 0.163999 0.219595
Si Si2 0.755620 0.878703 0.224952
Si Si3 0.219740 0.789488 0.326118
Si Si4 0.619586 0.357365 0.504064
Si Si5 0.645082 0.684633 0.945399
Si Si6 0.043058 0.466657 0.160368
Si Si7 0.131708 0.778641 0.883436
O O1 0.457711 0.527864 0.332987
O O2 0.500000 0.000000 0.500000
O O3 0.500000 0.000000 0.000000
O O4 0.590238 0.048864 0.058448
O O5 0.677636 0.000778 0.384413
O O6 0.803359 0.507338 0.132075
O O7 0.769357 0.031040 0.451537
O O8 0.772519 0.033326 0.940846
O O9 0.278536 0.432559 0.206789
O O10 0.152520 0.789591 0.538353
O O11 0.368226 0.479601 0.775845
O O12 0.632468 0.524641 0.721787
O O13 0.000000 0.500000 0.500000
O O14 0.072925 0.702799 0.057117
O O15 0.000000 0.500000 0.000000
O O16 0.105227 0.125887 0.042218
#
# Coordination Sequence:
#
# PCOD9022870 Si02
#       7
#     2   2   2   2   2   2   2
#     4   8  12  20  40  69 110 162 211 265 325 376
#     4  10  22  39  64  98 135 177 227 278 334 398
#     4  10  22  39  64  98 135 177 227 278 334 398
#     4   8  14  26  45  77 118 163 216 270 323 384
#     4   8  14  26  45  77 118 163 216 270 323 384
#     4  12  30  52  78 108 142 179 224 273 334 408
#     4  12  26  50  78 105 144 182 224 278 338 405
#
# _framework density 27.500755000000002
#
# number of rings (size 3 to 8) (size 9 to 14) (size 15 to 20)
#    0.000    2.286    1.429    0.857    2.000    3.429 
#    0.000    0.000    0.000    0.857    0.000    0.000 
#    0.000   34.286    0.000    0.000    0.000   17.286 
#
# Total GULP energy -78527.334124 kJ/mol
# GULP energy per Si atom -5609.095295 kJ/mol
# Density = 2.743816 g / cm^3
# Si number density = 27.500755 Si / 1000 Ang^3
#
#
#
# Elastic Constant Matrix: (Units=GPa)
#
#
# Indices 1 2 3 4 5 6 
#
# 1 90.9796 28.8442 50.5931 -13.0277 5.0010 -11.6372
# 2 28.8442 125.3485 48.9712 6.4924 3.6005 -21.6833
# 3 50.5931 48.9712 209.3225 -4.7074 0.5791 -16.7618
# 4 -13.0277 6.4924 -4.7074 60.8431 -20.8802 -16.1546
# 5 5.0010 3.6005 0.5791 -20.8802 58.5355 -2.4695
# 6 -11.6372 -21.6833 -16.7618 -16.1546 -2.4695 54.2777
#
#
#
# Elastic Compliance Matrix: (Units=1/GPa)
#
#
# Indices 1 2 3 4 5 6 
#
# 1 0.013913 -0.001947 -0.002619 0.003806 0.000422 0.002548
# 2 -0.001947 0.009564 -0.001586 -0.001124 -0.000700 0.002547
# 3 -0.002619 -0.001586 0.005850 0.000413 0.000443 0.000755
# 4 0.003806 -0.001124 0.000413 0.022100 0.007937 0.007433
# 5 0.000422 -0.000700 0.000443 0.007937 0.020053 0.003222
# 6 0.002548 0.002547 0.000755 0.007433 0.003222 0.022580
#
#
# Mechanical properties :
#
#
# Convention : Reuss Voigt Hill
#
# Bulk Modulus (GPa) = 58.74391 75.82974 67.28683
# Shear Modulus (GPa) = 44.62766 54.54738 49.58752
#
# Velocity S-wave (km/s) = 4.03274 4.45847 4.25094
# Velocity P-wave (km/s) = 6.56439 7.35782 6.97240
#
# Compressibility (1/GPa) = 0.01702304
#
# Stress axis : x y z
#
# Youngs Moduli (GPa) = 71.87718 104.55359 170.94270
#
# Poissons Ratio (x) = 0.20354 0.44766
# Poissons Ratio (y) = 0.13993 0.27119
# Poissons Ratio (z) = 0.18823 0.16587
#
# Static dielectric constant tensor:
#      x y z
#    x 2.171120 -0.070740 0.001740 
#    y -0.070740 2.098460 0.016900 
#    z 0.001740 0.016900 2.161970 
# 
# From -- ./inp_files/121221.got.cif
#   From: 2010.05.17/outbox.cif.g08.bks.cpg/sg2_61_cif.got.tgz:121221.got - 2010.06.03 11:33:40.
