data_PCOD9022898
_publ_section_title
;
Structure prediction by ZEFSAII (Michael W. Deem and Ramdas Pophale) SiO2 
 PCOD9022898
Probable space group: P -1
;
_chemical_formula_sum "Si O2"
_cell_formula_units_Z 16
_cell_length_a 12.813665
_cell_length_b 9.254657
_cell_length_c 10.523668
_cell_angle_alpha 75.189422
_cell_angle_beta 78.001268
_cell_angle_gamma 131.747174
_cell_volume 766.577214
_symmetry_space_group_name_H-M "P -1"
_symmetry_group_IT_number 2
_symmetry_cell_setting 'triclinic'
loop_
_space_group_symop_operation_xyz
x,y,z
-x,-y,-z
loop_
_atom_site_type_symbol
_atom_site_label
_atom_site_fract_x
_atom_site_fract_y
_atom_site_fract_z
Si Si1 0.985526 0.966876 0.858918
Si Si2 0.669323 0.430851 0.675023
Si Si3 0.138101 0.437530 0.166176
Si Si4 0.273901 0.100668 0.130147
Si Si5 0.500737 0.451364 0.204543
Si Si6 0.336336 0.932328 0.950129
Si Si7 0.792561 0.046355 0.267632
Si Si8 0.448324 0.609187 0.539091
O O1 0.863167 0.706668 0.894801
O O2 0.912697 0.038755 0.798078
O O3 0.152982 0.070023 0.739502
O O4 0.000000 0.000000 0.000000
O O5 0.820879 0.560568 0.699620
O O6 0.602762 0.523187 0.712881
O O7 0.674372 0.445062 0.518020
O O8 0.524910 0.161737 0.813234
O O9 0.950248 0.291868 0.235068
O O10 0.270565 0.695568 0.024890
O O11 0.370696 0.216231 0.211027
O O12 0.371637 0.323412 0.965657
O O13 0.298002 0.968765 0.086029
O O14 0.591650 0.453804 0.289483
O O15 0.236005 0.917790 0.872648
O O16 0.623553 0.881130 0.421973
O O17 0.500000 0.500000 0.500000
#
# Coordination Sequence:
#
# PCOD9022898 Si02
#       8
#     2   2   2   2   2   2   2   2
#     4  10  19  30  49  73 113 126 160 217 264 286
#     4   9  17  31  48  75 103 132 171 211 244 297
#     4  10  19  31  50  77 107 134 170 210 252 301
#     4  10  17  31  51  79 104 123 165 215 256 300
#     4   9  17  30  53  73 101 133 166 209 260 295
#     4  10  18  30  51  77 104 139 168 203 256 305
#     4   9  19  31  50  74 105 134 168 209 248 306
#     4   9  18  32  51  73 101 136 172 209 253 303
#
# _framework density 20.872001000000001
#
# number of rings (size 3 to 8) (size 9 to 14) (size 15 to 20)
#    0.750    1.750    2.500    1.500    0.000    0.000 
#    0.000    5.625    0.000    1.500    0.000    0.000 
#    0.000    0.000    0.000    0.000    0.000    0.000 
#
# Total GULP energy -89115.346651 kJ/mol
# GULP energy per Si atom -5569.709166 kJ/mol
# Density = 2.082450 g / cm^3
# Si number density = 20.872001 Si / 1000 Ang^3
#
#
#
# Elastic Constant Matrix: (Units=GPa)
#
#
# Indices 1 2 3 4 5 6 
#
# 1 31.2706 18.4354 3.7161 7.8052 5.0656 13.6909
# 2 18.4354 121.2013 37.1901 16.2223 17.8765 22.9863
# 3 3.7161 37.1901 45.0538 14.6805 10.5512 4.7377
# 4 7.8052 16.2223 14.6805 20.1349 4.7078 13.0287
# 5 5.0656 17.8765 10.5512 4.7078 15.0546 3.7188
# 6 13.6909 22.9863 4.7377 13.0287 3.7188 33.1322
#
#
#
# Elastic Compliance Matrix: (Units=1/GPa)
#
#
# Indices 1 2 3 4 5 6 
#
# 1 0.041753 -0.003454 0.005037 -0.007606 -0.008218 -0.011663
# 2 -0.003454 0.013813 -0.009821 0.004013 -0.007769 -0.007457
# 3 0.005037 -0.009821 0.040858 -0.028264 -0.012653 0.011424
# 4 -0.007606 0.004013 -0.028264 0.090731 -0.003130 -0.030927
# 5 -0.008218 -0.007769 -0.012653 -0.003130 0.087775 0.001974
# 6 -0.011663 -0.007457 0.011424 -0.030927 0.001974 0.050481
#
#
# Mechanical properties :
#
#
# Convention : Reuss Voigt Hill
#
# Bulk Modulus (GPa) = 12.50811 35.13434 23.82122
# Shear Modulus (GPa) = 13.56716 22.87662 18.22189
#
# Velocity S-wave (km/s) = 2.55231 3.31425 2.95791
# Velocity P-wave (km/s) = 3.83295 5.61386 4.80661
#
# Compressibility (1/GPa) = 0.07994815
#
# Stress axis : x y z
#
# Youngs Moduli (GPa) = 23.95033 72.39705 24.47482
#
# Poissons Ratio (x) = 0.25008 -0.12328
# Poissons Ratio (y) = 0.08273 0.24036
# Poissons Ratio (z) = -0.12064 0.71099
#
# Static dielectric constant tensor:
#      x y z
#    x 1.775520 0.044480 -0.020450 
#    y 0.044480 1.796930 -0.007530 
#    z -0.020450 -0.007530 1.802380 
# 
# From -- ./inp_files/448758.got.cif
#   From: 2010.05.17/outbox.cif.g08.bks.cpg/sg2_225_cif.got.tgz:448758.got - 2010.06.03 11:33:40.
