data_PCOD9022769
_publ_section_title
;
Structure prediction by ZEFSAII (Michael W. Deem and Ramdas Pophale) SiO2 
 PCOD9022769
Probable space group: P -1
;
_chemical_formula_sum "Si O2"
_cell_formula_units_Z 16
_cell_length_a 18.721732
_cell_length_b 16.825147
_cell_length_c 7.759039
_cell_angle_alpha 115.713798
_cell_angle_beta 128.678758
_cell_angle_gamma 23.974033
_cell_volume 699.031597
_symmetry_space_group_name_H-M "P -1"
_symmetry_group_IT_number 2
_symmetry_cell_setting 'triclinic'
loop_
_space_group_symop_operation_xyz
x,y,z
-x,-y,-z
loop_
_atom_site_type_symbol
_atom_site_label
_atom_site_fract_x
_atom_site_fract_y
_atom_site_fract_z
Si Si1 0.165198 0.970353 0.119963
Si Si2 0.738003 0.048565 0.411136
Si Si3 0.591650 0.009956 0.974562
Si Si4 0.954736 0.142732 0.601019
Si Si5 0.964938 0.464187 0.688146
Si Si6 0.483340 0.592900 0.426607
Si Si7 0.811331 0.757808 0.515615
Si Si8 0.479094 0.839874 0.358655
O O1 0.254261 0.797747 0.160459
O O2 0.389040 0.822910 0.247759
O O3 0.374196 0.947216 0.785316
O O4 0.005088 0.112951 0.851360
O O5 0.548756 0.288733 0.398843
O O6 0.883162 0.946602 0.366832
O O7 0.896800 0.920614 0.698889
O O8 0.326108 0.041447 0.425859
O O9 0.371343 0.143084 0.766442
O O10 0.565456 0.089904 0.837089
O O11 0.814674 0.752598 0.073727
O O12 0.695655 0.398247 0.438336
O O13 0.000000 0.000000 0.500000
O O14 0.004468 0.383682 0.484133
O O15 0.915685 0.607580 0.686903
O O16 0.741199 0.623372 0.586305
O O17 0.500000 0.500000 0.500000
#
# Coordination Sequence:
#
# PCOD9022769 Si02
#       8
#     2   2   2   2   2   2   2   2
#     4  10  25  45  66 104 138 174 222 283 331 396
#     4  10  24  45  64 102 139 170 228 275 328 408
#     4  11  21  41  66  92 137 178 224 280 328 391
#     4  12  23  47  74  98 134 175 220 276 345 409
#     4  10  22  39  64  89 125 187 222 264 353 374
#     4  10  24  47  69 103 133 174 227 268 342 408
#     4  10  23  42  61  97 132 175 232 278 324 401
#     4  11  23  42  62  96 138 169 231 281 325 398
#
# _framework density 22.888807
#
# number of rings (size 3 to 8) (size 9 to 14) (size 15 to 20)
#    0.750    0.750    2.500    2.625    1.750    4.500 
#   13.500    0.000    0.000    0.000    0.000    0.000 
#    0.000    0.000    0.000    0.000    0.000    0.000 
#
# Total GULP energy -89318.026495 kJ/mol
# GULP energy per Si atom -5582.376656 kJ/mol
# Density = 2.283671 g / cm^3
# Si number density = 22.888807 Si / 1000 Ang^3
#
#
#
# Elastic Constant Matrix: (Units=GPa)
#
#
# Indices 1 2 3 4 5 6 
#
# 1 55.2527 13.2244 1.7862 -6.9100 -8.6953 -1.7482
# 2 13.2244 110.5633 26.5723 -7.9930 15.8666 -8.4495
# 3 1.7862 26.5723 84.8026 -4.1339 -19.5206 6.9180
# 4 -6.9100 -7.9930 -4.1339 47.6508 -4.3210 -2.1882
# 5 -8.6953 15.8666 -19.5206 -4.3210 30.3150 0.9292
# 6 -1.7482 -8.4495 6.9180 -2.1882 0.9292 32.2469
#
#
#
# Elastic Compliance Matrix: (Units=1/GPa)
#
#
# Indices 1 2 3 4 5 6 
#
# 1 0.021537 -0.005171 0.004247 0.003674 0.012179 -0.001200
# 2 -0.005171 0.014033 -0.008006 -0.000122 -0.014169 0.005514
# 3 0.004247 -0.008006 0.019021 0.002281 0.018175 -0.006317
# 4 0.003674 -0.000122 0.002281 0.022263 0.005728 0.001023
# 5 0.012179 -0.014169 0.018175 0.005728 0.056668 -0.008196
# 6 -0.001200 0.005514 -0.006317 0.001023 -0.008196 0.034051
#
#
# Mechanical properties :
#
#
# Convention : Reuss Voigt Hill
#
# Bulk Modulus (GPa) = 27.22357 37.08717 32.15537
# Shear Modulus (GPa) = 25.29391 35.97825 30.63608
#
# Velocity S-wave (km/s) = 3.32788 3.96898 3.66249
# Velocity P-wave (km/s) = 5.16585 6.10263 5.65368
#
# Compressibility (1/GPa) = 0.03673288
#
# Stress axis : x y z
#
# Youngs Moduli (GPa) = 46.43177 71.26029 52.57217
#
# Poissons Ratio (x) = 0.36846 -0.22327
# Poissons Ratio (y) = 0.24008 0.42087
# Poissons Ratio (z) = -0.19719 0.57049
#
# Static dielectric constant tensor:
#      x y z
#    x 1.905250 0.015710 -0.031350 
#    y 0.015710 1.844260 -0.003100 
#    z -0.031350 -0.003100 1.886350 
# 
# From -- ./inp_files/335732.got.cif
#   From: 2010.05.17/outbox.cif.g08.bks.cpg/sg2_168_cif.got.tgz:335732.got - 2010.06.03 11:33:40.
