data_PCOD9022398
_publ_section_title
;
Structure prediction by ZEFSAII (Michael W. Deem and Ramdas Pophale) SiO2 
 PCOD9022398
Probable space group: P -1
;
_chemical_formula_sum "Si O2"
_cell_formula_units_Z 16
_cell_length_a 11.327010
_cell_length_b 8.924939
_cell_length_c 17.954666
_cell_angle_alpha 124.605720
_cell_angle_beta 29.779085
_cell_angle_gamma 125.945344
_cell_volume 722.068269
_symmetry_space_group_name_H-M "P -1"
_symmetry_group_IT_number 2
_symmetry_cell_setting 'triclinic'
loop_
_space_group_symop_operation_xyz
x,y,z
-x,-y,-z
loop_
_atom_site_type_symbol
_atom_site_label
_atom_site_fract_x
_atom_site_fract_y
_atom_site_fract_z
Si Si1 0.477004 0.282141 0.751448
Si Si2 0.685956 0.187148 0.977253
Si Si3 0.848994 0.947022 0.255680
Si Si4 0.190682 0.971518 0.537959
Si Si5 0.076017 0.213107 0.551763
Si Si6 0.698651 0.669488 0.685950
Si Si7 0.387557 0.682460 0.106150
Si Si8 0.152690 0.142720 0.018144
O O1 0.618693 0.116661 0.637493
O O2 0.677398 0.470586 0.679974
O O3 0.295487 0.294249 0.922214
O O4 0.321167 0.217220 0.744539
O O5 0.552869 0.278320 0.139599
O O6 0.929646 0.137385 0.858476
O O7 0.700863 0.303272 0.925576
O O8 0.500000 0.000000 0.000000
O O9 0.739988 0.010492 0.408574
O O10 0.954811 0.116384 0.186624
O O11 0.925602 0.827174 0.637538
O O12 0.176941 0.167560 0.563522
O O13 0.260204 0.329708 0.424516
O O14 0.847684 0.307237 0.713229
O O15 0.000000 0.000000 0.500000
O O16 0.604582 0.856697 0.064213
O O17 0.500000 0.500000 0.000000
O O18 0.000000 0.000000 0.000000
#
# Coordination Sequence:
#
# PCOD9022398 Si02
#       8
#     2   2   2   2   2   2   2   2
#     4  11  25  41  62  98 132 164 212 271 325 372
#     4  12  21  40  69  92 124 170 222 259 316 386
#     4  11  23  41  66  92 128 171 217 259 319 385
#     4  11  21  42  69  91 124 173 220 254 315 394
#     4  10  22  40  67  97 126 171 219 259 319 387
#     4  11  23  39  65  96 129 166 213 274 320 374
#     4  12  23  40  67  99 130 161 216 278 319 373
#     4  10  22  39  61  93 125 168 210 260 317 384
#
# _framework density 22.158570000000001
#
# number of rings (size 3 to 8) (size 9 to 14) (size 15 to 20)
#    0.000    1.000    3.750    3.750    1.750    2.500 
#    0.000    0.625    0.000    0.000    0.000    0.000 
#    0.000    0.000    0.000    0.000    0.000    0.000 
#
# Total GULP energy -89139.899304 kJ/mol
# GULP energy per Si atom -5571.243707 kJ/mol
# Density = 2.210814 g / cm^3
# Si number density = 22.158570 Si / 1000 Ang^3
#
#
#
# Elastic Constant Matrix: (Units=GPa)
#
#
# Indices 1 2 3 4 5 6 
#
# 1 118.0464 30.3488 32.4490 -7.4392 10.3835 -4.4040
# 2 30.3488 52.8599 36.1712 -3.1004 11.7999 -20.4785
# 3 32.4490 36.1712 108.1596 7.2175 22.1179 -14.5475
# 4 -7.4392 -3.1004 7.2175 35.2790 -16.5994 -0.8736
# 5 10.3835 11.7999 22.1179 -16.5994 52.0440 -6.4365
# 6 -4.4040 -20.4785 -14.5475 -0.8736 -6.4365 29.6990
#
#
#
# Elastic Compliance Matrix: (Units=1/GPa)
#
#
# Indices 1 2 3 4 5 6 
#
# 1 0.010498 -0.006058 -0.001774 0.002095 0.000285 -0.003366
# 2 -0.006058 0.035634 -0.007702 0.004001 0.000159 0.020052
# 3 -0.001774 -0.007702 0.014010 -0.006764 -0.006038 -0.000219
# 4 0.002095 0.004001 -0.006764 0.037146 0.013874 0.003856
# 5 0.000285 0.000159 -0.006038 0.013874 0.026527 0.003351
# 6 -0.003366 0.020052 -0.000219 0.003856 0.003351 0.047731
#
#
# Mechanical properties :
#
#
# Convention : Reuss Voigt Hill
#
# Bulk Modulus (GPa) = 34.39520 53.00045 43.69782
# Shear Modulus (GPa) = 23.55097 35.41088 29.48093
#
# Velocity S-wave (km/s) = 3.26366 4.00192 3.65149
# Velocity P-wave (km/s) = 5.45508 6.73234 6.12709
#
# Compressibility (1/GPa) = 0.02907382
#
# Stress axis : x y z
#
# Youngs Moduli (GPa) = 95.25820 28.06331 71.37584
#
# Poissons Ratio (x) = 0.17000 0.12665
# Poissons Ratio (y) = 0.57705 0.54972
# Poissons Ratio (z) = 0.16903 0.21614
#
# Static dielectric constant tensor:
#      x y z
#    x 1.899050 -0.057820 0.030590 
#    y -0.057820 1.902170 0.016030 
#    z 0.030590 0.016030 1.861740 
# 
# From -- ./inp_files/566120.got.cif
#   From: 2010.05.17/outbox.cif.g08.bks.cpg/sg2_284_cif.got.tgz:566120.got - 2010.06.03 11:33:40.
