data_PCOD9022464
_publ_section_title
;
Structure prediction by ZEFSAII (Michael W. Deem and Ramdas Pophale) SiO2 
 PCOD9022464
Probable space group: P -1
;
_chemical_formula_sum "Si O2"
_cell_formula_units_Z 16
_cell_length_a 11.322271
_cell_length_b 16.599541
_cell_length_c 8.455863
_cell_angle_alpha 110.545433
_cell_angle_beta 119.252944
_cell_angle_gamma 117.916426
_cell_volume 807.636454
_symmetry_space_group_name_H-M "P -1"
_symmetry_group_IT_number 2
_symmetry_cell_setting 'triclinic'
loop_
_space_group_symop_operation_xyz
x,y,z
-x,-y,-z
loop_
_atom_site_type_symbol
_atom_site_label
_atom_site_fract_x
_atom_site_fract_y
_atom_site_fract_z
Si Si1 0.491897 0.741617 0.287213
Si Si2 0.892724 0.515078 0.331051
Si Si3 0.308646 0.975123 0.894441
Si Si4 0.612978 0.468318 0.726521
Si Si5 0.564780 0.428916 0.309767
Si Si6 0.070118 0.732281 0.377672
Si Si7 0.500406 0.927895 0.586652
Si Si8 0.742105 0.871087 0.209185
O O1 0.522395 0.672229 0.366546
O O2 0.516791 0.841896 0.465064
O O3 0.634136 0.818426 0.275556
O O4 0.246658 0.605388 0.972212
O O5 0.730977 0.490321 0.318623
O O6 0.000000 0.500000 0.500000
O O7 0.074133 0.661400 0.465278
O O8 0.100097 0.834623 0.567049
O O9 0.334862 0.083880 0.913580
O O10 0.500000 0.000000 0.000000
O O11 0.314400 0.975218 0.088672
O O12 0.649849 0.455255 0.561766
O O13 0.489409 0.497353 0.674376
O O14 0.842596 0.603853 0.053538
O O15 0.355108 0.263160 0.029452
O O16 0.268795 0.822189 0.450042
O O17 0.500000 0.000000 0.500000
O O18 0.000000 0.000000 0.500000
#
# Coordination Sequence:
#
# PCOD9022464 Si02
#       8
#     2   2   2   2   2   2   2   2
#     4  10  23  39  62  90 127 157 212 261 316 366
#     4  10  24  36  63  93 121 161 206 258 315 376
#     4  10  22  39  62  88 126 165 209 256 316 371
#     4  10  22  42  62  94 123 169 204 270 315 372
#     4  10  23  40  64  89 132 160 213 261 317 373
#     4  10  23  38  62  90 124 165 210 253 317 380
#     4  11  24  39  62  93 132 168 210 269 314 377
#     4  11  23  42  66  90 125 174 212 261 315 391
#
# _framework density 19.810894000000001
#
# number of rings (size 3 to 8) (size 9 to 14) (size 15 to 20)
#    0.000    1.750    0.000    3.000   12.250    6.500 
#    0.000    5.000    0.000    0.000    0.000    0.000 
#    0.000    0.000    0.000    0.000    0.000    0.000 
#
# Total GULP energy -89231.010334 kJ/mol
# GULP energy per Si atom -5576.938146 kJ/mol
# Density = 1.976580 g / cm^3
# Si number density = 19.810894 Si / 1000 Ang^3
#
#
#
# Elastic Constant Matrix: (Units=GPa)
#
#
# Indices 1 2 3 4 5 6 
#
# 1 55.4445 41.2628 38.9656 2.5306 -24.3748 -5.2755
# 2 41.2628 171.7165 45.4805 3.9587 -9.6999 -3.5218
# 3 38.9656 45.4805 92.0025 0.5390 -33.0616 3.0272
# 4 2.5306 3.9587 0.5390 32.9838 2.3223 -1.7163
# 5 -24.3748 -9.6999 -33.0616 2.3223 42.3935 0.7714
# 6 -5.2755 -3.5218 3.0272 -1.7163 0.7714 31.3644
#
#
#
# Elastic Compliance Matrix: (Units=1/GPa)
#
#
# Indices 1 2 3 4 5 6 
#
# 1 0.032847 -0.005150 -0.007151 -0.002371 0.012165 0.005208
# 2 -0.005150 0.007629 -0.002827 -0.000216 -0.003414 0.000335
# 3 -0.007151 -0.002827 0.019086 -0.000332 0.010210 -0.003632
# 4 -0.002371 -0.000216 -0.000332 0.030841 -0.003386 0.001380
# 5 0.012165 -0.003414 0.010210 -0.003386 0.037958 -0.000442
# 6 0.005208 0.000335 -0.003632 0.001380 -0.000442 0.033234
#
#
# Mechanical properties :
#
#
# Convention : Reuss Voigt Hill
#
# Bulk Modulus (GPa) = 34.12395 63.39792 48.76094
# Shear Modulus (GPa) = 24.79918 34.24530 29.52224
#
# Velocity S-wave (km/s) = 3.54191 4.16217 3.86450
# Velocity P-wave (km/s) = 5.83001 7.42760 6.67676
#
# Compressibility (1/GPa) = 0.02930493
#
# Stress axis : x y z
#
# Youngs Moduli (GPa) = 30.44455 131.08244 52.39434
#
# Poissons Ratio (x) = 0.67510 0.37469
# Poissons Ratio (y) = 0.15679 0.14810
# Poissons Ratio (z) = 0.21772 0.37053
#
# Static dielectric constant tensor:
#      x y z
#    x 1.690090 0.006990 -0.009370 
#    y 0.006990 1.749940 -0.024560 
#    z -0.009370 -0.024560 1.753890 
# 
# From -- ./inp_files/273885.got.cif
#   From: 2010.05.17/outbox.cif.g08.bks.cpg/sg2_137_cif.got.tgz:273885.got - 2010.06.03 11:33:40.
