data_PCOD9022514
_publ_section_title
;
Structure prediction by ZEFSAII (Michael W. Deem and Ramdas Pophale) SiO2 
 PCOD9022514
Probable space group: P -1
;
_chemical_formula_sum "Si O2"
_cell_formula_units_Z 16
_cell_length_a 13.007707
_cell_length_b 9.349118
_cell_length_c 18.621696
_cell_angle_alpha 136.100494
_cell_angle_beta 132.406963
_cell_angle_gamma 83.450905
_cell_volume 796.903284
_symmetry_space_group_name_H-M "P -1"
_symmetry_group_IT_number 2
_symmetry_cell_setting 'triclinic'
loop_
_space_group_symop_operation_xyz
x,y,z
-x,-y,-z
loop_
_atom_site_type_symbol
_atom_site_label
_atom_site_fract_x
_atom_site_fract_y
_atom_site_fract_z
Si Si1 0.051210 0.705672 0.321239
Si Si2 0.088094 0.896241 0.789101
Si Si3 0.763361 0.800323 0.525561
Si Si4 0.759686 0.249686 0.432388
Si Si5 0.609490 0.405215 0.039142
Si Si6 0.541801 0.286594 0.122349
Si Si7 0.467144 0.573576 0.586705
Si Si8 0.087124 0.901180 0.961570
O O1 0.161729 0.816738 0.491547
O O2 0.827329 0.572412 0.169110
O O3 0.020061 0.429920 0.190773
O O4 0.192549 0.967565 0.424008
O O5 0.082446 0.930621 0.884411
O O6 0.973958 0.945001 0.707937
O O7 0.961244 0.545512 0.592659
O O8 0.318191 0.139902 0.962305
O O9 0.658858 0.504534 0.323948
O O10 0.628883 0.681504 0.490809
O O11 0.671563 0.372258 0.465495
O O12 0.572525 0.953086 0.193041
O O13 0.653778 0.458945 0.164084
O O14 0.500000 0.500000 0.000000
O O15 0.500000 0.000000 0.000000
O O16 0.500000 0.500000 0.500000
O O17 0.681103 0.874984 0.826456
O O18 0.000000 0.000000 0.000000
#
# Coordination Sequence:
#
# PCOD9022514 Si02
#       8
#     2   2   2   2   2   2   2   2
#     4  11  24  43  65  97 138 170 221 275 322 390
#     4  10  22  39  62  92 129 166 220 272 317 386
#     4  11  24  41  63  96 135 165 217 280 318 382
#     4  10  22  41  64  93 130 175 224 267 319 395
#     4  12  25  40  63  93 136 183 213 264 336 383
#     4  12  23  38  63  93 130 177 222 269 318 380
#     4  11  21  43  70  95 126 172 220 269 329 395
#     4  11  21  43  70  94 125 173 218 269 331 397
#
# _framework density 20.077718000000001
#
# number of rings (size 3 to 8) (size 9 to 14) (size 15 to 20)
#    0.000    1.000    2.500    6.750    0.000    6.000 
#    0.000    5.000    0.000    0.000    0.000    0.000 
#    0.000    0.000    0.000    0.000    0.000    0.000 
#
# Total GULP energy -89337.231440 kJ/mol
# GULP energy per Si atom -5583.576965 kJ/mol
# Density = 2.003202 g / cm^3
# Si number density = 20.077718 Si / 1000 Ang^3
#
#
#
# Elastic Constant Matrix: (Units=GPa)
#
#
# Indices 1 2 3 4 5 6 
#
# 1 80.3739 21.4112 24.6873 13.6694 -7.4873 9.8031
# 2 21.4112 97.1352 1.3969 2.7666 -1.6842 11.9519
# 3 24.6873 1.3969 85.2351 -17.1200 2.8930 0.6221
# 4 13.6694 2.7666 -17.1200 33.6665 -0.1823 2.2180
# 5 -7.4873 -1.6842 2.8930 -0.1823 17.9148 -1.1194
# 6 9.8031 11.9519 0.6221 2.2180 -1.1194 33.4875
#
#
#
# Elastic Compliance Matrix: (Units=1/GPa)
#
#
# Indices 1 2 3 4 5 6 
#
# 1 0.018783 -0.003169 -0.007888 -0.011120 0.008513 -0.003200
# 2 -0.003169 0.011335 0.000991 0.001068 -0.000610 -0.003228
# 3 -0.007888 0.000991 0.016484 0.011426 -0.005705 0.000702
# 4 -0.011120 0.001068 0.011426 0.039920 -0.005997 -0.000183
# 5 0.008513 -0.000610 -0.005705 -0.005997 0.060196 0.000241
# 6 -0.003200 -0.003228 0.000702 -0.000183 0.000241 0.031958
#
#
# Mechanical properties :
#
#
# Convention : Reuss Voigt Hill
#
# Bulk Modulus (GPa) = 37.77616 39.74833 38.76224
# Shear Modulus (GPa) = 24.08116 31.36369 27.72242
#
# Velocity S-wave (km/s) = 3.46699 3.95665 3.71988
# Velocity P-wave (km/s) = 5.90614 6.38072 6.14801
#
# Compressibility (1/GPa) = 0.02647172
#
# Stress axis : x y z
#
# Youngs Moduli (GPa) = 53.23895 88.21987 60.66436
#
# Poissons Ratio (x) = 0.27955 0.47849
# Poissons Ratio (y) = 0.16871 -0.06011
# Poissons Ratio (z) = 0.41992 -0.08741
#
# Static dielectric constant tensor:
#      x y z
#    x 1.819780 0.021540 0.001920 
#    y 0.021540 1.722990 0.003440 
#    z 0.001920 0.003440 1.722310 
# 
# From -- ./inp_files/186454.got.cif
#   From: 2010.05.17/outbox.cif.g08.bks.cpg/sg2_94_cif.got.tgz:186454.got - 2010.06.03 11:33:40.
