data_PCOD9022706
_publ_section_title
;
Structure prediction by ZEFSAII (Michael W. Deem and Ramdas Pophale) SiO2 
 PCOD9022706
Probable space group: P -1
;
_chemical_formula_sum "Si O2"
_cell_formula_units_Z 16
_cell_length_a 7.896315
_cell_length_b 12.344498
_cell_length_c 18.364010
_cell_angle_alpha 151.132952
_cell_angle_beta 80.550088
_cell_angle_gamma 116.253036
_cell_volume 664.152380
_symmetry_space_group_name_H-M "P -1"
_symmetry_group_IT_number 2
_symmetry_cell_setting 'triclinic'
loop_
_space_group_symop_operation_xyz
x,y,z
-x,-y,-z
loop_
_atom_site_type_symbol
_atom_site_label
_atom_site_fract_x
_atom_site_fract_y
_atom_site_fract_z
Si Si1 0.312150 0.372565 0.669746
Si Si2 0.342725 0.726598 0.754096
Si Si3 0.741611 0.193570 0.894597
Si Si4 0.411823 0.179530 0.815102
Si Si5 0.052786 0.747692 0.698024
Si Si6 0.082283 0.736012 0.276303
Si Si7 0.760516 0.721574 0.613087
Si Si8 0.536524 0.245150 0.691173
O O1 0.409487 0.652206 0.778212
O O2 0.470326 0.409925 0.745682
O O3 0.088777 0.307941 0.677133
O O4 0.243366 0.085014 0.462754
O O5 0.162870 0.777690 0.784244
O O6 0.203897 0.421231 0.539475
O O7 0.559641 0.993034 0.853170
O O8 0.595079 0.155415 0.815522
O O9 0.846592 0.039175 0.780785
O O10 0.917112 0.521545 0.098582
O O11 0.372063 0.098680 0.685760
O O12 0.224353 0.017969 0.793655
O O13 0.500000 0.500000 0.000000
O O14 0.000000 0.500000 0.500000
O O15 0.830992 0.704367 0.679381
O O16 0.217420 0.618261 0.218022
O O17 0.500000 0.500000 0.500000
O O18 0.500000 0.000000 0.500000
#
# Coordination Sequence:
#
# PCOD9022706 Si02
#       8
#     2   2   2   2   2   2   2   2
#     4  10  22  44  66  89 130 176 219 258 324 401
#     4   9  20  40  63  92 124 171 206 264 330 386
#     4  10  22  39  63  96 129 155 215 278 326 374
#     4  11  24  41  65  98 129 167 215 276 330 378
#     4   9  20  39  62  92 125 166 209 261 328 385
#     4  10  23  42  63  94 127 175 218 266 322 386
#     4   9  19  36  58  92 129 159 201 264 324 382
#     4  10  24  43  63  92 134 174 219 261 318 398
#
# _framework density 24.090857
#
# number of rings (size 3 to 8) (size 9 to 14) (size 15 to 20)
#    0.000    2.250    0.000    1.500    5.250    9.000 
#    4.500    0.625    0.000    0.000    0.000    0.000 
#    0.000    0.000    0.000    0.000    0.000    0.000 
#
# Total GULP energy -89109.188096 kJ/mol
# GULP energy per Si atom -5569.324256 kJ/mol
# Density = 2.403602 g / cm^3
# Si number density = 24.090857 Si / 1000 Ang^3
#
#
#
# Elastic Constant Matrix: (Units=GPa)
#
#
# Indices 1 2 3 4 5 6 
#
# 1 115.5790 44.5469 -9.2784 9.7392 14.0028 -38.6197
# 2 44.5469 129.2178 11.7245 15.3447 10.1979 -42.4555
# 3 -9.2784 11.7245 66.4939 13.6139 3.8133 2.6168
# 4 9.7392 15.3447 13.6139 33.8964 -3.2154 -7.5307
# 5 14.0028 10.1979 3.8133 -3.2154 24.5643 -7.6597
# 6 -38.6197 -42.4555 2.6168 -7.5307 -7.6597 39.9950
#
#
#
# Elastic Compliance Matrix: (Units=1/GPa)
#
#
# Indices 1 2 3 4 5 6 
#
# 1 0.013491 -0.000635 0.002375 -0.002597 -0.004769 0.010796
# 2 -0.000635 0.012500 -0.002338 -0.001892 -0.000882 0.012284
# 3 0.002375 -0.002338 0.017937 -0.008228 -0.005480 -0.003961
# 4 -0.002597 -0.001892 -0.008228 0.036392 0.009788 0.004750
# 5 -0.004769 -0.000882 -0.005480 0.009788 0.047735 0.005802
# 6 0.010796 0.012284 -0.003961 0.004750 0.005802 0.050733
#
#
# Mechanical properties :
#
#
# Convention : Reuss Voigt Hill
#
# Bulk Modulus (GPa) = 23.40129 45.03075 34.21602
# Shear Modulus (GPa) = 25.74272 37.31098 31.52685
#
# Velocity S-wave (km/s) = 3.27244 3.93970 3.62147
# Velocity P-wave (km/s) = 4.90034 6.27914 5.63209
#
# Compressibility (1/GPa) = 0.04273269
#
# Stress axis : x y z
#
# Youngs Moduli (GPa) = 74.12137 79.99900 55.74965
#
# Poissons Ratio (x) = 0.05077 -0.13239
# Poissons Ratio (y) = 0.04704 0.13035
# Poissons Ratio (z) = -0.17602 0.18705
#
# Static dielectric constant tensor:
#      x y z
#    x 2.155610 -0.109260 -0.002630 
#    y -0.109260 2.070130 -0.068840 
#    z -0.002630 -0.068840 1.982900 
# 
# From -- ./inp_files/589719.got.cif
#   From: 2010.05.17/outbox.cif.g08.bks.cpg/sg2_295_cif.got.tgz:589719.got - 2010.06.03 11:33:40.
