data_PCOD9022557
_publ_section_title
;
Structure prediction by ZEFSAII (Michael W. Deem and Ramdas Pophale) SiO2 
 PCOD9022557
Probable space group: P -1
;
_chemical_formula_sum "Si O2"
_cell_formula_units_Z 16
_cell_length_a 8.941944
_cell_length_b 12.062513
_cell_length_c 9.440252
_cell_angle_alpha 120.263555
_cell_angle_beta 118.579955
_cell_angle_gamma 48.155972
_cell_volume 638.983172
_symmetry_space_group_name_H-M "P -1"
_symmetry_group_IT_number 2
_symmetry_cell_setting 'triclinic'
loop_
_space_group_symop_operation_xyz
x,y,z
-x,-y,-z
loop_
_atom_site_type_symbol
_atom_site_label
_atom_site_fract_x
_atom_site_fract_y
_atom_site_fract_z
Si Si1 0.617835 0.095952 0.538177
Si Si2 0.269216 0.755901 0.520458
Si Si3 0.440289 0.142652 0.777058
Si Si4 0.712986 0.523743 0.668563
Si Si5 0.804397 0.521728 0.010307
Si Si6 0.905077 0.235369 0.062550
Si Si7 0.740506 0.095258 0.093313
Si Si8 0.851376 0.660977 0.615631
O O1 0.757984 0.147639 0.569164
O O2 0.615833 0.087144 0.700098
O O3 0.373944 0.224239 0.478124
O O4 0.663820 0.945151 0.377885
O O5 0.510731 0.613695 0.537263
O O6 0.164781 0.660990 0.419117
O O7 0.254797 0.850337 0.712472
O O8 0.288667 0.327413 0.836740
O O9 0.547676 0.092973 0.947859
O O10 0.824042 0.605494 0.720628
O O11 0.660503 0.552619 0.828478
O O12 0.824218 0.381448 0.016489
O O13 0.000000 0.500000 0.000000
O O14 0.749885 0.210541 0.061430
O O15 0.034302 0.254805 0.254561
O O16 0.061160 0.077113 0.949486
O O17 0.000000 0.500000 0.500000
#
# Coordination Sequence:
#
# PCOD9022557 Si02
#       8
#     2   2   2   2   2   2   2   2
#     4  10  24  40  67  96 128 174 220 269 324 393
#     4  10  22  42  66  94 126 172 223 262 325 387
#     4  11  24  45  67  96 132 172 222 269 327 387
#     4  10  22  39  62  97 128 164 223 263 323 392
#     4  12  25  42  67 102 132 170 219 274 329 385
#     4  11  25  41  64  99 132 168 223 264 329 388
#     4  11  24  45  68  93 130 179 215 270 323 394
#     4  11  20  39  63  90 135 175 211 268 328 388
#
# _framework density 25.039783
#
# number of rings (size 3 to 8) (size 9 to 14) (size 15 to 20)
#    0.000    1.250    3.750    1.500    3.500    3.000 
#    0.000    0.625    0.000    0.000    0.000    0.000 
#    0.000    0.000    0.000    0.000    0.000    0.000 
#
# Total GULP energy -89452.631093 kJ/mol
# GULP energy per Si atom -5590.789443 kJ/mol
# Density = 2.498279 g / cm^3
# Si number density = 25.039783 Si / 1000 Ang^3
#
#
#
# Elastic Constant Matrix: (Units=GPa)
#
#
# Indices 1 2 3 4 5 6 
#
# 1 36.2041 27.7125 6.3733 9.2794 6.2035 10.7544
# 2 27.7125 119.0936 34.1693 15.3986 -13.8840 13.7003
# 3 6.3733 34.1693 115.9092 27.5184 2.3857 5.4734
# 4 9.2794 15.3986 27.5184 46.9160 -1.3977 1.0757
# 5 6.2035 -13.8840 2.3857 -1.3977 29.7964 -0.8283
# 6 10.7544 13.7003 5.4734 1.0757 -0.8283 32.0459
#
#
#
# Elastic Compliance Matrix: (Units=1/GPa)
#
#
# Indices 1 2 3 4 5 6 
#
# 1 0.042399 -0.010358 0.003190 -0.007050 -0.014531 -0.010485
# 2 -0.010358 0.012884 -0.003359 0.000069 0.008397 -0.001244
# 3 0.003190 -0.003359 0.011018 -0.006061 -0.003435 -0.001402
# 4 -0.007050 0.000069 -0.006061 0.026281 0.003290 0.002575
# 5 -0.014531 0.008397 -0.003435 0.003290 0.041007 0.002823
# 6 -0.010485 -0.001244 -0.001402 0.002575 0.002823 0.035481
#
#
# Mechanical properties :
#
#
# Convention : Reuss Voigt Hill
#
# Bulk Modulus (GPa) = 22.10047 45.30188 33.70117
# Shear Modulus (GPa) = 24.36571 35.28180 29.82376
#
# Velocity S-wave (km/s) = 3.12281 3.75778 3.45491
# Velocity P-wave (km/s) = 4.67417 6.07940 5.42250
#
# Compressibility (1/GPa) = 0.04524790
#
# Stress axis : x y z
#
# Youngs Moduli (GPa) = 23.58530 77.61673 90.75917
#
# Poissons Ratio (x) = 0.80393 -0.28952
# Poissons Ratio (y) = 0.24429 0.30486
# Poissons Ratio (z) = -0.07524 0.26071
#
# Static dielectric constant tensor:
#      x y z
#    x 2.036810 -0.008700 0.063060 
#    y -0.008700 2.010530 -0.035270 
#    z 0.063060 -0.035270 1.975910 
# 
# From -- ./inp_files/190161.got.cif
#   From: 2010.05.17/outbox.cif.g08.bks.cpg/sg2_96_cif.got.tgz:190161.got - 2010.06.03 11:33:40.
