data_PCOD9022215
_publ_section_title
;
Structure prediction by ZEFSAII (Michael W. Deem and Ramdas Pophale) SiO2 
 PCOD9022215
Probable space group: P -1
;
_chemical_formula_sum "Si O2"
_cell_formula_units_Z 16
_cell_length_a 12.542909
_cell_length_b 12.088711
_cell_length_c 14.753926
_cell_angle_alpha 63.051869
_cell_angle_beta 152.213148
_cell_angle_gamma 98.433427
_cell_volume 735.330860
_symmetry_space_group_name_H-M "P -1"
_symmetry_group_IT_number 2
_symmetry_cell_setting 'triclinic'
loop_
_space_group_symop_operation_xyz
x,y,z
-x,-y,-z
loop_
_atom_site_type_symbol
_atom_site_label
_atom_site_fract_x
_atom_site_fract_y
_atom_site_fract_z
Si Si1 0.420708 0.004783 0.212691
Si Si2 0.702596 0.123240 0.479661
Si Si3 0.543016 0.672897 0.424996
Si Si4 0.923853 0.612849 0.482739
Si Si5 0.247599 0.091515 0.849355
Si Si6 0.227959 0.749052 0.345045
Si Si7 0.815743 0.515084 0.081416
Si Si8 0.473544 0.582049 0.228046
O O1 0.638329 0.008839 0.436988
O O2 0.501299 0.834652 0.325071
O O3 0.384547 0.071925 0.058656
O O4 0.106080 0.125358 0.976364
O O5 0.701711 0.155875 0.573753
O O6 0.018836 0.058381 0.706623
O O7 0.442136 0.299312 0.183720
O O8 0.428957 0.674937 0.436675
O O9 0.368613 0.659779 0.219373
O O10 0.882926 0.533193 0.715574
O O11 0.938421 0.739374 0.399189
O O12 0.614911 0.660177 0.265468
O O13 0.000000 0.500000 0.500000
O O14 0.118876 0.541539 0.744887
O O15 0.500000 0.000000 0.000000
O O16 0.284530 0.605755 0.499879
O O17 0.734038 0.421199 0.995297
#
# Coordination Sequence:
#
# PCOD9022215 Si02
#       8
#     2   2   2   2   2   2   2   2
#     4  11  23  41  61  88 126 158 199 250 294 356
#     4  10  23  41  61  87 122 159 198 249 298 355
#     4  11  23  38  63  92 120 160 201 245 299 353
#     4  11  21  37  62  89 118 157 200 247 300 353
#     4  11  24  41  60  86 121 160 200 242 299 359
#     4  10  22  41  63  89 121 161 200 241 302 358
#     4  10  22  39  59  91 122 154 204 249 294 354
#     4  10  22  39  60  87 123 155 197 254 294 351
#
# _framework density 21.758913
#
# number of rings (size 3 to 8) (size 9 to 14) (size 15 to 20)
#    0.000    1.500    0.000    6.750    0.000   10.000 
#    0.000    0.000    0.000    0.000    0.000    0.000 
#    0.000    0.000    0.000    0.000    0.000    0.000 
#
# Total GULP energy -89354.807763 kJ/mol
# GULP energy per Si atom -5584.675485 kJ/mol
# Density = 2.170939 g / cm^3
# Si number density = 21.758913 Si / 1000 Ang^3
#
#
#
# Elastic Constant Matrix: (Units=GPa)
#
#
# Indices 1 2 3 4 5 6 
#
# 1 113.9687 25.4714 22.1848 9.1711 3.1113 -17.3829
# 2 25.4714 115.9755 21.4441 26.2406 -7.7039 -30.7793
# 3 22.1848 21.4441 53.3613 12.0636 7.7674 -9.3502
# 4 9.1711 26.2406 12.0636 35.8488 -9.0515 -6.5263
# 5 3.1113 -7.7039 7.7674 -9.0515 20.1220 -4.0165
# 6 -17.3829 -30.7793 -9.3502 -6.5263 -4.0165 19.0419
#
#
#
# Elastic Compliance Matrix: (Units=1/GPa)
#
#
# Indices 1 2 3 4 5 6 
#
# 1 0.010716 0.001234 -0.003426 0.000000 0.002248 0.010570
# 2 0.001234 0.019281 -0.003668 -0.004078 0.013133 0.031865
# 3 -0.003426 -0.003668 0.025531 -0.009541 -0.015638 -0.003089
# 4 0.000000 -0.004078 -0.009541 0.041012 0.022053 0.007431
# 5 0.002248 0.013133 -0.015638 0.022053 0.078251 0.039665
# 6 0.010570 0.031865 -0.003089 0.007431 0.039665 0.123067
#
#
# Mechanical properties :
#
#
# Convention : Reuss Voigt Hill
#
# Bulk Modulus (GPa) = 22.82662 46.83399 34.83031
# Shear Modulus (GPa) = 15.42348 29.28291 22.35319
#
# Velocity S-wave (km/s) = 2.66528 3.67248 3.20865
# Velocity P-wave (km/s) = 4.47047 6.28916 5.45613
#
# Compressibility (1/GPa) = 0.04380850
#
# Stress axis : x y z
#
# Youngs Moduli (GPa) = 93.31682 51.86324 39.16855
#
# Poissons Ratio (x) = -0.06402 0.13421
# Poissons Ratio (y) = -0.11520 0.14367
# Poissons Ratio (z) = 0.31974 0.19023
#
# Static dielectric constant tensor:
#      x y z
#    x 1.887560 -0.064610 -0.018290 
#    y -0.064610 1.836740 0.009030 
#    z -0.018290 0.009030 1.815770 
# 
# From -- ./inp_files/519654.got.cif
#   From: 2010.05.17/outbox.cif.g08.bks.cpg/sg2_260_cif.got.tgz:519654.got - 2010.06.03 11:33:40.
