data_PCOD9022309
_publ_section_title
;
Structure prediction by ZEFSAII (Michael W. Deem and Ramdas Pophale) SiO2 
 PCOD9022309
Probable space group: P -1
;
_chemical_formula_sum "Si O2"
_cell_formula_units_Z 16
_cell_length_a 11.209062
_cell_length_b 11.727952
_cell_length_c 10.991378
_cell_angle_alpha 76.007730
_cell_angle_beta 113.989775
_cell_angle_gamma 145.134301
_cell_volume 742.895038
_symmetry_space_group_name_H-M "P -1"
_symmetry_group_IT_number 2
_symmetry_cell_setting 'triclinic'
loop_
_space_group_symop_operation_xyz
x,y,z
-x,-y,-z
loop_
_atom_site_type_symbol
_atom_site_label
_atom_site_fract_x
_atom_site_fract_y
_atom_site_fract_z
Si Si1 0.994714 0.136037 0.985081
Si Si2 0.861918 0.976319 0.221201
Si Si3 0.914383 0.278376 0.521397
Si Si4 0.046825 0.339909 0.294617
Si Si5 0.662600 0.306980 0.311529
Si Si6 0.662176 0.218885 0.065684
Si Si7 0.364645 0.562060 0.150566
Si Si8 0.212265 0.029460 0.305846
O O1 0.226531 0.367530 0.061392
O O2 0.843872 0.032397 0.070337
O O3 0.900667 0.112104 0.825127
O O4 0.000000 0.000000 0.000000
O O5 0.631905 0.740169 0.211310
O O6 0.070769 0.040800 0.279226
O O7 0.914670 0.118867 0.298618
O O8 0.056338 0.382207 0.427683
O O9 0.098906 0.451958 0.652182
O O10 0.719595 0.230980 0.431006
O O11 0.808469 0.078050 0.566834
O O12 0.267777 0.484822 0.267089
O O13 0.897630 0.326363 0.164552
O O14 0.593726 0.218363 0.170396
O O15 0.466513 0.236163 0.313967
O O16 0.677861 0.339948 0.949363
O O17 0.500000 0.000000 0.000000
#
# Coordination Sequence:
#
# PCOD9022309 Si02
#       8
#     2   2   2   2   2   2   2   2
#     4   9  21  37  59  92 128 161 206 254 312 378
#     4  10  22  39  60  95 127 162 212 260 314 378
#     4  10  23  43  61  89 123 165 217 255 307 378
#     4  10  23  41  60  93 128 164 215 259 306 378
#     4  10  23  42  62  90 124 158 207 269 313 372
#     4  11  21  40  68  95 125 159 209 267 318 377
#     4  11  21  38  63  92 130 167 205 259 327 366
#     4  11  22  38  64  87 122 168 205 256 317 372
#
# _framework density 21.537362999999999
#
# number of rings (size 3 to 8) (size 9 to 14) (size 15 to 20)
#    0.000    1.750    1.250    2.250    1.750    6.500 
#    6.750    1.250    0.000    0.000    0.000    0.000 
#    0.000    0.000    0.000    0.000    0.000    0.000 
#
# Total GULP energy -89300.851595 kJ/mol
# GULP energy per Si atom -5581.303225 kJ/mol
# Density = 2.148834 g / cm^3
# Si number density = 21.537363 Si / 1000 Ang^3
#
#
#
# Elastic Constant Matrix: (Units=GPa)
#
#
# Indices 1 2 3 4 5 6 
#
# 1 76.3251 17.9231 11.5873 11.8513 -0.6083 8.8069
# 2 17.9231 86.2235 15.4561 3.7256 -4.1737 -1.5529
# 3 11.5873 15.4561 45.3929 3.0576 -8.4439 8.1927
# 4 11.8513 3.7256 3.0576 28.3493 -2.1957 -0.0163
# 5 -0.6083 -4.1737 -8.4439 -2.1957 28.9009 6.1413
# 6 8.8069 -1.5529 8.1927 -0.0163 6.1413 33.0035
#
#
#
# Elastic Compliance Matrix: (Units=1/GPa)
#
#
# Indices 1 2 3 4 5 6 
#
# 1 0.015367 -0.002660 -0.002018 -0.005884 -0.000318 -0.003669
# 2 -0.002660 0.012942 -0.004118 -0.000135 0.000106 0.002321
# 3 -0.002018 -0.004118 0.027119 -0.000853 0.008932 -0.008050
# 4 -0.005884 -0.000135 -0.000853 0.038015 0.002201 0.001385
# 5 -0.000318 0.000106 0.008932 0.002201 0.039396 -0.009457
# 6 -0.003669 0.002321 -0.008050 0.001385 -0.009457 0.035147
#
#
# Mechanical properties :
#
#
# Convention : Reuss Voigt Hill
#
# Bulk Modulus (GPa) = 26.42896 33.09715 29.76305
# Shear Modulus (GPa) = 25.22858 28.91572 27.07215
#
# Velocity S-wave (km/s) = 3.42627 3.66810 3.54925
# Velocity P-wave (km/s) = 5.28680 5.77414 5.53583
#
# Compressibility (1/GPa) = 0.03783729
#
# Stress axis : x y z
#
# Youngs Moduli (GPa) = 65.07389 77.27052 36.87491
#
# Poissons Ratio (x) = 0.20553 0.07440
# Poissons Ratio (y) = 0.17309 0.15183
# Poissons Ratio (z) = 0.13130 0.31816
#
# Static dielectric constant tensor:
#      x y z
#    x 1.828530 -0.002490 -0.004710 
#    y -0.002490 1.769500 0.005130 
#    z -0.004710 0.005130 1.817620 
# 
# From -- ./inp_files/428023.got.cif
#   From: 2010.05.17/outbox.cif.g08.bks.cpg/sg2_215_cif.got.tgz:428023.got - 2010.06.03 11:33:40.
