data_PCOD9022840
_publ_section_title
;
Structure prediction by ZEFSAII (Michael W. Deem and Ramdas Pophale) SiO2 
 PCOD9022840
Probable space group: P -1
;
_chemical_formula_sum "Si O2"
_cell_formula_units_Z 14
_cell_length_a 8.942060
_cell_length_b 14.882080
_cell_length_c 14.384266
_cell_angle_alpha 152.730411
_cell_angle_beta 65.298979
_cell_angle_gamma 131.846166
_cell_volume 560.813043
_symmetry_space_group_name_H-M "P -1"
_symmetry_group_IT_number 2
_symmetry_cell_setting 'triclinic'
loop_
_space_group_symop_operation_xyz
x,y,z
-x,-y,-z
loop_
_atom_site_type_symbol
_atom_site_label
_atom_site_fract_x
_atom_site_fract_y
_atom_site_fract_z
Si Si1 0.544319 0.612723 0.847477
Si Si2 0.087925 0.613630 0.438678
Si Si3 0.005245 0.011139 0.815841
Si Si4 0.317240 0.994986 0.996547
Si Si5 0.383140 0.838310 0.196131
Si Si6 0.079689 0.093461 0.459840
Si Si7 0.035949 0.549999 0.182771
O O1 0.357829 0.295255 0.572572
O O2 0.433380 0.649743 0.992935
O O3 0.581081 0.797515 0.924732
O O4 0.787441 0.744911 0.945516
O O5 0.061492 0.507661 0.242603
O O6 0.006863 0.774574 0.609886
O O7 0.902924 0.322281 0.272722
O O8 0.365803 0.852784 0.603844
O O9 0.042532 0.092706 0.772014
O O10 0.772195 0.916864 0.826591
O O11 0.500000 0.000000 0.000000
O O12 0.274310 0.761115 0.255991
O O13 0.169343 0.719066 0.074055
O O14 0.046990 0.297551 0.643242
O O15 0.000000 0.000000 0.500000
#
# Coordination Sequence:
#
# PCOD9022840 Si02
#       7
#     2   2   2   2   2   2   2
#     4  10  23  43  63  95 136 173 223 274 323 396
#     4  10  22  40  63  93 127 171 217 260 328 391
#     4  10  24  45  66  94 136 172 213 281 332 383
#     4  12  25  42  69  99 129 176 232 274 325 398
#     4   9  18  34  60  86 122 166 203 259 318 371
#     4  10  22  39  64  95 129 173 217 266 336 398
#     4   9  18  36  59  91 130 164 210 267 319 386
#
# _framework density 24.963757000000001
#
# number of rings (size 3 to 8) (size 9 to 14) (size 15 to 20)
#    0.000    2.000    0.000    3.429    0.000   10.857 
#    0.000    2.857    0.000    0.000    0.000    0.000 
#    0.000    0.000    0.000    0.000    0.000    0.000 
#
# Total GULP energy -78279.972283 kJ/mol
# GULP energy per Si atom -5591.426592 kJ/mol
# Density = 2.490694 g / cm^3
# Si number density = 24.963757 Si / 1000 Ang^3
#
#
#
# Elastic Constant Matrix: (Units=GPa)
#
#
# Indices 1 2 3 4 5 6 
#
# 1 142.2783 51.8745 28.6567 0.0740 1.1374 7.0554
# 2 51.8745 105.9230 35.2817 4.3443 12.5911 5.7448
# 3 28.6567 35.2817 104.6870 15.9560 13.1418 1.2171
# 4 0.0740 4.3443 15.9560 41.6401 3.6113 0.6878
# 5 1.1374 12.5911 13.1418 3.6113 30.6910 -4.1013
# 6 7.0554 5.7448 1.2171 0.6878 -4.1013 45.1583
#
#
#
# Elastic Compliance Matrix: (Units=1/GPa)
#
#
# Indices 1 2 3 4 5 6 
#
# 1 0.008804 -0.004057 -0.001375 0.000794 0.001743 -0.000676
# 2 -0.004057 0.012893 -0.002709 0.000083 -0.004164 -0.001313
# 3 -0.001375 -0.002709 0.011881 -0.003967 -0.003460 -0.000015
# 4 0.000794 0.000083 -0.003967 0.025661 -0.001458 -0.000551
# 5 0.001743 -0.004164 -0.003460 -0.001458 0.036371 0.003676
# 6 -0.000676 -0.001313 -0.000015 -0.000551 0.003676 0.022760
#
#
# Mechanical properties :
#
#
# Convention : Reuss Voigt Hill
#
# Bulk Modulus (GPa) = 57.81733 64.94600 61.38167
# Shear Modulus (GPa) = 35.60867 39.30292 37.45579
#
# Velocity S-wave (km/s) = 3.78089 3.97217 3.87771
# Velocity P-wave (km/s) = 6.50161 6.86368 6.68510
#
# Compressibility (1/GPa) = 0.01729585
#
# Stress axis : x y z
#
# Youngs Moduli (GPa) = 113.59007 77.56318 84.16881
#
# Poissons Ratio (x) = 0.31464 0.11571
# Poissons Ratio (y) = 0.46079 0.22804
# Poissons Ratio (z) = 0.15615 0.21015
#
# Static dielectric constant tensor:
#      x y z
#    x 1.978690 -0.010510 0.001540 
#    y -0.010510 1.964410 -0.010070 
#    z 0.001540 -0.010070 2.069710 
# 
# From -- ./inp_files/505768.got.cif
#   From: 2010.05.17/outbox.cif.g08.bks.cpg/sg2_253_cif.got.tgz:505768.got - 2010.06.03 11:33:40.
