data_PCOD9022552
_publ_section_title
;
Structure prediction by ZEFSAII (Michael W. Deem and Ramdas Pophale) SiO2 
 PCOD9022552
Probable space group: P -1
;
_chemical_formula_sum "Si O2"
_cell_formula_units_Z 14
_cell_length_a 13.252120
_cell_length_b 8.923542
_cell_length_c 11.230364
_cell_angle_alpha 152.861446
_cell_angle_beta 91.427760
_cell_angle_gamma 88.661183
_cell_volume 605.594506
_symmetry_space_group_name_H-M "P -1"
_symmetry_group_IT_number 2
_symmetry_cell_setting 'triclinic'
loop_
_space_group_symop_operation_xyz
x,y,z
-x,-y,-z
loop_
_atom_site_type_symbol
_atom_site_label
_atom_site_fract_x
_atom_site_fract_y
_atom_site_fract_z
Si Si1 0.092873 0.855940 0.826917
Si Si2 0.705449 0.613213 0.255840
Si Si3 0.809162 0.206628 0.788464
Si Si4 0.011028 0.224662 0.476755
Si Si5 0.372130 0.851205 0.555834
Si Si6 0.190668 0.467309 0.227192
Si Si7 0.503606 0.634512 0.957703
O O1 0.091341 0.481865 0.604126
O O2 0.056489 0.890173 0.715787
O O3 0.187819 0.091894 0.004722
O O4 0.000000 0.000000 0.000000
O O5 0.738184 0.883195 0.544721
O O6 0.668497 0.853723 0.319089
O O7 0.794661 0.396090 0.046342
O O8 0.610222 0.375960 0.103989
O O9 0.781365 0.449137 0.849564
O O10 0.921985 0.067450 0.677484
O O11 0.924593 0.400201 0.674723
O O12 0.270125 0.656894 0.446565
O O13 0.439659 0.017999 0.778140
O O14 0.436408 0.612756 0.302221
O O15 0.500000 0.500000 0.000000
#
# Coordination Sequence:
#
# PCOD9022552 Si02
#       7
#     2   2   2   2   2   2   2
#     4   9  21  39  57  74 109 146 201 229 269 324
#     4  10  20  34  50  82 117 150 185 224 272 343
#     4  11  23  34  57  86 119 149 182 224 287 329
#     4  10  22  38  56  79 113 153 186 229 275 335
#     4  10  19  30  52  80 111 148 183 223 278 323
#     4  10  21  34  55  85 116 143 184 235 274 334
#     4  10  17  31  51  74 113 152 180 222 276 326
#
# _framework density 23.117781000000001
#
# number of rings (size 3 to 8) (size 9 to 14) (size 15 to 20)
#    0.000    2.000    0.000    6.429   10.000    0.571 
#    0.000    0.000    0.000    0.000    0.000    6.000 
#    0.000    0.000    0.000    0.000    0.000    0.000 
#
# Total GULP energy -78040.133293 kJ/mol
# GULP energy per Si atom -5574.295235 kJ/mol
# Density = 2.306516 g / cm^3
# Si number density = 23.117781 Si / 1000 Ang^3
#
#
#
# Elastic Constant Matrix: (Units=GPa)
#
#
# Indices 1 2 3 4 5 6 
#
# 1 72.2101 18.2341 33.6022 12.7536 5.2184 28.0384
# 2 18.2341 -10.8195 17.7449 -18.4831 29.0381 3.4109
# 3 33.6022 17.7449 130.9134 -10.8954 17.5094 23.7786
# 4 12.7536 -18.4831 -10.8954 5.8612 25.9400 9.5550
# 5 5.2184 29.0381 17.5094 25.9400 41.3531 8.2125
# 6 28.0384 3.4109 23.7786 9.5550 8.2125 10.3856
#
#
#
# Elastic Compliance Matrix: (Units=1/GPa)
#
#
# Indices 1 2 3 4 5 6 
#
# 1 -0.001464 0.021005 -0.013645 -0.023928 -0.004471 0.053843
# 2 0.021005 0.005910 -0.001019 -0.020856 0.016711 -0.050342
# 3 -0.013645 -0.001019 0.005186 -0.005882 -0.002571 0.032742
# 4 -0.023928 -0.020856 -0.005882 0.002181 0.002754 0.080731
# 5 -0.004471 0.016711 -0.002571 0.002754 0.012337 0.000180
# 6 0.053843 -0.050342 0.032742 0.080731 0.000180 -0.181923
#
#
# Mechanical properties :
#
#
# Convention : Reuss Voigt Hill
#
# Bulk Modulus (GPa) = 44.81436 36.82959 40.82198
# Shear Modulus (GPa) = -30.67177 19.70150 -5.48514
#
# Velocity S-wave (km/s) = -3.64642 2.92245 -1.54203
# Velocity P-wave (km/s) = 1.30337 5.23006 3.81132
#
# Compressibility (1/GPa) = 0.02231427
#
# Stress axis : x y z
#
# Youngs Moduli (GPa) = -683.24584 169.21410 192.81774
#
# Poissons Ratio (x) = -3.55436 2.63094
# Poissons Ratio (y) = 14.35164 0.19656
# Poissons Ratio (z) = -9.32269 0.17250
#
# Static dielectric constant tensor:
#      x y z
#    x -10.267110 -2.590470 8.678580 
#    y -2.590470 1.303870 1.868220 
#    z 8.678580 1.868220 -4.188990 
# 
# From -- ./inp_files/37319.got.cif
#   From: 2010.05.17/outbox.cif.g08.bks.cpg/sg2_19_cif.got.tgz:37319.got - 2010.06.03 11:33:40.
