data_PCOD9022475
_publ_section_title
;
Structure prediction by ZEFSAII (Michael W. Deem and Ramdas Pophale) SiO2 
 PCOD9022475
Probable space group: P -1
;
_chemical_formula_sum "Si O2"
_cell_formula_units_Z 14
_cell_length_a 17.054768
_cell_length_b 23.475435
_cell_length_c 9.520611
_cell_angle_alpha 26.475588
_cell_angle_beta 36.513271
_cell_angle_gamma 20.911884
_cell_volume 593.807545
_symmetry_space_group_name_H-M "P -1"
_symmetry_group_IT_number 2
_symmetry_cell_setting 'triclinic'
loop_
_space_group_symop_operation_xyz
x,y,z
-x,-y,-z
loop_
_atom_site_type_symbol
_atom_site_label
_atom_site_fract_x
_atom_site_fract_y
_atom_site_fract_z
Si Si1 0.074729 0.145123 0.489285
Si Si2 0.614984 0.524523 0.454319
Si Si3 0.474119 0.891503 0.682578
Si Si4 0.736124 0.344447 0.161960
Si Si5 0.682343 0.613165 0.447791
Si Si6 0.948376 0.498891 0.733821
Si Si7 0.233687 0.919923 0.490263
O O1 0.832195 0.298690 0.561314
O O2 0.243398 0.061663 0.551615
O O3 0.200018 0.945750 0.648831
O O4 0.016492 0.303698 0.112943
O O5 0.422402 0.575128 0.660100
O O6 0.701657 0.514180 0.499532
O O7 0.508432 0.732329 0.071740
O O8 0.688291 0.725257 0.638884
O O9 0.500000 0.000000 0.500000
O O10 0.705527 0.264671 0.257408
O O11 0.691945 0.517708 0.782870
O O12 0.993852 0.137029 0.290733
O O13 0.888160 0.546181 0.303548
O O14 0.426706 0.864010 0.277647
O O15 0.000000 0.500000 0.500000
#
# Coordination Sequence:
#
# PCOD9022475 Si02
#       7
#     2   2   2   2   2   2   2
#     4  11  24  41  62  94 127 159 201 254 312 360
#     4  10  23  41  61  90 124 161 205 252 303 361
#     4  11  24  41  63  91 125 166 206 247 305 369
#     4  10  23  43  64  90 122 162 209 253 301 361
#     4  11  22  41  65  89 123 163 206 253 303 363
#     4  11  24  40  63  94 125 157 201 258 310 362
#     4  10  22  39  62  90 120 159 206 247 301 365
#
# _framework density 23.576661999999999
#
# number of rings (size 3 to 8) (size 9 to 14) (size 15 to 20)
#    0.000    1.429    0.000    5.143    0.000   17.714 
#    0.000    5.000    0.000    0.000    0.000    0.000 
#    0.000    0.000    0.000    0.000    0.000    0.000 
#
# Total GULP energy -78318.077413 kJ/mol
# GULP energy per Si atom -5594.148387 kJ/mol
# Density = 2.352300 g / cm^3
# Si number density = 23.576662 Si / 1000 Ang^3
#
#
#
# Elastic Constant Matrix: (Units=GPa)
#
#
# Indices 1 2 3 4 5 6 
#
# 1 71.8780 12.7297 -1.4053 -13.7574 11.0506 6.0077
# 2 12.7297 136.9099 38.7031 -2.3773 8.1992 3.0631
# 3 -1.4053 38.7031 81.6067 9.8416 9.7171 -0.2940
# 4 -13.7574 -2.3773 9.8416 31.3564 -2.7563 11.4794
# 5 11.0506 8.1992 9.7171 -2.7563 20.4775 2.5938
# 6 6.0077 3.0631 -0.2940 11.4794 2.5938 33.9857
#
#
#
# Elastic Compliance Matrix: (Units=1/GPa)
#
#
# Indices 1 2 3 4 5 6 
#
# 1 0.017348 -0.001080 0.000632 0.008626 -0.007395 -0.005313
# 2 -0.001080 0.008722 -0.004349 0.001980 -0.000418 -0.001270
# 3 0.000632 -0.004349 0.016089 -0.007002 -0.007603 0.003365
# 4 0.008626 0.001980 -0.007002 0.044936 0.006128 -0.017410
# 5 -0.007395 -0.000418 -0.007603 0.006128 0.058087 -0.005224
# 6 -0.005313 -0.001270 0.003365 -0.017410 -0.005224 0.036786
#
#
# Mechanical properties :
#
#
# Convention : Reuss Voigt Hill
#
# Bulk Modulus (GPa) = 30.70704 43.38326 37.04515
# Shear Modulus (GPa) = 24.70155 33.18840 28.94497
#
# Velocity S-wave (km/s) = 3.24035 3.75598 3.50765
# Velocity P-wave (km/s) = 5.20119 6.10333 5.67023
#
# Compressibility (1/GPa) = 0.03256583
#
# Stress axis : x y z
#
# Youngs Moduli (GPa) = 57.64289 114.65733 62.15406
#
# Poissons Ratio (x) = 0.12385 -0.03929
# Poissons Ratio (y) = 0.06226 0.27028
# Poissons Ratio (z) = -0.03644 0.49859
#
# Static dielectric constant tensor:
#      x y z
#    x 1.930860 -0.002780 -0.004720 
#    y -0.002780 1.879340 -0.015360 
#    z -0.004720 -0.015360 1.901940 
# 
# From -- ./inp_files/338643.got.cif
#   From: 2010.05.17/outbox.cif.g08.bks.cpg/sg2_170_cif.got.tgz:338643.got - 2010.06.03 11:33:40.
