data_PCOD9022764
_publ_section_title
;
Structure prediction by ZEFSAII (Michael W. Deem and Ramdas Pophale) SiO2 
 PCOD9022764
Probable space group: P -1
;
_chemical_formula_sum "Si O2"
_cell_formula_units_Z 16
_cell_length_a 12.115349
_cell_length_b 11.213092
_cell_length_c 5.292493
_cell_angle_alpha 100.680365
_cell_angle_beta 102.734398
_cell_angle_gamma 82.012022
_cell_volume 685.533597
_symmetry_space_group_name_H-M "P -1"
_symmetry_group_IT_number 2
_symmetry_cell_setting 'triclinic'
loop_
_space_group_symop_operation_xyz
x,y,z
-x,-y,-z
loop_
_atom_site_type_symbol
_atom_site_label
_atom_site_fract_x
_atom_site_fract_y
_atom_site_fract_z
Si Si1 0.144956 0.981761 0.283291
Si Si2 0.383384 0.401814 0.660065
Si Si3 0.378349 0.662704 0.043600
Si Si4 0.928954 0.342704 0.376199
Si Si5 0.836750 0.659806 0.218901
Si Si6 0.954032 0.812924 0.991432
Si Si7 0.234561 0.864155 0.769864
Si Si8 0.238270 0.532822 0.271860
O O1 0.224574 0.946546 0.547798
O O2 0.033525 0.905801 0.196004
O O3 0.208457 0.941977 0.039589
O O4 0.097826 0.121380 0.262264
O O5 0.503721 0.328258 0.750398
O O6 0.351859 0.446167 0.378100
O O7 0.384471 0.531376 0.857539
O O8 0.278676 0.331576 0.675803
O O9 0.279541 0.650666 0.199032
O O10 0.341411 0.767877 0.863856
O O11 0.868376 0.220406 0.349095
O O12 0.834790 0.437898 0.499790
O O13 0.968839 0.311742 0.096405
O O14 0.046075 0.361498 0.578264
O O15 0.827026 0.545391 0.984281
O O16 0.854162 0.775914 0.101169
#
# Coordination Sequence:
#
# PCOD9022764 Si02
#       8
#     2   2   2   2   2   2   2   2
#     4  10  23  39  65  95 128 166 218 263 325 373
#     4  10  22  40  60  89 123 168 213 256 311 381
#     4  10  22  39  64  88 122 163 218 262 313 368
#     4  11  22  36  61  89 132 161 202 251 322 384
#     4  11  23  37  58  91 128 175 200 255 314 393
#     4  10  23  38  60  91 130 168 203 260 314 390
#     4  11  21  40  65  96 125 167 211 273 317 373
#     4  11  22  39  59  95 126 169 209 258 312 385
#
# _framework density 23.339482
#
# number of rings (size 3 to 8) (size 9 to 14) (size 15 to 20)
#    0.000    1.500    2.500    2.250    3.500    3.500 
#    0.000    0.000    0.000    1.500    0.000    0.000 
#    0.000    0.000    0.000    0.000    0.000    0.000 
#
# Total GULP energy -89412.498769 kJ/mol
# GULP energy per Si atom -5588.281173 kJ/mol
# Density = 2.328636 g / cm^3
# Si number density = 23.339482 Si / 1000 Ang^3
#
#
#
# Elastic Constant Matrix: (Units=GPa)
#
#
# Indices 1 2 3 4 5 6 
#
# 1 99.4910 28.1565 42.4224 -12.5455 29.0885 -6.7409
# 2 28.1565 58.8037 43.9044 -19.9789 5.2269 -14.0516
# 3 42.4224 43.9044 113.8570 -28.4433 13.4781 -8.9279
# 4 -12.5455 -19.9789 -28.4433 40.7829 -5.9289 3.7494
# 5 29.0885 5.2269 13.4781 -5.9289 39.6092 -8.4771
# 6 -6.7409 -14.0516 -8.9279 3.7494 -8.4771 23.2274
#
#
#
# Elastic Compliance Matrix: (Units=1/GPa)
#
#
# Indices 1 2 3 4 5 6 
#
# 1 0.015638 -0.005606 -0.002999 -0.001243 -0.010705 -0.003712
# 2 -0.005606 0.031095 -0.007562 0.007832 0.007099 0.015604
# 3 -0.002999 -0.007562 0.014146 0.005194 -0.001103 -0.001248
# 4 -0.001243 0.007832 0.005194 0.031865 0.003411 0.002475
# 5 -0.010705 0.007099 -0.001103 0.003411 0.035907 0.013318
# 6 -0.003712 0.015604 -0.001248 0.002475 0.013318 0.055396
#
#
# Mechanical properties :
#
#
# Convention : Reuss Voigt Hill
#
# Bulk Modulus (GPa) = 35.03279 55.67981 45.35630
# Shear Modulus (GPa) = 22.13392 31.23510 26.68451
#
# Velocity S-wave (km/s) = 3.08286 3.66224 3.38497
# Velocity P-wave (km/s) = 5.26448 6.46459 5.89515
#
# Compressibility (1/GPa) = 0.02854469
#
# Stress axis : x y z
#
# Youngs Moduli (GPa) = 63.94624 32.15989 70.68913
#
# Poissons Ratio (x) = 0.18030 0.21200
# Poissons Ratio (y) = 0.35851 0.53454
# Poissons Ratio (z) = 0.19178 0.24319
#
# Static dielectric constant tensor:
#      x y z
#    x 1.878200 -0.064110 -0.027300 
#    y -0.064110 1.956770 -0.025630 
#    z -0.027300 -0.025630 1.959430 
# 
# From -- ./inp_files/66420.got.cif
#   From: 2010.05.17/outbox.cif.g08.bks.cpg/sg2_34_cif.got.tgz:66420.got - 2010.06.03 11:33:40.
