data_PCOD9022136
_publ_section_title
;
Structure prediction by ZEFSAII (Michael W. Deem and Ramdas Pophale) SiO2 
 PCOD9022136
Probable space group: P -1
;
_chemical_formula_sum "Si O2"
_cell_formula_units_Z 16
_cell_length_a 9.752112
_cell_length_b 23.416922
_cell_length_c 20.087060
_cell_angle_alpha 163.243042
_cell_angle_beta 43.371666
_cell_angle_gamma 128.593689
_cell_volume 845.588699
_symmetry_space_group_name_H-M "P -1"
_symmetry_group_IT_number 2
_symmetry_cell_setting 'triclinic'
loop_
_space_group_symop_operation_xyz
x,y,z
-x,-y,-z
loop_
_atom_site_type_symbol
_atom_site_label
_atom_site_fract_x
_atom_site_fract_y
_atom_site_fract_z
Si Si1 0.427815 0.382228 0.251634
Si Si2 0.817544 0.832382 0.186182
Si Si3 0.901759 0.315247 0.822701
Si Si4 0.118660 0.831423 0.185570
Si Si5 0.806525 0.323340 0.453980
Si Si6 0.201558 0.083082 0.949283
Si Si7 0.961422 0.381028 0.251297
Si Si8 0.427753 0.682383 0.172674
O O1 0.365071 0.525254 0.366870
O O2 0.368937 0.177720 0.025339
O O3 0.269252 0.511302 0.510897
O O4 0.680074 0.298960 0.076478
O O5 0.635691 0.731258 0.129396
O O6 0.905124 0.811783 0.207677
O O7 0.721169 0.084528 0.486362
O O8 0.014829 0.710177 0.932112
O O9 0.839010 0.261384 0.858551
O O10 0.707211 0.367289 0.895928
O O11 0.075246 0.083334 0.481587
O O12 0.000000 0.500000 0.000000
O O13 0.994033 0.187331 0.185656
O O14 0.921780 0.448971 0.596520
O O15 0.726398 0.167972 0.351171
O O16 0.114458 0.185132 0.023260
O O17 0.500000 0.500000 0.000000
#
# Coordination Sequence:
#
# PCOD9022136 Si02
#       8
#     2   2   2   2   2   2   2   2
#     4   9  18  32  52  81 114 148 186 226 276 334
#     4  10  22  39  57  83 119 148 185 236 280 339
#     4  10  22  41  63  84 109 146 191 237 288 334
#     4  10  22  39  57  83 119 148 185 236 280 339
#     4   8  15  29  48  75 109 146 185 227 266 317
#     4   8  15  29  48  73 111 146 183 227 266 317
#     4   9  18  32  52  81 114 148 186 226 276 334
#     4  10  22  41  63  84 109 146 191 237 288 334
#
# _framework density 18.921728000000002
#
# number of rings (size 3 to 8) (size 9 to 14) (size 15 to 20)
#    0.000    2.750    0.000    2.250    3.500    3.500 
#    0.000    0.000    0.000    0.000    0.000   12.250 
#    0.000    0.000    0.000    0.000    0.000    0.000 
#
# Total GULP energy -89084.691781 kJ/mol
# GULP energy per Si atom -5567.793236 kJ/mol
# Density = 1.887866 g / cm^3
# Si number density = 18.921728 Si / 1000 Ang^3
#
#
#
# Elastic Constant Matrix: (Units=GPa)
#
#
# Indices 1 2 3 4 5 6 
#
# 1 114.2264 44.1138 44.7393 7.4127 -5.3827 -0.3726
# 2 44.1138 60.8070 50.5562 21.2756 -0.0421 -0.6820
# 3 44.7393 50.5562 87.3178 -0.9600 -4.2328 3.0158
# 4 7.4127 21.2756 -0.9600 40.6067 0.9440 3.3792
# 5 -5.3827 -0.0421 -4.2328 0.9440 18.4566 -3.2279
# 6 -0.3726 -0.6820 3.0158 3.3792 -3.2279 25.4504
#
#
#
# Elastic Compliance Matrix: (Units=1/GPa)
#
#
# Indices 1 2 3 4 5 6 
#
# 1 0.012712 -0.009258 -0.000969 0.002415 0.003368 0.000159
# 2 -0.009258 0.059480 -0.030639 -0.030740 -0.006560 0.008338
# 3 -0.000969 -0.030639 0.030316 0.017350 0.004639 -0.006143
# 4 0.002415 -0.030740 0.017350 0.041360 0.001064 -0.008201
# 5 0.003368 -0.006560 0.004639 0.001064 0.057286 0.006448
# 6 0.000159 0.008338 -0.006143 -0.008201 0.006448 0.042152
#
#
# Mechanical properties :
#
#
# Convention : Reuss Voigt Hill
#
# Bulk Modulus (GPa) = 48.12945 60.12997 54.12971
# Shear Modulus (GPa) = 15.06193 25.09887 20.08040
#
# Velocity S-wave (km/s) = 2.82443 3.64601 3.26119
# Velocity P-wave (km/s) = 6.01064 7.04072 6.54598
#
# Compressibility (1/GPa) = 0.02077730
#
# Stress axis : x y z
#
# Youngs Moduli (GPa) = 78.66771 16.81231 32.98546
#
# Poissons Ratio (x) = 0.15564 0.03195
# Poissons Ratio (y) = 0.72827 1.01065
# Poissons Ratio (z) = 0.07621 0.51512
#
# Static dielectric constant tensor:
#      x y z
#    x 1.656630 -0.001620 0.000150 
#    y -0.001620 1.680140 0.012070 
#    z 0.000150 0.012070 1.705700 
# 
# From -- ./inp_files/562727.got.cif
#   From: 2010.05.17/outbox.cif.g08.bks.cpg/sg2_282_cif.got.tgz:562727.got - 2010.06.03 11:33:40.
