data_PCOD9022581
_publ_section_title
;
Structure prediction by ZEFSAII (Michael W. Deem and Ramdas Pophale) SiO2 
 PCOD9022581
Probable space group: P -1
;
_chemical_formula_sum "Si O2"
_cell_formula_units_Z 16
_cell_length_a 15.208405
_cell_length_b 10.741044
_cell_length_c 15.090066
_cell_angle_alpha 37.713832
_cell_angle_beta 156.132444
_cell_angle_gamma 136.866451
_cell_volume 609.932363
_symmetry_space_group_name_H-M "P -1"
_symmetry_group_IT_number 2
_symmetry_cell_setting 'triclinic'
loop_
_space_group_symop_operation_xyz
x,y,z
-x,-y,-z
loop_
_atom_site_type_symbol
_atom_site_label
_atom_site_fract_x
_atom_site_fract_y
_atom_site_fract_z
Si Si1 0.859622 0.591239 0.988677
Si Si2 0.000706 0.585722 0.325472
Si Si3 0.166564 0.282632 0.362640
Si Si4 0.511590 0.109189 0.672812
Si Si5 0.528249 0.693537 0.198426
Si Si6 0.911354 0.026412 0.000976
Si Si7 0.229830 0.988669 0.855955
Si Si8 0.319969 0.660907 0.718516
O O1 0.968892 0.567346 0.201226
O O2 0.990644 0.455843 0.115676
O O3 0.613299 0.513790 0.820030
O O4 0.906603 0.824531 0.873428
O O5 0.238795 0.626087 0.562649
O O6 0.882297 0.398038 0.370759
O O7 0.885656 0.793133 0.138075
O O8 0.313851 0.298462 0.576682
O O9 0.023435 0.072268 0.346395
O O10 0.342326 0.279957 0.447371
O O11 0.396207 0.891079 0.674725
O O12 0.671198 0.085447 0.918575
O O13 0.684119 0.137987 0.737144
O O14 0.675881 0.785111 0.203719
O O15 0.337545 0.854400 0.952632
O O16 0.000000 0.000000 0.000000
O O17 0.500000 0.500000 0.000000
#
# Coordination Sequence:
#
# PCOD9022581 Si02
#       8
#     2   2   2   2   2   2   2   2
#     4  10  22  43  65  96 141 178 225 271 320 404
#     4  10  23  43  68  99 131 175 220 275 339 385
#     4  10  22  39  63 101 135 173 217 275 345 396
#     4  11  23  40  67  97 131 174 221 278 340 394
#     4   9  18  37  60  97 131 177 216 261 336 397
#     4  10  23  47  67  91 135 183 230 276 319 393
#     4   9  19  35  63  92 135 168 213 275 333 397
#     4  11  23  41  68 102 133 166 219 284 338 399
#
# _framework density 26.232417999999999
#
# number of rings (size 3 to 8) (size 9 to 14) (size 15 to 20)
#    0.000    2.000    1.250    1.125    1.750    5.500 
#    2.250    6.875    0.000    0.000    0.000    0.000 
#    0.000    0.000    0.000    0.000    0.000    0.000 
#
# Total GULP energy -89525.748367 kJ/mol
# GULP energy per Si atom -5595.359273 kJ/mol
# Density = 2.617271 g / cm^3
# Si number density = 26.232418 Si / 1000 Ang^3
#
#
#
# Elastic Constant Matrix: (Units=GPa)
#
#
# Indices 1 2 3 4 5 6 
#
# 1 124.7504 35.6076 49.4914 8.0694 20.7171 -0.7913
# 2 35.6076 158.4878 38.7778 26.6834 17.9572 7.5853
# 3 49.4914 38.7778 120.8670 19.8092 3.2613 -13.9040
# 4 8.0694 26.6834 19.8092 46.2207 -5.2322 7.9669
# 5 20.7171 17.9572 3.2613 -5.2322 47.6735 3.8010
# 6 -0.7913 7.5853 -13.9040 7.9669 3.8010 36.2330
#
#
#
# Elastic Compliance Matrix: (Units=1/GPa)
#
#
# Indices 1 2 3 4 5 6 
#
# 1 0.010497 -0.000924 -0.003998 0.000101 -0.003871 -0.000728
# 2 -0.000924 0.007928 -0.001590 -0.003854 -0.002808 -0.001148
# 3 -0.003998 -0.001590 0.011764 -0.004331 0.000606 0.005649
# 4 0.000101 -0.003854 -0.004331 0.027591 0.005328 -0.007479
# 5 -0.003871 -0.002808 0.000606 0.005328 0.024499 -0.003006
# 6 -0.000728 -0.001148 0.005649 -0.007479 -0.003006 0.031951
#
#
# Mechanical properties :
#
#
# Convention : Reuss Voigt Hill
#
# Bulk Modulus (GPa) = 58.25396 72.42874 65.34135
# Shear Modulus (GPa) = 37.60085 44.70734 41.15410
#
# Velocity S-wave (km/s) = 3.79010 4.13277 3.96514
# Velocity P-wave (km/s) = 6.43492 7.10235 6.77686
#
# Compressibility (1/GPa) = 0.01716621
#
# Stress axis : x y z
#
# Youngs Moduli (GPa) = 95.26112 126.13263 85.00592
#
# Poissons Ratio (x) = 0.11654 0.33984
# Poissons Ratio (y) = 0.08801 0.13515
# Poissons Ratio (z) = 0.38084 0.20054
#
# Static dielectric constant tensor:
#      x y z
#    x 2.113610 0.012580 -0.012190 
#    y 0.012580 2.082400 -0.041780 
#    z -0.012190 -0.041780 2.106610 
# 
# From -- ./inp_files/575957.got.cif
#   From: 2010.05.17/outbox.cif.g08.bks.cpg/sg2_288_cif.got.tgz:575957.got - 2010.06.03 11:33:40.
