data_PCOD9022183
_publ_section_title
;
Structure prediction by ZEFSAII (Michael W. Deem and Ramdas Pophale) SiO2 
 PCOD9022183
Probable space group: P -1
;
_chemical_formula_sum "Si O2"
_cell_formula_units_Z 13
_cell_length_a 7.601063
_cell_length_b 14.590763
_cell_length_c 8.632718
_cell_angle_alpha 93.449758
_cell_angle_beta 144.824707
_cell_angle_gamma 91.826757
_cell_volume 545.049840
_symmetry_space_group_name_H-M "P -1"
_symmetry_group_IT_number 2
_symmetry_cell_setting 'triclinic'
loop_
_space_group_symop_operation_xyz
x,y,z
-x,-y,-z
loop_
_atom_site_type_symbol
_atom_site_label
_atom_site_fract_x
_atom_site_fract_y
_atom_site_fract_z
Si Si1 0.610095 0.713723 0.185325
Si Si2 0.513437 0.141617 0.110951
Si Si3 0.161334 0.604298 0.617041
Si Si4 0.000000 0.000000 0.000000
Si Si5 0.907771 0.216899 0.970595
Si Si6 0.046317 0.968585 0.708393
Si Si7 0.592012 0.276983 0.462920
O O1 0.901872 0.672417 0.454396
O O2 0.688908 0.799656 0.132618
O O3 0.413668 0.633109 0.933469
O O4 0.379559 0.753967 0.139927
O O5 0.580575 0.193160 0.323113
O O6 0.816021 0.125868 0.231623
O O7 0.324300 0.040673 0.994392
O O8 0.319643 0.631364 0.567638
O O9 0.000000 0.500000 0.500000
O O10 0.094121 0.893516 0.061055
O O11 0.174650 0.029059 0.305415
O O12 0.244261 0.263415 0.276463
O O13 0.852401 0.263937 0.770994
O O14 0.000000 0.000000 0.500000
#
# Coordination Sequence:
#
# PCOD9022183 Si02
#       7
#     2   2   2   1   2   2   2
#     4  11  24  43  72 100 140 181 229 296 355 442
#     4  10  22  39  58  95 132 186 240 281 346 408
#     4  11  25  48  75 102 130 179 235 296 374 451
#     4  12  24  42  64 102 154 192 248 290 346 418
#     4  12  25  44  66 108 143 190 236 289 356 413
#     4  11  23  39  61  93 140 189 249 296 336 416
#     4  11  24  44  71  96 141 185 234 298 360 433
#
# _framework density 23.851029
#
# number of rings (size 3 to 8) (size 9 to 14) (size 15 to 20)
#    0.000    0.923    3.077    4.154    4.308    1.846 
#    0.000    4.615    0.000    0.000    0.000    0.000 
#    0.000    0.000    0.000    0.000    0.000    0.000 
#
# Total GULP energy -72410.022634 kJ/mol
# GULP energy per Si atom -5570.001741 kJ/mol
# Density = 2.379674 g / cm^3
# Si number density = 23.851029 Si / 1000 Ang^3
#
#
#
# Elastic Constant Matrix: (Units=GPa)
#
#
# Indices 1 2 3 4 5 6 
#
# 1 68.3425 -11.2094 14.1912 -21.2776 11.4696 -12.5669
# 2 -11.2094 66.7270 6.8305 -1.7295 10.1120 16.1252
# 3 14.1912 6.8305 80.2713 -6.2850 -3.8578 8.3701
# 4 -21.2776 -1.7295 -6.2850 23.2335 -0.0969 11.2163
# 5 11.4696 10.1120 -3.8578 -0.0969 49.8181 -2.3719
# 6 -12.5669 16.1252 8.3701 11.2163 -2.3719 32.6838
#
#
#
# Elastic Compliance Matrix: (Units=1/GPa)
#
#
# Indices 1 2 3 4 5 6 
#
# 1 0.024321 0.006364 -0.003316 0.022369 -0.007159 -0.001135
# 2 0.006364 0.020406 -0.000854 0.013043 -0.006235 -0.012330
# 3 -0.003316 -0.000854 0.014033 0.003342 0.001770 -0.005466
# 4 0.022369 0.013043 0.003342 0.077951 -0.008628 -0.026067
# 5 -0.007159 -0.006235 0.001770 -0.008628 0.023322 0.004524
# 6 -0.001135 -0.012330 -0.005466 -0.026067 0.004524 0.046917
#
#
# Mechanical properties :
#
#
# Convention : Reuss Voigt Hill
#
# Bulk Modulus (GPa) = 15.83555 26.10726 20.97141
# Shear Modulus (GPa) = 22.36023 34.84896 28.60460
#
# Velocity S-wave (km/s) = 3.06518 3.82659 3.46685
# Velocity P-wave (km/s) = 4.37959 5.52209 4.98369
#
# Compressibility (1/GPa) = 0.06314906
#
# Stress axis : x y z
#
# Youngs Moduli (GPa) = 41.11589 49.00605 71.25922
#
# Poissons Ratio (x) = -0.31188 0.23627
# Poissons Ratio (y) = -0.26167 0.06087
# Poissons Ratio (z) = 0.13632 0.04186
#
# Static dielectric constant tensor:
#      x y z
#    x 1.238430 0.096520 -0.166610 
#    y 0.096520 1.861600 -0.002290 
#    z -0.166610 -0.002290 1.939190 
# 
# From -- ./inp_files/31571.got.cif
#   From: 2010.05.17/outbox.cif.g08.bks.cpg/sg2_16_cif.got.tgz:31571.got - 2010.06.03 11:33:40.
