data_PCOD9022822
_publ_section_title
;
Structure prediction by ZEFSAII (Michael W. Deem and Ramdas Pophale) SiO2 
 PCOD9022822
Probable space group: P -1
;
_chemical_formula_sum "Si O2"
_cell_formula_units_Z 16
_cell_length_a 15.509546
_cell_length_b 8.416153
_cell_length_c 8.999081
_cell_angle_alpha 106.790149
_cell_angle_beta 41.190307
_cell_angle_gamma 116.212342
_cell_volume 692.145830
_symmetry_space_group_name_H-M "P -1"
_symmetry_group_IT_number 2
_symmetry_cell_setting 'triclinic'
loop_
_space_group_symop_operation_xyz
x,y,z
-x,-y,-z
loop_
_atom_site_type_symbol
_atom_site_label
_atom_site_fract_x
_atom_site_fract_y
_atom_site_fract_z
Si Si1 0.522149 0.629734 0.865844
Si Si2 0.964452 0.825241 0.352687
Si Si3 0.353153 0.478452 0.767710
Si Si4 0.242323 0.490965 0.615572
Si Si5 0.730342 0.143862 0.472621
Si Si6 0.576564 0.966885 0.088626
Si Si7 0.150839 0.873905 0.376714
Si Si8 0.237384 0.077032 0.903485
O O1 0.396494 0.574059 0.895090
O O2 0.649824 0.603139 0.603748
O O3 0.500000 0.500000 0.000000
O O4 0.544997 0.815875 0.963106
O O5 0.904759 0.659390 0.275978
O O6 0.016112 0.767165 0.424353
O O7 0.857846 0.927727 0.552748
O O8 0.097487 0.980079 0.151988
O O9 0.500000 0.500000 0.500000
O O10 0.267884 0.539266 0.769055
O O11 0.265404 0.274088 0.863582
O O12 0.272551 0.669455 0.531443
O O13 0.571777 0.015378 0.684094
O O14 0.829978 0.175885 0.494314
O O15 0.775029 0.046226 0.255416
O O16 0.631847 0.912064 0.156482
O O17 0.711962 0.120010 0.890354
#
# Coordination Sequence:
#
# PCOD9022822 Si02
#       8
#     2   2   2   2   2   2   2   2
#     4  11  19  38  66  96 125 164 216 260 313 378
#     4  10  23  45  69  87 125 175 222 258 301 389
#     4  10  22  39  64  94 126 166 212 259 314 379
#     4  11  23  41  63  93 131 171 210 262 315 379
#     4  12  25  40  62  97 137 164 206 271 330 372
#     4  11  21  41  66  97 128 163 209 269 326 374
#     4  10  23  42  67  96 122 168 219 265 317 375
#     4  11  24  42  65  94 130 169 213 258 318 383
#
# _framework density 23.116517999999999
#
# number of rings (size 3 to 8) (size 9 to 14) (size 15 to 20)
#    0.000    1.250    3.750    2.250    1.750    3.000 
#    4.500    0.000    0.000    0.000    0.000    0.000 
#    0.000    0.000    0.000    0.000    0.000    0.000 
#
# Total GULP energy -89466.369582 kJ/mol
# GULP energy per Si atom -5591.648099 kJ/mol
# Density = 2.306390 g / cm^3
# Si number density = 23.116518 Si / 1000 Ang^3
#
#
#
# Elastic Constant Matrix: (Units=GPa)
#
#
# Indices 1 2 3 4 5 6 
#
# 1 203.5053 36.2353 26.7699 -6.4196 33.7813 2.8981
# 2 36.2353 45.3323 10.6315 -4.3916 0.3478 5.4460
# 3 26.7699 10.6315 73.7927 -2.0948 9.0049 -0.7787
# 4 -6.4196 -4.3916 -2.0948 20.1329 2.6508 -4.3430
# 5 33.7813 0.3478 9.0049 2.6508 36.1399 -1.1009
# 6 2.8981 5.4460 -0.7787 -4.3430 -1.1009 24.8964
#
#
#
# Elastic Compliance Matrix: (Units=1/GPa)
#
#
# Indices 1 2 3 4 5 6 
#
# 1 0.007112 -0.005260 -0.000972 0.001948 -0.006487 0.000345
# 2 -0.005260 0.027669 -0.002672 0.002368 0.004993 -0.004890
# 3 -0.000972 -0.002672 0.014677 0.001271 -0.002778 0.001256
# 4 0.001948 0.002368 0.001271 0.053513 -0.005830 0.008372
# 5 -0.006487 0.004993 -0.002778 -0.005830 0.034809 0.000098
# 6 0.000345 -0.004890 0.001256 0.008372 0.000098 0.042700
#
#
# Mechanical properties :
#
#
# Convention : Reuss Voigt Hill
#
# Bulk Modulus (GPa) = 31.59440 52.21154 41.90297
# Shear Modulus (GPa) = 23.94219 32.83342 28.38781
#
# Velocity S-wave (km/s) = 3.22175 3.77283 3.50813
# Velocity P-wave (km/s) = 5.24754 6.45092 5.88009
#
# Compressibility (1/GPa) = 0.03165118
#
# Stress axis : x y z
#
# Youngs Moduli (GPa) = 140.61628 36.14199 68.13268
#
# Poissons Ratio (x) = 0.19009 0.06619
# Poissons Ratio (y) = 0.73959 0.18205
# Poissons Ratio (z) = 0.13662 0.09657
#
# Static dielectric constant tensor:
#      x y z
#    x 1.918250 0.002680 -0.030510 
#    y 0.002680 1.846560 -0.015480 
#    z -0.030510 -0.015480 1.865490 
# 
# From -- ./inp_files/207936.got.cif
#   From: 2010.05.17/outbox.cif.g08.bks.cpg/sg2_104_cif.got.tgz:207936.got - 2010.06.03 11:33:40.
