data_PCOD9022167
_publ_section_title
;
Structure prediction by ZEFSAII (Michael W. Deem and Ramdas Pophale) SiO2 
 PCOD9022167
Probable space group: P -1
;
_chemical_formula_sum "Si O2"
_cell_formula_units_Z 16
_cell_length_a 10.770578
_cell_length_b 5.774099
_cell_length_c 19.088321
_cell_angle_alpha 86.762564
_cell_angle_beta 146.468795
_cell_angle_gamma 90.658399
_cell_volume 653.338198
_symmetry_space_group_name_H-M "P -1"
_symmetry_group_IT_number 2
_symmetry_cell_setting 'triclinic'
loop_
_space_group_symop_operation_xyz
x,y,z
-x,-y,-z
loop_
_atom_site_type_symbol
_atom_site_label
_atom_site_fract_x
_atom_site_fract_y
_atom_site_fract_z
Si Si1 0.062477 0.531764 0.233585
Si Si2 0.651345 0.636226 0.862885
Si Si3 0.576950 0.703160 0.983582
Si Si4 0.885841 0.134962 0.256650
Si Si5 0.131369 0.721039 0.123321
Si Si6 0.900104 0.639671 0.518384
Si Si7 0.730677 0.267001 0.550420
Si Si8 0.494263 0.967515 0.666258
O O1 0.123822 0.513801 0.181332
O O2 0.266885 0.626084 0.372865
O O3 0.984068 0.306004 0.241036
O O4 0.841542 0.716837 0.123647
O O5 0.564030 0.612699 0.899648
O O6 0.730121 0.385505 0.874636
O O7 0.501094 0.768586 0.731845
O O8 0.877722 0.776716 0.978253
O O9 0.373641 0.901840 0.883641
O O10 0.500000 0.500000 0.000000
O O11 0.915751 0.260667 0.344000
O O12 0.045042 0.904546 0.341467
O O13 0.270652 0.913766 0.220951
O O14 0.771614 0.466662 0.510651
O O15 0.714086 0.851159 0.413521
O O16 0.000000 0.500000 0.500000
O O17 0.541377 0.122548 0.428069
#
# Coordination Sequence:
#
# PCOD9022167 Si02
#       8
#     2   2   2   2   2   2   2   2
#     4   9  20  41  59  88 126 161 207 253 305 363
#     4  10  22  40  65  93 126 158 205 258 307 364
#     4   9  19  38  64  90 121 157 201 253 311 368
#     4   9  20  36  61  90 120 161 207 249 309 368
#     4  10  22  41  64  91 126 163 205 258 304 360
#     4  10  23  38  58  87 127 164 201 255 303 364
#     4  10  22  39  58  88 126 161 207 254 303 363
#     4  11  23  38  61  92 124 163 211 246 309 367
#
# _framework density 24.489615000000001
#
# number of rings (size 3 to 8) (size 9 to 14) (size 15 to 20)
#    0.000    2.250    0.000    1.125    5.250    3.000 
#    0.000   15.000    0.000    0.000    0.000    0.000 
#    0.000    0.000    0.000    0.000    0.000    0.000 
#
# Total GULP energy -89407.024646 kJ/mol
# GULP energy per Si atom -5587.939040 kJ/mol
# Density = 2.443388 g / cm^3
# Si number density = 24.489615 Si / 1000 Ang^3
#
#
#
# Elastic Constant Matrix: (Units=GPa)
#
#
# Indices 1 2 3 4 5 6 
#
# 1 62.1843 3.7160 13.3405 -10.2801 -26.5973 3.1752
# 2 3.7160 27.8507 29.4152 -13.2812 -1.8979 -6.2411
# 3 13.3405 29.4152 168.4391 3.8353 -11.3836 -3.2651
# 4 -10.2801 -13.2812 3.8353 53.4196 -1.8537 -6.4814
# 5 -26.5973 -1.8979 -11.3836 -1.8537 36.5174 -2.5361
# 6 3.1752 -6.2411 -3.2651 -6.4814 -2.5361 14.3755
#
#
#
# Elastic Compliance Matrix: (Units=1/GPa)
#
#
# Indices 1 2 3 4 5 6 
#
# 1 0.025062 0.002700 -0.001330 0.006407 0.018407 0.001470
# 2 0.002700 0.067078 -0.011342 0.022719 0.005653 0.037190
# 3 -0.001330 -0.011342 0.008057 -0.004200 0.000420 -0.004620
# 4 0.006407 0.022719 -0.004200 0.028810 0.007515 0.021809
# 5 0.018407 0.005653 0.000420 0.007515 0.042245 0.009325
# 6 0.001470 0.037190 -0.004620 0.021809 0.009325 0.095813
#
#
# Mechanical properties :
#
#
# Convention : Reuss Voigt Hill
#
# Bulk Modulus (GPa) = 12.46055 39.04637 25.75346
# Shear Modulus (GPa) = 15.93569 34.99600 25.46585
#
# Velocity S-wave (km/s) = 2.55367 3.78433 3.22819
# Velocity P-wave (km/s) = 3.71405 5.92229 4.94306
#
# Compressibility (1/GPa) = 0.08025330
#
# Stress axis : x y z
#
# Youngs Moduli (GPa) = 39.90054 14.90792 124.10986
#
# Poissons Ratio (x) = -0.04025 0.16504
# Poissons Ratio (y) = -0.10772 1.40770
# Poissons Ratio (z) = 0.05306 0.16909
#
# Static dielectric constant tensor:
#      x y z
#    x 1.946870 -0.074950 0.031030 
#    y -0.074950 2.043500 0.023220 
#    z 0.031030 0.023220 1.967960 
# 
# From -- ./inp_files/82709.got.cif
#   From: 2010.05.17/outbox.cif.g08.bks.cpg/sg2_42_cif.got.tgz:82709.got - 2010.06.03 11:33:40.
