data_PCOD9022127
_publ_section_title
;
Structure prediction by ZEFSAII (Michael W. Deem and Ramdas Pophale) SiO2 
 PCOD9022127
Probable space group: P -1
;
_chemical_formula_sum "Si O2"
_cell_formula_units_Z 16
_cell_length_a 5.750180
_cell_length_b 13.365874
_cell_length_c 13.768295
_cell_angle_alpha 132.063010
_cell_angle_beta 85.938421
_cell_angle_gamma 77.220402
_cell_volume 730.243732
_symmetry_space_group_name_H-M "P -1"
_symmetry_group_IT_number 2
_symmetry_cell_setting 'triclinic'
loop_
_space_group_symop_operation_xyz
x,y,z
-x,-y,-z
loop_
_atom_site_type_symbol
_atom_site_label
_atom_site_fract_x
_atom_site_fract_y
_atom_site_fract_z
Si Si1 0.092331 0.071312 0.328274
Si Si2 0.828795 0.907741 0.341883
Si Si3 0.758842 0.831573 0.082556
Si Si4 0.439348 0.894710 0.860373
Si Si5 0.266457 0.828508 0.009106
Si Si6 0.634082 0.808776 0.455342
Si Si7 0.733966 0.593950 0.610933
Si Si8 0.600994 0.358301 0.538710
O O1 0.282925 0.136167 0.412034
O O2 0.838548 0.210511 0.423402
O O3 0.175371 0.984138 0.169493
O O4 0.057420 0.951345 0.325325
O O5 0.837289 0.804937 0.365522
O O6 0.741115 0.843793 0.207558
O O7 0.625867 0.063367 0.479895
O O8 0.054772 0.763097 0.002002
O O9 0.683063 0.998350 0.154458
O O10 0.556994 0.769755 0.001596
O O11 0.500000 0.000000 0.000000
O O12 0.688584 0.756534 0.746699
O O13 0.265668 0.838278 0.898205
O O14 0.572553 0.667832 0.389624
O O15 0.675860 0.498406 0.634949
O O16 0.541242 0.620972 0.545512
O O17 0.000000 0.500000 0.500000
#
# Coordination Sequence:
#
# PCOD9022127 Si02
#       8
#     2   2   2   2   2   2   2   2
#     4  10  18  32  55  79 121 153 192 246 298 351
#     4   9  18  28  48  81 117 151 194 241 304 348
#     4  10  19  35  52  84 119 154 188 248 300 352
#     4  10  22  37  59  88 114 157 199 245 297 358
#     4  10  20  33  55  83 117 152 192 239 298 349
#     4  10  17  31  50  78 115 154 196 239 297 358
#     4  11  23  41  58  80 119 157 199 239 302 361
#     4  10  23  35  55  80 114 160 193 240 302 357
#
# _framework density 21.910494
#
# number of rings (size 3 to 8) (size 9 to 14) (size 15 to 20)
#    0.000    2.000    1.250    3.750    5.250    0.000 
#    6.750    0.000    0.000    0.000    0.000    7.000 
#    0.000    0.000    0.000    0.000    0.000    0.000 
#
# Total GULP energy -89141.083540 kJ/mol
# GULP energy per Si atom -5571.317721 kJ/mol
# Density = 2.186063 g / cm^3
# Si number density = 21.910494 Si / 1000 Ang^3
#
#
#
# Elastic Constant Matrix: (Units=GPa)
#
#
# Indices 1 2 3 4 5 6 
#
# 1 98.8079 18.2186 4.6596 2.3686 -5.0448 9.5080
# 2 18.2186 86.6020 17.6227 -12.1995 -5.5777 26.3039
# 3 4.6596 17.6227 53.4371 -3.4813 -8.2504 -0.7266
# 4 2.3686 -12.1995 -3.4813 28.4117 6.5447 -0.5775
# 5 -5.0448 -5.5777 -8.2504 6.5447 20.2196 -8.0371
# 6 9.5080 26.3039 -0.7266 -0.5775 -8.0371 31.8638
#
#
#
# Elastic Compliance Matrix: (Units=1/GPa)
#
#
# Indices 1 2 3 4 5 6 
#
# 1 0.010794 -0.002215 0.000015 -0.002457 0.002571 -0.000788
# 2 -0.002215 0.019560 -0.007131 0.009196 -0.007999 -0.017499
# 3 0.000015 -0.007131 0.022861 -0.002839 0.012013 0.009382
# 4 -0.002457 0.009196 -0.002839 0.042763 -0.017249 -0.010499
# 5 0.002571 -0.007999 0.012013 -0.017249 0.067443 0.022809
# 6 -0.000788 -0.017499 0.009382 -0.010499 0.022809 0.051841
#
#
# Mechanical properties :
#
#
# Convention : Reuss Voigt Hill
#
# Bulk Modulus (GPa) = 28.94072 35.53877 32.23975
# Shear Modulus (GPa) = 20.37138 29.32210 24.84674
#
# Velocity S-wave (km/s) = 3.05250 3.66220 3.37116
# Velocity P-wave (km/s) = 5.06566 5.84273 5.46802
#
# Compressibility (1/GPa) = 0.03455339
#
# Stress axis : x y z
#
# Youngs Moduli (GPa) = 92.64106 51.12585 43.74179
#
# Poissons Ratio (x) = 0.11325 -0.00067
# Poissons Ratio (y) = 0.20521 0.31193
# Poissons Ratio (z) = -0.00142 0.36459
#
# Static dielectric constant tensor:
#      x y z
#    x 1.948490 0.031200 -0.037770 
#    y 0.031200 1.885600 -0.014980 
#    z -0.037770 -0.014980 1.882540 
# 
# From -- ./inp_files/483948.got.cif
#   From: 2010.05.17/outbox.cif.g08.bks.cpg/sg2_242_cif.got.tgz:483948.got - 2010.06.03 11:33:40.
