data_PCOD9022755
_publ_section_title
;
Structure prediction by ZEFSAII (Michael W. Deem and Ramdas Pophale) SiO2 
 PCOD9022755
Probable space group: P -1
;
_chemical_formula_sum "Si O2"
_cell_formula_units_Z 10
_cell_length_a 9.430687
_cell_length_b 15.881158
_cell_length_c 5.200914
_cell_angle_alpha 102.135563
_cell_angle_beta 111.085152
_cell_angle_gamma 34.764941
_cell_volume 409.060635
_symmetry_space_group_name_H-M "P -1"
_symmetry_group_IT_number 2
_symmetry_cell_setting 'triclinic'
loop_
_space_group_symop_operation_xyz
x,y,z
-x,-y,-z
loop_
_atom_site_type_symbol
_atom_site_label
_atom_site_fract_x
_atom_site_fract_y
_atom_site_fract_z
Si Si1 0.505115 0.697873 0.316653
Si Si2 0.757418 0.436207 0.069618
Si Si3 0.693106 0.626547 0.878541
Si Si4 0.959683 0.918670 0.337457
Si Si5 0.222282 0.093199 0.270681
O O1 0.747306 0.519405 0.320882
O O2 0.580761 0.723006 0.615109
O O3 0.241803 0.772751 0.282101
O O4 0.510267 0.737800 0.069065
O O5 0.026067 0.260633 0.157057
O O6 0.500000 0.500000 0.000000
O O7 0.684166 0.525795 0.825460
O O8 0.000000 0.500000 0.000000
O O9 0.912390 0.891105 0.558208
O O10 0.766541 0.972816 0.019996
O O11 0.000000 0.000000 0.500000
O O12 0.500000 0.000000 0.500000
#
# Coordination Sequence:
#
# PCOD9022755 Si02
#       5
#     2   2   2   2   2
#     4  10  22  41  71  99 129 178 240 277 342 413
#     4  10  22  42  73  97 134 174 239 283 345 412
#     4  10  22  39  64 104 139 168 223 295 356 399
#     4  12  26  49  72  98 145 195 237 280 352 436
#     4  12  27  47  72 107 142 185 236 300 355 407
#
# _framework density 24.446251
#
# number of rings (size 3 to 8) (size 9 to 14) (size 15 to 20)
#    1.200    0.000    2.000    4.200    2.800    3.200 
#    3.600    0.000    0.000    0.000    0.000    0.000 
#    0.000    0.000    0.000    0.000    0.000    0.000 
#
# Total GULP energy -55668.338853 kJ/mol
# GULP energy per Si atom -5566.833885 kJ/mol
# Density = 2.439061 g / cm^3
# Si number density = 24.446251 Si / 1000 Ang^3
#
#
#
# Elastic Constant Matrix: (Units=GPa)
#
#
# Indices 1 2 3 4 5 6 
#
# 1 76.5496 30.7621 13.0119 10.9782 -2.3372 -2.4820
# 2 30.7621 92.9846 33.0730 -4.4769 -4.0263 23.3390
# 3 13.0119 33.0730 162.6542 30.7811 2.7146 6.6232
# 4 10.9782 -4.4769 30.7811 45.6136 -20.0227 -2.6774
# 5 -2.3372 -4.0263 2.7146 -20.0227 35.1689 -4.2721
# 6 -2.4820 23.3390 6.6232 -2.6774 -4.2721 40.6951
#
#
#
# Elastic Compliance Matrix: (Units=1/GPa)
#
#
# Indices 1 2 3 4 5 6 
#
# 1 0.016960 -0.007696 0.001402 -0.006971 -0.003295 0.004416
# 2 -0.007696 0.017683 -0.004312 0.008433 0.005582 -0.008768
# 3 0.001402 -0.004312 0.008857 -0.009649 -0.006603 -0.000211
# 4 -0.006971 0.008433 -0.009649 0.042242 0.025511 0.001766
# 5 -0.003295 0.005582 -0.006603 0.025511 0.044375 0.004009
# 6 0.004416 -0.008768 -0.000211 0.001766 0.004009 0.030442
#
#
# Mechanical properties :
#
#
# Convention : Reuss Voigt Hill
#
# Bulk Modulus (GPa) = 44.86551 53.98694 49.42623
# Shear Modulus (GPa) = 26.42695 41.31828 33.87262
#
# Velocity S-wave (km/s) = 3.29146 4.11563 3.72640
# Velocity P-wave (km/s) = 5.73040 6.68703 6.22711
#
# Compressibility (1/GPa) = 0.02228883
#
# Stress axis : x y z
#
# Youngs Moduli (GPa) = 58.96178 56.55212 112.90107
#
# Poissons Ratio (x) = 0.43524 -0.15834
# Poissons Ratio (y) = 0.45379 0.48681
# Poissons Ratio (z) = -0.08269 0.24384
#
# Static dielectric constant tensor:
#      x y z
#    x 1.872390 0.029110 0.048190 
#    y 0.029110 2.017140 0.051430 
#    z 0.048190 0.051430 2.177670 
# 
# From -- ./inp_files/35425.got.cif
#   From: 2010.05.17/outbox.cif.g08.bks.cpg/sg2_18_cif.got.tgz:35425.got - 2010.06.03 11:33:40.
