data_PCOD9022886
_publ_section_title
;
Structure prediction by ZEFSAII (Michael W. Deem and Ramdas Pophale) SiO2 
 PCOD9022886
Probable space group: P -1
;
_chemical_formula_sum "Si O2"
_cell_formula_units_Z 16
_cell_length_a 14.365591
_cell_length_b 13.022281
_cell_length_c 8.229243
_cell_angle_alpha 136.368052
_cell_angle_beta 115.483005
_cell_angle_gamma 42.348809
_cell_volume 697.208030
_symmetry_space_group_name_H-M "P -1"
_symmetry_group_IT_number 2
_symmetry_cell_setting 'triclinic'
loop_
_space_group_symop_operation_xyz
x,y,z
-x,-y,-z
loop_
_atom_site_type_symbol
_atom_site_label
_atom_site_fract_x
_atom_site_fract_y
_atom_site_fract_z
Si Si1 0.204936 0.699994 0.383812
Si Si2 0.786376 0.871153 0.672966
Si Si3 0.439119 0.906752 0.516255
Si Si4 0.379032 0.769028 0.799903
Si Si5 0.627681 0.748082 0.912660
Si Si6 0.586190 0.395934 0.779181
Si Si7 0.252912 0.384028 0.493802
Si Si8 0.030549 0.835970 0.709917
O O1 0.304845 0.721110 0.576336
O O2 0.255011 0.480612 0.191235
O O3 0.257882 0.685025 0.223159
O O4 0.065366 0.847524 0.562076
O O5 0.828891 0.666194 0.533268
O O6 0.904030 0.841636 0.626129
O O7 0.642826 0.999155 0.606696
O O8 0.743783 0.017910 0.958960
O O9 0.389332 0.804290 0.445603
O O10 0.608065 0.719655 0.414252
O O11 0.402611 0.086903 0.801609
O O12 0.489557 0.780036 0.825220
O O13 0.473658 0.582376 0.785105
O O14 0.683136 0.742607 0.772522
O O15 0.500000 0.500000 0.000000
O O16 0.164508 0.614521 0.635740
O O17 0.000000 0.000000 0.000000
#
# Coordination Sequence:
#
# PCOD9022886 Si02
#       8
#     2   2   2   2   2   2   2   2
#     4  10  22  42  66  92 130 180 228 276 323 399
#     4  12  25  40  65 100 138 173 222 275 339 394
#     4  12  24  39  66 105 137 166 219 289 348 395
#     4  11  20  40  63  96 132 170 217 281 330 394
#     4  10  22  39  65 100 132 169 223 282 343 402
#     4  11  22  37  62  98 135 167 215 276 345 389
#     4  11  24  41  68  99 131 177 226 275 337 400
#     4  11  24  46  68  95 133 187 235 267 319 410
#
# _framework density 22.948675000000001
#
# number of rings (size 3 to 8) (size 9 to 14) (size 15 to 20)
#    0.000    1.000    3.750    4.875    1.750    0.000 
#    0.000    3.125    0.000    1.500    0.000    0.000 
#    0.000    0.000    0.000    0.000    0.000    0.000 
#
# Total GULP energy -89353.199810 kJ/mol
# GULP energy per Si atom -5584.574988 kJ/mol
# Density = 2.289644 g / cm^3
# Si number density = 22.948675 Si / 1000 Ang^3
#
#
#
# Elastic Constant Matrix: (Units=GPa)
#
#
# Indices 1 2 3 4 5 6 
#
# 1 147.1426 2.1654 20.7295 3.5627 -16.0463 4.8102
# 2 2.1654 47.9458 14.2606 8.7169 5.9223 -1.1562
# 3 20.7295 14.2606 110.2714 16.1526 1.2302 6.1571
# 4 3.5627 8.7169 16.1526 28.8722 3.7091 1.7889
# 5 -16.0463 5.9223 1.2302 3.7091 40.8605 11.3599
# 6 4.8102 -1.1562 6.1571 1.7889 11.3599 34.2617
#
#
#
# Elastic Compliance Matrix: (Units=1/GPa)
#
#
# Indices 1 2 3 4 5 6 
#
# 1 0.007444 -0.000388 -0.001209 -0.000465 0.003619 -0.002016
# 2 -0.000388 0.023035 -0.002234 -0.005351 -0.003699 0.002739
# 3 -0.001209 -0.002234 0.010397 -0.004948 0.000448 -0.001664
# 4 -0.000465 -0.005351 -0.004948 0.039451 -0.002734 -0.000380
# 5 0.003619 -0.003699 0.000448 -0.002734 0.029548 -0.010368
# 6 -0.002016 0.002739 -0.001664 -0.000380 -0.010368 0.033319
#
#
# Mechanical properties :
#
#
# Convention : Reuss Voigt Hill
#
# Bulk Modulus (GPa) = 30.10668 42.18566 36.14617
# Shear Modulus (GPa) = 30.87821 38.67918 34.77870
#
# Velocity S-wave (km/s) = 3.67213 4.10989 3.89716
# Velocity P-wave (km/s) = 5.57916 6.39876 6.00297
#
# Compressibility (1/GPa) = 0.03321522
#
# Stress axis : x y z
#
# Youngs Moduli (GPa) = 134.33731 43.41272 96.17851
#
# Poissons Ratio (x) = 0.01683 0.11627
# Poissons Ratio (y) = 0.05208 0.21485
# Poissons Ratio (z) = 0.16240 0.09698
#
# Static dielectric constant tensor:
#      x y z
#    x 1.938090 0.012260 -0.067500 
#    y 0.012260 1.890340 -0.019060 
#    z -0.067500 -0.019060 1.894550 
# 
# From -- ./inp_files/314259.got.cif
#   From: 2010.05.17/outbox.cif.g08.bks.cpg/sg2_158_cif.got.tgz:314259.got - 2010.06.03 11:33:40.
