data_PCOD9022225
_publ_section_title
;
Structure prediction by ZEFSAII (Michael W. Deem and Ramdas Pophale) SiO2 
 PCOD9022225
Probable space group: P -1
;
_chemical_formula_sum "Si O2"
_cell_formula_units_Z 12
_cell_length_a 5.614489
_cell_length_b 8.876217
_cell_length_c 10.346409
_cell_angle_alpha 63.415522
_cell_angle_beta 98.212156
_cell_angle_gamma 76.173780
_cell_volume 428.820038
_symmetry_space_group_name_H-M "P -1"
_symmetry_group_IT_number 2
_symmetry_cell_setting 'triclinic'
loop_
_space_group_symop_operation_xyz
x,y,z
-x,-y,-z
loop_
_atom_site_type_symbol
_atom_site_label
_atom_site_fract_x
_atom_site_fract_y
_atom_site_fract_z
Si Si1 0.405896 0.536200 0.677168
Si Si2 0.678591 0.650742 0.863622
Si Si3 0.422018 0.824696 0.030811
Si Si4 0.411859 0.972232 0.361913
Si Si5 0.069482 0.100153 0.735787
Si Si6 0.081323 0.519941 0.297057
O O1 0.428969 0.646335 0.765292
O O2 0.536750 0.319068 0.796257
O O3 0.110573 0.568766 0.622287
O O4 0.626826 0.570942 0.594666
O O5 0.886893 0.500720 0.849832
O O6 0.743588 0.825652 0.771039
O O7 0.588048 0.685534 0.989249
O O8 0.977146 0.724051 0.250241
O O9 0.500000 0.000000 0.000000
O O10 0.149464 0.926243 0.903673
O O11 0.675804 0.919296 0.320532
O O12 0.194001 0.881684 0.365889
O O13 0.500000 0.000000 0.500000
#
# Coordination Sequence:
#
# PCOD9022225 Si02
#       6
#     2   2   2   2   2   2
#     4  10  22  39  59  93 136 170 211 244 323 371
#     4   9  25  39  65  91 134 166 218 265 314 377
#     4  11  22  40  63 100 133 182 208 252 312 391
#     4  11  25  47  71  93 122 168 219 275 330 372
#     4  11  24  43  66  97 131 165 219 266 310 387
#     4  10  22  40  63  89 136 168 209 259 313 371
#
# _framework density 27.983763
#
# number of rings (size 3 to 8) (size 9 to 14) (size 15 to 20)
#    1.000    0.667    1.667    2.000    7.000    4.000 
#    0.000    1.667    0.000    0.000    0.000    0.000 
#    0.000    0.000    0.000    0.000    0.000    0.000 
#
# Total GULP energy -66971.464299 kJ/mol
# GULP energy per Si atom -5580.955358 kJ/mol
# Density = 2.792007 g / cm^3
# Si number density = 27.983763 Si / 1000 Ang^3
#
#
#
# Elastic Constant Matrix: (Units=GPa)
#
#
# Indices 1 2 3 4 5 6 
#
# 1 228.6995 97.2518 62.0406 29.0579 27.7992 15.2880
# 2 97.2518 159.0143 19.4160 27.4090 -1.7334 -6.4800
# 3 62.0406 19.4160 60.6271 5.3105 8.7342 -4.1953
# 4 29.0579 27.4090 5.3105 37.8846 -1.3105 -8.7455
# 5 27.7992 -1.7334 8.7342 -1.3105 56.9049 10.1999
# 6 15.2880 -6.4800 -4.1953 -8.7455 10.1999 65.8502
#
#
#
# Elastic Compliance Matrix: (Units=1/GPa)
#
#
# Indices 1 2 3 4 5 6 
#
# 1 0.009312 -0.004270 -0.007605 -0.003809 -0.003044 -0.003101
# 2 -0.004270 0.009369 0.001487 -0.003353 0.001837 0.001278
# 3 -0.007605 0.001487 0.023945 0.002264 -0.000548 0.003823
# 4 -0.003809 -0.003353 0.002264 0.032584 0.001296 0.004825
# 5 -0.003044 0.001837 -0.000548 0.001296 0.019590 -0.002010
# 6 -0.003101 0.001278 0.003823 0.004825 -0.002010 0.017227
#
#
# Mechanical properties :
#
#
# Convention : Reuss Voigt Hill
#
# Bulk Modulus (GPa) = 45.76516 89.52863 67.64689
# Shear Modulus (GPa) = 35.69191 50.10345 42.89768
#
# Velocity S-wave (km/s) = 3.57522 4.23596 3.91954
# Velocity P-wave (km/s) = 5.78209 7.48244 6.68654
#
# Compressibility (1/GPa) = 0.02185068
#
# Stress axis : x y z
#
# Youngs Moduli (GPa) = 107.38312 106.73829 41.76200
#
# Poissons Ratio (x) = 0.45577 0.31758
# Poissons Ratio (y) = 0.45852 -0.06208
# Poissons Ratio (z) = 0.81660 -0.15868
#
# Static dielectric constant tensor:
#      x y z
#    x 2.342860 -0.031000 -0.076700 
#    y -0.031000 2.169470 0.022530 
#    z -0.076700 0.022530 2.477880 
# 
# From -- ./inp_files/361862.got.cif
#   From: 2010.05.17/outbox.cif.g08.bks.cpg/sg2_181_cif.got.tgz:361862.got - 2010.06.03 11:33:40.
