data_PCOD9022748
_publ_section_title
;
Structure prediction by ZEFSAII (Michael W. Deem and Ramdas Pophale) SiO2 
 PCOD9022748
Probable space group: P -1
;
_chemical_formula_sum "Si O2"
_cell_formula_units_Z 14
_cell_length_a 21.137030
_cell_length_b 7.565544
_cell_length_c 17.108982
_cell_angle_alpha 129.724715
_cell_angle_beta 20.029361
_cell_angle_gamma 138.310375
_cell_volume 599.327692
_symmetry_space_group_name_H-M "P -1"
_symmetry_group_IT_number 2
_symmetry_cell_setting 'triclinic'
loop_
_space_group_symop_operation_xyz
x,y,z
-x,-y,-z
loop_
_atom_site_type_symbol
_atom_site_label
_atom_site_fract_x
_atom_site_fract_y
_atom_site_fract_z
Si Si1 0.778598 0.230338 0.475510
Si Si2 0.257874 0.692188 0.283317
Si Si3 0.826447 0.193837 0.192968
Si Si4 0.658758 0.899886 0.143777
Si Si5 0.259182 0.235564 0.691944
Si Si6 0.063876 0.342466 0.698086
Si Si7 0.453365 0.314205 0.182245
O O1 0.761900 0.329670 0.607160
O O2 0.553492 0.142710 0.666377
O O3 0.980589 0.480773 0.261754
O O4 0.784929 0.958981 0.386856
O O5 0.000000 0.500000 0.500000
O O6 0.388532 0.021115 0.207192
O O7 0.415322 0.622431 0.034244
O O8 0.805058 0.431938 0.321197
O O9 0.699515 0.055151 0.221731
O O10 0.774739 0.962335 0.251827
O O11 0.086915 0.324602 0.913854
O O12 0.613110 0.597610 0.124764
O O13 0.861484 0.079785 0.900057
O O14 0.500000 0.500000 0.500000
O O15 0.216306 0.277845 0.452623
#
# Coordination Sequence:
#
# PCOD9022748 Si02
#       7
#     2   2   2   2   2   2   2
#     4  10  25  41  66  98 131 171 228 267 340 385
#     4  11  25  48  68  95 131 173 224 287 331 397
#     4  10  23  39  64  99 138 179 221 256 335 388
#     4  11  23  42  67  97 139 176 217 276 322 404
#     4  10  22  39  64 101 135 175 218 275 315 397
#     4  10  22  42  64  99 135 177 215 268 326 401
#     4  10  25  42  69  99 121 174 226 270 344 385
#
# _framework density 23.359508000000002
#
# number of rings (size 3 to 8) (size 9 to 14) (size 15 to 20)
#    0.000    1.714    0.000    2.143    6.000   10.857 
#    0.000    4.286    0.000    0.000    0.000    0.000 
#    0.000    0.000    0.000    0.000    0.000    0.000 
#
# Total GULP energy -78205.672177 kJ/mol
# GULP energy per Si atom -5586.119441 kJ/mol
# Density = 2.330634 g / cm^3
# Si number density = 23.359508 Si / 1000 Ang^3
#
#
#
# Elastic Constant Matrix: (Units=GPa)
#
#
# Indices 1 2 3 4 5 6 
#
# 1 94.5788 22.2148 35.2574 1.4891 12.3830 30.5282
# 2 22.2148 111.6683 38.5824 -1.5845 8.5746 1.2310
# 3 35.2574 38.5824 123.1011 1.2056 14.4114 14.7259
# 4 1.4891 -1.5845 1.2056 51.9718 1.2983 9.5392
# 5 12.3830 8.5746 14.4114 1.2983 34.6377 1.3380
# 6 30.5282 1.2310 14.7259 9.5392 1.3380 30.3026
#
#
#
# Elastic Compliance Matrix: (Units=1/GPa)
#
#
# Indices 1 2 3 4 5 6 
#
# 1 0.018188 -0.002410 -0.001786 0.002876 -0.004573 -0.018061
# 2 -0.002410 0.010455 -0.002930 -0.000173 -0.000636 0.003510
# 3 -0.001786 -0.002930 0.010241 0.000353 -0.002793 -0.003046
# 4 0.002876 -0.000173 0.000353 0.020944 -0.001547 -0.009587
# 5 -0.004573 -0.000636 -0.002793 -0.001547 0.031686 0.005078
# 6 -0.018061 0.003510 -0.003046 -0.009587 0.005078 0.055328
#
#
# Mechanical properties :
#
#
# Convention : Reuss Voigt Hill
#
# Bulk Modulus (GPa) = 40.59855 57.93972 49.26914
# Shear Modulus (GPa) = 29.53244 38.93533 34.23389
#
# Velocity S-wave (km/s) = 3.55950 4.08706 3.83237
# Velocity P-wave (km/s) = 5.85756 6.86509 6.38124
#
# Compressibility (1/GPa) = 0.02463142
#
# Stress axis : x y z
#
# Youngs Moduli (GPa) = 54.97995 95.65113 97.64483
#
# Poissons Ratio (x) = 0.23053 0.17442
# Poissons Ratio (y) = 0.13251 0.28611
# Poissons Ratio (z) = 0.09821 0.28026
#
# Static dielectric constant tensor:
#      x y z
#    x 1.889240 -0.043440 0.022720 
#    y -0.043440 1.954680 0.022990 
#    z 0.022720 0.022990 1.951110 
# 
# From -- ./inp_files/236828.got.cif
#   From: 2010.05.17/outbox.cif.g08.bks.cpg/sg2_119_cif.got.tgz:236828.got - 2010.06.03 11:33:40.
