data_PCOD9022754
_publ_section_title
;
Structure prediction by ZEFSAII (Michael W. Deem and Ramdas Pophale) SiO2 
 PCOD9022754
Probable space group: P -1
;
_chemical_formula_sum "Si O2"
_cell_formula_units_Z 12
_cell_length_a 10.299177
_cell_length_b 11.673745
_cell_length_c 5.146589
_cell_angle_alpha 72.317121
_cell_angle_beta 116.340541
_cell_angle_gamma 79.133759
_cell_volume 488.991863
_symmetry_space_group_name_H-M "P -1"
_symmetry_group_IT_number 2
_symmetry_cell_setting 'triclinic'
loop_
_space_group_symop_operation_xyz
x,y,z
-x,-y,-z
loop_
_atom_site_type_symbol
_atom_site_label
_atom_site_fract_x
_atom_site_fract_y
_atom_site_fract_z
Si Si1 0.442319 0.880605 0.084937
Si Si2 0.480608 0.707836 0.726135
Si Si3 0.080941 0.306764 0.693805
Si Si4 0.276483 0.543517 0.597088
Si Si5 0.180481 0.399409 0.224452
Si Si6 0.916424 0.973571 0.193116
O O1 0.813703 0.683128 0.456961
O O2 0.444316 0.808922 0.862551
O O3 0.266673 0.943625 0.996139
O O4 0.500000 0.000000 0.000000
O O5 0.337713 0.660747 0.571454
O O6 0.521719 0.772335 0.457940
O O7 0.612611 0.574186 0.044711
O O8 0.901415 0.410439 0.484542
O O9 0.062800 0.173501 0.721630
O O10 0.173951 0.316240 0.025860
O O11 0.274585 0.489214 0.340387
O O12 0.000000 0.500000 0.000000
O O13 0.000000 0.000000 0.500000
O O14 0.000000 0.000000 0.000000
#
# Coordination Sequence:
#
# PCOD9022754 Si02
#       6
#     2   2   2   2   2   2
#     4  12  28  52  74 110 153 206 255 305 377 453
#     4  11  27  46  77 103 153 199 245 312 371 463
#     4  11  23  41  70 106 145 183 241 311 367 439
#     4  10  23  45  72 113 145 187 248 309 390 435
#     4  10  22  39  64 103 143 182 226 299 375 436
#     4  12  26  48  78 108 145 200 259 310 363 438
#
# _framework density 24.540285999999998
#
# number of rings (size 3 to 8) (size 9 to 14) (size 15 to 20)
#    0.000    1.000    0.000    6.500    2.333   12.000 
#    0.000    0.000    0.000    0.000    0.000    0.000 
#    0.000    0.000    0.000    0.000    0.000    0.000 
#
# Total GULP energy -67166.855643 kJ/mol
# GULP energy per Si atom -5597.237970 kJ/mol
# Density = 2.448443 g / cm^3
# Si number density = 24.540286 Si / 1000 Ang^3
#
#
#
# Elastic Constant Matrix: (Units=GPa)
#
#
# Indices 1 2 3 4 5 6 
#
# 1 175.8748 78.0361 69.8194 34.5091 -8.8707 10.1034
# 2 78.0361 189.9457 72.7787 50.5728 -13.9767 21.0683
# 3 69.8194 72.7787 151.1852 49.1431 -6.2996 8.1698
# 4 34.5091 50.5728 49.1431 59.5965 -14.7688 6.9261
# 5 -8.8707 -13.9767 -6.2996 -14.7688 55.4425 5.7602
# 6 10.1034 21.0683 8.1698 6.9261 5.7602 56.8387
#
#
#
# Elastic Compliance Matrix: (Units=1/GPa)
#
#
# Indices 1 2 3 4 5 6 
#
# 1 0.007671 -0.002030 -0.002307 -0.000720 0.000284 -0.000220
# 2 -0.002030 0.007997 -0.001478 -0.003998 0.000663 -0.001971
# 3 -0.002307 -0.001478 0.010374 -0.006326 -0.001286 0.000368
# 4 -0.000720 -0.003998 -0.006326 0.027350 0.005587 -0.001380
# 5 0.000284 0.000663 -0.001286 0.005587 0.019883 -0.002807
# 6 -0.000220 -0.001971 0.000368 -0.001380 -0.002807 0.018763
#
#
# Mechanical properties :
#
#
# Convention : Reuss Voigt Hill
#
# Bulk Modulus (GPa) = 69.39382 106.47489 87.93436
# Shear Modulus (GPa) = 46.09382 54.13364 50.11373
#
# Velocity S-wave (km/s) = 4.33863 4.70181 4.52386
# Velocity P-wave (km/s) = 7.31007 8.54154 7.94969
#
# Compressibility (1/GPa) = 0.01441050
#
# Stress axis : x y z
#
# Youngs Moduli (GPa) = 130.36077 125.04501 96.39231
#
# Poissons Ratio (x) = 0.25388 0.22241
# Poissons Ratio (y) = 0.26467 0.14250
# Poissons Ratio (z) = 0.30079 0.18486
#
# Static dielectric constant tensor:
#      x y z
#    x 2.234060 -0.309720 0.120780 
#    y -0.309720 2.021160 -0.207060 
#    z 0.120780 -0.207060 2.068740 
# 
# From -- ./inp_files/27985.got.cif
#   From: 2010.05.17/outbox.cif.g08.bks.cpg/sg2_14_cif.got.tgz:27985.got - 2010.06.03 11:33:40.
