data_PCOD9022305
_publ_section_title
;
Structure prediction by ZEFSAII (Michael W. Deem and Ramdas Pophale) SiO2 
 PCOD9022305
Probable space group: P -1
;
_chemical_formula_sum "Si O2"
_cell_formula_units_Z 16
_cell_length_a 15.061536
_cell_length_b 9.339953
_cell_length_c 7.752509
_cell_angle_alpha 131.865963
_cell_angle_beta 52.045976
_cell_angle_gamma 104.979092
_cell_volume 618.566880
_symmetry_space_group_name_H-M "P -1"
_symmetry_group_IT_number 2
_symmetry_cell_setting 'triclinic'
loop_
_space_group_symop_operation_xyz
x,y,z
-x,-y,-z
loop_
_atom_site_type_symbol
_atom_site_label
_atom_site_fract_x
_atom_site_fract_y
_atom_site_fract_z
Si Si1 0.647018 0.193080 0.406238
Si Si2 0.931550 0.955469 0.259810
Si Si3 0.553061 0.130749 0.905907
Si Si4 0.133087 0.128048 0.105189
Si Si5 0.263320 0.665285 0.237241
Si Si6 0.610354 0.740884 0.336514
Si Si7 0.103577 0.336897 0.654041
Si Si8 0.651857 0.560226 0.508600
O O1 0.691174 0.293857 0.597317
O O2 0.509076 0.221768 0.595574
O O3 0.666614 0.330524 0.336981
O O4 0.729701 0.972211 0.109989
O O5 0.896155 0.862210 0.399677
O O6 0.863214 0.188550 0.516510
O O7 0.897819 0.846257 0.041324
O O8 0.066067 0.957257 0.095628
O O9 0.652391 0.243725 0.913277
O O10 0.616444 0.960838 0.557901
O O11 0.439931 0.308023 0.139842
O O12 0.500000 0.000000 0.000000
O O13 0.092943 0.300968 0.433531
O O14 0.283565 0.429325 0.004215
O O15 0.596819 0.636214 0.451230
O O16 0.224922 0.389705 0.585092
O O17 0.000000 0.500000 0.000000
#
# Coordination Sequence:
#
# PCOD9022305 Si02
#       8
#     2   2   2   2   2   2   2   2
#     4  11  23  43  65  96 134 177 228 278 340 407
#     4  10  23  46  71  99 135 180 233 276 352 408
#     4  10  22  39  60  94 129 167 221 267 329 404
#     4  10  24  45  71  97 134 184 226 289 342 407
#     4  11  24  42  66  99 136 176 225 283 339 410
#     4  11  23  39  68  92 132 183 219 276 337 402
#     4  12  26  44  69 104 137 175 231 288 342 414
#     4  11  24  41  62  98 134 174 226 279 344 406
#
# _framework density 25.866240999999999
#
# number of rings (size 3 to 8) (size 9 to 14) (size 15 to 20)
#    0.000    1.250    1.250    4.125    5.250    1.000 
#    6.750    0.000    0.000    0.000    0.000    0.000 
#    0.000    0.000    0.000    0.000    0.000    0.000 
#
# Total GULP energy -89504.133770 kJ/mol
# GULP energy per Si atom -5594.008361 kJ/mol
# Density = 2.580737 g / cm^3
# Si number density = 25.866241 Si / 1000 Ang^3
#
#
#
# Elastic Constant Matrix: (Units=GPa)
#
#
# Indices 1 2 3 4 5 6 
#
# 1 65.2955 4.4156 41.8324 -7.1339 -6.2493 -15.2852
# 2 4.4156 49.5809 10.6880 -7.8812 -2.5017 -9.4910
# 3 41.8324 10.6880 191.0540 15.4695 0.8591 -8.9724
# 4 -7.1339 -7.8812 15.4695 45.8589 0.7520 -7.7008
# 5 -6.2493 -2.5017 0.8591 0.7520 35.2625 -3.4742
# 6 -15.2852 -9.4910 -8.9724 -7.7008 -3.4742 29.5491
#
#
#
# Elastic Compliance Matrix: (Units=1/GPa)
#
#
# Indices 1 2 3 4 5 6 
#
# 1 0.023328 0.003444 -0.005325 0.008342 0.005750 0.014407
# 2 0.003444 0.023731 -0.002158 0.007134 0.003278 0.010994
# 3 -0.005325 -0.002158 0.006720 -0.003877 -0.001433 -0.002586
# 4 0.008342 0.007134 -0.003877 0.027774 0.002767 0.012993
# 5 0.005750 0.003278 -0.001433 0.002767 0.030363 0.007883
# 6 0.014407 0.010994 -0.002586 0.012993 0.007883 0.048353
#
#
# Mechanical properties :
#
#
# Convention : Reuss Voigt Hill
#
# Bulk Modulus (GPa) = 21.88108 46.64471 34.26290
# Shear Modulus (GPa) = 27.23601 38.73373 32.98487
#
# Velocity S-wave (km/s) = 3.24845 3.87390 3.57488
# Velocity P-wave (km/s) = 4.74843 6.17104 5.50587
#
# Compressibility (1/GPa) = 0.04570158
#
# Stress axis : x y z
#
# Youngs Moduli (GPa) = 42.86702 42.13826 148.81573
#
# Poissons Ratio (x) = -0.14514 0.79248
# Poissons Ratio (y) = -0.14765 0.32113
# Poissons Ratio (z) = 0.22828 0.09093
#
# Static dielectric constant tensor:
#      x y z
#    x 1.983150 -0.054300 0.027360 
#    y -0.054300 2.064080 -0.050210 
#    z 0.027360 -0.050210 2.126770 
# 
# From -- ./inp_files/305961.got.cif
#   From: 2010.05.17/outbox.cif.g08.bks.cpg/sg2_153_cif.got.tgz:305961.got - 2010.06.03 11:33:40.
