data_PCOD9022444
_publ_section_title
;
Structure prediction by ZEFSAII (Michael W. Deem and Ramdas Pophale) SiO2 
 PCOD9022444
Probable space group: P -1
;
_chemical_formula_sum "Si O2"
_cell_formula_units_Z 16
_cell_length_a 21.520080
_cell_length_b 21.129840
_cell_length_c 11.124109
_cell_angle_alpha 26.544365
_cell_angle_beta 26.171777
_cell_angle_gamma 20.800860
_cell_volume 740.671882
_symmetry_space_group_name_H-M "P -1"
_symmetry_group_IT_number 2
_symmetry_cell_setting 'triclinic'
loop_
_space_group_symop_operation_xyz
x,y,z
-x,-y,-z
loop_
_atom_site_type_symbol
_atom_site_label
_atom_site_fract_x
_atom_site_fract_y
_atom_site_fract_z
Si Si1 0.224601 0.319984 0.898301
Si Si2 0.416677 0.871917 0.762920
Si Si3 0.372768 0.466341 0.216136
Si Si4 0.575922 0.091929 0.851143
Si Si5 0.887958 0.106006 0.637898
Si Si6 0.196204 0.778269 0.802345
Si Si7 0.292954 0.562395 0.754203
Si Si8 0.622392 0.806993 0.740370
O O1 0.292389 0.404338 0.552576
O O2 0.366129 0.221742 0.935451
O O3 0.000000 0.500000 0.000000
O O4 0.283415 0.127655 0.064541
O O5 0.495683 0.711918 0.800496
O O6 0.586207 0.819493 0.638894
O O7 0.304611 0.083675 0.548423
O O8 0.291972 0.872767 0.073721
O O9 0.500000 0.500000 0.000000
O O10 0.221029 0.658449 0.075063
O O11 0.649200 0.199723 0.508359
O O12 0.553812 0.087176 0.040609
O O13 0.812056 0.312519 0.395157
O O14 0.000000 0.000000 0.500000
O O15 0.004358 0.994987 0.743967
O O16 0.212765 0.671419 0.835283
O O17 0.500000 0.500000 0.500000
O O18 0.273477 0.408124 0.047769
#
# Coordination Sequence:
#
# PCOD9022444 Si02
#       8
#     2   2   2   2   2   2   2   2
#     4  11  27  48  70  99 139 187 244 289 347 427
#     4  11  23  41  65 101 138 180 226 284 357 413
#     4  12  24  46  72  97 134 189 240 284 349 421
#     4  11  23  45  70 100 138 185 232 294 355 414
#     4  10  22  39  62 101 144 173 231 286 343 426
#     4  11  22  39  65  97 138 174 232 289 340 414
#     4  11  18  36  65  97 131 181 220 269 349 418
#     4  11  21  37  72  97 135 178 223 285 354 417
#
# _framework density 21.602008000000001
#
# number of rings (size 3 to 8) (size 9 to 14) (size 15 to 20)
#    0.000    1.000    6.250    0.750    0.000    3.000 
#    0.000    3.750    0.000    0.000    0.000    0.000 
#    0.000    0.000    0.000    0.000    0.000    0.000 
#
# Total GULP energy -89150.027355 kJ/mol
# GULP energy per Si atom -5571.876710 kJ/mol
# Density = 2.155284 g / cm^3
# Si number density = 21.602008 Si / 1000 Ang^3
#
#
#
# Elastic Constant Matrix: (Units=GPa)
#
#
# Indices 1 2 3 4 5 6 
#
# 1 96.1386 50.4787 32.5657 -15.3719 2.9938 1.8020
# 2 50.4787 107.7187 50.8836 -29.0518 -0.8391 -6.0209
# 3 32.5657 50.8836 135.5393 -42.6498 15.1662 12.4478
# 4 -15.3719 -29.0518 -42.6498 49.2896 1.5630 9.5869
# 5 2.9938 -0.8391 15.1662 1.5630 33.2271 -13.0470
# 6 1.8020 -6.0209 12.4478 9.5869 -13.0470 31.3186
#
#
#
# Elastic Compliance Matrix: (Units=1/GPa)
#
#
# Indices 1 2 3 4 5 6 
#
# 1 0.014217 -0.006628 0.000402 0.001800 -0.003368 -0.004206
# 2 -0.006628 0.015732 -0.005753 0.000361 0.006928 0.008468
# 3 0.000402 -0.005753 0.019338 0.018370 -0.018581 -0.022179
# 4 0.001800 0.000361 0.018370 0.043493 -0.022348 -0.029959
# 5 -0.003368 0.006928 -0.018581 -0.022348 0.055345 0.038808
# 6 -0.004206 0.008468 -0.022179 -0.029959 0.038808 0.067953
#
#
# Mechanical properties :
#
#
# Convention : Reuss Voigt Hill
#
# Bulk Modulus (GPa) = 39.48202 67.47252 53.47727
# Shear Modulus (GPa) = 20.12251 36.46495 28.29373
#
# Velocity S-wave (km/s) = 3.05538 4.11303 3.62301
# Velocity P-wave (km/s) = 5.54651 7.33881 6.50469
#
# Compressibility (1/GPa) = 0.02532798
#
# Stress axis : x y z
#
# Youngs Moduli (GPa) = 70.33726 63.56664 51.71280
#
# Poissons Ratio (x) = 0.42133 -0.02078
# Poissons Ratio (y) = 0.46621 0.29750
# Poissons Ratio (z) = -0.02826 0.36569
#
# Static dielectric constant tensor:
#      x y z
#    x 1.868250 -0.050660 -0.028060 
#    y -0.050660 1.906630 -0.049000 
#    z -0.028060 -0.049000 1.838310 
# 
# From -- ./inp_files/472661.got.cif
#   From: 2010.05.17/outbox.cif.g08.bks.cpg/sg2_237_cif.got.tgz:472661.got - 2010.06.03 11:33:40.
