data_PCOD9022080
_publ_section_title
;
Structure prediction by ZEFSAII (Michael W. Deem and Ramdas Pophale) SiO2 
 PCOD9022080
Probable space group: P -1
;
_chemical_formula_sum "Si O2"
_cell_formula_units_Z 14
_cell_length_a 12.827493
_cell_length_b 7.907012
_cell_length_c 12.390235
_cell_angle_alpha 117.599797
_cell_angle_beta 138.051273
_cell_angle_gamma 46.187287
_cell_volume 602.717326
_symmetry_space_group_name_H-M "P -1"
_symmetry_group_IT_number 2
_symmetry_cell_setting 'triclinic'
loop_
_space_group_symop_operation_xyz
x,y,z
-x,-y,-z
loop_
_atom_site_type_symbol
_atom_site_label
_atom_site_fract_x
_atom_site_fract_y
_atom_site_fract_z
Si Si1 0.309415 0.350924 0.971996
Si Si2 0.382029 0.899737 0.415891
Si Si3 0.859830 0.107851 0.599922
Si Si4 0.151938 0.547353 0.671834
Si Si5 0.062922 0.167835 0.096466
Si Si6 0.887964 0.748652 0.054701
Si Si7 0.609313 0.430616 0.313326
O O1 0.250574 0.408697 0.818706
O O2 0.274591 0.175836 0.957388
O O3 0.133669 0.579568 0.966213
O O4 0.497233 0.335262 0.143440
O O5 0.327898 0.858371 0.479784
O O6 0.468913 0.653599 0.348809
O O7 0.500000 0.000000 0.500000
O O8 0.178284 0.116080 0.277864
O O9 0.786695 0.223972 0.460470
O O10 0.943915 0.237485 0.762125
O O11 0.032237 0.832392 0.664039
O O12 0.315471 0.474044 0.688637
O O13 0.000000 0.500000 0.500000
O O14 0.195797 0.093758 0.071115
O O15 0.000000 0.000000 0.000000
O O16 0.000000 0.500000 0.000000
#
# Coordination Sequence:
#
# PCOD9022080 Si02
#       7
#     2   2   2   2   2   2   2
#     4  11  23  44  68  97 134 180 225 279 335 408
#     4  12  25  39  70 103 140 175 231 282 339 400
#     4  12  25  47  69 100 141 180 223 285 345 404
#     4  12  26  50  72  94 135 189 229 275 347 411
#     4  11  19  41  66  99 136 180 219 277 346 395
#     4  10  22  38  71 100 135 175 222 273 342 403
#     4  12  27  43  68 105 138 174 233 287 334 404
#
# _framework density 23.228135999999999
#
# number of rings (size 3 to 8) (size 9 to 14) (size 15 to 20)
#    0.000    0.571    4.286    3.857    6.000    0.000 
#    0.000    1.429    0.000    0.000    0.000    0.000 
#    0.000    0.000    0.000    0.000    0.000    0.000 
#
# Total GULP energy -78009.027552 kJ/mol
# GULP energy per Si atom -5572.073397 kJ/mol
# Density = 2.317527 g / cm^3
# Si number density = 23.228136 Si / 1000 Ang^3
#
#
#
# Elastic Constant Matrix: (Units=GPa)
#
#
# Indices 1 2 3 4 5 6 
#
# 1 134.8439 -25.4593 0.3317 -0.3955 -25.8468 20.6189
# 2 -25.4593 38.3998 6.6126 4.7083 -3.8155 -5.2978
# 3 0.3317 6.6126 96.0804 10.0680 -7.1507 19.9273
# 4 -0.3955 4.7083 10.0680 25.7294 10.3719 0.3864
# 5 -25.8468 -3.8155 -7.1507 10.3719 43.3637 -4.4256
# 6 20.6189 -5.2978 19.9273 0.3864 -4.4256 26.6569
#
#
#
# Elastic Compliance Matrix: (Units=1/GPa)
#
#
# Indices 1 2 3 4 5 6 
#
# 1 0.011674 0.007822 0.002209 -0.005442 0.008534 -0.007631
# 2 0.007822 0.034153 -0.001341 -0.009746 0.010141 0.003565
# 3 0.002209 -0.001341 0.013873 -0.006532 0.003864 -0.011610
# 4 -0.005442 -0.009746 -0.006532 0.049806 -0.016718 0.003658
# 5 0.008534 0.010141 0.003864 -0.016718 0.033505 -0.001669
# 6 -0.007631 0.003565 -0.011610 0.003658 -0.001669 0.052474
#
#
# Mechanical properties :
#
#
# Convention : Reuss Voigt Hill
#
# Bulk Modulus (GPa) = 12.97345 25.81046 19.39196
# Shear Modulus (GPa) = 24.53416 38.33925 31.43671
#
# Velocity S-wave (km/s) = 3.25349 4.06711 3.68283
# Velocity P-wave (km/s) = 4.43970 5.76116 5.14305
#
# Compressibility (1/GPa) = 0.07708050
#
# Stress axis : x y z
#
# Youngs Moduli (GPa) = 85.66046 29.27991 72.08469
#
# Poissons Ratio (x) = -0.22902 -0.15927
# Poissons Ratio (y) = -0.67002 0.09665
# Poissons Ratio (z) = -0.18926 0.03926
#
# Static dielectric constant tensor:
#      x y z
#    x 1.737860 -0.056150 -0.089530 
#    y -0.056150 1.879380 -0.064800 
#    z -0.089530 -0.064800 1.838020 
# 
# From -- ./inp_files/382841.got.cif
#   From: 2010.05.17/outbox.cif.g08.bks.cpg/sg2_192_cif.got.tgz:382841.got - 2010.06.03 11:33:40.
