data_PCOD9022289
_publ_section_title
;
Structure prediction by ZEFSAII (Michael W. Deem and Ramdas Pophale) SiO2 
 PCOD9022289
Probable space group: P -1
;
_chemical_formula_sum "Si O2"
_cell_formula_units_Z 16
_cell_length_a 9.239715
_cell_length_b 12.612940
_cell_length_c 10.882548
_cell_angle_alpha 54.578746
_cell_angle_beta 51.942772
_cell_angle_gamma 38.110216
_cell_volume 604.544812
_symmetry_space_group_name_H-M "P -1"
_symmetry_group_IT_number 2
_symmetry_cell_setting 'triclinic'
loop_
_space_group_symop_operation_xyz
x,y,z
-x,-y,-z
loop_
_atom_site_type_symbol
_atom_site_label
_atom_site_fract_x
_atom_site_fract_y
_atom_site_fract_z
Si Si1 0.276732 0.506207 0.084254
Si Si2 0.529445 0.281820 0.863303
Si Si3 0.619409 0.890072 0.353441
Si Si4 0.568708 0.177555 0.279532
Si Si5 0.066076 0.816931 0.598897
Si Si6 0.047605 0.132512 0.097028
Si Si7 0.402669 0.336778 0.626001
Si Si8 0.922691 0.321274 0.567362
O O1 0.361080 0.390486 0.995246
O O2 0.029853 0.706007 0.053886
O O3 0.500000 0.500000 0.000000
O O4 0.326066 0.379893 0.251238
O O5 0.363555 0.367198 0.770291
O O6 0.724026 0.309136 0.727260
O O7 0.701856 0.070007 0.914249
O O8 0.451508 0.895649 0.538065
O O9 0.561071 0.832070 0.305541
O O10 0.883373 0.757374 0.372555
O O11 0.576936 0.063117 0.248304
O O12 0.819717 0.141130 0.180112
O O13 0.982215 0.813403 0.780235
O O14 0.362745 0.685503 0.518425
O O15 0.981194 0.779321 0.548068
O O16 0.000000 0.000000 0.500000
O O17 0.197514 0.487491 0.540993
#
# Coordination Sequence:
#
# PCOD9022289 Si02
#       8
#     2   2   2   2   2   2   2   2
#     4  10  24  41  64  94 126 165 212 263 307 367
#     4  11  22  40  65  97 124 160 215 260 308 369
#     4  11  22  39  63  88 129 163 203 254 325 375
#     4  10  22  39  60  91 126 166 209 253 311 380
#     4  11  18  34  61  93 125 160 206 252 317 361
#     4  11  19  39  65  95 125 164 210 260 314 365
#     4  11  22  36  60  92 128 164 201 265 312 369
#     4  11  22  36  59  98 126 158 209 262 310 375
#
# _framework density 26.466191999999999
#
# number of rings (size 3 to 8) (size 9 to 14) (size 15 to 20)
#    0.000    1.250    5.000    3.375    3.500    2.000 
#    0.000    0.625    0.000    5.250    0.000    0.000 
#    0.000    0.000    0.000    0.000    0.000    0.000 
#
# Total GULP energy -89581.595897 kJ/mol
# GULP energy per Si atom -5598.849744 kJ/mol
# Density = 2.640595 g / cm^3
# Si number density = 26.466192 Si / 1000 Ang^3
#
#
#
# Elastic Constant Matrix: (Units=GPa)
#
#
# Indices 1 2 3 4 5 6 
#
# 1 96.9505 18.7270 25.6809 2.9952 12.0934 8.4602
# 2 18.7270 85.8115 29.3801 -21.4331 4.9350 0.8084
# 3 25.6809 29.3801 76.8162 -8.1349 24.8991 -5.7500
# 4 2.9952 -21.4331 -8.1349 49.3101 -2.6918 17.5270
# 5 12.0934 4.9350 24.8991 -2.6918 17.7487 0.7111
# 6 8.4602 0.8084 -5.7500 17.5270 0.7111 49.4916
#
#
#
# Elastic Compliance Matrix: (Units=1/GPa)
#
#
# Indices 1 2 3 4 5 6 
#
# 1 0.012048 -0.002114 -0.001800 -0.001681 -0.005288 -0.001563
# 2 -0.002114 0.016299 -0.008094 0.007722 0.009583 -0.003718
# 3 -0.001800 -0.008094 0.029173 -0.002549 -0.038047 0.005279
# 4 -0.001681 0.007722 -0.002549 0.027215 0.007097 -0.009875
# 5 -0.005288 0.009583 -0.038047 0.007097 0.112045 -0.007796
# 6 -0.001563 -0.003718 0.005279 -0.009875 -0.007796 0.024756
#
#
# Mechanical properties :
#
#
# Convention : Reuss Voigt Hill
#
# Bulk Modulus (GPa) = 29.84728 45.23936 37.54332
# Shear Modulus (GPa) = 19.47657 35.69609 27.58633
#
# Velocity S-wave (km/s) = 2.71570 3.67651 3.23201
# Velocity P-wave (km/s) = 4.59732 5.92897 5.30509
#
# Compressibility (1/GPa) = 0.03350389
#
# Stress axis : x y z
#
# Youngs Moduli (GPa) = 83.00403 61.35530 34.27781
#
# Poissons Ratio (x) = 0.12969 0.06171
# Poissons Ratio (y) = 0.17546 0.27744
# Poissons Ratio (z) = 0.14942 0.49660
#
# Static dielectric constant tensor:
#      x y z
#    x 2.019910 0.002160 -0.006460 
#    y 0.002160 2.233640 0.054800 
#    z -0.006460 0.054800 2.044930 
# 
# From -- ./inp_files/391999.got.cif
#   From: 2010.05.17/outbox.cif.g08.bks.cpg/sg2_196_cif.got.tgz:391999.got - 2010.06.03 11:33:40.
