data_PCOD9022012
_publ_section_title
;
Structure prediction by ZEFSAII (Michael W. Deem and Ramdas Pophale) SiO2 
 PCOD9022012
Probable space group: P -1
;
_chemical_formula_sum "Si O2"
_cell_formula_units_Z 10
_cell_length_a 9.553203
_cell_length_b 9.746138
_cell_length_c 4.868017
_cell_angle_alpha 71.413814
_cell_angle_beta 103.109955
_cell_angle_gamma 113.533506
_cell_volume 391.281699
_symmetry_space_group_name_H-M "P -1"
_symmetry_group_IT_number 2
_symmetry_cell_setting 'triclinic'
loop_
_space_group_symop_operation_xyz
x,y,z
-x,-y,-z
loop_
_atom_site_type_symbol
_atom_site_label
_atom_site_fract_x
_atom_site_fract_y
_atom_site_fract_z
Si Si1 0.226469 0.429966 0.932921
Si Si2 0.900080 0.472069 0.694906
Si Si3 0.628751 0.250257 0.443163
Si Si4 0.329495 0.014045 0.722616
Si Si5 0.174763 0.077853 0.118844
O O1 0.359251 0.584882 0.787105
O O2 0.229473 0.262081 0.993363
O O3 0.081007 0.437282 0.656724
O O4 0.212825 0.449197 0.241646
O O5 0.780823 0.303415 0.667682
O O6 0.000000 0.500000 0.000000
O O7 0.478994 0.157303 0.605302
O O8 0.648045 0.140388 0.278937
O O9 0.286899 0.023163 0.011436
O O10 0.193028 0.031287 0.467221
O O11 0.000000 0.000000 0.000000
#
# Coordination Sequence:
#
# PCOD9022012 Si02
#       5
#     2   2   2   2   2
#     4  10  24  41  64  96 125 170 217 257 324 383
#     4  10  22  38  68  95 128 166 221 264 306 383
#     4   9  26  42  72  94 130 168 228 256 328 372
#     4  11  26  44  67  97 131 173 211 277 314 387
#     4  12  28  43  66  96 137 169 215 265 335 379
#
# _framework density 25.557030999999998
#
# number of rings (size 3 to 8) (size 9 to 14) (size 15 to 20)
#    1.200    0.400    0.000    2.400   11.200    3.200 
#    0.000    0.000    0.000    0.000    0.000    0.000 
#    0.000    0.000    0.000    0.000    0.000    0.000 
#
# Total GULP energy -55844.674555 kJ/mol
# GULP energy per Si atom -5584.467455 kJ/mol
# Density = 2.549886 g / cm^3
# Si number density = 25.557031 Si / 1000 Ang^3
#
#
#
# Elastic Constant Matrix: (Units=GPa)
#
#
# Indices 1 2 3 4 5 6 
#
# 1 74.5442 46.8272 17.6221 12.4070 -13.8768 22.0402
# 2 46.8272 186.7042 38.4856 -3.0070 -26.4920 -0.9924
# 3 17.6221 38.4856 135.4303 27.2339 -20.4311 -8.9782
# 4 12.4070 -3.0070 27.2339 39.2812 -10.1311 7.7707
# 5 -13.8768 -26.4920 -20.4311 -10.1311 53.4786 2.6730
# 6 22.0402 -0.9924 -8.9782 7.7707 2.6730 44.8041
#
#
#
# Elastic Compliance Matrix: (Units=1/GPa)
#
#
# Indices 1 2 3 4 5 6 
#
# 1 0.020612 -0.004750 -0.000883 -0.003662 0.002461 -0.009934
# 2 -0.004750 0.007301 -0.001734 0.003588 0.002332 0.001390
# 3 -0.000883 -0.001734 0.009818 -0.007061 0.001149 0.003519
# 4 -0.003662 0.003588 -0.007061 0.034185 0.004893 -0.005755
# 5 0.002461 0.002332 0.001149 0.004893 0.022013 -0.003091
# 6 -0.009934 0.001390 0.003519 -0.005755 -0.003091 0.029124
#
#
# Mechanical properties :
#
#
# Convention : Reuss Voigt Hill
#
# Bulk Modulus (GPa) = 43.48562 66.94984 55.21773
# Shear Modulus (GPa) = 34.37500 47.09568 40.73534
#
# Velocity S-wave (km/s) = 3.67145 4.29740 3.99670
# Velocity P-wave (km/s) = 5.91817 7.13279 6.55368
#
# Compressibility (1/GPa) = 0.02299611
#
# Stress axis : x y z
#
# Youngs Moduli (GPa) = 48.51472 136.96649 101.85225
#
# Poissons Ratio (x) = 0.65064 0.08994
# Poissons Ratio (y) = 0.23046 0.17664
# Poissons Ratio (z) = 0.04284 0.23754
#
# Static dielectric constant tensor:
#      x y z
#    x 2.320060 -0.077800 0.036040 
#    y -0.077800 1.928920 -0.005730 
#    z 0.036040 -0.005730 1.952610 
# 
# From -- ./inp_files/15725.got.cif
#   From: 2010.05.17/outbox.cif.g08.bks.cpg/sg2_8_cif.got.tgz:15725.got - 2010.06.03 11:33:40.
