data_PCOD9022563
_publ_section_title
;
Structure prediction by ZEFSAII (Michael W. Deem and Ramdas Pophale) SiO2 
 PCOD9022563
Probable space group: P -1
;
_chemical_formula_sum "Si O2"
_cell_formula_units_Z 16
_cell_length_a 20.936389
_cell_length_b 18.057466
_cell_length_c 11.704666
_cell_angle_alpha 40.447425
_cell_angle_beta 28.918553
_cell_angle_gamma 20.428779
_cell_volume 699.342114
_symmetry_space_group_name_H-M "P -1"
_symmetry_group_IT_number 2
_symmetry_cell_setting 'triclinic'
loop_
_space_group_symop_operation_xyz
x,y,z
-x,-y,-z
loop_
_atom_site_type_symbol
_atom_site_label
_atom_site_fract_x
_atom_site_fract_y
_atom_site_fract_z
Si Si1 0.374795 0.634925 0.723435
Si Si2 0.380413 0.906113 0.200180
Si Si3 0.063454 0.928703 0.241385
Si Si4 0.174683 0.574588 0.842299
Si Si5 0.969339 0.653955 0.832897
Si Si6 0.405406 0.762749 0.085059
Si Si7 0.650272 0.004430 0.283051
Si Si8 0.524776 0.287330 0.307320
O O1 0.618520 0.478444 0.440702
O O2 0.408348 0.486232 0.900755
O O3 0.391581 0.721782 0.691432
O O4 0.112838 0.849439 0.811505
O O5 0.122557 0.041636 0.502009
O O6 0.305229 0.093916 0.080279
O O7 0.642120 0.672411 0.130296
O O8 0.396751 0.829053 0.143289
O O9 0.139762 0.908840 0.273103
O O10 0.337697 0.729737 0.978083
O O11 0.018636 0.681216 0.843400
O O12 0.953421 0.755619 0.070366
O O13 0.211629 0.509452 0.542751
O O14 0.000000 0.500000 0.000000
O O15 0.467335 0.814799 0.834679
O O16 0.500000 0.000000 0.500000
O O17 0.614983 0.092888 0.356372
#
# Coordination Sequence:
#
# PCOD9022563 Si02
#       8
#     2   2   2   2   2   2   2   2
#     4  10  23  40  65 100 132 171 210 271 331 388
#     4  11  24  39  68  97 128 173 216 268 322 393
#     4  10  22  39  62  97 138 161 210 267 332 390
#     4  10  23  43  67  95 129 168 223 262 324 393
#     4  11  23  44  67  89 128 176 227 270 314 377
#     4  11  24  37  68  96 127 173 217 261 326 392
#     4  11  24  44  67  94 131 176 220 272 321 378
#     4  10  23  39  65  95 131 170 209 273 335 379
#
# _framework density 22.878643
#
# number of rings (size 3 to 8) (size 9 to 14) (size 15 to 20)
#    0.000    1.500    1.250    3.000    7.000    6.000 
#    0.000    1.875    0.000    0.000    0.000    0.000 
#    0.000    0.000    0.000    0.000    0.000    0.000 
#
# Total GULP energy -89320.915690 kJ/mol
# GULP energy per Si atom -5582.557231 kJ/mol
# Density = 2.282657 g / cm^3
# Si number density = 22.878643 Si / 1000 Ang^3
#
#
#
# Elastic Constant Matrix: (Units=GPa)
#
#
# Indices 1 2 3 4 5 6 
#
# 1 57.1513 28.5907 21.4460 10.5644 8.9946 13.4354
# 2 28.5907 163.9188 48.0941 -18.0967 4.2464 -1.7921
# 3 21.4460 48.0941 69.6305 3.0098 5.3354 10.7494
# 4 10.5644 -18.0967 3.0098 35.0257 9.2280 6.8473
# 5 8.9946 4.2464 5.3354 9.2280 24.6124 -2.7986
# 6 13.4354 -1.7921 10.7494 6.8473 -2.7986 38.8253
#
#
#
# Elastic Compliance Matrix: (Units=1/GPa)
#
#
# Indices 1 2 3 4 5 6 
#
# 1 0.024370 -0.003999 -0.002904 -0.006162 -0.006091 -0.007166
# 2 -0.003999 0.009202 -0.005657 0.006283 -0.001006 0.002194
# 3 -0.002904 -0.005657 0.020118 -0.002372 -0.001951 -0.004548
# 4 -0.006162 0.006283 -0.002372 0.038232 -0.013177 -0.004614
# 5 -0.006091 -0.001006 -0.001951 -0.013177 0.049358 0.008483
# 6 -0.007166 0.002194 -0.004548 -0.004614 0.008483 0.031022
#
#
# Mechanical properties :
#
#
# Convention : Reuss Voigt Hill
#
# Bulk Modulus (GPa) = 35.00400 54.10690 44.55545
# Shear Modulus (GPa) = 24.16096 32.53066 28.34581
#
# Velocity S-wave (km/s) = 3.25322 3.77487 3.52371
# Velocity P-wave (km/s) = 5.42626 6.53455 6.00603
#
# Compressibility (1/GPa) = 0.02856817
#
# Stress axis : x y z
#
# Youngs Moduli (GPa) = 41.03362 108.67685 49.70773
#
# Poissons Ratio (x) = 0.43464 0.14436
# Poissons Ratio (y) = 0.16411 0.28120
# Poissons Ratio (z) = 0.11917 0.61479
#
# Static dielectric constant tensor:
#      x y z
#    x 1.880760 0.050320 0.024350 
#    y 0.050320 1.893670 -0.011890 
#    z 0.024350 -0.011890 1.880830 
# 
# From -- ./inp_files/472385.got.cif
#   From: 2010.05.17/outbox.cif.g08.bks.cpg/sg2_237_cif.got.tgz:472385.got - 2010.06.03 11:33:40.
