data_PCOD9022228
_publ_section_title
;
Structure prediction by ZEFSAII (Michael W. Deem and Ramdas Pophale) SiO2 
 PCOD9022228
Probable space group: P -1
;
_chemical_formula_sum "Si O2"
_cell_formula_units_Z 14
_cell_length_a 12.979255
_cell_length_b 8.175083
_cell_length_c 10.809421
_cell_angle_alpha 66.765788
_cell_angle_beta 144.925594
_cell_angle_gamma 121.181867
_cell_volume 562.865428
_symmetry_space_group_name_H-M "P -1"
_symmetry_group_IT_number 2
_symmetry_cell_setting 'triclinic'
loop_
_space_group_symop_operation_xyz
x,y,z
-x,-y,-z
loop_
_atom_site_type_symbol
_atom_site_label
_atom_site_fract_x
_atom_site_fract_y
_atom_site_fract_z
Si Si1 0.938554 0.307569 0.646240
Si Si2 0.652318 0.930347 0.600071
Si Si3 0.453876 0.733923 0.229797
Si Si4 0.834706 0.835790 0.460264
Si Si5 0.664177 0.456157 0.248851
Si Si6 0.024238 0.617943 0.859854
Si Si7 0.321506 0.316480 0.099907
O O1 0.822443 0.362942 0.404722
O O2 0.964559 0.456102 0.741677
O O3 0.806229 0.100335 0.625298
O O4 0.155527 0.314113 0.841302
O O5 0.528397 0.764082 0.433909
O O6 0.759048 0.846501 0.829583
O O7 0.500000 0.000000 0.500000
O O8 0.636508 0.866612 0.288670
O O9 0.398880 0.520792 0.184672
O O10 0.248054 0.755012 0.019782
O O11 0.773351 0.652791 0.366428
O O12 0.905903 0.756013 0.677516
O O13 0.000000 0.000000 0.500000
O O14 0.513070 0.298513 0.237958
O O15 0.500000 0.500000 0.000000
O O16 0.000000 0.500000 0.000000
#
# Coordination Sequence:
#
# PCOD9022228 Si02
#       7
#     2   2   2   2   2   2   2
#     4  10  22  39  59  94 126 165 212 269 327 394
#     4  12  22  38  64 100 137 162 216 279 334 395
#     4  10  24  40  67  97 133 179 216 272 335 398
#     4  10  24  44  65  98 133 174 230 273 325 402
#     4  10  22  42  64  87 127 173 217 271 329 386
#     4  10  22  40  68  96 132 176 219 269 338 399
#     4  10  22  41  63  90 130 173 215 266 331 402
#
# _framework density 24.872731999999999
#
# number of rings (size 3 to 8) (size 9 to 14) (size 15 to 20)
#    0.000    1.714    1.429    1.714    8.000    3.429 
#    5.143    2.857    0.000    0.000    0.000    0.000 
#    0.000    0.000    0.000    0.000    0.000    0.000 
#
# Total GULP energy -78166.722767 kJ/mol
# GULP energy per Si atom -5583.337340 kJ/mol
# Density = 2.481612 g / cm^3
# Si number density = 24.872732 Si / 1000 Ang^3
#
#
#
# Elastic Constant Matrix: (Units=GPa)
#
#
# Indices 1 2 3 4 5 6 
#
# 1 71.1175 23.5123 36.4736 7.8062 21.0318 9.2748
# 2 23.5123 77.8539 67.5276 -1.0253 17.7987 37.6249
# 3 36.4736 67.5276 170.1872 -6.5512 18.6506 11.8536
# 4 7.8062 -1.0253 -6.5512 25.9064 15.7457 3.0533
# 5 21.0318 17.7987 18.6506 15.7457 43.7932 3.0863
# 6 9.2748 37.6249 11.8536 3.0533 3.0863 27.4374
#
#
#
# Elastic Compliance Matrix: (Units=1/GPa)
#
#
# Indices 1 2 3 4 5 6 
#
# 1 0.018435 0.005298 -0.004404 -0.000142 -0.008330 -0.010641
# 2 0.005298 0.147722 -0.039571 0.046140 -0.049150 -0.186873
# 3 -0.004404 -0.039571 0.017827 -0.007371 0.009890 0.047759
# 4 -0.000142 0.046140 -0.007371 0.067596 -0.035368 -0.063584
# 5 -0.008330 -0.049150 0.009890 -0.035368 0.050794 0.064165
# 6 -0.010641 -0.186873 0.047759 -0.063584 0.064165 0.275527
#
#
# Mechanical properties :
#
#
# Convention : Reuss Voigt Hill
#
# Bulk Modulus (GPa) = 9.37832 63.79842 36.58837
# Shear Modulus (GPa) = 7.23799 32.20374 19.72086
#
# Velocity S-wave (km/s) = 1.70773 3.60215 2.81885
# Velocity P-wave (km/s) = 2.76896 6.55792 5.03356
#
# Compressibility (1/GPa) = 0.10662889
#
# Stress axis : x y z
#
# Youngs Moduli (GPa) = 54.24324 6.76946 56.09457
#
# Poissons Ratio (x) = -0.03586 0.24707
# Poissons Ratio (y) = -0.28736 2.21973
# Poissons Ratio (z) = 0.23891 0.26788
#
# Static dielectric constant tensor:
#      x y z
#    x 2.073560 0.063910 -0.039620 
#    y 0.063910 2.007130 -0.134760 
#    z -0.039620 -0.134760 2.103710 
# 
# From -- ./inp_files/224331.got.cif
#   From: 2010.05.17/outbox.cif.g08.bks.cpg/sg2_113_cif.got.tgz:224331.got - 2010.06.03 11:33:40.
