data_PCOD9022988
_publ_section_title
;
Structure prediction by ZEFSAII (Michael W. Deem and Ramdas Pophale) SiO2 
 PCOD9022988
Probable space group: P -1
;
_chemical_formula_sum "Si O2"
_cell_formula_units_Z 12
_cell_length_a 6.394910
_cell_length_b 13.696540
_cell_length_c 9.486068
_cell_angle_alpha 49.414258
_cell_angle_beta 117.929629
_cell_angle_gamma 125.288300
_cell_volume 509.274867
_symmetry_space_group_name_H-M "P -1"
_symmetry_group_IT_number 2
_symmetry_cell_setting 'triclinic'
loop_
_space_group_symop_operation_xyz
x,y,z
-x,-y,-z
loop_
_atom_site_type_symbol
_atom_site_label
_atom_site_fract_x
_atom_site_fract_y
_atom_site_fract_z
Si Si1 0.947919 0.910776 0.849247
Si Si2 0.686125 0.476328 0.775540
Si Si3 0.981074 0.685047 0.904892
Si Si4 0.271571 0.970687 0.569882
Si Si5 0.107136 0.387911 0.579729
Si Si6 0.709238 0.070212 0.818093
O O1 0.857375 0.750468 0.921131
O O2 0.922699 0.985059 0.625962
O O3 0.219472 0.945673 0.982578
O O4 0.780249 0.953240 0.868552
O O5 0.382369 0.417413 0.709913
O O6 0.827791 0.581840 0.593307
O O7 0.772863 0.556793 0.874923
O O8 0.804031 0.359778 0.918241
O O9 0.130534 0.809774 0.724542
O O10 0.500000 0.000000 0.500000
O O11 0.438076 0.053777 0.680260
O O12 0.000000 0.500000 0.500000
O O13 0.909906 0.227917 0.692954
#
# Coordination Sequence:
#
# PCOD9022988 Si02
#       6
#     2   2   2   2   2   2
#     4  10  22  40  66  99 131 176 216 272 347 387
#     4  10  25  44  68  96 139 174 228 278 322 419
#     4  11  23  45  63 100 133 176 222 276 342 391
#     4  10  22  39  65  95 133 169 217 280 328 395
#     4  11  24  46  69  98 133 182 223 275 342 399
#     4  10  23  42  66 102 132 168 230 279 329 406
#
# _framework density 23.562916000000001
#
# number of rings (size 3 to 8) (size 9 to 14) (size 15 to 20)
#    0.000    1.667    0.000    3.500    9.333    0.667 
#    3.000    2.500    0.000    0.000    0.000    0.000 
#    0.000    0.000    0.000    0.000    0.000    0.000 
#
# Total GULP energy -67051.279147 kJ/mol
# GULP energy per Si atom -5587.606596 kJ/mol
# Density = 2.350929 g / cm^3
# Si number density = 23.562916 Si / 1000 Ang^3
#
#
#
# Elastic Constant Matrix: (Units=GPa)
#
#
# Indices 1 2 3 4 5 6 
#
# 1 106.9083 58.4121 51.2555 -0.9353 33.0880 17.6176
# 2 58.4121 107.5681 37.3190 3.9394 16.6605 -9.2834
# 3 51.2555 37.3190 177.6189 19.6790 22.4022 16.9742
# 4 -0.9353 3.9394 19.6790 47.8277 2.5502 7.9408
# 5 33.0880 16.6605 22.4022 2.5502 51.7475 12.1412
# 6 17.6176 -9.2834 16.9742 7.9408 12.1412 39.5951
#
#
#
# Elastic Compliance Matrix: (Units=1/GPa)
#
#
# Indices 1 2 3 4 5 6 
#
# 1 0.018992 -0.009405 -0.002324 0.003849 -0.006306 -0.008498
# 2 -0.009405 0.015747 -0.001109 -0.002493 -0.000571 0.009027
# 3 -0.002324 -0.001109 0.007055 -0.002567 -0.000730 -0.001512
# 4 0.003849 -0.002493 -0.002567 0.023218 -0.000343 -0.005748
# 5 -0.006306 -0.000571 -0.000730 -0.000343 0.024952 -0.004598
# 6 -0.008498 0.009027 -0.001512 -0.005748 -0.004598 0.034364
#
#
# Mechanical properties :
#
#
# Convention : Reuss Voigt Hill
#
# Bulk Modulus (GPa) = 62.03906 76.22983 69.13444
# Shear Modulus (GPa) = 32.18028 44.17463 38.17746
#
# Velocity S-wave (km/s) = 3.69957 4.33454 4.02958
# Velocity P-wave (km/s) = 6.68097 7.58108 7.14521
#
# Compressibility (1/GPa) = 0.01611888
#
# Stress axis : x y z
#
# Youngs Moduli (GPa) = 52.65402 63.50409 141.75343
#
# Poissons Ratio (x) = 0.59723 0.32938
# Poissons Ratio (y) = 0.49519 0.15722
# Poissons Ratio (z) = 0.12235 0.07043
#
# Static dielectric constant tensor:
#      x y z
#    x 1.973250 -0.033460 -0.000790 
#    y -0.033460 1.840270 0.029260 
#    z -0.000790 0.029260 1.910090 
# 
# From -- ./inp_files/130093.got.cif
#   From: 2010.05.17/outbox.cif.g08.bks.cpg/sg2_66_cif.got.tgz:130093.got - 2010.06.03 11:33:40.
