data_PCOD9022154
_publ_section_title
;
Structure prediction by ZEFSAII (Michael W. Deem and Ramdas Pophale) SiO2 
 PCOD9022154
Probable space group: P -1
;
_chemical_formula_sum "Si O2"
_cell_formula_units_Z 14
_cell_length_a 10.704230
_cell_length_b 4.952917
_cell_length_c 14.873035
_cell_angle_alpha 108.341174
_cell_angle_beta 70.964564
_cell_angle_gamma 132.616942
_cell_volume 543.529298
_symmetry_space_group_name_H-M "P -1"
_symmetry_group_IT_number 2
_symmetry_cell_setting 'triclinic'
loop_
_space_group_symop_operation_xyz
x,y,z
-x,-y,-z
loop_
_atom_site_type_symbol
_atom_site_label
_atom_site_fract_x
_atom_site_fract_y
_atom_site_fract_z
Si Si1 0.221431 0.536581 0.487533
Si Si2 0.806991 0.351477 0.819571
Si Si3 0.886941 0.097885 0.077054
Si Si4 0.993670 0.723318 0.644560
Si Si5 0.673055 0.796801 0.936828
Si Si6 0.561581 0.192993 0.374538
Si Si7 0.695185 0.745135 0.255467
O O1 0.100428 0.232185 0.407795
O O2 0.311310 0.500186 0.546060
O O3 0.106929 0.629988 0.565416
O O4 0.381235 0.893125 0.433593
O O5 0.851677 0.390283 0.708959
O O6 0.751116 0.599211 0.872966
O O7 0.987107 0.548026 0.851771
O O8 0.670661 0.970329 0.863822
O O9 0.739952 0.772125 0.143714
O O10 0.795803 0.118038 0.015917
O O11 0.000000 0.000000 0.000000
O O12 0.124709 0.069464 0.714925
O O13 0.500000 0.500000 0.000000
O O14 0.559969 0.372289 0.303260
O O15 0.638156 0.991532 0.309206
#
# Coordination Sequence:
#
# PCOD9022154 Si02
#       7
#     2   2   2   2   2   2   2
#     4   9  20  38  60  85 116 152 191 235 285 338
#     4  10  22  40  60  84 116 152 191 233 282 340
#     4   9  21  39  61  85 115 153 192 232 283 341
#     4   9  20  38  60  86 115 151 193 236 281 336
#     4  11  23  39  60  87 117 149 189 237 286 336
#     4  10  22  39  58  85 118 151 188 235 287 337
#     4  10  22  39  60  85 115 151 192 235 282 338
#
# _framework density 25.757583
#
# number of rings (size 3 to 8) (size 9 to 14) (size 15 to 20)
#    0.000    2.286    0.000    0.857    0.000   20.571 
#    0.000    5.714    0.000    0.000    0.000    0.000 
#    0.000    0.000    0.000    0.000    0.000    0.000 
#
# Total GULP energy -78341.713547 kJ/mol
# GULP energy per Si atom -5595.836682 kJ/mol
# Density = 2.569896 g / cm^3
# Si number density = 25.757583 Si / 1000 Ang^3
#
#
#
# Elastic Constant Matrix: (Units=GPa)
#
#
# Indices 1 2 3 4 5 6 
#
# 1 15.1318 14.8905 50.5618 28.0525 15.3044 -4.6549
# 2 14.8905 50.3038 27.7101 -19.2822 -2.7627 -6.8318
# 3 50.5618 27.7101 176.5163 -43.5587 0.7665 0.5953
# 4 28.0525 -19.2822 -43.5587 35.8434 -5.1181 7.8238
# 5 15.3044 -2.7627 0.7665 -5.1181 41.1974 -2.7046
# 6 -4.6549 -6.8318 0.5953 7.8238 -2.7046 42.6658
#
#
#
# Elastic Compliance Matrix: (Units=1/GPa)
#
#
# Indices 1 2 3 4 5 6 
#
# 1 -0.009383 0.006952 0.006742 0.020914 0.006198 -0.003447
# 2 0.006952 0.020599 -0.005898 -0.002683 -0.001126 0.004560
# 3 0.006742 -0.005898 0.003489 -0.004800 -0.003535 0.000399
# 4 0.020914 -0.002683 -0.004800 0.002997 -0.007428 0.000898
# 5 0.006198 -0.001126 -0.003535 -0.007428 0.021252 0.003255
# 6 -0.003447 0.004560 0.000399 0.000898 0.003255 0.023828
#
#
# Mechanical properties :
#
#
# Convention : Reuss Voigt Hill
#
# Bulk Modulus (GPa) = 33.00515 47.58629 40.29572
# Shear Modulus (GPa) = 87.27567 33.86064 60.56815
#
# Velocity S-wave (km/s) = 5.82727 3.62966 4.85446
# Velocity P-wave (km/s) = 7.62349 6.00672 6.86288
#
# Compressibility (1/GPa) = 0.03029831
#
# Stress axis : x y z
#
# Youngs Moduli (GPa) = -106.57954 48.54621 286.58458
#
# Poissons Ratio (x) = -0.33752 -1.93206
# Poissons Ratio (y) = 0.74099 1.69022
# Poissons Ratio (z) = 0.71853 0.28632
#
# Static dielectric constant tensor:
#      x y z
#    x 1.976580 0.067350 0.058580 
#    y 0.067350 2.124150 0.010360 
#    z 0.058580 0.010360 2.014450 
# 
# From -- ./inp_files/35003.got.cif
#   From: 2010.05.17/outbox.cif.g08.bks.cpg/sg2_18_cif.got.tgz:35003.got - 2010.06.03 11:33:40.
