data_PCOD9022022
_publ_section_title
;
Structure prediction by ZEFSAII (Michael W. Deem and Ramdas Pophale) SiO2 
 PCOD9022022
Probable space group: P -1
;
_chemical_formula_sum "Si O2"
_cell_formula_units_Z 16
_cell_length_a 5.300147
_cell_length_b 15.204341
_cell_length_c 24.270401
_cell_angle_alpha 159.669303
_cell_angle_beta 92.459173
_cell_angle_gamma 86.790037
_cell_volume 678.205998
_symmetry_space_group_name_H-M "P -1"
_symmetry_group_IT_number 2
_symmetry_cell_setting 'triclinic'
loop_
_space_group_symop_operation_xyz
x,y,z
-x,-y,-z
loop_
_atom_site_type_symbol
_atom_site_label
_atom_site_fract_x
_atom_site_fract_y
_atom_site_fract_z
Si Si1 0.577796 0.304535 0.967568
Si Si2 0.223896 0.718853 0.163388
Si Si3 0.977818 0.467869 0.575044
Si Si4 0.677173 0.569713 0.234864
Si Si5 0.931537 0.295661 0.170359
Si Si6 0.716777 0.031549 0.373075
Si Si7 0.680439 0.733485 0.636768
Si Si8 0.182229 0.727749 0.369984
O O1 0.750714 0.331365 0.930972
O O2 0.541750 0.006988 0.799367
O O3 0.318394 0.463710 0.045762
O O4 0.702786 0.422905 0.091794
O O5 0.450691 0.909025 0.289286
O O6 0.956014 0.844304 0.250785
O O7 0.106892 0.580097 0.696506
O O8 0.158262 0.301910 0.438456
O O9 0.762858 0.283818 0.486280
O O10 0.863055 0.691300 0.666491
O O11 0.708653 0.373113 0.170957
O O12 0.403566 0.707086 0.315954
O O13 0.901609 0.757957 0.359809
O O14 0.154885 0.448720 0.234121
O O15 0.000000 0.000000 0.000000
O O16 0.744340 0.103897 0.479272
O O17 0.500000 0.500000 0.500000
#
# Coordination Sequence:
#
# PCOD9022022 Si02
#       8
#     2   2   2   2   2   2   2   2
#     4  11  25  45  67 100 144 173 239 271 350 407
#     4  11  26  44  72 101 130 192 217 295 332 405
#     4  10  22  38  68  97 134 172 229 277 337 405
#     4  10  22  41  62  97 133 177 213 283 331 404
#     4   9  20  37  62  92 127 175 219 273 335 393
#     4  11  22  47  72 100 136 173 240 273 347 400
#     4  11  23  42  64 103 131 184 217 289 337 401
#     4   9  22  39  68  93 132 173 220 279 333 400
#
# _framework density 23.591653999999998
#
# number of rings (size 3 to 8) (size 9 to 14) (size 15 to 20)
#    0.750    1.000    1.250    2.250    0.000    6.500 
#    6.750    3.750    0.000    0.000    0.000    0.000 
#    0.000    0.000    0.000    0.000    0.000    0.000 
#
# Total GULP energy -89534.857497 kJ/mol
# GULP energy per Si atom -5595.928594 kJ/mol
# Density = 2.353796 g / cm^3
# Si number density = 23.591654 Si / 1000 Ang^3
#
#
#
# Elastic Constant Matrix: (Units=GPa)
#
#
# Indices 1 2 3 4 5 6 
#
# 1 81.6149 22.0908 16.7096 -10.6327 8.9102 0.8163
# 2 22.0908 132.1302 51.1702 -13.7445 5.7192 -13.7458
# 3 16.7096 51.1702 96.0825 -10.6406 8.0370 0.6622
# 4 -10.6327 -13.7445 -10.6406 51.7003 -12.2775 -1.3456
# 5 8.9102 5.7192 8.0370 -12.2775 29.3048 4.8277
# 6 0.8163 -13.7458 0.6622 -1.3456 4.8277 30.3820
#
#
#
# Elastic Compliance Matrix: (Units=1/GPa)
#
#
# Indices 1 2 3 4 5 6 
#
# 1 0.013405 -0.001613 -0.001078 0.001433 -0.002772 -0.000563
# 2 -0.001613 0.010532 -0.005172 0.001447 -0.000371 0.005044
# 3 -0.001078 -0.005172 0.013589 0.000736 -0.001702 -0.002304
# 4 0.001433 0.001447 0.000736 0.022156 0.008319 0.000259
# 5 -0.002772 -0.000371 -0.001702 0.008319 0.039987 -0.006042
# 6 -0.000563 0.005044 -0.002304 0.000259 -0.006042 0.036233
#
#
# Mechanical properties :
#
#
# Convention : Reuss Voigt Hill
#
# Bulk Modulus (GPa) = 45.86990 54.41877 50.14434
# Shear Modulus (GPa) = 31.46723 36.93456 34.20089
#
# Velocity S-wave (km/s) = 3.65612 3.96103 3.81163
# Velocity P-wave (km/s) = 6.10807 6.63602 6.37751
#
# Compressibility (1/GPa) = 0.02180079
#
# Stress axis : x y z
#
# Youngs Moduli (GPa) = 74.59922 94.94539 73.58704
#
# Poissons Ratio (x) = 0.15318 0.07929
# Poissons Ratio (y) = 0.12035 0.38060
# Poissons Ratio (z) = 0.08039 0.49106
#
# Static dielectric constant tensor:
#      x y z
#    x 1.900540 -0.035510 0.002290 
#    y -0.035510 1.908840 0.049140 
#    z 0.002290 0.049140 1.890010 
# 
# From -- ./inp_files/604791.got.cif
#   From: 2010.05.17/outbox.cif.g08.bks.cpg/sg2_303_cif.got.tgz:604791.got - 2010.06.03 11:33:40.
