data_PCOD9022188
_publ_section_title
;
Structure prediction by ZEFSAII (Michael W. Deem and Ramdas Pophale) SiO2 
 PCOD9022188
Probable space group: P -1
;
_chemical_formula_sum "Si O2"
_cell_formula_units_Z 16
_cell_length_a 8.515150
_cell_length_b 14.105419
_cell_length_c 6.415930
_cell_angle_alpha 103.828600
_cell_angle_beta 84.444052
_cell_angle_gamma 105.160775
_cell_volume 721.752223
_symmetry_space_group_name_H-M "P -1"
_symmetry_group_IT_number 2
_symmetry_cell_setting 'triclinic'
loop_
_space_group_symop_operation_xyz
x,y,z
-x,-y,-z
loop_
_atom_site_type_symbol
_atom_site_label
_atom_site_fract_x
_atom_site_fract_y
_atom_site_fract_z
Si Si1 0.340351 0.511402 0.400997
Si Si2 0.814583 0.355135 0.197116
Si Si3 0.602493 0.985608 0.178020
Si Si4 0.990257 0.273902 0.807525
Si Si5 0.098377 0.305938 0.372819
Si Si6 0.550728 0.322488 0.856220
Si Si7 0.335937 0.843171 0.431838
Si Si8 0.778067 0.814090 0.001116
O O1 0.500000 0.500000 0.500000
O O2 0.236807 0.565734 0.600294
O O3 0.218112 0.404517 0.312563
O O4 0.398388 0.569855 0.207006
O O5 0.913758 0.297019 0.310039
O O6 0.655348 0.314770 0.049280
O O7 0.944328 0.363228 0.993111
O O8 0.467970 0.918921 0.313143
O O9 0.730783 0.919431 0.080237
O O10 0.678581 0.093234 0.329193
O O11 0.500000 0.000000 0.000000
O O12 0.101542 0.319989 0.625450
O O13 0.070469 0.202044 0.895951
O O14 0.831115 0.199657 0.689788
O O15 0.173679 0.213709 0.250478
O O16 0.588911 0.253492 0.623351
O O17 0.370395 0.272076 0.929914
#
# Coordination Sequence:
#
# PCOD9022188 Si02
#       8
#     2   2   2   2   2   2   2   2
#     4  12  25  38  61  93 122 163 210 249 299 358
#     4  10  22  39  59  84 116 160 204 245 302 352
#     4  10  22  40  65  92 119 154 201 251 299 365
#     4  10  22  41  62  86 126 162 197 251 298 358
#     4  11  24  40  61  91 124 164 208 248 298 358
#     4  10  22  41  62  87 125 160 201 258 299 357
#     4   9  21  40  63  89 117 158 199 243 311 360
#     4  10  23  40  61  91 123 161 202 248 309 357
#
# _framework density 22.168272000000002
#
# number of rings (size 3 to 8) (size 9 to 14) (size 15 to 20)
#    0.000    1.750    0.000    3.375    0.000   16.500 
#    0.000    1.250    0.000    0.000    0.000    0.000 
#    0.000    0.000    0.000    0.000    0.000    0.000 
#
# Total GULP energy -89140.781063 kJ/mol
# GULP energy per Si atom -5571.298816 kJ/mol
# Density = 2.211782 g / cm^3
# Si number density = 22.168272 Si / 1000 Ang^3
#
#
#
# Elastic Constant Matrix: (Units=GPa)
#
#
# Indices 1 2 3 4 5 6 
#
# 1 91.3306 7.9872 22.2143 20.7726 -6.4293 -19.6378
# 2 7.9872 46.1296 3.9058 16.8371 -3.3138 -8.2889
# 3 22.2143 3.9058 94.2433 25.4930 -21.7865 -25.0562
# 4 20.7726 16.8371 25.4930 26.1452 -9.7644 -1.7625
# 5 -6.4293 -3.3138 -21.7865 -9.7644 36.2757 11.6875
# 6 -19.6378 -8.2889 -25.0562 -1.7625 11.6875 29.0339
#
#
#
# Elastic Compliance Matrix: (Units=1/GPa)
#
#
# Indices 1 2 3 4 5 6 
#
# 1 0.020522 0.012303 0.009140 -0.034127 -0.007369 0.026175
# 2 0.012303 0.045560 0.018887 -0.058869 -0.010493 0.038278
# 3 0.009140 0.018887 0.028718 -0.046223 -0.003055 0.034782
# 4 -0.034127 -0.058869 -0.046223 0.153472 0.028525 -0.081946
# 5 -0.007369 -0.010493 -0.003055 0.028525 0.039076 -0.024615
# 6 0.026175 0.038278 0.034782 -0.081946 -0.024615 0.098026
#
#
# Mechanical properties :
#
#
# Convention : Reuss Voigt Hill
#
# Bulk Modulus (GPa) = 5.69928 33.32422 19.51175
# Shear Modulus (GPa) = 13.76655 31.46406 22.61530
#
# Velocity S-wave (km/s) = 2.49470 3.77148 3.19747
# Velocity P-wave (km/s) = 3.29765 5.83357 4.73841
#
# Compressibility (1/GPa) = 0.17546075
#
# Stress axis : x y z
#
# Youngs Moduli (GPa) = 48.72919 21.94902 34.82124
#
# Poissons Ratio (x) = -0.27004 -0.31826
# Poissons Ratio (y) = -0.59952 -0.65768
# Poissons Ratio (z) = -0.44538 -0.41456
#
# Static dielectric constant tensor:
#      x y z
#    x 1.820020 -0.000970 -0.020750 
#    y -0.000970 1.832010 -0.002980 
#    z -0.020750 -0.002980 1.869070 
# 
# From -- ./inp_files/39753.got.cif
#   From: 2010.05.17/outbox.cif.g08.bks.cpg/sg2_20_cif.got.tgz:39753.got - 2010.06.03 11:33:40.
