data_PCOD9022255
_publ_section_title
;
Structure prediction by ZEFSAII (Michael W. Deem and Ramdas Pophale) SiO2 
 PCOD9022255
Probable space group: P -1
;
_chemical_formula_sum "Si O2"
_cell_formula_units_Z 16
_cell_length_a 8.334740
_cell_length_b 7.026881
_cell_length_c 17.292570
_cell_angle_alpha 131.830305
_cell_angle_beta 76.582719
_cell_angle_gamma 104.926888
_cell_volume 726.621527
_symmetry_space_group_name_H-M "P -1"
_symmetry_group_IT_number 2
_symmetry_cell_setting 'triclinic'
loop_
_space_group_symop_operation_xyz
x,y,z
-x,-y,-z
loop_
_atom_site_type_symbol
_atom_site_label
_atom_site_fract_x
_atom_site_fract_y
_atom_site_fract_z
Si Si1 0.372961 0.200162 0.089190
Si Si2 0.330501 0.323303 0.632254
Si Si3 0.941509 0.006076 0.316444
Si Si4 0.152906 0.062619 0.441848
Si Si5 0.141106 0.826541 0.105811
Si Si6 0.194240 0.276938 0.972648
Si Si7 0.670785 0.113708 0.264396
Si Si8 0.580789 0.240636 0.703593
O O1 0.447020 0.492164 0.180686
O O2 0.266290 0.080217 0.141524
O O3 0.249501 0.215415 0.035085
O O4 0.500000 0.000000 0.000000
O O5 0.182664 0.191386 0.669925
O O6 0.291476 0.231956 0.523998
O O7 0.494955 0.242349 0.630031
O O8 0.344541 0.630621 0.711657
O O9 0.824330 0.163428 0.321480
O O10 0.040458 0.854196 0.203026
O O11 0.075561 0.165894 0.401233
O O12 0.229761 0.806431 0.339476
O O13 0.000000 0.000000 0.500000
O O14 0.002477 0.781278 0.041092
O O15 0.237806 0.581281 0.033896
O O16 0.284530 0.106590 0.857722
O O17 0.510104 0.994243 0.298520
#
# Coordination Sequence:
#
# PCOD9022255 Si02
#       8
#     2   2   2   2   2   2   2   2
#     4  12  25  39  63  94 126 165 203 245 303 365
#     4  10  22  42  64  86 121 163 201 249 312 362
#     4   9  21  40  62  92 121 154 207 258 303 360
#     4  10  22  41  65  90 121 159 204 259 305 355
#     4  10  22  40  62  89 124 163 201 251 305 359
#     4  10  22  39  60  88 124 160 205 251 298 360
#     4  10  22  40  63  89 123 163 202 250 303 363
#     4  11  24  41  61  91 127 162 204 250 300 363
#
# _framework density 22.019718000000001
#
# number of rings (size 3 to 8) (size 9 to 14) (size 15 to 20)
#    0.000    1.750    0.000    3.000    0.000   16.000 
#    0.000    2.500    0.000    0.000    0.000    0.000 
#    0.000    0.000    0.000    0.000    0.000    0.000 
#
# Total GULP energy -89405.885344 kJ/mol
# GULP energy per Si atom -5587.867834 kJ/mol
# Density = 2.196960 g / cm^3
# Si number density = 22.019718 Si / 1000 Ang^3
#
#
#
# Elastic Constant Matrix: (Units=GPa)
#
#
# Indices 1 2 3 4 5 6 
#
# 1 60.9989 23.5737 18.0724 -5.0565 -7.1671 -14.5683
# 2 23.5737 81.9941 1.4438 0.1174 -6.4351 -14.5692
# 3 18.0724 1.4438 52.3588 -11.1059 -7.1269 -11.2113
# 4 -5.0565 0.1174 -11.1059 19.1582 -14.8509 5.5454
# 5 -7.1671 -6.4351 -7.1269 -14.8509 32.5030 1.7836
# 6 -14.5683 -14.5692 -11.2113 5.5454 1.7836 18.6645
#
#
#
# Elastic Compliance Matrix: (Units=1/GPa)
#
#
# Indices 1 2 3 4 5 6 
#
# 1 0.022543 -0.004239 -0.003891 0.004469 0.004763 0.010167
# 2 -0.004239 0.015438 0.003415 -0.000976 0.001826 0.010908
# 3 -0.003891 0.003415 0.031146 0.030545 0.020201 0.007332
# 4 0.004469 -0.000976 0.030545 0.131746 0.069039 -0.024667
# 5 0.004763 0.001826 0.020201 0.069039 0.068690 -0.009799
# 6 0.010167 0.010908 0.007332 -0.024667 -0.009799 0.082697
#
#
# Mechanical properties :
#
#
# Convention : Reuss Voigt Hill
#
# Bulk Modulus (GPa) = 16.75140 31.28127 24.01633
# Shear Modulus (GPa) = 13.10311 24.21594 18.65953
#
# Velocity S-wave (km/s) = 2.44204 3.31983 2.91417
# Velocity P-wave (km/s) = 3.94656 5.37884 4.71737
#
# Compressibility (1/GPa) = 0.05969652
#
# Stress axis : x y z
#
# Youngs Moduli (GPa) = 44.36014 64.77730 32.10647
#
# Poissons Ratio (x) = 0.27458 0.12492
# Poissons Ratio (y) = 0.18803 -0.10963
# Poissons Ratio (z) = 0.17260 -0.22119
#
# Static dielectric constant tensor:
#      x y z
#    x 1.848580 -0.013690 0.031200 
#    y -0.013690 1.762440 -0.000040 
#    z 0.031200 -0.000040 1.823590 
# 
# From -- ./inp_files/279181.got.cif
#   From: 2010.05.17/outbox.cif.g08.bks.cpg/sg2_140_cif.got.tgz:279181.got - 2010.06.03 11:33:40.
