data_PCOD9022560
_publ_section_title
;
Structure prediction by ZEFSAII (Michael W. Deem and Ramdas Pophale) SiO2 
 PCOD9022560
Probable space group: P -1
;
_chemical_formula_sum "Si O2"
_cell_formula_units_Z 16
_cell_length_a 12.342139
_cell_length_b 6.436967
_cell_length_c 11.622020
_cell_angle_alpha 62.946785
_cell_angle_beta 108.560209
_cell_angle_gamma 95.879877
_cell_volume 778.548407
_symmetry_space_group_name_H-M "P -1"
_symmetry_group_IT_number 2
_symmetry_cell_setting 'triclinic'
loop_
_space_group_symop_operation_xyz
x,y,z
-x,-y,-z
loop_
_atom_site_type_symbol
_atom_site_label
_atom_site_fract_x
_atom_site_fract_y
_atom_site_fract_z
Si Si1 0.234062 0.291184 0.558005
Si Si2 0.008388 0.222681 0.099567
Si Si3 0.191555 0.037128 0.031357
Si Si4 0.555346 0.464839 0.404364
Si Si5 0.010968 0.230885 0.370687
Si Si6 0.606051 0.168497 0.302941
Si Si7 0.457782 0.931644 0.130966
Si Si8 0.788340 0.560083 0.238775
O O1 0.311342 0.512606 0.528522
O O2 0.126563 0.334027 0.430128
O O3 0.209375 0.272270 0.690709
O O4 0.308663 0.060850 0.603020
O O5 0.120703 0.099055 0.108045
O O6 0.013444 0.186544 0.246973
O O7 0.000000 0.500000 0.000000
O O8 0.895774 0.112031 0.035269
O O9 0.321034 0.926497 0.104288
O O10 0.209102 0.281343 0.911839
O O11 0.500000 0.500000 0.500000
O O12 0.543685 0.233461 0.385190
O O13 0.512551 0.681543 0.254232
O O14 0.903077 0.399795 0.320426
O O15 0.000000 0.000000 0.500000
O O16 0.683000 0.388644 0.245433
O O17 0.513337 0.117049 0.188181
O O18 0.500000 0.000000 0.000000
#
# Coordination Sequence:
#
# PCOD9022560 Si02
#       8
#     2   2   2   2   2   2   2   2
#     4  10  22  39  62  97 130 166 221 274 330 400
#     4  11  26  46  64  96 139 179 218 273 339 395
#     4  11  25  44  67  95 140 176 223 277 330 402
#     4  10  24  43  63  95 132 171 217 279 335 399
#     4  12  23  40  69  98 126 178 222 273 336 397
#     4  10  22  42  65  98 134 169 221 277 340 390
#     4  11  25  42  69 100 131 176 230 275 331 402
#     4  11  22  41  67  97 136 171 218 284 328 396
#
# _framework density 20.551065000000001
#
# number of rings (size 3 to 8) (size 9 to 14) (size 15 to 20)
#    0.000    1.250    2.500    3.375    1.750    8.000 
#    0.000    0.000    0.000    0.000    0.000    0.000 
#    0.000    0.000    0.000    0.000    0.000    0.000 
#
# Total GULP energy -89354.696560 kJ/mol
# GULP energy per Si atom -5584.668535 kJ/mol
# Density = 2.050429 g / cm^3
# Si number density = 20.551065 Si / 1000 Ang^3
#
#
#
# Elastic Constant Matrix: (Units=GPa)
#
#
# Indices 1 2 3 4 5 6 
#
# 1 123.1094 38.0924 43.4276 32.6051 15.6163 -11.7953
# 2 38.0924 99.0286 37.2912 30.8171 -4.3725 -13.0186
# 3 43.4276 37.2912 86.3909 26.7967 -6.6829 -11.8831
# 4 32.6051 30.8171 26.7967 33.3907 -2.8051 -2.1611
# 5 15.6163 -4.3725 -6.6829 -2.8051 42.1986 8.8590
# 6 -11.7953 -13.0186 -11.8831 -2.1611 8.8590 39.4569
#
#
#
# Elastic Compliance Matrix: (Units=1/GPa)
#
#
# Indices 1 2 3 4 5 6 
#
# 1 0.013468 -0.000502 -0.003363 -0.010332 -0.007068 0.003869
# 2 -0.000502 0.015180 -0.002253 -0.011490 -0.000112 0.003576
# 3 -0.003363 -0.002253 0.017304 -0.008140 0.002705 0.002409
# 4 -0.010332 -0.011490 -0.008140 0.057243 0.006769 -0.007716
# 5 -0.007068 -0.000112 0.002705 0.006769 0.028737 -0.007417
# 6 0.003869 0.003576 0.002409 -0.007716 -0.007417 0.029649
#
#
# Mechanical properties :
#
#
# Convention : Reuss Voigt Hill
#
# Bulk Modulus (GPa) = 29.66043 60.68349 45.17196
# Shear Modulus (GPa) = 27.01860 35.65710 31.33785
#
# Velocity S-wave (km/s) = 3.62982 4.16991 3.90920
# Velocity P-wave (km/s) = 5.65962 7.26474 6.51183
#
# Compressibility (1/GPa) = 0.03371496
#
# Stress axis : x y z
#
# Youngs Moduli (GPa) = 74.24811 65.87414 57.78978
#
# Poissons Ratio (x) = 0.03310 0.19437
# Poissons Ratio (y) = 0.03731 0.13021
# Poissons Ratio (z) = 0.24972 0.14843
#
# Static dielectric constant tensor:
#      x y z
#    x 1.750090 0.003000 -0.059350 
#    y 0.003000 1.748040 0.003830 
#    z -0.059350 0.003830 1.761430 
# 
# From -- ./inp_files/410110.got.cif
#   From: 2010.05.17/outbox.cif.g08.bks.cpg/sg2_206_cif.got.tgz:410110.got - 2010.06.03 11:33:40.
