data_PCOD9022389
_publ_section_title
;
Structure prediction by ZEFSAII (Michael W. Deem and Ramdas Pophale) SiO2 
 PCOD9022389
Probable space group: P -1
;
_chemical_formula_sum "Si O2"
_cell_formula_units_Z 10
_cell_length_a 12.837081
_cell_length_b 5.183905
_cell_length_c 14.423633
_cell_angle_alpha 125.766873
_cell_angle_beta 141.636469
_cell_angle_gamma 58.934967
_cell_volume 480.184840
_symmetry_space_group_name_H-M "P -1"
_symmetry_group_IT_number 2
_symmetry_cell_setting 'triclinic'
loop_
_space_group_symop_operation_xyz
x,y,z
-x,-y,-z
loop_
_atom_site_type_symbol
_atom_site_label
_atom_site_fract_x
_atom_site_fract_y
_atom_site_fract_z
Si Si1 0.847666 0.778566 0.937752
Si Si2 0.351245 0.971499 0.518303
Si Si3 0.499383 0.592402 0.705852
Si Si4 0.117995 0.197063 0.250250
Si Si5 0.155795 0.866807 0.519352
O O1 0.682217 0.707366 0.863246
O O2 0.822527 0.796679 0.813166
O O3 0.000000 0.500000 0.000000
O O4 0.930934 0.090255 0.094624
O O5 0.478494 0.232977 0.644430
O O6 0.248000 0.947092 0.346829
O O7 0.443379 0.672136 0.576260
O O8 0.204332 0.092438 0.516122
O O9 0.336638 0.794720 0.683303
O O10 0.120656 0.536206 0.374387
O O11 0.000000 0.000000 0.500000
#
# Coordination Sequence:
#
# PCOD9022389 Si02
#       5
#     2   2   2   2   2
#     4  11  24  38  59  90 134 164 193 248 308 372
#     4   9  20  40  60  90 119 156 208 252 295 355
#     4   9  22  38  62  90 123 157 209 246 303 362
#     4  10  22  39  61  92 124 164 203 246 307 363
#     4   9  20  41  66  90 117 156 209 260 299 352
#
# _framework density 20.825312
#
# number of rings (size 3 to 8) (size 9 to 14) (size 15 to 20)
#    1.200    1.200    0.000    1.200    5.600    7.200 
#    0.000    1.000    0.000    6.000    0.000    0.000 
#    0.000    0.000    0.000    0.000    0.000    0.000 
#
# Total GULP energy -55680.550983 kJ/mol
# GULP energy per Si atom -5568.055098 kJ/mol
# Density = 2.077791 g / cm^3
# Si number density = 20.825312 Si / 1000 Ang^3
#
#
#
# Elastic Constant Matrix: (Units=GPa)
#
#
# Indices 1 2 3 4 5 6 
#
# 1 133.5955 37.9293 56.9820 8.8405 53.4511 -1.6031
# 2 37.9293 69.2321 28.2990 1.2716 6.2936 18.0134
# 3 56.9820 28.2990 107.9597 18.5288 45.1972 -1.8756
# 4 8.8405 1.2716 18.5288 36.6107 14.8029 6.6021
# 5 53.4511 6.2936 45.1972 14.8029 44.5960 -9.8884
# 6 -1.6031 18.0134 -1.8756 6.6021 -9.8884 39.1533
#
#
#
# Elastic Compliance Matrix: (Units=1/GPa)
#
#
# Indices 1 2 3 4 5 6 
#
# 1 0.019089 -0.008242 0.002104 0.005847 -0.026453 -0.002993
# 2 -0.008242 0.022945 -0.006671 0.001751 0.010877 -0.008762
# 3 0.002104 -0.006671 0.018530 -0.001396 -0.020072 -0.000791
# 4 0.005847 0.001751 -0.001396 0.037189 -0.020886 -0.012179
# 5 -0.026453 0.010877 -0.020072 -0.020886 0.083779 0.017632
# 6 -0.002993 -0.008762 -0.000791 -0.012179 0.017632 0.035918
#
#
# Mechanical properties :
#
#
# Convention : Reuss Voigt Hill
#
# Bulk Modulus (GPa) = 28.61535 61.91200 45.26368
# Shear Modulus (GPa) = 19.62977 36.57713 28.10345
#
# Velocity S-wave (km/s) = 3.07350 4.19546 3.67752
# Velocity P-wave (km/s) = 5.13475 7.29815 6.30986
#
# Compressibility (1/GPa) = 0.03494628
#
# Stress axis : x y z
#
# Youngs Moduli (GPa) = 52.38720 43.58243 53.96749
#
# Poissons Ratio (x) = 0.35921 -0.11356
# Poissons Ratio (y) = 0.43178 0.36000
# Poissons Ratio (z) = -0.11023 0.29073
#
# Static dielectric constant tensor:
#      x y z
#    x 1.780500 0.000380 0.039070 
#    y 0.000380 1.853570 -0.014870 
#    z 0.039070 -0.014870 1.786190 
# 
# From -- ./inp_files/18102.got.cif
#   From: 2010.05.17/outbox.cif.g08.bks.cpg/sg2_10_cif.got.tgz:18102.got - 2010.06.03 11:33:40.
