data_PCOD9022217
_publ_section_title
;
Structure prediction by ZEFSAII (Michael W. Deem and Ramdas Pophale) SiO2 
 PCOD9022217
Probable space group: P -1
;
_chemical_formula_sum "Si O2"
_cell_formula_units_Z 12
_cell_length_a 20.905175
_cell_length_b 4.995925
_cell_length_c 16.643471
_cell_angle_alpha 63.667249
_cell_angle_beta 18.640115
_cell_angle_gamma 68.468896
_cell_volume 489.236258
_symmetry_space_group_name_H-M "P -1"
_symmetry_group_IT_number 2
_symmetry_cell_setting 'triclinic'
loop_
_space_group_symop_operation_xyz
x,y,z
-x,-y,-z
loop_
_atom_site_type_symbol
_atom_site_label
_atom_site_fract_x
_atom_site_fract_y
_atom_site_fract_z
Si Si1 0.990692 0.846121 0.945245
Si Si2 0.880983 0.711125 0.514384
Si Si3 0.827152 0.239356 0.416426
Si Si4 0.178361 0.697681 0.009724
Si Si5 0.741985 0.121117 0.844860
Si Si6 0.539800 0.440599 0.179042
O O1 0.167035 0.900590 0.660160
O O2 0.816595 0.993018 0.087111
O O3 0.000000 0.500000 0.000000
O O4 0.000000 0.000000 0.000000
O O5 0.030168 0.692807 0.264039
O O6 0.753122 0.382062 0.730132
O O7 0.031557 0.828692 0.392984
O O8 0.056649 0.418133 0.139447
O O9 0.682900 0.482627 0.561026
O O10 0.762884 0.973519 0.593076
O O11 0.385925 0.645509 0.809890
O O12 0.596164 0.206186 0.078052
O O13 0.673689 0.770689 0.951419
#
# Coordination Sequence:
#
# PCOD9022217 Si02
#       6
#     2   2   2   2   2   2
#     4  11  23  43  70  93 118 159 201 251 318 380
#     4   9  21  37  63  88 127 174 208 251 302 347
#     4  11  23  41  67  91 125 162 206 254 312 365
#     4  10  22  43  65  90 127 162 202 257 309 363
#     4  10  22  39  59  91 130 168 214 250 291 359
#     4  11  25  39  62  94 127 165 207 252 303 356
#
# _framework density 24.528027000000002
#
# number of rings (size 3 to 8) (size 9 to 14) (size 15 to 20)
#    0.000    1.667    3.333    0.000    7.000    3.333 
#    0.000    1.667    0.000    0.000    0.000    0.000 
#    0.000    0.000    0.000    0.000    0.000    0.000 
#
# Total GULP energy -67092.581977 kJ/mol
# GULP energy per Si atom -5591.048498 kJ/mol
# Density = 2.447220 g / cm^3
# Si number density = 24.528027 Si / 1000 Ang^3
#
#
#
# Elastic Constant Matrix: (Units=GPa)
#
#
# Indices 1 2 3 4 5 6 
#
# 1 85.2700 57.6403 26.5470 8.2600 14.1791 -18.3592
# 2 57.6403 175.0287 18.9426 -4.8674 3.0152 -35.0635
# 3 26.5470 18.9426 33.9569 10.7077 7.7676 -7.1595
# 4 8.2600 -4.8674 10.7077 42.7257 -1.6317 5.5978
# 5 14.1791 3.0152 7.7676 -1.6317 23.8106 3.5545
# 6 -18.3592 -35.0635 -7.1595 5.5978 3.5545 63.4639
#
#
#
# Elastic Compliance Matrix: (Units=1/GPa)
#
#
# Indices 1 2 3 4 5 6 
#
# 1 0.020564 -0.005086 -0.009680 -0.002842 -0.009058 0.002805
# 2 -0.005086 0.008031 -0.001045 0.001905 0.002100 0.002563
# 3 -0.009680 -0.001045 0.043487 -0.009889 -0.009404 0.002927
# 4 -0.002842 0.001905 -0.009889 0.027406 0.007108 -0.003701
# 5 -0.009058 0.002100 -0.009404 0.007108 0.051582 -0.006037
# 6 0.002805 0.002563 0.002927 -0.003701 -0.006037 0.018979
#
#
# Mechanical properties :
#
#
# Convention : Reuss Voigt Hill
#
# Bulk Modulus (GPa) = 24.71563 55.61284 40.16423
# Shear Modulus (GPa) = 23.23869 38.74176 30.99022
#
# Velocity S-wave (km/s) = 3.08138 3.97859 3.55838
# Velocity P-wave (km/s) = 4.77056 6.62027 5.77002
#
# Compressibility (1/GPa) = 0.04046023
#
# Stress axis : x y z
#
# Youngs Moduli (GPa) = 48.62760 124.51123 22.99562
#
# Poissons Ratio (x) = 0.63322 0.22261
# Poissons Ratio (y) = 0.24730 0.02403
# Poissons Ratio (z) = 0.47073 0.13012
#
# Static dielectric constant tensor:
#      x y z
#    x 1.982300 -0.037140 -0.010490 
#    y -0.037140 1.923430 0.041210 
#    z -0.010490 0.041210 1.896020 
# 
# From -- ./inp_files/31569.got.cif
#   From: 2010.05.17/outbox.cif.g08.bks.cpg/sg2_16_cif.got.tgz:31569.got - 2010.06.03 11:33:40.
