data_PCOD9022120
_publ_section_title
;
Structure prediction by ZEFSAII (Michael W. Deem and Ramdas Pophale) SiO2 
 PCOD9022120
Probable space group: P -1
;
_chemical_formula_sum "Si O2"
_cell_formula_units_Z 16
_cell_length_a 9.230957
_cell_length_b 8.847008
_cell_length_c 22.456554
_cell_angle_alpha 150.089730
_cell_angle_beta 60.895390
_cell_angle_gamma 116.792276
_cell_volume 797.226066
_symmetry_space_group_name_H-M "P -1"
_symmetry_group_IT_number 2
_symmetry_cell_setting 'triclinic'
loop_
_space_group_symop_operation_xyz
x,y,z
-x,-y,-z
loop_
_atom_site_type_symbol
_atom_site_label
_atom_site_fract_x
_atom_site_fract_y
_atom_site_fract_z
Si Si1 0.404568 0.879924 0.763450
Si Si2 0.571808 0.328154 0.124029
Si Si3 0.555396 0.354442 0.623130
Si Si4 0.195860 0.015542 0.966962
Si Si5 0.683461 0.364763 0.422140
Si Si6 0.093306 0.018703 0.424648
Si Si7 0.628139 0.345894 0.811776
Si Si8 0.137039 0.754775 0.538489
O O1 0.473498 0.560954 0.660497
O O2 0.308395 0.839851 0.707300
O O3 0.283272 0.961465 0.868030
O O4 0.561913 0.117580 0.799242
O O5 0.486748 0.487078 0.252038
O O6 0.535811 0.555119 0.155734
O O7 0.745953 0.238466 0.085155
O O8 0.500000 0.000000 0.000000
O O9 0.751866 0.375846 0.580372
O O10 0.500000 0.000000 0.500000
O O11 0.272460 0.348196 0.082961
O O12 0.000000 0.000000 0.000000
O O13 0.500000 0.500000 0.500000
O O14 0.815828 0.647957 0.485166
O O15 0.736148 0.193474 0.413408
O O16 0.960426 0.982151 0.384012
O O17 0.244851 0.808091 0.310624
O O18 0.000000 0.000000 0.500000
O O19 0.000000 0.500000 0.500000
#
# Coordination Sequence:
#
# PCOD9022120 Si02
#       8
#     2   2   2   2   2   2   2   2
#     4  11  23  41  66  92 127 173 217 260 321 396
#     4   9  22  43  65  90 126 172 216 261 320 400
#     4  11  23  37  66  97 127 171 221 264 320 387
#     4  10  24  45  67  95 125 162 215 277 326 376
#     4  11  21  40  60  89 130 168 212 257 316 393
#     4  11  24  36  61  97 131 166 208 264 326 370
#     4  11  22  43  68  89 128 173 219 254 322 401
#     4  10  22  39  55  92 134 166 202 266 325 373
#
# _framework density 20.069589000000001
#
# number of rings (size 3 to 8) (size 9 to 14) (size 15 to 20)
#    0.000    1.500    2.500    1.875    7.000    1.000 
#    2.250    0.625    0.000    0.000    0.000    0.000 
#    0.000    0.000    0.000    0.000    0.000    0.000 
#
# Total GULP energy -89147.665401 kJ/mol
# GULP energy per Si atom -5571.729088 kJ/mol
# Density = 2.002391 g / cm^3
# Si number density = 20.069589 Si / 1000 Ang^3
#
#
#
# Elastic Constant Matrix: (Units=GPa)
#
#
# Indices 1 2 3 4 5 6 
#
# 1 129.7385 55.6001 38.0701 3.6328 -13.5327 -7.4864
# 2 55.6001 107.7354 48.9383 4.5219 -13.4229 -0.8174
# 3 38.0701 48.9383 105.2606 5.8640 -7.1792 4.0601
# 4 3.6328 4.5219 5.8640 20.4719 -0.5650 -10.7353
# 5 -13.5327 -13.4229 -7.1792 -0.5650 32.9819 -4.2004
# 6 -7.4864 -0.8174 4.0601 -10.7353 -4.2004 35.4758
#
#
#
# Elastic Compliance Matrix: (Units=1/GPa)
#
#
# Indices 1 2 3 4 5 6 
#
# 1 0.010487 -0.004304 -0.001803 0.001251 0.002563 0.003002
# 2 -0.004304 0.014052 -0.004730 -0.000888 0.002913 0.000033
# 3 -0.001803 -0.004730 0.012667 -0.003940 -0.000379 -0.003176
# 4 0.001251 -0.000888 -0.003940 0.060100 0.002770 0.019209
# 5 0.002563 0.002913 -0.000379 0.002770 0.033212 0.005422
# 6 0.003002 0.000033 -0.003176 0.019209 0.005422 0.035641
#
#
# Mechanical properties :
#
#
# Convention : Reuss Voigt Hill
#
# Bulk Modulus (GPa) = 64.37530 69.77238 67.07384
# Shear Modulus (GPa) = 25.90568 31.12765 28.51667
#
# Velocity S-wave (km/s) = 3.59666 3.94253 3.77356
# Velocity P-wave (km/s) = 7.02806 7.45422 7.24427
#
# Compressibility (1/GPa) = 0.01553391
#
# Stress axis : x y z
#
# Youngs Moduli (GPa) = 95.36011 71.16521 78.94334
#
# Poissons Ratio (x) = 0.30626 0.14231
# Poissons Ratio (y) = 0.41038 0.37338
# Poissons Ratio (z) = 0.17190 0.33659
#
# Static dielectric constant tensor:
#      x y z
#    x 1.743850 -0.029680 -0.031960 
#    y -0.029680 1.726510 -0.011620 
#    z -0.031960 -0.011620 1.777250 
# 
# From -- ./inp_files/274086.got.cif
#   From: 2010.05.17/outbox.cif.g08.bks.cpg/sg2_138_cif.got.tgz:274086.got - 2010.06.03 11:33:40.
