data_PCOD9022279
_publ_section_title
;
Structure prediction by ZEFSAII (Michael W. Deem and Ramdas Pophale) SiO2 
 PCOD9022279
Probable space group: P -1
;
_chemical_formula_sum "Si O2"
_cell_formula_units_Z 12
_cell_length_a 7.017087
_cell_length_b 12.293683
_cell_length_c 9.332059
_cell_angle_alpha 40.296480
_cell_angle_beta 106.797207
_cell_angle_gamma 93.885584
_cell_volume 483.052297
_symmetry_space_group_name_H-M "P -1"
_symmetry_group_IT_number 2
_symmetry_cell_setting 'triclinic'
loop_
_space_group_symop_operation_xyz
x,y,z
-x,-y,-z
loop_
_atom_site_type_symbol
_atom_site_label
_atom_site_fract_x
_atom_site_fract_y
_atom_site_fract_z
Si Si1 0.868696 0.785935 0.943343
Si Si2 0.269586 0.891186 0.853493
Si Si3 0.617904 0.789152 0.600106
Si Si4 0.320268 0.671030 0.812711
Si Si5 0.194001 0.071671 0.922459
Si Si6 0.077808 0.394070 0.356535
O O1 0.728396 0.768690 0.797396
O O2 0.738394 0.864942 0.974962
O O3 0.002769 0.589451 0.202239
O O4 0.028323 0.895971 0.816855
O O5 0.319235 0.050280 0.620110
O O6 0.330728 0.919938 0.003455
O O7 0.123258 0.245062 0.636716
O O8 0.335280 0.735090 0.913031
O O9 0.383608 0.801061 0.578792
O O10 0.719786 0.634165 0.669955
O O11 0.100810 0.642353 0.749797
O O12 0.500000 0.500000 0.000000
O O13 0.000000 0.000000 0.000000
#
# Coordination Sequence:
#
# PCOD9022279 Si02
#       6
#     2   2   2   2   2   2
#     4  11  19  38  65  90 120 163 199 244 308 359
#     4  10  22  39  60  90 124 157 204 252 295 360
#     4  11  22  38  65  93 120 158 206 256 300 353
#     4  12  23  38  63  96 121 155 207 253 306 354
#     4   9  22  38  65  88 120 168 202 241 307 364
#     4  11  22  40  66  90 124 161 198 257 301 358
#
# _framework density 24.842030000000001
#
# number of rings (size 3 to 8) (size 9 to 14) (size 15 to 20)
#    0.000    1.333    3.333    3.000    4.667    0.000 
#    0.000    0.833   11.000    9.000    0.000    0.000 
#    0.000    0.000    0.000    0.000    0.000    0.000 
#
# Total GULP energy -67106.891407 kJ/mol
# GULP energy per Si atom -5592.240951 kJ/mol
# Density = 2.478549 g / cm^3
# Si number density = 24.842030 Si / 1000 Ang^3
#
#
#
# Elastic Constant Matrix: (Units=GPa)
#
#
# Indices 1 2 3 4 5 6 
#
# 1 105.7280 44.6272 27.4709 -7.1351 -18.0038 -24.7622
# 2 44.6272 176.1294 40.1111 -3.3662 -3.4614 -55.2925
# 3 27.4709 40.1111 102.5377 -4.5038 -12.9137 -14.4673
# 4 -7.1351 -3.3662 -4.5038 35.3386 -1.2483 -1.1355
# 5 -18.0038 -3.4614 -12.9137 -1.2483 39.9157 -2.7430
# 6 -24.7622 -55.2925 -14.4673 -1.1355 -2.7430 56.4839
#
#
#
# Elastic Compliance Matrix: (Units=1/GPa)
#
#
# Indices 1 2 3 4 5 6 
#
# 1 0.012456 -0.001414 -0.001427 0.002518 0.005389 0.004023
# 2 -0.001414 0.008879 -0.001999 0.000550 0.000023 0.007572
# 3 -0.001427 -0.001999 0.011407 0.001095 0.002942 0.000504
# 4 0.002518 0.000550 0.001095 0.029176 0.002631 0.002637
# 5 0.005389 0.000023 0.002942 0.002631 0.028835 0.004592
# 6 0.004023 0.007572 0.000504 0.002637 0.004592 0.027285
#
#
# Mechanical properties :
#
#
# Convention : Reuss Voigt Hill
#
# Bulk Modulus (GPa) = 43.36257 67.64594 55.50426
# Shear Modulus (GPa) = 36.92616 44.49338 40.70977
#
# Velocity S-wave (km/s) = 3.85962 4.23667 4.05253
# Velocity P-wave (km/s) = 6.11191 7.15696 6.65498
#
# Compressibility (1/GPa) = 0.02306137
#
# Stress axis : x y z
#
# Youngs Moduli (GPa) = 80.28472 112.62101 87.66853
#
# Poissons Ratio (x) = 0.15924 0.12510
# Poissons Ratio (y) = 0.11352 0.17527
# Poissons Ratio (z) = 0.11456 0.22515
#
# Static dielectric constant tensor:
#      x y z
#    x 2.001120 0.002220 -0.020390 
#    y 0.002220 1.999620 -0.049490 
#    z -0.020390 -0.049490 2.047860 
# 
# From -- ./inp_files/386553.got.cif
#   From: 2010.05.17/outbox.cif.g08.bks.cpg/sg2_194_cif.got.tgz:386553.got - 2010.06.03 11:33:40.
