data_PCOD9022742
_publ_section_title
;
Structure prediction by ZEFSAII (Michael W. Deem and Ramdas Pophale) SiO2 
 PCOD9022742
Probable space group: P -1
;
_chemical_formula_sum "Si O2"
_cell_formula_units_Z 16
_cell_length_a 5.591167
_cell_length_b 12.482755
_cell_length_c 12.023588
_cell_angle_alpha 90.188770
_cell_angle_beta 97.637314
_cell_angle_gamma 122.193546
_cell_volume 701.093577
_symmetry_space_group_name_H-M "P -1"
_symmetry_group_IT_number 2
_symmetry_cell_setting 'triclinic'
loop_
_space_group_symop_operation_xyz
x,y,z
-x,-y,-z
loop_
_atom_site_type_symbol
_atom_site_label
_atom_site_fract_x
_atom_site_fract_y
_atom_site_fract_z
Si Si1 0.636870 0.133553 0.945902
Si Si2 0.959790 0.479606 0.690698
Si Si3 0.391778 0.650901 0.532965
Si Si4 0.761119 0.879670 0.274784
Si Si5 0.029754 0.262055 0.782375
Si Si6 0.233059 0.738682 0.822705
Si Si7 0.180288 0.169710 0.277963
Si Si8 0.608932 0.134588 0.558132
O O1 0.429407 0.109172 0.831323
O O2 0.932755 0.194204 0.895666
O O3 0.685126 0.234289 0.042761
O O4 0.500000 0.000000 0.000000
O O5 0.211838 0.543703 0.613134
O O6 0.013193 0.593394 0.772589
O O7 0.681059 0.414404 0.592763
O O8 0.001418 0.380806 0.763298
O O9 0.705589 0.744289 0.602838
O O10 0.277262 0.747299 0.517399
O O11 0.648027 0.870325 0.391320
O O12 0.697858 0.741336 0.234016
O O13 0.046253 0.020636 0.287392
O O14 0.835199 0.168350 0.669274
O O15 0.532473 0.784192 0.777402
O O16 0.064130 0.809458 0.785505
O O17 0.500000 0.000000 0.500000
#
# Coordination Sequence:
#
# PCOD9022742 Si02
#       8
#     2   2   2   2   2   2   2   2
#     4  11  23  42  69  98 133 178 227 289 351 404
#     4   9  21  45  66  94 138 181 231 280 334 413
#     4   9  20  42  66  95 130 186 222 278 339 410
#     4  11  24  40  66 100 138 176 224 288 349 409
#     4  10  23  42  63  97 137 176 229 281 345 409
#     4  11  25  44  69 103 131 183 236 285 336 408
#     4  11  24  41  70 103 135 173 234 283 346 406
#     4  10  22  39  64 100 137 173 225 284 346 406
#
# _framework density 22.821489
#
# number of rings (size 3 to 8) (size 9 to 14) (size 15 to 20)
#    0.000    1.750    1.250    1.500    7.000    4.000 
#   20.250    0.625    0.000    0.000    0.000    0.000 
#    0.000    0.000    0.000    0.000    0.000    0.000 
#
# Total GULP energy -89145.134317 kJ/mol
# GULP energy per Si atom -5571.570895 kJ/mol
# Density = 2.276955 g / cm^3
# Si number density = 22.821489 Si / 1000 Ang^3
#
#
#
# Elastic Constant Matrix: (Units=GPa)
#
#
# Indices 1 2 3 4 5 6 
#
# 1 54.2985 19.9088 16.2438 -8.7913 -9.2969 -9.5113
# 2 19.9088 101.0239 32.9253 8.2466 -6.4979 -16.8247
# 3 16.2438 32.9253 87.9391 4.6495 -11.9266 4.5095
# 4 -8.7913 8.2466 4.6495 50.6558 2.6503 5.5035
# 5 -9.2969 -6.4979 -11.9266 2.6503 25.2026 7.6099
# 6 -9.5113 -16.8247 4.5095 5.5035 7.6099 26.8306
#
#
#
# Elastic Compliance Matrix: (Units=1/GPa)
#
#
# Indices 1 2 3 4 5 6 
#
# 1 0.022512 -0.002699 -0.003009 0.003878 0.004337 0.004768
# 2 -0.002699 0.013988 -0.005456 -0.003207 -0.002700 0.010156
# 3 -0.003009 -0.005456 0.015500 -0.000460 0.007634 -0.009164
# 4 0.003878 -0.003207 -0.000460 0.021528 -0.000411 -0.004858
# 5 0.004337 -0.002700 0.007634 -0.000411 0.048829 -0.015204
# 6 0.004768 0.010156 -0.009164 -0.004858 -0.015204 0.052178
#
#
# Mechanical properties :
#
#
# Convention : Reuss Voigt Hill
#
# Bulk Modulus (GPa) = 33.70277 42.37970 38.04123
# Shear Modulus (GPa) = 24.18329 32.15003 28.16666
#
# Velocity S-wave (km/s) = 3.25879 3.75742 3.51695
# Velocity P-wave (km/s) = 5.38142 6.11839 5.76170
#
# Compressibility (1/GPa) = 0.02967116
#
# Stress axis : x y z
#
# Youngs Moduli (GPa) = 44.42028 71.48834 64.51715
#
# Poissons Ratio (x) = 0.19297 0.19413
# Poissons Ratio (y) = 0.11990 0.35202
# Poissons Ratio (z) = 0.13366 0.39006
#
# Static dielectric constant tensor:
#      x y z
#    x 2.308230 0.045150 -0.010380 
#    y 0.045150 1.956860 -0.056640 
#    z -0.010380 -0.056640 1.855820 
# 
# From -- ./inp_files/72293.got.cif
#   From: 2010.05.17/outbox.cif.g08.bks.cpg/sg2_37_cif.got.tgz:72293.got - 2010.06.03 11:33:40.
