data_PCOD9022169
_publ_section_title
;
Structure prediction by ZEFSAII (Michael W. Deem and Ramdas Pophale) SiO2 
 PCOD9022169
Probable space group: P -1
;
_chemical_formula_sum "Si O2"
_cell_formula_units_Z 16
_cell_length_a 7.701460
_cell_length_b 13.642282
_cell_length_c 12.104486
_cell_angle_alpha 84.977456
_cell_angle_beta 117.594560
_cell_angle_gamma 135.381694
_cell_volume 729.287599
_symmetry_space_group_name_H-M "P -1"
_symmetry_group_IT_number 2
_symmetry_cell_setting 'triclinic'
loop_
_space_group_symop_operation_xyz
x,y,z
-x,-y,-z
loop_
_atom_site_type_symbol
_atom_site_label
_atom_site_fract_x
_atom_site_fract_y
_atom_site_fract_z
Si Si1 0.096295 0.279294 0.174127
Si Si2 0.354454 0.416172 0.581638
Si Si3 0.010647 0.872211 0.389141
Si Si4 0.823175 0.966419 0.153377
Si Si5 0.782127 0.326750 0.427693
Si Si6 0.473612 0.847477 0.845883
Si Si7 0.388818 0.838147 0.393966
Si Si8 0.258672 0.838716 0.129668
O O1 0.426392 0.443985 0.283524
O O2 0.839481 0.238632 0.176252
O O3 0.046533 0.145050 0.196914
O O4 0.021513 0.266114 0.024799
O O5 0.500000 0.500000 0.500000
O O6 0.287420 0.281532 0.621432
O O7 0.016903 0.327286 0.482287
O O8 0.198554 0.857939 0.383387
O O9 0.936594 0.922479 0.267886
O O10 0.258599 0.004789 0.536669
O O11 0.527847 0.897813 0.130943
O O12 0.702040 0.893858 0.002089
O O13 0.597717 0.251900 0.267067
O O14 0.611664 0.241108 0.500367
O O15 0.000000 0.500000 0.500000
O O16 0.632079 0.007408 0.829429
O O17 0.232974 0.762993 0.238282
#
# Coordination Sequence:
#
# PCOD9022169 Si02
#       8
#     2   2   2   2   2   2   2   2
#     4   9  19  37  62  89 118 153 193 246 296 344
#     4  11  22  39  62  84 122 159 192 246 301 341
#     4  10  22  39  58  89 116 160 199 237 297 349
#     4   9  20  36  65  91 110 151 210 245 276 351
#     4  11  24  40  59  87 119 159 200 237 298 355
#     4   9  17  39  61  84 120 154 191 247 296 340
#     4  10  22  40  58  79 125 158 191 244 297 349
#     4   9  18  38  62  86 116 155 196 239 297 344
#
# _framework density 21.939216999999999
#
# number of rings (size 3 to 8) (size 9 to 14) (size 15 to 20)
#    0.000    2.250    1.250    3.750    3.500    1.500 
#    4.500    4.375    0.000    0.000    0.000    0.000 
#    0.000    0.000    0.000    0.000    0.000    0.000 
#
# Total GULP energy -89272.468846 kJ/mol
# GULP energy per Si atom -5579.529303 kJ/mol
# Density = 2.188928 g / cm^3
# Si number density = 21.939217 Si / 1000 Ang^3
#
#
#
# Elastic Constant Matrix: (Units=GPa)
#
#
# Indices 1 2 3 4 5 6 
#
# 1 32.2377 13.0483 20.5638 -5.8863 -0.1324 4.3571
# 2 13.0483 115.6075 81.7246 -8.7194 -6.2072 1.3319
# 3 20.5638 81.7246 163.0641 -15.7574 -16.4733 -9.9744
# 4 -5.8863 -8.7194 -15.7574 33.5939 -0.5521 1.0604
# 5 -0.1324 -6.2072 -16.4733 -0.5521 34.7911 -2.0289
# 6 4.3571 1.3319 -9.9744 1.0604 -2.0289 27.8096
#
#
#
# Elastic Compliance Matrix: (Units=1/GPa)
#
#
# Indices 1 2 3 4 5 6 
#
# 1 0.035939 -0.000562 -0.004560 0.004211 -0.002498 -0.007582
# 2 -0.000562 0.013721 -0.007091 0.000220 -0.001095 -0.003201
# 3 -0.004560 -0.007091 0.011279 0.002556 0.004409 0.005324
# 4 0.004211 0.000220 0.002556 0.031816 0.001721 -0.000841
# 5 -0.002498 -0.001095 0.004409 0.001721 0.030899 0.004214
# 6 -0.007582 -0.003201 0.005324 -0.000841 0.004214 0.039549
#
#
# Mechanical properties :
#
#
# Convention : Reuss Voigt Hill
#
# Bulk Modulus (GPa) = 27.38699 60.17588 43.78143
# Shear Modulus (GPa) = 25.02513 32.27709 28.65111
#
# Velocity S-wave (km/s) = 3.38103 3.83979 3.61769
# Velocity P-wave (km/s) = 5.26802 6.86634 6.11959
#
# Compressibility (1/GPa) = 0.03651369
#
# Stress axis : x y z
#
# Youngs Moduli (GPa) = 27.82496 72.88300 88.65747
#
# Poissons Ratio (x) = 0.04098 0.40425
# Poissons Ratio (y) = 0.01564 0.62865
# Poissons Ratio (z) = 0.12687 0.51679
#
# Static dielectric constant tensor:
#      x y z
#    x 1.882780 -0.039480 -0.000550 
#    y -0.039480 1.848450 -0.046360 
#    z -0.000550 -0.046360 1.830160 
# 
# From -- ./inp_files/259913.got.cif
#   From: 2010.05.17/outbox.cif.g08.bks.cpg/sg2_130_cif.got.tgz:259913.got - 2010.06.03 11:33:40.
