data_PCOD9022986
_publ_section_title
;
Structure prediction by ZEFSAII (Michael W. Deem and Ramdas Pophale) SiO2 
 PCOD9022986
Probable space group: P -1
;
_chemical_formula_sum "Si O2"
_cell_formula_units_Z 16
_cell_length_a 8.747385
_cell_length_b 15.534318
_cell_length_c 21.543938
_cell_angle_alpha 152.631580
_cell_angle_beta 144.066626
_cell_angle_gamma 35.205307
_cell_volume 735.796686
_symmetry_space_group_name_H-M "P -1"
_symmetry_group_IT_number 2
_symmetry_cell_setting 'triclinic'
loop_
_space_group_symop_operation_xyz
x,y,z
-x,-y,-z
loop_
_atom_site_type_symbol
_atom_site_label
_atom_site_fract_x
_atom_site_fract_y
_atom_site_fract_z
Si Si1 0.728728 0.480966 0.655897
Si Si2 0.409213 0.743027 0.131095
Si Si3 0.798846 0.823088 0.975324
Si Si4 0.361761 0.016021 0.398018
Si Si5 0.210126 0.740730 0.579346
Si Si6 0.267239 0.373781 0.047559
Si Si7 0.315700 0.710650 0.351123
Si Si8 0.310582 0.087491 0.774657
O O1 0.416848 0.573214 0.584313
O O2 0.906722 0.357799 0.577841
O O3 0.746926 0.349262 0.638886
O O4 0.790571 0.673331 0.822214
O O5 0.574546 0.835365 0.198095
O O6 0.081960 0.862542 0.084646
O O7 0.446642 0.810985 0.256389
O O8 0.500000 0.500000 0.000000
O O9 0.845121 0.700189 0.975988
O O10 0.500000 0.000000 0.000000
O O11 0.475686 0.170654 0.499724
O O12 0.031162 0.108242 0.361148
O O13 0.500000 0.000000 0.500000
O O14 0.374810 0.861017 0.673152
O O15 0.426354 0.511488 0.216196
O O16 0.409312 0.190342 0.930898
O O17 0.000000 0.500000 0.000000
O O18 0.023404 0.838366 0.302942
#
# Coordination Sequence:
#
# PCOD9022986 Si02
#       8
#     2   2   2   2   2   2   2   2
#     4  10  23  43  67  93 131 179 215 271 328 400
#     4  12  27  41  67 102 135 173 223 280 328 394
#     4  11  23  43  69  93 136 173 221 267 340 387
#     4  12  26  40  67  99 136 170 222 273 331 389
#     4  11  24  43  66  95 136 173 221 269 333 388
#     4   9  19  37  63  93 126 172 212 273 318 392
#     4  10  22  39  65  95 130 172 220 266 331 383
#     4  11  22  39  65  92 135 166 223 269 329 377
#
# _framework density 21.745139000000002
#
# number of rings (size 3 to 8) (size 9 to 14) (size 15 to 20)
#    0.000    1.250    1.250    5.250    7.000    1.500 
#    0.000    7.500    0.000    0.000    0.000    0.000 
#    0.000    0.000    0.000    0.000    0.000    0.000 
#
# Total GULP energy -89300.078612 kJ/mol
# GULP energy per Si atom -5581.254913 kJ/mol
# Density = 2.169565 g / cm^3
# Si number density = 21.745139 Si / 1000 Ang^3
#
#
#
# Elastic Constant Matrix: (Units=GPa)
#
#
# Indices 1 2 3 4 5 6 
#
# 1 73.8828 14.9668 42.0016 3.6358 -5.9194 -5.0111
# 2 14.9668 60.4781 19.9899 0.6822 3.0754 4.7178
# 3 42.0016 19.9899 129.2910 6.3962 -28.4349 -0.8826
# 4 3.6358 0.6822 6.3962 28.4599 5.7571 -5.5122
# 5 -5.9194 3.0754 -28.4349 5.7571 47.8121 -4.8332
# 6 -5.0111 4.7178 -0.8826 -5.5122 -4.8332 26.6648
#
#
#
# Elastic Compliance Matrix: (Units=1/GPa)
#
#
# Indices 1 2 3 4 5 6 
#
# 1 0.017293 -0.002791 -0.005246 -0.000209 -0.000426 0.003450
# 2 -0.002791 0.018712 -0.002867 0.000438 -0.003764 -0.004522
# 3 -0.005246 -0.002867 0.011542 -0.003141 0.006827 0.000492
# 4 -0.000209 0.000438 -0.003141 0.038332 -0.005866 0.006640
# 5 -0.000426 -0.003764 0.006827 -0.005866 0.026313 0.004369
# 6 0.003450 -0.004522 0.000492 0.006640 0.004369 0.041132
#
#
# Mechanical properties :
#
#
# Convention : Reuss Voigt Hill
#
# Bulk Modulus (GPa) = 38.84972 46.39650 42.62311
# Shear Modulus (GPa) = 27.21666 33.03361 30.12514
#
# Velocity S-wave (km/s) = 3.54166 3.90183 3.72610
# Velocity P-wave (km/s) = 5.88466 6.45614 6.17701
#
# Compressibility (1/GPa) = 0.02574021
#
# Stress axis : x y z
#
# Youngs Moduli (GPa) = 57.82788 53.44064 86.63861
#
# Poissons Ratio (x) = 0.14914 0.45450
# Poissons Ratio (y) = 0.16138 0.24838
# Poissons Ratio (z) = 0.30336 0.15321
#
# Static dielectric constant tensor:
#      x y z
#    x 1.817860 -0.035500 -0.017520 
#    y -0.035500 1.819540 0.026120 
#    z -0.017520 0.026120 1.875170 
# 
# From -- ./inp_files/590492.got.cif
#   From: 2010.05.17/outbox.cif.g08.bks.cpg/sg2_296_cif.got.tgz:590492.got - 2010.06.03 11:33:40.
