data_PCOD9022603
_publ_section_title
;
Structure prediction by ZEFSAII (Michael W. Deem and Ramdas Pophale) SiO2 
 PCOD9022603
Probable space group: P -1
;
_chemical_formula_sum "Si O2"
_cell_formula_units_Z 14
_cell_length_a 10.083341
_cell_length_b 11.625817
_cell_length_c 11.997421
_cell_angle_alpha 145.423941
_cell_angle_beta 92.818387
_cell_angle_gamma 62.920178
_cell_volume 543.365699
_symmetry_space_group_name_H-M "P -1"
_symmetry_group_IT_number 2
_symmetry_cell_setting 'triclinic'
loop_
_space_group_symop_operation_xyz
x,y,z
-x,-y,-z
loop_
_atom_site_type_symbol
_atom_site_label
_atom_site_fract_x
_atom_site_fract_y
_atom_site_fract_z
Si Si1 0.575281 0.229056 0.091930
Si Si2 0.108510 0.318940 0.476572
Si Si3 0.568544 0.210621 0.579570
Si Si4 0.927714 0.908916 0.004959
Si Si5 0.357215 0.328562 0.873501
Si Si6 0.070295 0.205871 0.865387
Si Si7 0.799783 0.528880 0.792481
O O1 0.692748 0.000587 0.810314
O O2 0.528174 0.514118 0.284785
O O3 0.383392 0.308862 0.165843
O O4 0.722936 0.061756 0.068399
O O5 0.000000 0.500000 0.500000
O O6 0.990061 0.304574 0.543934
O O7 0.094632 0.550303 0.721381
O O8 0.489404 0.311265 0.781885
O O9 0.537072 0.009270 0.382861
O O10 0.800158 0.979031 0.384747
O O11 0.905086 0.993357 0.199281
O O12 0.000000 0.000000 0.000000
O O13 0.280254 0.503139 0.127239
O O14 0.152462 0.517780 0.952904
O O15 0.163165 0.296081 0.005032
#
# Coordination Sequence:
#
# PCOD9022603 Si02
#       7
#     2   2   2   2   2   2   2
#     4  11  24  40  61  95 129 157 205 256 311 373
#     4   9  22  42  62  88 129 166 199 250 313 371
#     4  10  22  39  64  94 121 161 209 257 309 360
#     4  10  22  41  67  92 120 166 209 254 309 363
#     4  10  22  43  65  89 124 163 212 256 300 366
#     4  10  22  42  65  89 123 165 208 254 305 365
#     4  10  22  39  63  90 120 164 202 250 312 360
#
# _framework density 25.765339000000001
#
# number of rings (size 3 to 8) (size 9 to 14) (size 15 to 20)
#    0.000    2.000    0.000    2.571    0.000   20.000 
#    0.000    5.000    0.000    0.000    0.000    0.000 
#    0.000    0.000    0.000    0.000    0.000    0.000 
#
# Total GULP energy -78166.242055 kJ/mol
# GULP energy per Si atom -5583.303004 kJ/mol
# Density = 2.570670 g / cm^3
# Si number density = 25.765339 Si / 1000 Ang^3
#
#
#
# Elastic Constant Matrix: (Units=GPa)
#
#
# Indices 1 2 3 4 5 6 
#
# 1 99.7184 33.2154 49.9161 2.7055 -10.2122 -2.5730
# 2 33.2154 100.4863 19.5441 -3.7155 -9.0065 12.2095
# 3 49.9161 19.5441 104.0189 6.4803 -14.3258 14.6575
# 4 2.7055 -3.7155 6.4803 34.1675 7.7427 -17.3981
# 5 -10.2122 -9.0065 -14.3258 7.7427 52.6550 -12.2847
# 6 -2.5730 12.2095 14.6575 -17.3981 -12.2847 43.9902
#
#
#
# Elastic Compliance Matrix: (Units=1/GPa)
#
#
# Indices 1 2 3 4 5 6 
#
# 1 0.015300 -0.004129 -0.007359 0.002400 0.001258 0.005793
# 2 -0.004129 0.011714 0.000397 -0.000456 0.000524 -0.003659
# 3 -0.007359 0.000397 0.014780 -0.006407 0.001859 -0.007480
# 4 0.002400 -0.000456 -0.006407 0.039737 -0.003179 0.017230
# 5 0.001258 0.000524 0.001859 -0.003179 0.021227 0.003979
# 6 0.005793 -0.003659 -0.007480 0.017230 0.003979 0.034505
#
#
# Mechanical properties :
#
#
# Convention : Reuss Voigt Hill
#
# Bulk Modulus (GPa) = 50.99059 56.61941 53.80500
# Shear Modulus (GPa) = 30.12361 39.59908 34.86135
#
# Velocity S-wave (km/s) = 3.42300 3.92460 3.68235
# Velocity P-wave (km/s) = 5.95448 6.52376 6.24561
#
# Compressibility (1/GPa) = 0.01961146
#
# Stress axis : x y z
#
# Youngs Moduli (GPa) = 65.35755 85.36891 67.65961
#
# Poissons Ratio (x) = 0.35246 0.49792
# Poissons Ratio (y) = 0.26984 -0.02683
# Poissons Ratio (z) = 0.48098 -0.03385
#
# Static dielectric constant tensor:
#      x y z
#    x 2.102230 0.053140 0.026550 
#    y 0.053140 2.080960 -0.044990 
#    z 0.026550 -0.044990 2.097560 
# 
# From -- ./inp_files/426923.got.cif
#   From: 2010.05.17/outbox.cif.g08.bks.cpg/sg2_214_cif.got.tgz:426923.got - 2010.06.03 11:33:40.
