data_PCOD9022488
_publ_section_title
;
Structure prediction by ZEFSAII (Michael W. Deem and Ramdas Pophale) SiO2 
 PCOD9022488
Probable space group: P -1
;
_chemical_formula_sum "Si O2"
_cell_formula_units_Z 12
_cell_length_a 10.084287
_cell_length_b 14.154028
_cell_length_c 7.975158
_cell_angle_alpha 66.532667
_cell_angle_beta 69.555715
_cell_angle_gamma 29.911974
_cell_volume 520.672453
_symmetry_space_group_name_H-M "P -1"
_symmetry_group_IT_number 2
_symmetry_cell_setting 'triclinic'
loop_
_space_group_symop_operation_xyz
x,y,z
-x,-y,-z
loop_
_atom_site_type_symbol
_atom_site_label
_atom_site_fract_x
_atom_site_fract_y
_atom_site_fract_z
Si Si1 0.933815 0.420772 0.092511
Si Si2 0.510509 0.526632 0.282099
Si Si3 0.091073 0.064736 0.780905
Si Si4 0.971374 0.091233 0.286175
Si Si5 0.268677 0.124792 0.878394
Si Si6 0.312535 0.031331 0.368925
O O1 0.643632 0.556991 0.174568
O O2 0.128944 0.244773 0.265474
O O3 0.000000 0.500000 0.000000
O O4 0.009282 0.327745 0.941878
O O5 0.500000 0.500000 0.500000
O O6 0.711190 0.322746 0.251620
O O7 0.209591 0.709572 0.227087
O O8 0.243959 0.024143 0.894099
O O9 0.229281 0.029095 0.579309
O O10 0.061740 0.962688 0.819739
O O11 0.219263 0.013096 0.271508
O O12 0.000000 0.000000 0.500000
O O13 0.381726 0.124825 0.675595
O O14 0.500000 0.000000 0.000000
#
# Coordination Sequence:
#
# PCOD9022488 Si02
#       6
#     2   2   2   2   2   2
#     4  10  22  39  62  90 132 174 199 265 338 370
#     4  11  20  39  66  98 130 160 224 267 307 401
#     4  11  21  39  69  96 123 172 217 270 318 376
#     4   9  18  34  64  97 120 161 206 266 325 359
#     4  10  23  42  59  88 135 170 211 268 325 388
#     4   9  19  40  64  92 124 167 218 256 319 399
#
# _framework density 23.047122000000002
#
# number of rings (size 3 to 8) (size 9 to 14) (size 15 to 20)
#    0.000    2.000    5.000    0.500    2.333    0.667 
#    6.000    8.333    0.000    0.000    0.000    0.000 
#    0.000    0.000    0.000    0.000    0.000    0.000 
#
# Total GULP energy -66976.372535 kJ/mol
# GULP energy per Si atom -5581.364378 kJ/mol
# Density = 2.299467 g / cm^3
# Si number density = 23.047122 Si / 1000 Ang^3
#
#
#
# Elastic Constant Matrix: (Units=GPa)
#
#
# Indices 1 2 3 4 5 6 
#
# 1 189.4504 38.4200 69.0233 20.8737 -4.2532 34.3636
# 2 38.4200 49.7920 16.9643 13.5480 3.1020 15.8051
# 3 69.0233 16.9643 88.0139 14.7222 -8.0635 7.5504
# 4 20.8737 13.5480 14.7222 31.3014 2.1337 -5.8654
# 5 -4.2532 3.1020 -8.0635 2.1337 58.2703 11.3883
# 6 34.3636 15.8051 7.5504 -5.8654 11.3883 51.7407
#
#
#
# Elastic Compliance Matrix: (Units=1/GPa)
#
#
# Indices 1 2 3 4 5 6 
#
# 1 0.009179 -0.002732 -0.005569 -0.003352 0.001161 -0.005085
# 2 -0.002732 0.028086 -0.000630 -0.011558 0.000211 -0.008030
# 3 -0.005569 -0.000630 0.016622 -0.003853 0.001951 0.000599
# 4 -0.003352 -0.011558 -0.003853 0.043559 -0.004135 0.012167
# 5 0.001161 0.000211 0.001951 -0.004135 0.018775 -0.005722
# 6 -0.005085 -0.008030 0.000599 0.012167 -0.005722 0.027708
#
#
# Mechanical properties :
#
#
# Convention : Reuss Voigt Hill
#
# Bulk Modulus (GPa) = 27.75680 64.00795 45.88238
# Shear Modulus (GPa) = 28.76896 41.78573 35.27735
#
# Velocity S-wave (km/s) = 3.53692 4.26262 3.91661
# Velocity P-wave (km/s) = 5.36184 7.21523 6.35645
#
# Compressibility (1/GPa) = 0.03602720
#
# Stress axis : x y z
#
# Youngs Moduli (GPa) = 108.94589 35.60431 60.16064
#
# Poissons Ratio (x) = 0.09726 0.33501
# Poissons Ratio (y) = 0.29761 0.03789
# Poissons Ratio (z) = 0.60668 0.02242
#
# Static dielectric constant tensor:
#      x y z
#    x 1.726970 -0.028360 0.653140 
#    y -0.028360 1.877610 0.107540 
#    z 0.653140 0.107540 -0.803250 
# 
# From -- ./inp_files/154964.got.cif
#   From: 2010.05.17/outbox.cif.g08.bks.cpg/sg2_78_cif.got.tgz:154964.got - 2010.06.03 11:33:40.
