data_PCOD9022434
_publ_section_title
;
Structure prediction by ZEFSAII (Michael W. Deem and Ramdas Pophale) SiO2 
 PCOD9022434
Probable space group: P -1
;
_chemical_formula_sum "Si O2"
_cell_formula_units_Z 16
_cell_length_a 8.644260
_cell_length_b 20.887251
_cell_length_c 8.572533
_cell_angle_alpha 53.226983
_cell_angle_beta 97.906938
_cell_angle_gamma 52.963427
_cell_volume 620.473034
_symmetry_space_group_name_H-M "P -1"
_symmetry_group_IT_number 2
_symmetry_cell_setting 'triclinic'
loop_
_space_group_symop_operation_xyz
x,y,z
-x,-y,-z
loop_
_atom_site_type_symbol
_atom_site_label
_atom_site_fract_x
_atom_site_fract_y
_atom_site_fract_z
Si Si1 0.219933 0.575629 0.924525
Si Si2 0.594264 0.946200 0.271459
Si Si3 0.629531 0.370721 0.548059
Si Si4 0.898775 0.528736 0.130855
Si Si5 0.566496 0.132865 0.137934
Si Si6 0.157664 0.555681 0.470818
Si Si7 0.389177 0.879104 0.484882
Si Si8 0.354771 0.808507 0.258052
O O1 0.206059 0.494399 0.967891
O O2 0.917277 0.757881 0.582635
O O3 0.500000 0.500000 0.000000
O O4 0.312110 0.532690 0.179133
O O5 0.399263 0.968069 0.313268
O O6 0.624015 0.016441 0.261676
O O7 0.500000 0.000000 0.000000
O O8 0.481182 0.414578 0.628660
O O9 0.849538 0.349968 0.602828
O O10 0.761225 0.231608 0.697125
O O11 0.793728 0.536662 0.266617
O O12 0.268446 0.366219 0.429741
O O13 0.721411 0.687140 0.828380
O O14 0.712852 0.083493 0.401977
O O15 0.682613 0.133450 0.002981
O O16 0.187926 0.305552 0.845773
O O17 0.265829 0.892536 0.285744
#
# Coordination Sequence:
#
# PCOD9022434 Si02
#       8
#     2   2   2   2   2   2   2   2
#     4  12  23  39  68  99 128 173 218 273 331 396
#     4  12  24  43  66  95 138 175 223 275 329 399
#     4  11  22  37  64  98 140 167 221 280 338 380
#     4  11  20  38  63  95 130 163 223 273 329 378
#     4  11  24  42  67  93 137 177 226 266 330 402
#     4  10  22  39  61  99 134 178 213 278 334 394
#     4  12  22  37  68 101 125 175 225 277 325 389
#     4  11  21  38  63 100 133 172 222 282 323 393
#
# _framework density 25.786777000000001
#
# number of rings (size 3 to 8) (size 9 to 14) (size 15 to 20)
#    0.000    0.750    5.000    4.500    0.000    2.000 
#    0.000    0.000    2.750    3.000    0.000    0.000 
#    0.000    0.000    0.000    0.000    0.000    0.000 
#
# Total GULP energy -89482.081456 kJ/mol
# GULP energy per Si atom -5592.630091 kJ/mol
# Density = 2.572809 g / cm^3
# Si number density = 25.786777 Si / 1000 Ang^3
#
#
#
# Elastic Constant Matrix: (Units=GPa)
#
#
# Indices 1 2 3 4 5 6 
#
# 1 116.1641 41.5285 47.4486 21.1340 -19.8231 17.3633
# 2 41.5285 126.5218 48.2458 30.2614 -16.6888 23.3553
# 3 47.4486 48.2458 142.1192 31.3377 -25.5118 4.8810
# 4 21.1340 30.2614 31.3377 43.9075 4.3573 -2.6466
# 5 -19.8231 -16.6888 -25.5118 4.3573 46.8069 -5.3730
# 6 17.3633 23.3553 4.8810 -2.6466 -5.3730 47.4722
#
#
#
# Elastic Compliance Matrix: (Units=1/GPa)
#
#
# Indices 1 2 3 4 5 6 
#
# 1 0.011587 -0.001026 -0.001873 -0.004085 0.003514 -0.003371
# 2 -0.001026 0.011941 -0.001314 -0.007440 0.003177 -0.005419
# 3 -0.001873 -0.001314 0.010310 -0.006015 0.004975 0.000499
# 4 -0.004085 -0.007440 -0.006015 0.035573 -0.010215 0.006600
# 5 0.003514 0.003177 0.004975 -0.010215 0.027555 -0.000811
# 6 -0.003371 -0.005419 0.000499 0.006600 -0.000811 0.025189
#
#
# Mechanical properties :
#
#
# Convention : Reuss Voigt Hill
#
# Bulk Modulus (GPa) = 39.35258 73.25011 56.30134
# Shear Modulus (GPa) = 35.95804 44.14280 40.05042
#
# Velocity S-wave (km/s) = 3.73827 4.14193 3.94526
# Velocity P-wave (km/s) = 5.82467 7.16532 6.52949
#
# Compressibility (1/GPa) = 0.02541129
#
# Stress axis : x y z
#
# Youngs Moduli (GPa) = 86.30335 83.74843 96.99429
#
# Poissons Ratio (x) = 0.08595 0.18165
# Poissons Ratio (y) = 0.08858 0.12745
# Poissons Ratio (z) = 0.16163 0.11004
#
# Static dielectric constant tensor:
#      x y z
#    x 2.052220 -0.022330 0.059180 
#    y -0.022330 2.319620 0.178760 
#    z 0.059180 0.178760 2.215390 
# 
# From -- ./inp_files/223237.got.cif
#   From: 2010.05.17/outbox.cif.g08.bks.cpg/sg2_112_cif.got.tgz:223237.got - 2010.06.03 11:33:40.
