data_PCOD9022650
_publ_section_title
;
Structure prediction by ZEFSAII (Michael W. Deem and Ramdas Pophale) SiO2 
 PCOD9022650
Probable space group: P -1
;
_chemical_formula_sum "Si O2"
_cell_formula_units_Z 16
_cell_length_a 8.645956
_cell_length_b 13.662390
_cell_length_c 10.423599
_cell_angle_alpha 77.396358
_cell_angle_beta 110.636045
_cell_angle_gamma 49.403606
_cell_volume 679.606973
_symmetry_space_group_name_H-M "P -1"
_symmetry_group_IT_number 2
_symmetry_cell_setting 'triclinic'
loop_
_space_group_symop_operation_xyz
x,y,z
-x,-y,-z
loop_
_atom_site_type_symbol
_atom_site_label
_atom_site_fract_x
_atom_site_fract_y
_atom_site_fract_z
Si Si1 0.034628 0.861306 0.188798
Si Si2 0.131767 0.211177 0.300145
Si Si3 0.284925 0.162467 0.638529
Si Si4 0.208232 0.422822 0.913501
Si Si5 0.444106 0.780540 0.164901
Si Si6 0.302061 0.619945 0.527535
Si Si7 0.223958 0.184746 0.040172
Si Si8 0.398368 0.629057 0.827855
O O1 0.294281 0.770408 0.207293
O O2 0.143765 0.796066 0.382278
O O3 0.923215 0.811534 0.110113
O O4 0.794180 0.055981 0.039032
O O5 0.322882 0.127164 0.506660
O O6 0.157280 0.177708 0.165531
O O7 0.924100 0.225498 0.286938
O O8 0.019111 0.381021 0.208007
O O9 0.428533 0.194906 0.716364
O O10 0.962108 0.321890 0.534132
O O11 0.449193 0.996290 0.812745
O O12 0.145511 0.338143 0.952184
O O13 0.446799 0.344501 0.101648
O O14 0.328751 0.368339 0.821607
O O15 0.500000 0.500000 0.500000
O O16 0.459431 0.563790 0.720887
O O17 0.500000 0.500000 0.000000
#
# Coordination Sequence:
#
# PCOD9022650 Si02
#       8
#     2   2   2   2   2   2   2   2
#     4  10  23  41  65  93 129 172 224 260 335 380
#     4  10  22  39  63  93 128 172 219 265 327 391
#     4  10  23  44  63  93 131 175 216 268 331 383
#     4  11  22  37  64  92 130 167 220 265 327 382
#     4  10  22  42  65  93 129 177 214 271 321 402
#     4  11  24  40  67  98 129 167 218 273 318 385
#     4  11  22  41  67  92 133 172 219 270 322 395
#     4   9  22  42  62  91 133 173 210 261 336 383
#
# _framework density 23.543016999999999
#
# number of rings (size 3 to 8) (size 9 to 14) (size 15 to 20)
#    0.000    1.750    0.000    3.000    8.750    3.500 
#    4.500    6.875    0.000    0.000    0.000    0.000 
#    0.000    0.000    0.000    0.000    0.000    0.000 
#
# Total GULP energy -89342.491725 kJ/mol
# GULP energy per Si atom -5583.905733 kJ/mol
# Density = 2.348943 g / cm^3
# Si number density = 23.543017 Si / 1000 Ang^3
#
#
#
# Elastic Constant Matrix: (Units=GPa)
#
#
# Indices 1 2 3 4 5 6 
#
# 1 57.6169 -10.9783 9.0518 2.9989 -20.9725 7.1204
# 2 -10.9783 10.7805 -3.9175 27.2584 -21.0229 -8.7576
# 3 9.0518 -3.9175 118.9168 19.5996 -20.7840 1.3494
# 4 2.9989 27.2584 19.5996 29.2052 -1.7029 -13.5557
# 5 -20.9725 -21.0229 -20.7840 -1.7029 22.6545 4.3511
# 6 7.1204 -8.7576 1.3494 -13.5557 4.3511 35.8955
#
#
#
# Elastic Compliance Matrix: (Units=1/GPa)
#
#
# Indices 1 2 3 4 5 6 
#
# 1 0.015679 -0.012299 -0.003174 0.011181 0.001402 -0.001939
# 2 -0.012299 -0.008571 -0.006887 0.017113 -0.026344 0.010263
# 3 -0.003174 -0.006887 0.007961 0.000948 -0.001807 -0.000773
# 4 0.011181 0.017113 0.000948 0.021138 0.027426 0.006579
# 5 0.001402 -0.026344 -0.001807 0.027426 0.021176 0.001153
# 6 -0.001939 0.010263 -0.000773 0.006579 0.001153 0.033121
#
#
# Mechanical properties :
#
#
# Convention : Reuss Voigt Hill
#
# Bulk Modulus (GPa) = -33.72326 19.51402 -7.10462
# Shear Modulus (GPa) = 39.89119 30.42825 35.15972
#
# Velocity S-wave (km/s) = 4.12077 3.59897 3.86868
# Velocity P-wave (km/s) = 2.87851 5.05735 4.11476
#
# Compressibility (1/GPa) = -0.02965313
#
# Stress axis : x y z
#
# Youngs Moduli (GPa) = 63.77808 -116.66872 125.61592
#
# Poissons Ratio (x) = -1.43493 0.39876
# Poissons Ratio (y) = 0.78442 0.86516
# Poissons Ratio (z) = 0.20246 -0.80354
#
# Static dielectric constant tensor:
#      x y z
#    x 1.914900 -0.073740 0.011880 
#    y -0.073740 1.969740 -0.070400 
#    z 0.011880 -0.070400 1.944410 
# 
# From -- ./inp_files/207009.got.cif
#   From: 2010.05.17/outbox.cif.g08.bks.cpg/sg2_104_cif.got.tgz:207009.got - 2010.06.03 11:33:40.
