data_PCOD9022536
_publ_section_title
;
Structure prediction by ZEFSAII (Michael W. Deem and Ramdas Pophale) SiO2 
 PCOD9022536
Probable space group: P -1
;
_chemical_formula_sum "Si O2"
_cell_formula_units_Z 12
_cell_length_a 11.883531
_cell_length_b 17.734137
_cell_length_c 14.125754
_cell_angle_alpha 21.094871
_cell_angle_beta 29.256436
_cell_angle_gamma 29.433897
_cell_volume 495.427070
_symmetry_space_group_name_H-M "P -1"
_symmetry_group_IT_number 2
_symmetry_cell_setting 'triclinic'
loop_
_space_group_symop_operation_xyz
x,y,z
-x,-y,-z
loop_
_atom_site_type_symbol
_atom_site_label
_atom_site_fract_x
_atom_site_fract_y
_atom_site_fract_z
Si Si1 0.529331 0.323075 0.268684
Si Si2 0.091786 0.517903 0.747763
Si Si3 0.214313 0.026029 0.876192
Si Si4 0.400596 0.783667 0.282198
Si Si5 0.426461 0.469042 0.810635
Si Si6 0.937397 0.780954 0.034851
O O1 0.477535 0.446770 0.262663
O O2 0.814780 0.184267 0.222205
O O3 0.368018 0.168099 0.550154
O O4 0.500000 0.500000 0.000000
O O5 0.188076 0.722425 0.451351
O O6 0.334318 0.323913 0.833239
O O7 0.049936 0.455306 0.743202
O O8 0.846899 0.532649 0.964735
O O9 0.401649 0.779690 0.045560
O O10 0.102055 0.168024 0.885998
O O11 0.000000 0.000000 0.000000
O O12 0.410826 0.652144 0.527066
O O13 0.293323 0.045557 0.049633
#
# Coordination Sequence:
#
# PCOD9022536 Si02
#       6
#     2   2   2   2   2   2
#     4  11  27  48  70  98 137 183 231 284 338 398
#     4  10  22  39  62  94 134 175 216 266 327 397
#     4  12  27  46  71 101 134 179 234 285 338 401
#     4  11  22  39  68 101 136 175 218 271 338 407
#     4  11  25  43  68 100 137 176 223 278 339 405
#     4  11  25  43  68 100 137 176 223 278 339 405
#
# _framework density 24.221527999999999
#
# number of rings (size 3 to 8) (size 9 to 14) (size 15 to 20)
#    0.000    1.000    0.000    6.000    0.000   16.000 
#    0.000    0.000    0.000    3.000    0.000    0.000 
#    0.000    0.000    0.000    0.000    0.000    0.000 
#
# Total GULP energy -67143.790571 kJ/mol
# GULP energy per Si atom -5595.315881 kJ/mol
# Density = 2.416640 g / cm^3
# Si number density = 24.221528 Si / 1000 Ang^3
#
#
#
# Elastic Constant Matrix: (Units=GPa)
#
#
# Indices 1 2 3 4 5 6 
#
# 1 143.7949 27.3682 44.4834 9.8041 -2.4999 11.7513
# 2 27.3682 97.2647 24.0594 16.7349 -0.6899 8.8651
# 3 44.4834 24.0594 114.4722 15.7016 -4.9169 3.0714
# 4 9.8041 16.7349 15.7016 41.8850 -9.3263 -10.3146
# 5 -2.4999 -0.6899 -4.9169 -9.3263 41.8860 5.9635
# 6 11.7513 8.8651 3.0714 -10.3146 5.9635 39.5541
#
#
#
# Elastic Compliance Matrix: (Units=1/GPa)
#
#
# Indices 1 2 3 4 5 6 
#
# 1 0.008302 -0.001296 -0.002762 -0.000879 0.000272 -0.002232
# 2 -0.001296 0.012147 -0.001290 -0.005066 -0.000664 -0.003458
# 3 -0.002762 -0.001290 0.010497 -0.002787 0.000498 -0.000507
# 4 -0.000879 -0.005066 -0.002787 0.030441 0.005064 0.008788
# 5 0.000272 -0.000664 0.000498 0.005064 0.025419 -0.002482
# 6 -0.002232 -0.003458 -0.000507 0.008788 -0.002482 0.029425
#
#
# Mechanical properties :
#
#
# Convention : Reuss Voigt Hill
#
# Bulk Modulus (GPa) = 49.38132 60.81710 55.09921
# Shear Modulus (GPa) = 37.40297 41.97308 39.68803
#
# Velocity S-wave (km/s) = 3.93390 4.16731 4.05228
# Velocity P-wave (km/s) = 6.40825 6.95115 6.68521
#
# Compressibility (1/GPa) = 0.02025057
#
# Stress axis : x y z
#
# Youngs Moduli (GPa) = 120.44576 82.32356 95.26157
#
# Poissons Ratio (x) = 0.10672 0.26308
# Poissons Ratio (y) = 0.15614 0.12291
# Poissons Ratio (z) = 0.33263 0.10621
#
# Static dielectric constant tensor:
#      x y z
#    x 2.025110 0.026210 -0.071260 
#    y 0.026210 1.931110 -0.014880 
#    z -0.071260 -0.014880 1.950500 
# 
# From -- ./inp_files/523392.got.cif
#   From: 2010.05.17/outbox.cif.g08.bks.cpg/sg2_262_cif.got.tgz:523392.got - 2010.06.03 11:33:40.
