data_PCOD9022497
_publ_section_title
;
Structure prediction by ZEFSAII (Michael W. Deem and Ramdas Pophale) SiO2 
 PCOD9022497
Probable space group: P -1
;
_chemical_formula_sum "Si O2"
_cell_formula_units_Z 14
_cell_length_a 16.985863
_cell_length_b 7.561864
_cell_length_c 19.412108
_cell_angle_alpha 139.471494
_cell_angle_beta 158.514354
_cell_angle_gamma 42.097385
_cell_volume 587.095551
_symmetry_space_group_name_H-M "P -1"
_symmetry_group_IT_number 2
_symmetry_cell_setting 'triclinic'
loop_
_space_group_symop_operation_xyz
x,y,z
-x,-y,-z
loop_
_atom_site_type_symbol
_atom_site_label
_atom_site_fract_x
_atom_site_fract_y
_atom_site_fract_z
Si Si1 0.995824 0.448522 0.902383
Si Si2 0.535523 0.609010 0.758520
Si Si3 0.005514 0.179018 0.327210
Si Si4 0.102565 0.624707 0.851338
Si Si5 0.324778 0.277530 0.381946
Si Si6 0.526919 0.800666 0.311588
Si Si7 0.692794 0.957996 0.090500
O O1 0.786128 0.604010 0.742817
O O2 0.001772 0.129250 0.798070
O O3 0.000000 0.500000 0.000000
O O4 0.216086 0.545850 0.083122
O O5 0.436591 0.515012 0.580326
O O6 0.413523 0.487825 0.685646
O O7 0.572385 0.904955 0.903599
O O8 0.259316 0.169543 0.548240
O O9 0.930383 0.369249 0.256264
O O10 0.842914 0.188856 0.262857
O O11 0.155478 0.316935 0.836825
O O12 0.878573 0.766768 0.747456
O O13 0.307702 0.779727 0.084250
O O14 0.483399 0.014939 0.404341
O O15 0.500000 0.000000 0.000000
#
# Coordination Sequence:
#
# PCOD9022497 Si02
#       7
#     2   2   2   2   2   2   2
#     4  11  23  37  55  93 137 175 215 252 305 383
#     4  10  22  39  62  91 128 171 215 267 314 378
#     4  11  23  40  64  95 127 163 220 260 314 389
#     4  11  23  42  65  93 134 168 213 260 319 380
#     4  12  21  37  64  92 137 179 205 248 319 377
#     4  11  22  35  63  98 133 173 205 252 314 389
#     4  10  24  50  69  89 127 165 216 284 330 369
#
# _framework density 23.846204
#
# number of rings (size 3 to 8) (size 9 to 14) (size 15 to 20)
#    0.000    1.143    5.714    2.571    2.000    5.143 
#    0.000    3.571    0.000    0.000    0.000    0.000 
#    0.000    0.000    0.000    0.000    0.000    0.000 
#
# Total GULP energy -78085.882436 kJ/mol
# GULP energy per Si atom -5577.563031 kJ/mol
# Density = 2.379193 g / cm^3
# Si number density = 23.846204 Si / 1000 Ang^3
#
#
#
# Elastic Constant Matrix: (Units=GPa)
#
#
# Indices 1 2 3 4 5 6 
#
# 1 89.9556 17.3543 36.1332 -16.7212 21.3464 6.6793
# 2 17.3543 23.8600 10.5493 -8.5488 1.5596 5.1831
# 3 36.1332 10.5493 151.0090 -12.4708 8.4244 0.2611
# 4 -16.7212 -8.5488 -12.4708 19.2506 2.2976 -0.4615
# 5 21.3464 1.5596 8.4244 2.2976 38.9664 -7.6958
# 6 6.6793 5.1831 0.2611 -0.4615 -7.6958 28.7803
#
#
#
# Elastic Compliance Matrix: (Units=1/GPa)
#
#
# Indices 1 2 3 4 5 6 
#
# 1 0.018927 -0.005733 -0.002342 0.013621 -0.011669 -0.006241
# 2 -0.005733 0.055284 -0.000804 0.019049 -0.001756 -0.008783
# 3 -0.002342 -0.000804 0.007462 0.002496 -0.000333 0.000572
# 4 0.013621 0.019049 0.002496 0.075427 -0.015075 -0.009436
# 5 -0.011669 -0.001756 -0.000333 -0.015075 0.035512 0.012281
# 6 -0.006241 -0.008783 0.000572 -0.009436 0.012281 0.040904
#
#
# Mechanical properties :
#
#
# Convention : Reuss Voigt Hill
#
# Bulk Modulus (GPa) = 15.64536 43.65536 29.65036
# Shear Modulus (GPa) = 18.34326 30.78530 24.56428
#
# Velocity S-wave (km/s) = 2.77651 3.59694 3.21302
# Velocity P-wave (km/s) = 4.10535 5.96636 5.12110
#
# Compressibility (1/GPa) = 0.06391672
#
# Stress axis : x y z
#
# Youngs Moduli (GPa) = 52.83337 18.08836 134.00571
#
# Poissons Ratio (x) = 0.10370 0.31382
# Poissons Ratio (y) = 0.30288 0.10775
# Poissons Ratio (z) = 0.12373 0.01454
#
# Static dielectric constant tensor:
#      x y z
#    x 2.159170 0.265740 0.064260 
#    y 0.265740 2.581900 0.056440 
#    z 0.064260 0.056440 1.964990 
# 
# From -- ./inp_files/317700.got.cif
#   From: 2010.05.17/outbox.cif.g08.bks.cpg/sg2_159_cif.got.tgz:317700.got - 2010.06.03 11:33:40.
