data_PCOD9022112
_publ_section_title
;
Structure prediction by ZEFSAII (Michael W. Deem and Ramdas Pophale) SiO2 
 PCOD9022112
Probable space group: P -1
;
_chemical_formula_sum "Si O2"
_cell_formula_units_Z 16
_cell_length_a 7.624580
_cell_length_b 16.449039
_cell_length_c 8.581594
_cell_angle_alpha 139.896194
_cell_angle_beta 99.093628
_cell_angle_gamma 81.493523
_cell_volume 683.978193
_symmetry_space_group_name_H-M "P -1"
_symmetry_group_IT_number 2
_symmetry_cell_setting 'triclinic'
loop_
_space_group_symop_operation_xyz
x,y,z
-x,-y,-z
loop_
_atom_site_type_symbol
_atom_site_label
_atom_site_fract_x
_atom_site_fract_y
_atom_site_fract_z
Si Si1 0.710700 0.343648 0.377287
Si Si2 0.529417 0.850262 0.800131
Si Si3 0.294723 0.949706 0.468188
Si Si4 0.940058 0.368452 0.726352
Si Si5 0.426360 0.708207 0.277470
Si Si6 0.058200 0.130421 0.555216
Si Si7 0.719158 0.801991 0.039860
Si Si8 0.506514 0.419253 0.190815
O O1 0.635629 0.207949 0.211423
O O2 0.886926 0.370316 0.539011
O O3 0.692821 0.378866 0.243861
O O4 0.559139 0.440592 0.570065
O O5 0.528787 0.777125 0.529025
O O6 0.706393 0.814952 0.872801
O O7 0.500000 0.000000 0.000000
O O8 0.395079 0.816984 0.300540
O O9 0.133772 0.926360 0.535748
O O10 0.199809 0.011689 0.393847
O O11 0.390490 0.069502 0.728658
O O12 0.757954 0.334413 0.739170
O O13 0.065663 0.245301 0.605592
O O14 0.000000 0.500000 0.000000
O O15 0.505272 0.597169 0.019048
O O16 0.104196 0.188704 0.818245
O O17 0.632144 0.674752 0.892085
#
# Coordination Sequence:
#
# PCOD9022112 Si02
#       8
#     2   2   2   2   2   2   2   2
#     4   9  21  36  54  76 106 140 177 217 268 318
#     4  10  17  31  50  78 107 135 172 212 261 315
#     4   8  15  29  49  77 100 134 176 215 248 306
#     4  10  19  33  56  77 100 141 180 213 262 317
#     4  10  20  33  55  81 108 134 178 225 262 309
#     4   8  15  29  49  75 100 134 180 213 242 312
#     4   9  16  29  53  73 104 138 173 206 264 314
#     4  10  20  36  53  77 109 138 173 224 270 313
#
# _framework density 23.392558000000001
#
# number of rings (size 3 to 8) (size 9 to 14) (size 15 to 20)
#    0.750    2.000    1.250    0.750    0.000    2.500 
#    0.000    0.625    0.000    6.750    0.000    0.000 
#    0.000    0.000    0.000    0.000    0.000    0.000 
#
# Total GULP energy -89091.310809 kJ/mol
# GULP energy per Si atom -5568.206926 kJ/mol
# Density = 2.333932 g / cm^3
# Si number density = 23.392558 Si / 1000 Ang^3
#
#
#
# Elastic Constant Matrix: (Units=GPa)
#
#
# Indices 1 2 3 4 5 6 
#
# 1 25.8015 17.1308 12.8659 -1.7770 13.5514 4.7449
# 2 17.1308 146.4793 41.1593 3.9330 15.4164 -16.3267
# 3 12.8659 41.1593 115.0186 -10.9167 20.5534 5.3264
# 4 -1.7770 3.9330 -10.9167 45.6393 1.6979 13.9066
# 5 13.5514 15.4164 20.5534 1.6979 31.5189 -0.5570
# 6 4.7449 -16.3267 5.3264 13.9066 -0.5570 21.2521
#
#
#
# Elastic Compliance Matrix: (Units=1/GPa)
#
#
# Indices 1 2 3 4 5 6 
#
# 1 0.065343 -0.010330 0.004440 0.016161 -0.027424 -0.034932
# 2 -0.010330 0.011304 -0.004985 -0.008031 0.002906 0.017571
# 3 0.004440 -0.004985 0.012920 0.008164 -0.008576 -0.013626
# 4 0.016161 -0.008031 0.008164 0.036575 -0.010951 -0.036044
# 5 -0.027424 0.002906 -0.008576 -0.010951 0.048614 0.018945
# 6 -0.034932 0.017571 -0.013626 -0.036044 0.018945 0.095850
#
#
# Mechanical properties :
#
#
# Convention : Reuss Voigt Hill
#
# Bulk Modulus (GPa) = 14.74590 47.73458 31.24024
# Shear Modulus (GPa) = 15.87490 34.09160 24.98325
#
# Velocity S-wave (km/s) = 2.60788 3.82169 3.27157
# Velocity P-wave (km/s) = 3.92242 6.31854 5.25877
#
# Compressibility (1/GPa) = 0.06781545
#
# Stress axis : x y z
#
# Youngs Moduli (GPa) = 15.30382 88.46412 77.40050
#
# Poissons Ratio (x) = 0.91388 -0.34363
# Poissons Ratio (y) = 0.15810 0.38583
# Poissons Ratio (z) = -0.06794 0.44098
#
# Static dielectric constant tensor:
#      x y z
#    x 1.938310 -0.054770 0.002500 
#    y -0.054770 1.965360 -0.048290 
#    z 0.002500 -0.048290 1.956910 
# 
# From -- ./inp_files/275947.got.cif
#   From: 2010.05.17/outbox.cif.g08.bks.cpg/sg2_138_cif.got.tgz:275947.got - 2010.06.03 11:33:40.
