data_PCOD9022921
_publ_section_title
;
Structure prediction by ZEFSAII (Michael W. Deem and Ramdas Pophale) SiO2 
 PCOD9022921
Probable space group: P -1
;
_chemical_formula_sum "Si O2"
_cell_formula_units_Z 14
_cell_length_a 6.475539
_cell_length_b 9.580581
_cell_length_c 14.857083
_cell_angle_alpha 88.802810
_cell_angle_beta 120.974994
_cell_angle_gamma 58.268182
_cell_volume 616.079390
_symmetry_space_group_name_H-M "P -1"
_symmetry_group_IT_number 2
_symmetry_cell_setting 'triclinic'
loop_
_space_group_symop_operation_xyz
x,y,z
-x,-y,-z
loop_
_atom_site_type_symbol
_atom_site_label
_atom_site_fract_x
_atom_site_fract_y
_atom_site_fract_z
Si Si1 0.006825 0.879380 0.579337
Si Si2 0.251598 0.714005 0.282818
Si Si3 0.011180 0.354015 0.064979
Si Si4 0.571893 0.965479 0.122574
Si Si5 0.407853 0.211858 0.518744
Si Si6 0.694410 0.629144 0.704146
Si Si7 0.710715 0.211558 0.915307
O O1 0.870941 0.784115 0.510938
O O2 0.367444 0.743135 0.684408
O O3 0.739645 0.010671 0.590163
O O4 0.000000 0.000000 0.500000
O O5 0.518044 0.688675 0.400277
O O6 0.244537 0.553270 0.299465
O O7 0.287383 0.729623 0.185129
O O8 0.909640 0.895437 0.225447
O O9 0.054734 0.387927 0.176313
O O10 0.315144 0.152896 0.110123
O O11 0.000000 0.500000 0.000000
O O12 0.746709 0.333904 0.985457
O O13 0.558540 0.804211 0.139528
O O14 0.500000 0.000000 0.000000
O O15 0.339072 0.283515 0.400388
O O16 0.000000 0.000000 0.000000
#
# Coordination Sequence:
#
# PCOD9022921 Si02
#       7
#     2   2   2   2   2   2   2
#     4   9  21  42  62  91 125 165 210 259 314 369
#     4  12  23  41  65  94 128 166 212 262 312 386
#     4  11  21  43  65  91 131 165 209 268 314 374
#     4  11  22  42  65  94 125 167 215 257 319 379
#     4  10  23  41  66  93 125 166 215 253 318 378
#     4  11  23  41  63  94 132 162 210 264 316 371
#     4  10  22  39  65  90 127 165 211 255 322 365
#
# _framework density 22.724343999999999
#
# number of rings (size 3 to 8) (size 9 to 14) (size 15 to 20)
#    0.000    1.429    4.286    1.286    0.000   10.857 
#    2.571    1.429    0.000    0.000    0.000    0.000 
#    0.000    0.000    0.000    0.000    0.000    0.000 
#
# Total GULP energy -78160.733736 kJ/mol
# GULP energy per Si atom -5582.909553 kJ/mol
# Density = 2.267262 g / cm^3
# Si number density = 22.724344 Si / 1000 Ang^3
#
#
#
# Elastic Constant Matrix: (Units=GPa)
#
#
# Indices 1 2 3 4 5 6 
#
# 1 87.1884 25.8972 34.0523 2.1936 23.1079 34.5081
# 2 25.8972 105.5103 41.0161 15.8091 6.6818 31.9214
# 3 34.0523 41.0161 127.9174 28.8027 16.6051 29.9072
# 4 2.1936 15.8091 28.8027 39.5993 13.2601 8.4614
# 5 23.1079 6.6818 16.6051 13.2601 23.4228 7.0164
# 6 34.5081 31.9214 29.9072 8.4614 7.0164 41.0445
#
#
#
# Elastic Compliance Matrix: (Units=1/GPa)
#
#
# Indices 1 2 3 4 5 6 
#
# 1 0.026332 -0.000315 -0.002077 0.012905 -0.026159 -0.018568
# 2 -0.000315 0.013068 -0.001778 -0.002759 0.001910 -0.008361
# 3 -0.002077 -0.001778 0.011338 -0.006377 -0.000766 -0.003686
# 4 0.012905 -0.002759 -0.006377 0.041508 -0.028608 -0.007723
# 5 -0.026159 0.001910 -0.000766 -0.028608 0.080753 0.013159
# 6 -0.018568 -0.008361 -0.003686 -0.007723 0.013159 0.048506
#
#
# Mechanical properties :
#
#
# Convention : Reuss Voigt Hill
#
# Bulk Modulus (GPa) = 23.58655 58.06079 40.82367
# Shear Modulus (GPa) = 20.49355 35.45670 27.97512
#
# Velocity S-wave (km/s) = 3.00631 3.95434 3.51246
# Velocity P-wave (km/s) = 4.73841 6.81576 5.86971
#
# Compressibility (1/GPa) = 0.04239704
#
# Stress axis : x y z
#
# Youngs Moduli (GPa) = 37.97693 76.52102 88.19822
#
# Poissons Ratio (x) = 0.02408 0.18323
# Poissons Ratio (y) = 0.01195 0.15685
# Poissons Ratio (z) = 0.07890 0.13608
#
# Static dielectric constant tensor:
#      x y z
#    x 1.945970 -0.015340 -0.042690 
#    y -0.015340 1.951610 0.039340 
#    z -0.042690 0.039340 2.013360 
# 
# From -- ./inp_files/480596.got.cif
#   From: 2010.05.17/outbox.cif.g08.bks.cpg/sg2_241_cif.got.tgz:480596.got - 2010.06.03 11:33:40.
