data_PCOD9022905
_publ_section_title
;
Structure prediction by ZEFSAII (Michael W. Deem and Ramdas Pophale) SiO2 
 PCOD9022905
Probable space group: P -1
;
_chemical_formula_sum "Si O2"
_cell_formula_units_Z 10
_cell_length_a 8.181777
_cell_length_b 4.946686
_cell_length_c 11.301906
_cell_angle_alpha 127.793040
_cell_angle_beta 84.395886
_cell_angle_gamma 87.408789
_cell_volume 356.513963
_symmetry_space_group_name_H-M "P -1"
_symmetry_group_IT_number 2
_symmetry_cell_setting 'triclinic'
loop_
_space_group_symop_operation_xyz
x,y,z
-x,-y,-z
loop_
_atom_site_type_symbol
_atom_site_label
_atom_site_fract_x
_atom_site_fract_y
_atom_site_fract_z
Si Si1 0.965504 0.874641 0.318330
Si Si2 0.408932 0.882640 0.589241
Si Si3 0.179953 0.265745 0.274446
Si Si4 0.467436 0.834520 0.830512
Si Si5 0.850382 0.293180 0.054891
O O1 0.918299 0.658987 0.147824
O O2 0.041528 0.556354 0.309001
O O3 0.786879 0.082642 0.413565
O O4 0.101486 0.131950 0.362452
O O5 0.500000 0.500000 0.500000
O O6 0.436274 0.041909 0.763064
O O7 0.500000 0.000000 0.500000
O O8 0.355832 0.389447 0.268899
O O9 0.212266 0.884714 0.104575
O O10 0.295614 0.682731 0.828373
O O11 0.500000 0.000000 0.000000
O O12 0.000000 0.000000 0.000000
#
# Coordination Sequence:
#
# PCOD9022905 Si02
#       5
#     2   2   2   2   2
#     4  11  22  42  66  97 137 186 229 276 343 422
#     4  12  26  47  71  99 137 189 236 279 342 424
#     4  10  22  39  65 103 139 175 225 290 347 399
#     4  10  23  45  72 106 141 178 231 295 347 400
#     4   9  18  37  65  99 135 176 221 274 338 409
#
# _framework density 28.049392000000001
#
# number of rings (size 3 to 8) (size 9 to 14) (size 15 to 20)
#    0.000    1.600    0.000    5.400    0.000    6.400 
#    0.000   21.000    0.000    0.000    0.000    0.000 
#    0.000    0.000    0.000    0.000    0.000    0.000 
#
# Total GULP energy -55809.781218 kJ/mol
# GULP energy per Si atom -5580.978122 kJ/mol
# Density = 2.798555 g / cm^3
# Si number density = 28.049392 Si / 1000 Ang^3
#
#
#
# Elastic Constant Matrix: (Units=GPa)
#
#
# Indices 1 2 3 4 5 6 
#
# 1 170.3663 45.3269 67.9805 -6.4939 -50.0499 3.7208
# 2 45.3269 164.8924 52.1813 -10.0838 -23.6984 4.2085
# 3 67.9805 52.1813 167.4670 -14.0394 -18.4342 -6.4375
# 4 -6.4939 -10.0838 -14.0394 52.5096 -11.5442 -7.1244
# 5 -50.0499 -23.6984 -18.4342 -11.5442 75.2601 -2.6500
# 6 3.7208 4.2085 -6.4375 -7.1244 -2.6500 52.4166
#
#
#
# Elastic Compliance Matrix: (Units=1/GPa)
#
#
# Indices 1 2 3 4 5 6 
#
# 1 0.008665 -0.000728 -0.002643 0.001278 0.005066 -0.000452
# 2 -0.000728 0.007088 -0.001678 0.001081 0.001485 -0.000502
# 3 -0.002643 -0.001678 0.007749 0.001605 -0.000090 0.001488
# 4 0.001278 0.001081 0.001605 0.021363 0.004972 0.003175
# 5 0.005066 0.001485 -0.000090 0.004972 0.017903 0.001091
# 6 -0.000452 -0.000502 0.001488 0.003175 0.001091 0.019820
#
#
# Mechanical properties :
#
#
# Convention : Reuss Voigt Hill
#
# Bulk Modulus (GPa) = 74.60782 92.63368 83.62075
# Shear Modulus (GPa) = 51.46505 58.51972 54.99238
#
# Velocity S-wave (km/s) = 4.28810 4.57257 4.43262
# Velocity P-wave (km/s) = 7.15357 7.80863 7.48827
#
# Compressibility (1/GPa) = 0.01340342
#
# Stress axis : x y z
#
# Youngs Moduli (GPa) = 115.40935 141.08232 129.04685
#
# Poissons Ratio (x) = 0.10266 0.34110
# Poissons Ratio (y) = 0.08398 0.21659
# Poissons Ratio (z) = 0.30505 0.23679
#
# Static dielectric constant tensor:
#      x y z
#    x 2.315810 0.048690 0.193770 
#    y 0.048690 2.086240 0.000240 
#    z 0.193770 0.000240 2.506670 
# 
# From -- ./inp_files/371991.got.cif
#   From: 2010.05.17/outbox.cif.g08.bks.cpg/sg2_186_cif.got.tgz:371991.got - 2010.06.03 11:33:40.
