data_PCOD9022196
_publ_section_title
;
Structure prediction by ZEFSAII (Michael W. Deem and Ramdas Pophale) SiO2 
 PCOD9022196
Probable space group: P -1
;
_chemical_formula_sum "Si O2"
_cell_formula_units_Z 16
_cell_length_a 8.735594
_cell_length_b 9.398204
_cell_length_c 22.196806
_cell_angle_alpha 62.020675
_cell_angle_beta 52.565432
_cell_angle_gamma 31.523704
_cell_volume 751.288974
_symmetry_space_group_name_H-M "P -1"
_symmetry_group_IT_number 2
_symmetry_cell_setting 'triclinic'
loop_
_space_group_symop_operation_xyz
x,y,z
-x,-y,-z
loop_
_atom_site_type_symbol
_atom_site_label
_atom_site_fract_x
_atom_site_fract_y
_atom_site_fract_z
Si Si1 0.282859 0.559327 0.652783
Si Si2 0.761955 0.330680 0.054483
Si Si3 0.803361 0.995743 0.583467
Si Si4 0.585625 0.616259 0.647025
Si Si5 0.839877 0.838669 0.820850
Si Si6 0.664132 0.882489 0.418666
Si Si7 0.487596 0.412928 0.812768
Si Si8 0.545056 0.200061 0.039849
O O1 0.563547 0.236627 0.642782
O O2 0.478237 0.590719 0.617856
O O3 0.025265 0.702364 0.739484
O O4 0.078135 0.709776 0.610296
O O5 0.528606 0.503773 0.133425
O O6 0.647510 0.259165 0.054753
O O7 0.726066 0.521358 0.988571
O O8 0.146088 0.040492 0.029992
O O9 0.564537 0.067588 0.580011
O O10 0.000000 0.000000 0.500000
O O11 0.550275 0.512100 0.729943
O O12 0.960528 0.422083 0.599672
O O13 0.348384 0.929542 0.643871
O O14 0.564606 0.890710 0.885048
O O15 0.116798 0.609487 0.848849
O O16 0.714809 0.104851 0.808717
O O17 0.500000 0.000000 0.500000
#
# Coordination Sequence:
#
# PCOD9022196 Si02
#       8
#     2   2   2   2   2   2   2   2
#     4  11  23  43  64  90 127 163 203 256 312 368
#     4  10  22  39  59  87 124 163 203 252 308 364
#     4  12  25  42  65  94 124 162 207 253 308 370
#     4  11  23  43  64  90 127 163 203 256 312 368
#     4  11  23  40  63  91 121 160 206 255 309 365
#     4  12  25  42  65  94 124 162 207 253 308 370
#     4  11  23  40  63  91 121 160 206 255 309 365
#     4  10  22  39  59  87 124 163 203 252 308 364
#
# _framework density 21.296731000000001
#
# number of rings (size 3 to 8) (size 9 to 14) (size 15 to 20)
#    0.000    1.000    0.000    8.250    0.000    5.000 
#    0.000    2.500    0.000    0.000    0.000    0.000 
#    0.000    0.000    0.000    0.000    0.000    0.000 
#
# Total GULP energy -89406.731795 kJ/mol
# GULP energy per Si atom -5587.920737 kJ/mol
# Density = 2.124826 g / cm^3
# Si number density = 21.296731 Si / 1000 Ang^3
#
#
#
# Elastic Constant Matrix: (Units=GPa)
#
#
# Indices 1 2 3 4 5 6 
#
# 1 83.2966 5.0838 11.0817 5.0413 -0.0442 -2.4211
# 2 5.0838 93.2963 6.6834 13.7341 -2.1435 -1.4302
# 3 11.0817 6.6834 62.2445 12.9353 3.3333 11.8354
# 4 5.0413 13.7341 12.9353 20.9348 3.5875 3.1298
# 5 -0.0442 -2.1435 3.3333 3.5875 27.5231 2.1689
# 6 -2.4211 -1.4302 11.8354 3.1298 2.1689 36.2491
#
#
#
# Elastic Compliance Matrix: (Units=1/GPa)
#
#
# Indices 1 2 3 4 5 6 
#
# 1 0.012465 -0.000220 -0.002149 -0.001842 0.000372 0.001662
# 2 -0.000220 0.012018 0.000209 -0.008441 0.001931 0.001005
# 3 -0.002149 0.000209 0.019792 -0.010919 -0.000518 -0.005624
# 4 -0.001842 -0.008441 -0.010919 0.062013 -0.007278 -0.001810
# 5 0.000372 0.001931 -0.000518 -0.007278 0.037602 -0.001351
# 6 0.001662 0.001005 -0.005624 -0.001810 -0.001351 0.029811
#
#
# Mechanical properties :
#
#
# Convention : Reuss Voigt Hill
#
# Bulk Modulus (GPa) = 25.02875 31.61500 28.32187
# Shear Modulus (GPa) = 26.13159 31.34064 28.73611
#
# Velocity S-wave (km/s) = 3.50669 3.84033 3.67729
# Velocity P-wave (km/s) = 5.30789 5.87719 5.59978
#
# Compressibility (1/GPa) = 0.03995405
#
# Stress axis : x y z
#
# Youngs Moduli (GPa) = 80.22744 83.20843 50.52540
#
# Poissons Ratio (x) = 0.01832 0.10856
# Poissons Ratio (y) = 0.01766 -0.01054
# Poissons Ratio (z) = 0.17239 -0.01735
#
# Static dielectric constant tensor:
#      x y z
#    x 1.789740 -0.004780 0.011580 
#    y -0.004780 1.741510 0.003170 
#    z 0.011580 0.003170 1.758890 
# 
# From -- ./inp_files/351959.got.cif
#   From: 2010.05.17/outbox.cif.g08.bks.cpg/sg2_176_cif.got.tgz:351959.got - 2010.06.03 11:33:40.
