data_PCOD9022123
_publ_section_title
;
Structure prediction by ZEFSAII (Michael W. Deem and Ramdas Pophale) SiO2 
 PCOD9022123
Probable space group: P -1
;
_chemical_formula_sum "Si O2"
_cell_formula_units_Z 16
_cell_length_a 16.596837
_cell_length_b 8.264303
_cell_length_c 8.689032
_cell_angle_alpha 103.302004
_cell_angle_beta 120.497295
_cell_angle_gamma 120.093873
_cell_volume 675.224401
_symmetry_space_group_name_H-M "P -1"
_symmetry_group_IT_number 2
_symmetry_cell_setting 'triclinic'
loop_
_space_group_symop_operation_xyz
x,y,z
-x,-y,-z
loop_
_atom_site_type_symbol
_atom_site_label
_atom_site_fract_x
_atom_site_fract_y
_atom_site_fract_z
Si Si1 0.222662 0.085106 0.949879
Si Si2 0.954067 0.854466 0.078095
Si Si3 0.573185 0.833851 0.351456
Si Si4 0.710479 0.353804 0.642976
Si Si5 0.825721 0.021799 0.482599
Si Si6 0.668728 0.282840 0.944393
Si Si7 0.530185 0.761260 0.661947
Si Si8 0.060164 0.549125 0.736805
O O1 0.196068 0.031205 0.731412
O O2 0.144296 0.830770 0.911320
O O3 0.159032 0.175747 0.958194
O O4 0.384940 0.275973 0.186659
O O5 0.080911 0.992178 0.344808
O O6 0.872042 0.585843 0.877641
O O7 0.000000 0.000000 0.000000
O O8 0.656114 0.116202 0.461322
O O9 0.676653 0.839489 0.377368
O O10 0.422925 0.676257 0.094339
O O11 0.565281 0.799594 0.521416
O O12 0.654341 0.264814 0.742565
O O13 0.632612 0.414805 0.514413
O O14 0.930119 0.319192 0.660995
O O15 0.596175 0.014016 0.859897
O O16 0.829799 0.460171 0.170638
O O17 0.000000 0.500000 0.500000
#
# Coordination Sequence:
#
# PCOD9022123 Si02
#       8
#     2   2   2   2   2   2   2   2
#     4  10  22  39  56  83 119 155 186 233 293 349
#     4  12  25  37  57  84 120 154 194 238 278 344
#     4   9  18  32  63  90 111 141 194 250 277 330
#     4   9  18  34  58  86 112 150 191 235 293 328
#     4  11  22  38  60  85 115 156 190 237 292 334
#     4   8  14  33  56  85 114 141 189 237 285 329
#     4   8  16  35  60  84 111 146 194 239 282 336
#     4   9  18  34  58  83 111 152 192 225 285 344
#
# _framework density 23.695827999999999
#
# number of rings (size 3 to 8) (size 9 to 14) (size 15 to 20)
#    0.000    2.500    1.250    2.625    1.750    1.000 
#    0.000   10.000    0.000    3.750    0.000    0.000 
#    0.000    0.000    0.000    0.000    0.000    0.000 
#
# Total GULP energy -89185.008545 kJ/mol
# GULP energy per Si atom -5574.063034 kJ/mol
# Density = 2.364189 g / cm^3
# Si number density = 23.695828 Si / 1000 Ang^3
#
#
#
# Elastic Constant Matrix: (Units=GPa)
#
#
# Indices 1 2 3 4 5 6 
#
# 1 61.0869 -6.3766 61.9870 -11.6808 30.5654 -6.1965
# 2 -6.3766 36.3245 21.6503 -1.9561 -4.2197 -5.3021
# 3 61.9870 21.6503 119.6243 -22.8969 42.8373 0.6260
# 4 -11.6808 -1.9561 -22.8969 35.8195 -9.5253 5.2164
# 5 30.5654 -4.2197 42.8373 -9.5253 38.4654 -1.4193
# 6 -6.1965 -5.3021 0.6260 5.2164 -1.4193 24.8944
#
#
#
# Elastic Compliance Matrix: (Units=1/GPa)
#
#
# Indices 1 2 3 4 5 6 
#
# 1 0.065640 0.040263 -0.042459 -0.007924 -0.001402 0.027562
# 2 0.040263 0.065751 -0.042085 -0.008697 0.020970 0.028102
# 3 -0.042459 -0.042085 0.048715 0.012488 -0.022948 -0.024682
# 4 -0.007924 -0.008697 0.012488 0.034371 -0.000473 -0.011368
# 5 -0.001402 0.020970 -0.022948 -0.000473 0.055144 0.007937
# 6 0.027562 0.028102 -0.024682 -0.011368 0.007937 0.056471
#
#
# Mechanical properties :
#
#
# Convention : Reuss Voigt Hill
#
# Bulk Modulus (GPa) = 10.92372 41.28413 26.10393
# Shear Modulus (GPa) = 11.23171 29.15418 20.19294
#
# Velocity S-wave (km/s) = 2.17951 3.51144 2.92237
# Velocity P-wave (km/s) = 3.30963 5.82243 4.73573
#
# Compressibility (1/GPa) = 0.09154390
#
# Stress axis : x y z
#
# Youngs Moduli (GPa) = 15.23456 15.20894 20.52762
#
# Poissons Ratio (x) = -0.61236 0.87159
# Poissons Ratio (y) = -0.61339 0.86390
# Poissons Ratio (z) = 0.64685 0.64006
#
# Static dielectric constant tensor:
#      x y z
#    x 1.942990 -0.039520 0.065680 
#    y -0.039520 2.034250 0.028720 
#    z 0.065680 0.028720 1.880490 
# 
# From -- ./inp_files/327650.got.cif
#   From: 2010.05.17/outbox.cif.g08.bks.cpg/sg2_164_cif.got.tgz:327650.got - 2010.06.03 11:33:40.
