data_PCOD9022903
_publ_section_title
;
Structure prediction by ZEFSAII (Michael W. Deem and Ramdas Pophale) SiO2 
 PCOD9022903
Probable space group: P -1
;
_chemical_formula_sum "Si O2"
_cell_formula_units_Z 15
_cell_length_a 5.349941
_cell_length_b 17.886625
_cell_length_c 11.742252
_cell_angle_alpha 33.420362
_cell_angle_beta 62.048284
_cell_angle_gamma 62.612065
_cell_volume 541.189540
_symmetry_space_group_name_H-M "P -1"
_symmetry_group_IT_number 2
_symmetry_cell_setting 'triclinic'
loop_
_space_group_symop_operation_xyz
x,y,z
-x,-y,-z
loop_
_atom_site_type_symbol
_atom_site_label
_atom_site_fract_x
_atom_site_fract_y
_atom_site_fract_z
Si Si1 0.849436 0.706618 0.223284
Si Si2 0.950976 0.786162 0.340319
Si Si3 0.268638 0.843969 0.856168
Si Si4 0.637187 0.291501 0.291260
Si Si5 0.612607 0.052485 0.052641
Si Si6 0.395930 0.597899 0.603908
Si Si7 0.000000 0.000000 0.500000
Si Si8 0.736916 0.655079 0.918978
O O1 0.000841 0.704042 0.316385
O O2 0.602590 0.615233 0.428930
O O3 0.678715 0.855232 0.037348
O O4 0.103165 0.707628 0.075006
O O5 0.088066 0.688414 0.533740
O O6 0.658317 0.889974 0.256771
O O7 0.173043 0.898085 0.148166
O O8 0.292657 0.902892 0.900698
O O9 0.604623 0.806843 0.798725
O O10 0.106203 0.946371 0.671204
O O11 0.927366 0.359587 0.145935
O O12 0.487516 0.344453 0.375742
O O13 0.760474 0.132224 0.440039
O O14 0.436983 0.348337 0.156647
O O15 0.340671 0.446588 0.837340
#
# Coordination Sequence:
#
# PCOD9022903 Si02
#       8
#     2   2   2   2   2   2   1   2
#     4  10  22  39  65 102 136 179 228 290 356 412
#     4   9  19  35  60  96 130 176 223 278 350 406
#     4  10  23  43  65  99 137 181 228 291 349 420
#     4  11  26  47  72 106 138 189 234 299 344 419
#     4   9  18  36  60  91 138 168 221 287 343 412
#     4  11  24  43  70 101 138 188 235 285 349 418
#     4  10  24  46  72 102 138 180 234 282 362 414
#     4  11  27  46  72 100 147 188 241 283 345 416
#
# _framework density 27.716723000000002
#
# number of rings (size 3 to 8) (size 9 to 14) (size 15 to 20)
#    0.000    1.867    0.000    2.000    7.467    5.867 
#    2.400    6.000    0.000    0.000    0.000    0.000 
#    0.000    0.000    0.000    0.000    0.000    0.000 
#
# Total GULP energy -83553.072562 kJ/mol
# GULP energy per Si atom -5570.204837 kJ/mol
# Density = 2.765364 g / cm^3
# Si number density = 27.716723 Si / 1000 Ang^3
#
#
#
# Elastic Constant Matrix: (Units=GPa)
#
#
# Indices 1 2 3 4 5 6 
#
# 1 114.5486 16.3596 48.6102 15.8509 33.8244 -3.6473
# 2 16.3596 54.5021 24.9063 8.9407 12.4096 -11.1785
# 3 48.6102 24.9063 150.1438 6.4274 16.1605 -20.0619
# 4 15.8509 8.9407 6.4274 37.2406 -3.1534 2.8411
# 5 33.8244 12.4096 16.1605 -3.1534 58.7854 8.9342
# 6 -3.6473 -11.1785 -20.0619 2.8411 8.9342 45.2347
#
#
#
# Elastic Compliance Matrix: (Units=1/GPa)
#
#
# Indices 1 2 3 4 5 6 
#
# 1 0.012956 0.000436 -0.003018 -0.005838 -0.007276 0.001618
# 2 0.000436 0.022838 -0.002212 -0.006248 -0.005745 0.006225
# 3 -0.003018 -0.002212 0.008477 0.000067 -0.000592 0.003082
# 4 -0.005838 -0.006248 0.000067 0.031847 0.007190 -0.005405
# 5 -0.007276 -0.005745 -0.000592 0.007190 0.024096 -0.007480
# 6 0.001618 0.006225 0.003082 -0.005405 -0.007480 0.026960
#
#
# Mechanical properties :
#
#
# Convention : Reuss Voigt Hill
#
# Bulk Modulus (GPa) = 28.83181 55.43854 42.13518
# Shear Modulus (GPa) = 33.71063 43.54001 38.62532
#
# Velocity S-wave (km/s) = 3.49127 3.96775 3.73711
# Velocity P-wave (km/s) = 5.16496 6.40593 5.81863
#
# Compressibility (1/GPa) = 0.03468391
#
# Stress axis : x y z
#
# Youngs Moduli (GPa) = 77.18296 43.78734 117.96739
#
# Poissons Ratio (x) = -0.01911 0.35600
# Poissons Ratio (y) = -0.03368 0.26095
# Poissons Ratio (z) = 0.23292 0.09686
#
# Static dielectric constant tensor:
#      x y z
#    x 2.596890 0.098920 -0.311680 
#    y 0.098920 2.305730 -0.056390 
#    z -0.311680 -0.056390 2.288900 
# 
# From -- ./inp_files/370233.got.cif
#   From: 2010.05.17/outbox.cif.g08.bks.cpg/sg2_186_cif.got.tgz:370233.got - 2010.06.03 11:33:40.
