data_PCOD9022388
_publ_section_title
;
Structure prediction by ZEFSAII (Michael W. Deem and Ramdas Pophale) SiO2 
 PCOD9022388
Probable space group: P -1
;
_chemical_formula_sum "Si O2"
_cell_formula_units_Z 15
_cell_length_a 7.231417
_cell_length_b 7.315061
_cell_length_c 15.534472
_cell_angle_alpha 117.620060
_cell_angle_beta 58.026952
_cell_angle_gamma 121.755708
_cell_volume 572.921867
_symmetry_space_group_name_H-M "P -1"
_symmetry_group_IT_number 2
_symmetry_cell_setting 'triclinic'
loop_
_space_group_symop_operation_xyz
x,y,z
-x,-y,-z
loop_
_atom_site_type_symbol
_atom_site_label
_atom_site_fract_x
_atom_site_fract_y
_atom_site_fract_z
Si Si1 0.011694 0.988575 0.847975
Si Si2 0.000000 0.500000 0.000000
Si Si3 0.338204 0.739198 0.119035
Si Si4 0.227832 0.511790 0.624548
Si Si5 0.947464 0.918318 0.323000
Si Si6 0.225986 0.836691 0.924680
Si Si7 0.285209 0.465042 0.228790
Si Si8 0.310035 0.375761 0.392061
O O1 0.769585 0.790627 0.837969
O O2 0.112703 0.890179 0.879352
O O3 0.156336 0.052480 0.738133
O O4 0.949049 0.188107 0.951973
O O5 0.218910 0.593536 0.887565
O O6 0.796900 0.441399 0.957093
O O7 0.156671 0.841330 0.224055
O O8 0.418353 0.631372 0.157222
O O9 0.547998 0.945897 0.073215
O O10 0.268654 0.509381 0.512293
O O11 0.460895 0.679440 0.650593
O O12 0.204531 0.270928 0.616120
O O13 0.983697 0.538134 0.707156
O O14 0.077550 0.155514 0.387546
O O15 0.358146 0.503504 0.317853
#
# Coordination Sequence:
#
# PCOD9022388 Si02
#       8
#     2   1   2   2   2   2   2   2
#     4  10  22  41  57  91 125 162 207 258 308 361
#     4  12  22  42  60  86 122 164 212 260 300 366
#     4  11  24  40  63  91 121 171 208 250 320 358
#     4  10  22  41  66  93 125 166 202 261 321 373
#     4  10  22  39  61  92 123 159 208 263 301 375
#     4  11  24  41  61  86 127 164 208 257 310 371
#     4  10  22  42  63  95 128 163 209 263 304 377
#     4  10  22  41  66  94 124 165 207 254 324 376
#
# _framework density 26.181581000000001
#
# number of rings (size 3 to 8) (size 9 to 14) (size 15 to 20)
#    0.000    1.600    2.667    1.200    3.733    0.533 
#    4.800    0.000    0.000    8.000    0.000    0.000 
#    0.000    0.000    0.000    0.000    0.000    0.000 
#
# Total GULP energy -83788.538664 kJ/mol
# GULP energy per Si atom -5585.902578 kJ/mol
# Density = 2.612199 g / cm^3
# Si number density = 26.181581 Si / 1000 Ang^3
#
#
#
# Elastic Constant Matrix: (Units=GPa)
#
#
# Indices 1 2 3 4 5 6 
#
# 1 74.5322 24.2822 61.2477 -1.3125 30.2899 -9.2560
# 2 24.2822 162.3464 58.3397 -26.7054 27.2938 5.6334
# 3 61.2477 58.3397 126.8804 -20.0531 39.2622 1.4059
# 4 -1.3125 -26.7054 -20.0531 33.2115 -1.1737 11.6223
# 5 30.2899 27.2938 39.2622 -1.1737 55.3615 -4.3735
# 6 -9.2560 5.6334 1.4059 11.6223 -4.3735 45.0578
#
#
#
# Elastic Compliance Matrix: (Units=1/GPa)
#
#
# Indices 1 2 3 4 5 6 
#
# 1 0.027164 -0.000519 -0.013075 -0.010293 -0.004901 0.008232
# 2 -0.000519 0.008558 -0.001687 0.006851 -0.002844 -0.003167
# 3 -0.013075 -0.001687 0.018521 0.011400 -0.005423 -0.006520
# 4 -0.010293 0.006851 0.011400 0.047542 -0.006101 -0.016182
# 5 -0.004901 -0.002844 -0.005423 -0.006101 0.026150 0.003630
# 6 0.008232 -0.003167 -0.006520 -0.016182 0.003630 0.029011
#
#
# Mechanical properties :
#
#
# Convention : Reuss Voigt Hill
#
# Bulk Modulus (GPa) = 42.22795 72.38868 57.30832
# Shear Modulus (GPa) = 25.58842 41.38547 33.48695
#
# Velocity S-wave (km/s) = 3.12964 3.98013 3.58023
# Velocity P-wave (km/s) = 5.40587 6.98789 6.24716
#
# Compressibility (1/GPa) = 0.02368100
#
# Stress axis : x y z
#
# Youngs Moduli (GPa) = 36.81387 116.84441 53.99406
#
# Poissons Ratio (x) = 0.06065 0.70598
# Poissons Ratio (y) = 0.01911 0.09107
# Poissons Ratio (z) = 0.48134 0.19707
#
# Static dielectric constant tensor:
#      x y z
#    x 2.164790 -0.071410 -0.032820 
#    y -0.071410 2.195840 0.002970 
#    z -0.032820 0.002970 2.063380 
# 
# From -- ./inp_files/40346.got.cif
#   From: 2010.05.17/outbox.cif.g08.bks.cpg/sg2_21_cif.got.tgz:40346.got - 2010.06.03 11:33:40.
