data_PCOD9022139
_publ_section_title
;
Structure prediction by ZEFSAII (Michael W. Deem and Ramdas Pophale) SiO2 
 PCOD9022139
Probable space group: P -1
;
_chemical_formula_sum "Si O2"
_cell_formula_units_Z 14
_cell_length_a 10.984487
_cell_length_b 16.569213
_cell_length_c 10.904708
_cell_angle_alpha 37.608700
_cell_angle_beta 42.187769
_cell_angle_gamma 30.570917
_cell_volume 604.839372
_symmetry_space_group_name_H-M "P -1"
_symmetry_group_IT_number 2
_symmetry_cell_setting 'triclinic'
loop_
_space_group_symop_operation_xyz
x,y,z
-x,-y,-z
loop_
_atom_site_type_symbol
_atom_site_label
_atom_site_fract_x
_atom_site_fract_y
_atom_site_fract_z
Si Si1 0.204570 0.986997 0.697483
Si Si2 0.593526 0.374549 0.963929
Si Si3 0.660928 0.815314 0.174417
Si Si4 0.118114 0.441345 0.193883
Si Si5 0.287496 0.169447 0.604008
Si Si6 0.507200 0.603463 0.544929
Si Si7 0.128155 0.661306 0.613845
O O1 0.436131 0.915729 0.526508
O O2 0.249789 0.045809 0.718062
O O3 0.203249 0.831392 0.905095
O O4 0.970629 0.163386 0.595863
O O5 0.647673 0.456415 0.722982
O O6 0.500000 0.500000 0.000000
O O7 0.374336 0.389578 0.058951
O O8 0.752713 0.814129 0.241529
O O9 0.499758 0.762007 0.382969
O O10 0.897336 0.651450 0.119290
O O11 0.500000 0.000000 0.000000
O O12 0.131093 0.349024 0.422108
O O13 0.076325 0.353415 0.223356
O O14 0.248320 0.658828 0.649408
O O15 0.660636 0.509671 0.418978
#
# Coordination Sequence:
#
# PCOD9022139 Si02
#       7
#     2   2   2   2   2   2   2
#     4   9  19  35  60  85 109 147 191 236 279 335
#     4  11  23  38  59  88 118 149 190 237 289 341
#     4  11  23  38  59  85 116 155 194 233 284 344
#     4   9  20  39  60  84 116 156 189 230 289 341
#     4   9  18  36  59  85 112 144 193 237 277 334
#     4  10  22  39  57  84 122 152 186 242 286 332
#     4   9  20  39  60  84 117 154 192 231 284 338
#
# _framework density 23.146639
#
# number of rings (size 3 to 8) (size 9 to 14) (size 15 to 20)
#    0.000    2.286    0.000    3.000    0.000    9.143 
#    0.000    2.143    0.000    0.000    0.000    0.000 
#    0.000    0.000    0.000    0.000    0.000    0.000 
#
# Total GULP energy -78238.530633 kJ/mol
# GULP energy per Si atom -5588.466474 kJ/mol
# Density = 2.309396 g / cm^3
# Si number density = 23.146639 Si / 1000 Ang^3
#
#
#
# Elastic Constant Matrix: (Units=GPa)
#
#
# Indices 1 2 3 4 5 6 
#
# 1 55.9082 11.0653 29.1442 -13.4556 -5.3631 1.1840
# 2 11.0653 56.5500 26.3985 -27.9931 -3.4791 -2.5685
# 3 29.1442 26.3985 118.1653 -37.0766 -0.9837 11.0094
# 4 -13.4556 -27.9931 -37.0766 50.7611 -7.0120 -4.9574
# 5 -5.3631 -3.4791 -0.9837 -7.0120 27.3490 -1.9237
# 6 1.1840 -2.5685 11.0094 -4.9574 -1.9237 25.5595
#
#
#
# Elastic Compliance Matrix: (Units=1/GPa)
#
#
# Indices 1 2 3 4 5 6 
#
# 1 0.021415 -0.000131 -0.004350 0.003302 0.005006 0.001886
# 2 -0.000131 0.026878 -0.001779 0.015241 0.007730 0.007011
# 3 -0.004350 -0.001779 0.012392 0.006639 0.000789 -0.003968
# 4 0.003302 0.015241 0.006639 0.036198 0.012562 0.006485
# 5 0.005006 0.007730 0.000789 0.012562 0.042188 0.005817
# 6 0.001886 0.007011 -0.003968 0.006485 0.005817 0.043146
#
#
# Mechanical properties :
#
#
# Convention : Reuss Voigt Hill
#
# Bulk Modulus (GPa) = 20.76223 40.42662 30.59442
# Shear Modulus (GPa) = 23.71985 31.66830 27.69408
#
# Velocity S-wave (km/s) = 3.20467 3.70288 3.46274
# Velocity P-wave (km/s) = 4.76262 5.98206 5.40683
#
# Compressibility (1/GPa) = 0.04816438
#
# Stress axis : x y z
#
# Youngs Moduli (GPa) = 46.69570 37.20515 80.69407
#
# Poissons Ratio (x) = 0.00488 0.35105
# Poissons Ratio (y) = 0.00613 0.14356
# Poissons Ratio (z) = 0.20314 0.06619
#
# Static dielectric constant tensor:
#      x y z
#    x 1.915540 -0.049490 -0.026810 
#    y -0.049490 1.890550 0.037850 
#    z -0.026810 0.037850 1.896260 
# 
# From -- ./inp_files/151711.got.cif
#   From: 2010.05.17/outbox.cif.g08.bks.cpg/sg2_76_cif.got.tgz:151711.got - 2010.06.03 11:33:40.
