data_PCOD9022829
_publ_section_title
;
Structure prediction by ZEFSAII (Michael W. Deem and Ramdas Pophale) SiO2 
 PCOD9022829
Probable space group: P -1
;
_chemical_formula_sum "Si O2"
_cell_formula_units_Z 16
_cell_length_a 13.587137
_cell_length_b 11.490811
_cell_length_c 13.200837
_cell_angle_alpha 64.833799
_cell_angle_beta 47.312387
_cell_angle_gamma 30.670699
_cell_volume 700.914825
_symmetry_space_group_name_H-M "P -1"
_symmetry_group_IT_number 2
_symmetry_cell_setting 'triclinic'
loop_
_space_group_symop_operation_xyz
x,y,z
-x,-y,-z
loop_
_atom_site_type_symbol
_atom_site_label
_atom_site_fract_x
_atom_site_fract_y
_atom_site_fract_z
Si Si1 0.702461 0.763804 0.022063
Si Si2 0.946503 0.742869 0.018879
Si Si3 0.654925 0.698787 0.733511
Si Si4 0.765976 0.895341 0.638872
Si Si5 0.467338 0.176334 0.447716
Si Si6 0.237821 0.580789 0.562888
Si Si7 0.974687 0.830624 0.303439
Si Si8 0.218597 0.738542 0.731143
O O1 0.891309 0.498383 0.943236
O O2 0.520883 0.849083 0.205134
O O3 0.884972 0.719747 0.963769
O O4 0.500000 0.000000 0.000000
O O5 0.123088 0.721954 0.889925
O O6 0.655722 0.026096 0.145042
O O7 0.773509 0.732354 0.684564
O O8 0.696759 0.657501 0.598834
O O9 0.778517 0.465519 0.775314
O O10 0.969231 0.799137 0.607351
O O11 0.831120 0.898403 0.481582
O O12 0.327682 0.358646 0.572505
O O13 0.500000 0.000000 0.500000
O O14 0.762707 0.983599 0.306957
O O15 0.219171 0.657143 0.657151
O O16 0.487369 0.449406 0.387612
O O17 0.984844 0.975697 0.248456
#
# Coordination Sequence:
#
# PCOD9022829 Si02
#       8
#     2   2   2   2   2   2   2   2
#     4  10  23  42  66  97 127 168 220 269 330 386
#     4  10  24  44  65  90 135 174 213 267 322 395
#     4  11  23  42  65  99 133 171 221 270 327 390
#     4  11  21  39  69  99 129 163 220 283 324 380
#     4  11  21  37  65  94 130 168 213 277 333 377
#     4  10  22  39  64  94 133 165 218 271 329 377
#     4  11  23  40  63 101 131 173 221 266 331 387
#     4  10  24  43  62  97 135 177 218 264 327 393
#
# _framework density 22.827307999999999
#
# number of rings (size 3 to 8) (size 9 to 14) (size 15 to 20)
#    0.000    1.500    2.500    1.875    5.250    5.000 
#    2.250    2.500    0.000    0.000    0.000    0.000 
#    0.000    0.000    0.000    0.000    0.000    0.000 
#
# Total GULP energy -89295.357499 kJ/mol
# GULP energy per Si atom -5580.959844 kJ/mol
# Density = 2.277535 g / cm^3
# Si number density = 22.827308 Si / 1000 Ang^3
#
#
#
# Elastic Constant Matrix: (Units=GPa)
#
#
# Indices 1 2 3 4 5 6 
#
# 1 100.5946 28.8321 13.2473 8.1946 -12.6820 7.3527
# 2 28.8321 116.0022 32.5530 17.9083 -7.1153 16.2998
# 3 13.2473 32.5530 82.7489 15.2816 -23.3842 4.9631
# 4 8.1946 17.9083 15.2816 36.1302 0.7006 -3.2086
# 5 -12.6820 -7.1153 -23.3842 0.7006 26.7002 7.3503
# 6 7.3527 16.2998 4.9631 -3.2086 7.3503 44.1905
#
#
#
# Elastic Compliance Matrix: (Units=1/GPa)
#
#
# Indices 1 2 3 4 5 6 
#
# 1 0.011666 -0.002124 0.001689 -0.002693 0.007283 -0.002754
# 2 -0.002124 0.011184 -0.002876 -0.004200 0.000625 -0.003858
# 3 0.001689 -0.002876 0.020350 -0.008421 0.019557 -0.005370
# 4 -0.002693 -0.004200 -0.008421 0.034855 -0.012780 0.007600
# 5 0.007283 0.000625 0.019557 -0.012780 0.062669 -0.014991
# 6 -0.002754 -0.003858 -0.005370 0.007600 -0.014991 0.028159
#
#
# Mechanical properties :
#
#
# Convention : Reuss Voigt Hill
#
# Bulk Modulus (GPa) = 27.33945 49.84562 38.59254
# Shear Modulus (GPa) = 26.63843 36.38507 31.51175
#
# Velocity S-wave (km/s) = 3.41978 3.99673 3.71946
# Velocity P-wave (km/s) = 5.25317 6.57129 5.94885
#
# Compressibility (1/GPa) = 0.03657718
#
# Stress axis : x y z
#
# Youngs Moduli (GPa) = 85.71800 89.41037 49.14048
#
# Poissons Ratio (x) = 0.18990 -0.08298
# Poissons Ratio (y) = 0.18206 0.14134
# Poissons Ratio (z) = -0.14474 0.25716
#
# Static dielectric constant tensor:
#      x y z
#    x 1.881590 0.003530 0.025740 
#    y 0.003530 1.914290 0.043630 
#    z 0.025740 0.043630 1.900980 
# 
# From -- ./inp_files/532469.got.cif
#   From: 2010.05.17/outbox.cif.g08.bks.cpg/sg2_267_cif.got.tgz:532469.got - 2010.06.03 11:33:40.
