data_PCOD9022258
_publ_section_title
;
Structure prediction by ZEFSAII (Michael W. Deem and Ramdas Pophale) SiO2 
 PCOD9022258
Probable space group: P -1
;
_chemical_formula_sum "Si O2"
_cell_formula_units_Z 16
_cell_length_a 13.601930
_cell_length_b 7.971185
_cell_length_c 8.921553
_cell_angle_alpha 47.780860
_cell_angle_beta 71.744641
_cell_angle_gamma 68.288037
_cell_volume 662.599333
_symmetry_space_group_name_H-M "P -1"
_symmetry_group_IT_number 2
_symmetry_cell_setting 'triclinic'
loop_
_space_group_symop_operation_xyz
x,y,z
-x,-y,-z
loop_
_atom_site_type_symbol
_atom_site_label
_atom_site_fract_x
_atom_site_fract_y
_atom_site_fract_z
Si Si1 0.433208 0.243489 0.941305
Si Si2 0.560625 0.618040 0.638612
Si Si3 0.870099 0.986306 0.986555
Si Si4 0.223587 0.415181 0.828606
Si Si5 0.811945 0.460043 0.559060
Si Si6 0.615185 0.986473 0.617751
Si Si7 0.167339 0.057602 0.626990
Si Si8 0.942522 0.299588 0.087951
O O1 0.363500 0.158156 0.153972
O O2 0.510235 0.410420 0.846775
O O3 0.348632 0.384435 0.781432
O O4 0.500000 0.000000 0.000000
O O5 0.683022 0.519269 0.594579
O O6 0.568724 0.806808 0.646963
O O7 0.475677 0.775568 0.470089
O O8 0.860917 0.222405 0.760466
O O9 0.987192 0.811739 0.021284
O O10 0.798678 0.840210 0.019469
O O11 0.824963 0.025103 0.152559
O O12 0.167365 0.537290 0.630890
O O13 0.177053 0.551234 0.919432
O O14 0.851387 0.665700 0.505215
O O15 0.723303 0.021766 0.468780
O O16 0.074451 0.939533 0.680358
O O17 0.000000 0.500000 0.000000
#
# Coordination Sequence:
#
# PCOD9022258 Si02
#       8
#     2   2   2   2   2   2   2   2
#     4  12  24  38  63  93 126 165 201 247 309 363
#     4  10  22  39  60  88 126 164 206 250 293 358
#     4  10  22  42  64  86 120 163 205 253 307 359
#     4  10  23  40  59  91 126 159 203 254 304 361
#     4  10  22  40  63  90 123 163 207 251 299 359
#     4  10  23  41  62  90 124 164 206 249 299 362
#     4  10  22  41  64  91 121 158 207 254 300 362
#     4  10  22  41  65  91 124 159 198 254 311 363
#
# _framework density 24.147323
#
# number of rings (size 3 to 8) (size 9 to 14) (size 15 to 20)
#    0.000    1.750    0.000    3.000    0.000   14.000 
#    0.000    5.000    0.000    0.000    0.000    0.000 
#    0.000    0.000    0.000    0.000    0.000    0.000 
#
# Total GULP energy -89191.937848 kJ/mol
# GULP energy per Si atom -5574.496116 kJ/mol
# Density = 2.409236 g / cm^3
# Si number density = 24.147323 Si / 1000 Ang^3
#
#
#
# Elastic Constant Matrix: (Units=GPa)
#
#
# Indices 1 2 3 4 5 6 
#
# 1 70.7132 48.9077 50.4408 -11.7134 -30.2577 5.1443
# 2 48.9077 130.1009 56.6024 -4.7161 -12.7815 -18.5349
# 3 50.4408 56.6024 130.2143 -22.3527 -18.7310 3.6309
# 4 -11.7134 -4.7161 -22.3527 26.4325 2.5366 -7.3506
# 5 -30.2577 -12.7815 -18.7310 2.5366 47.3380 -8.3021
# 6 5.1443 -18.5349 3.6309 -7.3506 -8.3021 28.2926
#
#
#
# Elastic Compliance Matrix: (Units=1/GPa)
#
#
# Indices 1 2 3 4 5 6 
#
# 1 0.031175 -0.008546 -0.005290 0.005029 0.014368 -0.005065
# 2 -0.008546 0.013617 -0.003269 -0.001158 -0.001222 0.010234
# 3 -0.005290 -0.003269 0.012455 0.007362 0.000124 -0.000829
# 4 0.005029 -0.001158 0.007362 0.048803 0.005234 0.011597
# 5 0.014368 -0.001222 0.000124 0.005234 0.030979 0.007021
# 6 -0.005065 0.010234 -0.000829 0.011597 0.007021 0.048150
#
#
# Mechanical properties :
#
#
# Convention : Reuss Voigt Hill
#
# Bulk Modulus (GPa) = 43.40720 71.43668 57.42194
# Shear Modulus (GPa) = 22.01991 32.08446 27.05218
#
# Velocity S-wave (km/s) = 3.02304 3.64908 3.35072
# Velocity P-wave (km/s) = 5.49546 6.88493 6.22906
#
# Compressibility (1/GPa) = 0.02303765
#
# Stress axis : x y z
#
# Youngs Moduli (GPa) = 32.07674 73.43788 80.29124
#
# Poissons Ratio (x) = 0.62756 0.42476
# Poissons Ratio (y) = 0.27411 0.26246
# Poissons Ratio (z) = 0.16969 0.24006
#
# Static dielectric constant tensor:
#      x y z
#    x 2.029450 0.047730 0.034590 
#    y 0.047730 1.962250 0.037920 
#    z 0.034590 0.037920 2.001960 
# 
# From -- ./inp_files/297241.got.cif
#   From: 2010.05.17/outbox.cif.g08.bks.cpg/sg2_149_cif.got.tgz:297241.got - 2010.06.03 11:33:40.
