data_PCOD9022342
_publ_section_title
;
Structure prediction by ZEFSAII (Michael W. Deem and Ramdas Pophale) SiO2 
 PCOD9022342
Probable space group: P -1
;
_chemical_formula_sum "Si O2"
_cell_formula_units_Z 10
_cell_length_a 14.607307
_cell_length_b 5.912780
_cell_length_c 17.824477
_cell_angle_alpha 123.599990
_cell_angle_beta 157.328596
_cell_angle_gamma 71.725053
_cell_volume 390.195348
_symmetry_space_group_name_H-M "P -1"
_symmetry_group_IT_number 2
_symmetry_cell_setting 'triclinic'
loop_
_space_group_symop_operation_xyz
x,y,z
-x,-y,-z
loop_
_atom_site_type_symbol
_atom_site_label
_atom_site_fract_x
_atom_site_fract_y
_atom_site_fract_z
Si Si1 0.072917 0.371200 0.181742
Si Si2 0.415349 0.628543 0.351985
Si Si3 0.101481 0.874688 0.488161
Si Si4 0.773915 0.894976 0.535391
Si Si5 0.278031 0.883089 0.991056
O O1 0.107671 0.355076 0.115385
O O2 0.330539 0.373886 0.416341
O O3 0.778169 0.110728 0.960907
O O4 0.154856 0.740427 0.326950
O O5 0.471916 0.620890 0.305081
O O6 0.500000 0.000000 0.500000
O O7 0.234740 0.134375 0.565812
O O8 0.371621 0.864229 0.715531
O O9 0.000000 0.000000 0.500000
O O10 0.834414 0.497735 0.186721
O O11 0.051846 0.918777 0.782428
#
# Coordination Sequence:
#
# PCOD9022342 Si02
#       5
#     2   2   2   2   2
#     4   8  15  30  55  86 120 153 193 237 285 347
#     4   8  13  27  55  87 119 156 193 234 287 345
#     4  11  24  41  61  87 117 152 199 248 294 349
#     4   9  19  35  58  85 120 157 195 241 292 346
#     4  10  22  39  61  88 118 154 195 242 295 349
#
# _framework density 25.628188999999999
#
# number of rings (size 3 to 8) (size 9 to 14) (size 15 to 20)
#    0.000    2.800    0.000    0.600    0.000    4.800 
#    0.000    1.000    0.000  108.000    0.000    0.000 
#    0.000    0.000    0.000    0.000    0.000    0.000 
#
# Total GULP energy -56008.667409 kJ/mol
# GULP energy per Si atom -5600.866741 kJ/mol
# Density = 2.556986 g / cm^3
# Si number density = 25.628189 Si / 1000 Ang^3
#
#
#
# Elastic Constant Matrix: (Units=GPa)
#
#
# Indices 1 2 3 4 5 6 
#
# 1 229.5755 57.6928 44.9360 -16.9897 6.2565 -13.4677
# 2 57.6928 111.5924 33.2185 -18.4083 -1.8502 3.1583
# 3 44.9360 33.2185 115.7938 -0.1350 3.0280 -11.6408
# 4 -16.9897 -18.4083 -0.1350 36.5827 -5.2421 -1.4853
# 5 6.2565 -1.8502 3.0280 -5.2421 32.5069 -6.0342
# 6 -13.4677 3.1583 -11.6408 -1.4853 -6.0342 35.4909
#
#
#
# Elastic Compliance Matrix: (Units=1/GPa)
#
#
# Indices 1 2 3 4 5 6 
#
# 1 0.005386 -0.002246 -0.001250 0.001369 -0.000492 0.001807
# 2 -0.002246 0.011895 -0.002814 0.005090 0.001761 -0.002321
# 3 -0.001250 -0.002814 0.010239 -0.001930 -0.000638 0.002945
# 4 0.001369 0.005090 -0.001930 0.031395 0.005584 0.001697
# 5 -0.000492 0.001761 -0.000638 0.005584 0.032896 0.005274
# 6 0.001807 -0.002321 0.002945 0.001697 0.005274 0.031002
#
#
# Mechanical properties :
#
#
# Convention : Reuss Voigt Hill
#
# Bulk Modulus (GPa) = 67.11495 80.96179 74.03837
# Shear Modulus (GPa) = 35.61304 42.32373 38.96838
#
# Velocity S-wave (km/s) = 3.73178 4.06821 3.90363
# Velocity P-wave (km/s) = 6.69426 7.32985 7.01925
#
# Compressibility (1/GPa) = 0.01489981
#
# Stress axis : x y z
#
# Youngs Moduli (GPa) = 185.68088 84.07235 97.66755
#
# Poissons Ratio (x) = 0.18881 0.12204
# Poissons Ratio (y) = 0.41699 0.27486
# Poissons Ratio (z) = 0.23202 0.23660
#
# Static dielectric constant tensor:
#      x y z
#    x 2.019420 0.053320 0.026140 
#    y 0.053320 2.082320 0.016520 
#    z 0.026140 0.016520 1.974010 
# 
# From -- ./inp_files/2276.got.cif
#   From: 2010.05.17/outbox.cif.g08.bks.cpg/sg2_2_cif.got.tgz:2276.got - 2010.06.03 11:33:40.
