data_PCOD9022711
_publ_section_title
;
Structure prediction by ZEFSAII (Michael W. Deem and Ramdas Pophale) SiO2 
 PCOD9022711
Probable space group: P -1
;
_chemical_formula_sum "Si O2"
_cell_formula_units_Z 15
_cell_length_a 7.772595
_cell_length_b 15.562444
_cell_length_c 7.215024
_cell_angle_alpha 109.236590
_cell_angle_beta 115.659718
_cell_angle_gamma 111.986429
_cell_volume 589.948716
_symmetry_space_group_name_H-M "P -1"
_symmetry_group_IT_number 2
_symmetry_cell_setting 'triclinic'
loop_
_space_group_symop_operation_xyz
x,y,z
-x,-y,-z
loop_
_atom_site_type_symbol
_atom_site_label
_atom_site_fract_x
_atom_site_fract_y
_atom_site_fract_z
Si Si1 0.420652 0.306168 0.511794
Si Si2 0.348949 0.086145 0.377078
Si Si3 0.683401 0.468059 0.050890
Si Si4 0.368036 0.253816 0.010204
Si Si5 0.000000 0.500000 0.500000
Si Si6 0.855311 0.154057 0.745000
Si Si7 0.961940 0.291617 0.271256
Si Si8 0.469279 0.099455 0.058165
O O1 0.350681 0.191946 0.499533
O O2 0.425616 0.287895 0.280898
O O3 0.207056 0.314059 0.456083
O O4 0.651596 0.415401 0.796996
O O5 0.626932 0.133677 0.531006
O O6 0.282794 0.059619 0.111461
O O7 0.210268 0.970969 0.345345
O O8 0.580288 0.366229 0.084246
O O9 0.945484 0.549993 0.319775
O O10 0.500000 0.500000 0.000000
O O11 0.364318 0.144162 0.895846
O O12 0.117042 0.229522 0.830881
O O13 0.982650 0.589172 0.675103
O O14 0.875152 0.209339 0.991426
O O15 0.743792 0.214601 0.257717
O O16 0.500000 0.000000 0.000000
#
# Coordination Sequence:
#
# PCOD9022711 Si02
#       8
#     2   2   2   2   1   2   2   2
#     4  10  24  43  68  99 136 179 226 285 346 416
#     4  10  22  39  63  96 139 177 229 276 347 413
#     4  12  25  47  71  98 135 183 233 291 349 406
#     4  10  25  43  67 100 139 175 236 283 343 421
#     4  12  24  44  70 100 136 180 234 294 340 412
#     4  10  22  41  61  96 135 182 223 283 337 418
#     4  11  22  41  66  95 134 178 224 286 339 399
#     4  11  22  38  66 100 136 177 226 283 347 416
#
# _framework density 25.425939
#
# number of rings (size 3 to 8) (size 9 to 14) (size 15 to 20)
#    0.000    1.333    4.000    0.800    3.733    2.133 
#    0.000    2.000    0.000    0.000    0.000    0.000 
#    0.000    0.000    0.000    0.000    0.000    0.000 
#
# Total GULP energy -83515.497104 kJ/mol
# GULP energy per Si atom -5567.699807 kJ/mol
# Density = 2.536807 g / cm^3
# Si number density = 25.425939 Si / 1000 Ang^3
#
#
#
# Elastic Constant Matrix: (Units=GPa)
#
#
# Indices 1 2 3 4 5 6 
#
# 1 77.0811 30.6824 5.8841 1.6678 5.7092 -15.1943
# 2 30.6824 117.0881 -2.2286 -1.8200 -10.4584 -43.1526
# 3 5.8841 -2.2286 56.2442 0.1904 -20.0417 -16.2109
# 4 1.6678 -1.8200 0.1904 37.4163 -9.0792 -1.5334
# 5 5.7092 -10.4584 -20.0417 -9.0792 21.5291 -0.7256
# 6 -15.1943 -43.1526 -16.2109 -1.5334 -0.7256 53.4115
#
#
#
# Elastic Compliance Matrix: (Units=1/GPa)
#
#
# Indices 1 2 3 4 5 6 
#
# 1 0.019198 -0.011327 -0.015258 -0.008675 -0.028758 -0.008961
# 2 -0.011327 0.027090 0.027943 0.014819 0.049377 0.028241
# 3 -0.015258 0.027943 0.063137 0.024717 0.088143 0.039305
# 4 -0.008675 0.014819 0.024717 0.040687 0.050303 0.018859
# 5 -0.028758 0.049377 0.088143 0.050303 0.183432 0.062401
# 6 -0.008961 0.028241 0.039305 0.018859 0.062401 0.052309
#
#
# Mechanical properties :
#
#
# Convention : Reuss Voigt Hill
#
# Bulk Modulus (GPa) = 8.91742 35.45435 22.18589
# Shear Modulus (GPa) = 11.89010 36.87641 24.38325
#
# Velocity S-wave (km/s) = 2.16484 3.81247 3.10012
# Velocity P-wave (km/s) = 3.12466 5.77532 4.64316
#
# Compressibility (1/GPa) = 0.11214007
#
# Stress axis : x y z
#
# Youngs Moduli (GPa) = 52.08792 36.91427 15.83869
#
# Poissons Ratio (x) = 0.41814 0.24167
# Poissons Ratio (y) = 0.59001 -0.44258
# Poissons Ratio (z) = 0.79476 -1.03150
#
# Static dielectric constant tensor:
#      x y z
#    x 1.831390 0.014470 -0.610990 
#    y 0.014470 1.994540 0.076610 
#    z -0.610990 0.076610 0.386500 
# 
# From -- ./inp_files/169207.got.cif
#   From: 2010.05.17/outbox.cif.g08.bks.cpg/sg2_85_cif.got.tgz:169207.got - 2010.06.03 11:33:40.
