data_PCOD9022907
_publ_section_title
;
Structure prediction by ZEFSAII (Michael W. Deem and Ramdas Pophale) SiO2 
 PCOD9022907
Probable space group: P -1
;
_chemical_formula_sum "Si O2"
_cell_formula_units_Z 13
_cell_length_a 8.255334
_cell_length_b 13.140952
_cell_length_c 7.693633
_cell_angle_alpha 112.352862
_cell_angle_beta 127.571248
_cell_angle_gamma 100.870827
_cell_volume 501.149788
_symmetry_space_group_name_H-M "P -1"
_symmetry_group_IT_number 2
_symmetry_cell_setting 'triclinic'
loop_
_space_group_symop_operation_xyz
x,y,z
-x,-y,-z
loop_
_atom_site_type_symbol
_atom_site_label
_atom_site_fract_x
_atom_site_fract_y
_atom_site_fract_z
Si Si1 0.510444 0.024487 0.776284
Si Si2 0.888977 0.031991 0.262631
Si Si3 0.304522 0.305042 0.894122
Si Si4 0.222924 0.764802 0.204561
Si Si5 0.332844 0.553459 0.100280
Si Si6 0.000000 0.000000 0.000000
Si Si7 0.296447 0.289567 0.269440
O O1 0.585657 0.134306 0.752792
O O2 0.365944 0.044386 0.846548
O O3 0.330564 0.869035 0.503294
O O4 0.781098 0.050940 0.020733
O O5 0.092246 0.158738 0.587281
O O6 0.028599 0.977957 0.219737
O O7 0.523434 0.379512 0.943699
O O8 0.191187 0.394425 0.881397
O O9 0.391649 0.298053 0.140199
O O10 0.210247 0.630176 0.123095
O O11 0.955392 0.721452 0.935086
O O12 0.522819 0.588160 0.405328
O O13 0.762366 0.837872 0.738728
#
# Coordination Sequence:
#
# PCOD9022907 Si02
#       7
#     2   2   2   2   2   1   2
#     4  10  22  39  65 104 136 173 227 287 342 418
#     4  11  22  41  66  99 141 175 227 286 342 414
#     4  11  25  47  68 100 139 188 236 279 343 405
#     4  11  23  44  69 102 137 180 229 280 354 407
#     4  11  26  47  71  98 140 188 236 282 332 417
#     4  12  24  40  72 100 136 176 220 290 352 398
#     4  12  25  46  70 104 140 177 230 293 340 414
#
# _framework density 25.940349999999999
#
# number of rings (size 3 to 8) (size 9 to 14) (size 15 to 20)
#    0.000    0.923    4.615    1.385    4.308    1.231 
#    0.000    6.923    0.000    0.000    0.000    0.000 
#    0.000    0.000    0.000    0.000    0.000    0.000 
#
# Total GULP energy -72545.718686 kJ/mol
# GULP energy per Si atom -5580.439899 kJ/mol
# Density = 2.588131 g / cm^3
# Si number density = 25.940350 Si / 1000 Ang^3
#
#
#
# Elastic Constant Matrix: (Units=GPa)
#
#
# Indices 1 2 3 4 5 6 
#
# 1 109.2673 36.6362 20.2548 -10.4122 -19.7861 8.6531
# 2 36.6362 93.3951 9.6181 -9.0419 -4.6199 -3.5954
# 3 20.2548 9.6181 87.3191 -14.7608 -9.5660 -3.4423
# 4 -10.4122 -9.0419 -14.7608 37.5422 -3.5153 -9.2351
# 5 -19.7861 -4.6199 -9.5660 -3.5153 43.4938 -9.8603
# 6 8.6531 -3.5954 -3.4423 -9.2351 -9.8603 64.1953
#
#
#
# Elastic Compliance Matrix: (Units=1/GPa)
#
#
# Indices 1 2 3 4 5 6 
#
# 1 0.011908 -0.004139 -0.001519 0.001906 0.004584 -0.000940
# 2 -0.004139 0.012612 0.000022 0.002292 0.000009 0.001597
# 3 -0.001519 0.000022 0.013183 0.005606 0.003164 0.002205
# 4 0.001906 0.002292 0.005606 0.031911 0.006219 0.005718
# 5 0.004584 0.000009 0.003164 0.006219 0.027330 0.004645
# 6 -0.000940 0.001597 0.002205 0.005718 0.004645 0.017448
#
#
# Mechanical properties :
#
#
# Convention : Reuss Voigt Hill
#
# Bulk Modulus (GPa) = 37.83346 46.99998 42.41672
# Shear Modulus (GPa) = 37.18194 43.94441 40.56318
#
# Velocity S-wave (km/s) = 3.79009 4.12036 3.95867
# Velocity P-wave (km/s) = 5.81115 6.38704 6.10589
#
# Compressibility (1/GPa) = 0.02643163
#
# Stress axis : x y z
#
# Youngs Moduli (GPa) = 83.98063 79.28663 75.85300
#
# Poissons Ratio (x) = 0.32820 0.11520
# Poissons Ratio (y) = 0.34763 -0.00169
# Poissons Ratio (z) = 0.12754 -0.00177
#
# Static dielectric constant tensor:
#      x y z
#    x 1.241740 0.191550 0.154880 
#    y 0.191550 2.108270 -0.022340 
#    z 0.154880 -0.022340 2.062520 
# 
# From -- ./inp_files/194188.got.cif
#   From: 2010.05.17/outbox.cif.g08.bks.cpg/sg2_98_cif.got.tgz:194188.got - 2010.06.03 11:33:40.
