data_PCOD9022074
_publ_section_title
;
Structure prediction by ZEFSAII (Michael W. Deem and Ramdas Pophale) SiO2 
 PCOD9022074
Probable space group: P -1
;
_chemical_formula_sum "Si O2"
_cell_formula_units_Z 14
_cell_length_a 13.097843
_cell_length_b 8.880693
_cell_length_c 5.655272
_cell_angle_alpha 97.004278
_cell_angle_beta 70.077929
_cell_angle_gamma 105.503384
_cell_volume 595.595907
_symmetry_space_group_name_H-M "P -1"
_symmetry_group_IT_number 2
_symmetry_cell_setting 'triclinic'
loop_
_space_group_symop_operation_xyz
x,y,z
-x,-y,-z
loop_
_atom_site_type_symbol
_atom_site_label
_atom_site_fract_x
_atom_site_fract_y
_atom_site_fract_z
Si Si1 0.490404 0.324913 0.059224
Si Si2 0.084586 0.399954 0.705724
Si Si3 0.580397 0.146477 0.325280
Si Si4 0.870461 0.509959 0.811203
Si Si5 0.705200 0.951625 0.869086
Si Si6 0.042893 0.949620 0.203930
Si Si7 0.298059 0.777597 0.341289
O O1 0.517866 0.271941 0.292108
O O2 0.365241 0.223610 0.099244
O O3 0.500000 0.500000 0.000000
O O4 0.583195 0.260576 0.828600
O O5 0.140152 0.392872 0.401505
O O6 0.002777 0.516726 0.746637
O O7 0.999255 0.236262 0.792282
O O8 0.159266 0.441651 0.892234
O O9 0.691153 0.241242 0.391704
O O10 0.500000 0.000000 0.500000
O O11 0.628041 0.053881 0.068141
O O12 0.796078 0.340480 0.756128
O O13 0.824974 0.982629 0.892494
O O14 0.718770 0.045963 0.629513
O O15 0.000000 0.000000 0.500000
O O16 0.000000 0.000000 0.000000
#
# Coordination Sequence:
#
# PCOD9022074 Si02
#       7
#     2   2   2   2   2   2   2
#     4  11  25  42  65 106 148 175 228 299 374 429
#     4  10  22  42  62  99 135 176 236 286 351 401
#     4  11  21  42  75 104 133 186 249 286 349 446
#     4  10  22  38  70  97 131 176 230 299 339 406
#     4  11  24  45  71  98 142 189 238 298 352 435
#     4  12  28  46  71 102 143 194 242 293 359 432
#     4  11  22  42  72 103 133 189 239 285 356 441
#
# _framework density 23.505869000000001
#
# number of rings (size 3 to 8) (size 9 to 14) (size 15 to 20)
#    0.000    1.143    4.286    1.714    6.000    4.000 
#    0.000    0.000    0.000    0.000    0.000    0.000 
#    0.000    0.000    0.000    0.000    0.000    0.000 
#
# Total GULP energy -77991.910276 kJ/mol
# GULP energy per Si atom -5570.850734 kJ/mol
# Density = 2.345237 g / cm^3
# Si number density = 23.505869 Si / 1000 Ang^3
#
#
#
# Elastic Constant Matrix: (Units=GPa)
#
#
# Indices 1 2 3 4 5 6 
#
# 1 96.4888 76.9917 36.4598 -14.1789 26.5798 4.7241
# 2 76.9917 167.9973 48.2075 -21.1529 28.8658 19.8856
# 3 36.4598 48.2075 113.8112 -15.0884 42.8968 -2.1686
# 4 -14.1789 -21.1529 -15.0884 35.9278 1.0706 6.3667
# 5 26.5798 28.8658 42.8968 1.0706 37.4502 4.0346
# 6 4.7241 19.8856 -2.1686 6.3667 4.0346 35.3037
#
#
#
# Elastic Compliance Matrix: (Units=1/GPa)
#
#
# Indices 1 2 3 4 5 6 
#
# 1 0.018516 -0.006967 0.001010 0.003564 -0.009237 0.001922
# 2 -0.006967 0.011045 -0.001502 0.004224 -0.001323 -0.005992
# 3 0.001010 -0.001502 0.017810 0.007097 -0.020472 0.002864
# 4 0.003564 0.004224 0.007097 0.036436 -0.014161 -0.007373
# 5 -0.009237 -0.001323 -0.020472 -0.014161 0.058499 -0.003407
# 6 0.001922 -0.005992 0.002864 -0.007373 -0.003407 0.033338
#
#
# Mechanical properties :
#
#
# Convention : Reuss Voigt Hill
#
# Bulk Modulus (GPa) = 30.81294 77.95727 54.38511
# Shear Modulus (GPa) = 24.82885 36.17889 30.50387
#
# Velocity S-wave (km/s) = 3.25358 3.92745 3.60629
# Velocity P-wave (km/s) = 5.22029 7.33509 6.36612
#
# Compressibility (1/GPa) = 0.03245390
#
# Stress axis : x y z
#
# Youngs Moduli (GPa) = 54.00849 90.54105 56.14719
#
# Poissons Ratio (x) = 0.63079 -0.05673
# Poissons Ratio (y) = 0.37627 0.08432
# Poissons Ratio (z) = -0.05457 0.13598
#
# Static dielectric constant tensor:
#      x y z
#    x 1.942930 0.228850 -0.164330 
#    y 0.228850 2.808830 -0.757290 
#    z -0.164330 -0.757290 2.678690 
# 
# From -- ./inp_files/61015.got.cif
#   From: 2010.05.17/outbox.cif.g08.bks.cpg/sg2_31_cif.got.tgz:61015.got - 2010.06.03 11:33:40.
