data_PCOD9022758
_publ_section_title
;
Structure prediction by ZEFSAII (Michael W. Deem and Ramdas Pophale) SiO2 
 PCOD9022758
Probable space group: P -1
;
_chemical_formula_sum "Si O2"
_cell_formula_units_Z 14
_cell_length_a 23.971485
_cell_length_b 16.613983
_cell_length_c 9.545510
_cell_angle_alpha 143.686180
_cell_angle_beta 24.515424
_cell_angle_gamma 154.119222
_cell_volume 686.825645
_symmetry_space_group_name_H-M "P -1"
_symmetry_group_IT_number 2
_symmetry_cell_setting 'triclinic'
loop_
_space_group_symop_operation_xyz
x,y,z
-x,-y,-z
loop_
_atom_site_type_symbol
_atom_site_label
_atom_site_fract_x
_atom_site_fract_y
_atom_site_fract_z
Si Si1 0.597988 0.169253 0.406158
Si Si2 0.151443 0.478598 0.512144
Si Si3 0.518229 0.655115 0.754776
Si Si4 0.517694 0.083765 0.927744
Si Si5 0.932028 0.745891 0.342566
Si Si6 0.055212 0.589708 0.652250
Si Si7 0.293129 0.175411 0.151111
O O1 0.783134 0.344946 0.300985
O O2 0.500000 0.000000 0.500000
O O3 0.605535 0.090916 0.138210
O O4 0.469777 0.214366 0.746959
O O5 0.087903 0.330039 0.564282
O O6 0.029596 0.449217 0.623250
O O7 0.331449 0.547950 0.118427
O O8 0.500000 0.500000 0.500000
O O9 0.671326 0.770438 0.689039
O O10 0.535429 0.794380 0.803480
O O11 0.729381 0.223356 0.588161
O O12 0.500000 0.000000 0.000000
O O13 0.761062 0.724479 0.664569
O O14 0.119310 0.959519 0.219749
O O15 0.950531 0.644506 0.037392
O O16 0.000000 0.500000 0.500000
#
# Coordination Sequence:
#
# PCOD9022758 Si02
#       7
#     2   2   2   2   2   2   2
#     4  11  18  42  66  85 118 158 214 254 292 363
#     4  10  23  39  67  90 114 168 210 250 304 367
#     4  10  23  42  63  89 128 160 206 262 307 362
#     4  11  24  39  65  93 119 163 210 254 309 362
#     4  11  23  40  62  92 125 159 206 249 313 377
#     4  11  24  40  59  90 128 158 197 258 310 365
#     4  10  22  39  64  86 123 164 199 254 311 358
#
# _framework density 20.383628000000002
#
# number of rings (size 3 to 8) (size 9 to 14) (size 15 to 20)
#    0.000    1.429    5.714    0.429    6.000    4.571 
#    0.000    0.714    0.000    0.000    0.000    0.000 
#    0.000    0.000    0.000    0.000    0.000    0.000 
#
# Total GULP energy -78184.434566 kJ/mol
# GULP energy per Si atom -5584.602469 kJ/mol
# Density = 2.033723 g / cm^3
# Si number density = 20.383628 Si / 1000 Ang^3
#
#
#
# Elastic Constant Matrix: (Units=GPa)
#
#
# Indices 1 2 3 4 5 6 
#
# 1 168.0677 52.4939 60.1716 31.0236 4.3146 -15.1729
# 2 52.4939 58.8122 36.6608 21.0167 2.4034 -1.3436
# 3 60.1716 36.6608 89.8677 28.9500 -6.9159 -7.7258
# 4 31.0236 21.0167 28.9500 38.6388 3.1219 4.6130
# 5 4.3146 2.4034 -6.9159 3.1219 38.8546 5.5427
# 6 -15.1729 -1.3436 -7.7258 4.6130 5.5427 45.4410
#
#
#
# Elastic Compliance Matrix: (Units=1/GPa)
#
#
# Indices 1 2 3 4 5 6 
#
# 1 0.009600 -0.005531 -0.003228 -0.002509 -0.001515 0.002933
# 2 -0.005531 0.027809 -0.005944 -0.005961 -0.001507 -0.001246
# 3 -0.003228 -0.005944 0.019252 -0.009255 0.004553 0.002404
# 4 -0.002509 -0.005961 -0.009255 0.039070 -0.003261 -0.006156
# 5 -0.001515 -0.001507 0.004553 -0.003261 0.027470 -0.002796
# 6 0.002933 -0.001246 0.002404 -0.006156 -0.002796 0.024324
#
#
# Mechanical properties :
#
#
# Convention : Reuss Voigt Hill
#
# Bulk Modulus (GPa) = 36.69049 68.37783 52.53416
# Shear Modulus (GPa) = 26.87987 35.74831 31.31409
#
# Velocity S-wave (km/s) = 3.63533 4.19235 3.92374
# Velocity P-wave (km/s) = 5.97159 7.55333 6.80855
#
# Compressibility (1/GPa) = 0.02725502
#
# Stress axis : x y z
#
# Youngs Moduli (GPa) = 104.16824 35.96021 51.94391
#
# Poissons Ratio (x) = 0.19890 0.16765
# Poissons Ratio (y) = 0.57617 0.30874
# Poissons Ratio (z) = 0.33621 0.21374
#
# Static dielectric constant tensor:
#      x y z
#    x 1.853790 -0.003650 0.024570 
#    y -0.003650 1.740290 -0.022100 
#    z 0.024570 -0.022100 1.777150 
# 
# From -- ./inp_files/159548.got.cif
#   From: 2010.05.17/outbox.cif.g08.bks.cpg/sg2_80_cif.got.tgz:159548.got - 2010.06.03 11:33:40.
