data_PCOD9022762
_publ_section_title
;
Structure prediction by ZEFSAII (Michael W. Deem and Ramdas Pophale) SiO2 
 PCOD9022762
Probable space group: P -1
;
_chemical_formula_sum "Si O2"
_cell_formula_units_Z 16
_cell_length_a 16.162402
_cell_length_b 9.833642
_cell_length_c 6.156579
_cell_angle_alpha 55.296700
_cell_angle_beta 100.788418
_cell_angle_gamma 126.719170
_cell_volume 627.144318
_symmetry_space_group_name_H-M "P -1"
_symmetry_group_IT_number 2
_symmetry_cell_setting 'triclinic'
loop_
_space_group_symop_operation_xyz
x,y,z
-x,-y,-z
loop_
_atom_site_type_symbol
_atom_site_label
_atom_site_fract_x
_atom_site_fract_y
_atom_site_fract_z
Si Si1 0.388790 0.893990 0.666076
Si Si2 0.168981 0.124677 0.798493
Si Si3 0.919766 0.460485 0.683068
Si Si4 0.634885 0.617185 0.667637
Si Si5 0.203679 0.502291 0.728577
Si Si6 0.998829 0.735664 0.849131
Si Si7 0.463453 0.204110 0.784744
Si Si8 0.697085 0.904739 0.810033
O O1 0.313064 0.654841 0.770533
O O2 0.500000 0.000000 0.500000
O O3 0.426136 0.995658 0.830571
O O4 0.314853 0.960604 0.488203
O O5 0.259868 0.234411 0.559246
O O6 0.181636 0.304755 0.778202
O O7 0.194505 0.009637 0.090671
O O8 0.059582 0.965589 0.764000
O O9 0.812668 0.385094 0.578397
O O10 0.921230 0.318716 0.993223
O O11 0.000000 0.500000 0.500000
O O12 0.970135 0.676942 0.638489
O O13 0.579024 0.380446 0.781368
O O14 0.554410 0.669456 0.513245
O O15 0.662066 0.696293 0.855358
O O16 0.110579 0.414544 0.938034
O O17 0.385885 0.147381 0.997432
#
# Coordination Sequence:
#
# PCOD9022762 Si02
#       8
#     2   2   2   2   2   2   2   2
#     4  11  24  41  61  88 122 159 201 250 300 352
#     4  11  23  39  62  92 123 158 201 245 296 359
#     4   9  21  40  64  89 120 157 198 246 297 352
#     4   9  19  35  58  88 119 153 197 247 294 347
#     4  11  24  40  60  90 125 157 198 251 299 350
#     4  10  22  41  65  90 119 160 202 241 297 362
#     4   9  19  37  59  85 117 155 200 245 294 352
#     4  10  22  39  64  88 120 162 201 244 300 358
#
# _framework density 25.512468999999999
#
# number of rings (size 3 to 8) (size 9 to 14) (size 15 to 20)
#    0.000    2.000    0.000    2.250    0.000   17.000 
#    0.000    0.000    0.000    0.000    0.000    0.000 
#    0.000    0.000    0.000    0.000    0.000    0.000 
#
# Total GULP energy -89455.099762 kJ/mol
# GULP energy per Si atom -5590.943735 kJ/mol
# Density = 2.545440 g / cm^3
# Si number density = 25.512469 Si / 1000 Ang^3
#
#
#
# Elastic Constant Matrix: (Units=GPa)
#
#
# Indices 1 2 3 4 5 6 
#
# 1 68.3316 50.1800 35.2804 11.2805 2.8288 4.2584
# 2 50.1800 245.5793 53.3588 44.9945 -4.0568 6.2498
# 3 35.2804 53.3588 60.2793 38.8784 -3.8311 -0.2857
# 4 11.2805 44.9945 38.8784 51.9135 -0.9218 3.0144
# 5 2.8288 -4.0568 -3.8311 -0.9218 46.8951 5.1380
# 6 4.2584 6.2498 -0.2857 3.0144 5.1380 54.8369
#
#
#
# Elastic Compliance Matrix: (Units=1/GPa)
#
#
# Indices 1 2 3 4 5 6 
#
# 1 0.025765 -0.003076 -0.020726 0.012661 -0.003027 -0.002171
# 2 -0.003076 0.005532 -0.000807 -0.003498 0.000557 -0.000256
# 3 -0.020726 -0.000807 0.051157 -0.033229 0.004335 0.003388
# 4 0.012661 -0.003498 -0.033229 0.044555 -0.002580 -0.002965
# 5 -0.003027 0.000557 0.004335 -0.002580 0.022048 -0.001730
# 6 -0.002171 -0.000256 0.003388 -0.002965 -0.001730 0.018776
#
#
# Mechanical properties :
#
#
# Convention : Reuss Voigt Hill
#
# Bulk Modulus (GPa) = 30.08646 72.42541 51.25594
# Shear Modulus (GPa) = 21.91738 46.42050 34.16894
#
# Velocity S-wave (km/s) = 2.93420 4.27021 3.66362
# Velocity P-wave (km/s) = 4.82678 7.26380 6.16687
#
# Compressibility (1/GPa) = 0.03323754
#
# Stress axis : x y z
#
# Youngs Moduli (GPa) = 38.81296 180.75430 19.54753
#
# Poissons Ratio (x) = 0.55598 0.40514
# Poissons Ratio (y) = 0.11938 0.01577
# Poissons Ratio (z) = 0.80442 0.14584
#
# Static dielectric constant tensor:
#      x y z
#    x 2.000060 -0.051510 0.113400 
#    y -0.051510 2.073410 -0.059250 
#    z 0.113400 -0.059250 2.033620 
# 
# From -- ./inp_files/106715.got.cif
#   From: 2010.05.17/outbox.cif.g08.bks.cpg/sg2_54_cif.got.tgz:106715.got - 2010.06.03 11:33:40.
