data_PCOD9022401
_publ_section_title
;
Structure prediction by ZEFSAII (Michael W. Deem and Ramdas Pophale) SiO2 
 PCOD9022401
Probable space group: P -1
;
_chemical_formula_sum "Si O2"
_cell_formula_units_Z 16
_cell_length_a 14.999266
_cell_length_b 15.036095
_cell_length_c 7.795573
_cell_angle_alpha 91.106542
_cell_angle_beta 74.982673
_cell_angle_gamma 27.736044
_cell_volume 658.367925
_symmetry_space_group_name_H-M "P -1"
_symmetry_group_IT_number 2
_symmetry_cell_setting 'triclinic'
loop_
_space_group_symop_operation_xyz
x,y,z
-x,-y,-z
loop_
_atom_site_type_symbol
_atom_site_label
_atom_site_fract_x
_atom_site_fract_y
_atom_site_fract_z
Si Si1 0.441707 0.289202 0.231633
Si Si2 0.684765 0.828444 0.158646
Si Si3 0.770303 0.233735 0.231258
Si Si4 0.795708 0.665554 0.743972
Si Si5 0.076258 0.207126 0.934991
Si Si6 0.841728 0.001530 0.404471
Si Si7 0.392214 0.295967 0.658486
Si Si8 0.716890 0.371736 0.605714
O O1 0.277300 0.372721 0.200682
O O2 0.403366 0.292452 0.447654
O O3 0.361884 0.461190 0.282544
O O4 0.719925 0.018840 0.053239
O O5 0.807427 0.802952 0.187992
O O6 0.631630 0.785432 0.281685
O O7 0.437178 0.082393 0.212583
O O8 0.842950 0.665157 0.905740
O O9 0.793612 0.289723 0.364719
O O10 0.531639 0.461988 0.248382
O O11 0.720350 0.189427 0.367826
O O12 0.000000 0.000000 0.000000
O O13 0.000000 0.500000 0.500000
O O14 0.042905 0.166829 0.798897
O O15 0.833880 0.448440 0.154903
O O16 0.048592 0.857909 0.411933
O O17 0.634539 0.127146 0.599991
#
# Coordination Sequence:
#
# PCOD9022401 Si02
#       8
#     2   2   2   2   2   2   2   2
#     4  10  23  41  63  99 132 181 223 282 340 397
#     4  10  23  40  61  98 131 192 238 274 328 395
#     4  11  26  50  76 101 135 178 217 280 357 422
#     4  10  22  39  61  93 139 176 234 283 335 391
#     4  10  22  41  66  93 142 178 236 274 329 396
#     4  11  26  45  70 110 133 178 226 281 348 409
#     4  11  23  41  66  94 139 182 231 284 330 397
#     4  11  25  47  73 102 141 166 226 283 344 422
#
# _framework density 24.302522
#
# number of rings (size 3 to 8) (size 9 to 14) (size 15 to 20)
#    0.000    1.500    2.500    1.500    5.250    7.000 
#    0.000    0.000    0.000    0.000    0.000    0.000 
#    0.000    0.000    0.000    0.000    0.000    0.000 
#
# Total GULP energy -89533.543457 kJ/mol
# GULP energy per Si atom -5595.846466 kJ/mol
# Density = 2.424721 g / cm^3
# Si number density = 24.302522 Si / 1000 Ang^3
#
#
#
# Elastic Constant Matrix: (Units=GPa)
#
#
# Indices 1 2 3 4 5 6 
#
# 1 120.5365 31.3420 10.8173 10.1809 16.3912 -6.7629
# 2 31.3420 58.5550 5.6571 14.9856 -2.0614 -12.9383
# 3 10.8173 5.6571 88.1460 34.2984 9.1163 -7.8776
# 4 10.1809 14.9856 34.2984 34.7892 8.0027 -1.9682
# 5 16.3912 -2.0614 9.1163 8.0027 33.4475 6.9407
# 6 -6.7629 -12.9383 -7.8776 -1.9682 6.9407 53.0177
#
#
#
# Elastic Compliance Matrix: (Units=1/GPa)
#
#
# Indices 1 2 3 4 5 6 
#
# 1 0.010668 -0.006193 -0.000999 0.001921 -0.005910 0.000546
# 2 -0.006193 0.024912 0.004649 -0.014577 0.005820 0.004677
# 3 -0.000999 0.004649 0.019552 -0.020750 -0.000247 0.003174
# 4 0.001921 -0.014577 -0.020750 0.056848 -0.009145 -0.003088
# 5 -0.005910 0.005820 -0.000247 -0.009145 0.036335 -0.004466
# 6 0.000546 0.004677 0.003174 -0.003088 -0.004466 0.021014
#
#
# Mechanical properties :
#
#
# Convention : Reuss Voigt Hill
#
# Bulk Modulus (GPa) = 19.98110 40.31892 30.15001
# Shear Modulus (GPa) = 26.16447 38.87895 32.52171
#
# Velocity S-wave (km/s) = 3.28474 4.00408 3.66211
# Velocity P-wave (km/s) = 4.75665 6.16468 5.50586
#
# Compressibility (1/GPa) = 0.05004731
#
# Stress axis : x y z
#
# Youngs Moduli (GPa) = 93.73599 40.14061 51.14438
#
# Poissons Ratio (x) = 0.24858 0.05111
# Poissons Ratio (y) = 0.58049 -0.23777
# Poissons Ratio (z) = 0.09366 -0.18662
#
# Static dielectric constant tensor:
#      x y z
#    x 1.974320 -0.012050 -0.011470 
#    y -0.012050 1.955440 0.011170 
#    z -0.011470 0.011170 1.921750 
# 
# From -- ./inp_files/315218.got.cif
#   From: 2010.05.17/outbox.cif.g08.bks.cpg/sg2_158_cif.got.tgz:315218.got - 2010.06.03 11:33:40.
