data_PCOD9022904
_publ_section_title
;
Structure prediction by ZEFSAII (Michael W. Deem and Ramdas Pophale) SiO2 
 PCOD9022904
Probable space group: P -1
;
_chemical_formula_sum "Si O2"
_cell_formula_units_Z 16
_cell_length_a 11.549554
_cell_length_b 8.669590
_cell_length_c 8.496732
_cell_angle_alpha 112.687712
_cell_angle_beta 93.222486
_cell_angle_gamma 125.393839
_cell_volume 594.015362
_symmetry_space_group_name_H-M "P -1"
_symmetry_group_IT_number 2
_symmetry_cell_setting 'triclinic'
loop_
_space_group_symop_operation_xyz
x,y,z
-x,-y,-z
loop_
_atom_site_type_symbol
_atom_site_label
_atom_site_fract_x
_atom_site_fract_y
_atom_site_fract_z
Si Si1 0.320017 0.741341 0.510956
Si Si2 0.325531 0.406179 0.030732
Si Si3 0.987366 0.400628 0.632680
Si Si4 0.420820 0.143349 0.900016
Si Si5 0.539537 0.659985 0.424330
Si Si6 0.119409 0.964185 0.336310
Si Si7 0.818290 0.174643 0.020978
Si Si8 0.902710 0.742880 0.760785
O O1 0.468791 0.781969 0.477221
O O2 0.215774 0.478666 0.441915
O O3 0.372630 0.937251 0.709971
O O4 0.186964 0.701243 0.378500
O O5 0.403449 0.631876 0.027046
O O6 0.457605 0.501285 0.208601
O O7 0.186347 0.318006 0.102515
O O8 0.321828 0.218588 0.881285
O O9 0.853361 0.154275 0.840303
O O10 0.123097 0.589860 0.830228
O O11 0.000000 0.500000 0.500000
O O12 0.981277 0.199428 0.592730
O O13 0.354910 0.029296 0.021475
O O14 0.500000 0.500000 0.500000
O O15 0.718655 0.837948 0.502160
O O16 0.067495 0.064728 0.260131
O O17 0.937447 0.185963 0.147508
#
# Coordination Sequence:
#
# PCOD9022904 Si02
#       8
#     2   2   2   2   2   2   2   2
#     4  10  22  42  69  99 130 187 223 288 347 414
#     4  10  22  39  65 103 134 185 224 284 339 416
#     4  11  24  43  67 100 139 177 231 289 354 409
#     4  11  21  39  68  99 144 172 228 281 357 399
#     4  11  21  42  69  98 135 172 243 278 342 426
#     4  12  23  42  71  99 133 186 232 291 333 420
#     4  11  23  43  72 101 139 184 231 287 347 420
#     4  10  22  42  72 101 137 184 244 269 349 424
#
# _framework density 26.93533
#
# number of rings (size 3 to 8) (size 9 to 14) (size 15 to 20)
#    0.000    1.250    5.000    1.500    0.000    5.500 
#    0.000    6.250    2.750    0.000    0.000    0.000 
#    0.000    0.000    0.000    0.000    0.000    0.000 
#
# Total GULP energy -89248.026578 kJ/mol
# GULP energy per Si atom -5578.001661 kJ/mol
# Density = 2.687402 g / cm^3
# Si number density = 26.935330 Si / 1000 Ang^3
#
#
#
# Elastic Constant Matrix: (Units=GPa)
#
#
# Indices 1 2 3 4 5 6 
#
# 1 86.9631 34.6435 20.4729 -11.9524 3.2935 3.0052
# 2 34.6435 174.1766 41.1175 -9.0203 -6.9407 -0.5733
# 3 20.4729 41.1175 111.3349 8.1775 -7.6883 -3.1998
# 4 -11.9524 -9.0203 8.1775 50.3467 1.4230 -4.8330
# 5 3.2935 -6.9407 -7.6883 1.4230 43.0264 5.3823
# 6 3.0052 -0.5733 -3.1998 -4.8330 5.3823 28.7220
#
#
#
# Elastic Compliance Matrix: (Units=1/GPa)
#
#
# Indices 1 2 3 4 5 6 
#
# 1 0.013329 -0.002077 -0.002054 0.003096 -0.001722 -0.000821
# 2 -0.002077 0.006744 -0.002125 0.001051 0.000815 0.000139
# 3 -0.002054 -0.002125 0.010467 -0.002560 0.001695 0.000590
# 4 0.003096 0.001051 -0.002560 0.021570 -0.001658 0.003352
# 5 -0.001722 0.000815 0.001695 -0.001658 0.024422 -0.004470
# 6 -0.000821 0.000139 0.000590 0.003352 -0.004470 0.036373
#
#
# Mechanical properties :
#
#
# Convention : Reuss Voigt Hill
#
# Bulk Modulus (GPa) = 55.47431 62.77137 59.12284
# Shear Modulus (GPa) = 38.04442 42.83506 40.43974
#
# Velocity S-wave (km/s) = 3.76232 3.99217 3.87895
# Velocity P-wave (km/s) = 6.28597 6.67870 6.48531
#
# Compressibility (1/GPa) = 0.01802636
#
# Stress axis : x y z
#
# Youngs Moduli (GPa) = 75.02304 148.28972 95.54250
#
# Poissons Ratio (x) = 0.30805 0.19622
# Poissons Ratio (y) = 0.15585 0.20306
# Poissons Ratio (z) = 0.15408 0.31517
#
# Static dielectric constant tensor:
#      x y z
#    x 2.191950 0.011810 -0.177380 
#    y 0.011810 2.277970 0.012560 
#    z -0.177380 0.012560 2.169340 
# 
# From -- ./inp_files/325006.got.cif
#   From: 2010.05.17/outbox.cif.g08.bks.cpg/sg2_163_cif.got.tgz:325006.got - 2010.06.03 11:33:40.
