data_PCOD9022782
_publ_section_title
;
Structure prediction by ZEFSAII (Michael W. Deem and Ramdas Pophale) SiO2 
 PCOD9022782
Probable space group: P -1
;
_chemical_formula_sum "Si O2"
_cell_formula_units_Z 16
_cell_length_a 13.558374
_cell_length_b 14.224509
_cell_length_c 15.317431
_cell_angle_alpha 160.802403
_cell_angle_beta 40.235052
_cell_angle_gamma 135.900859
_cell_volume 627.396767
_symmetry_space_group_name_H-M "P -1"
_symmetry_group_IT_number 2
_symmetry_cell_setting 'triclinic'
loop_
_space_group_symop_operation_xyz
x,y,z
-x,-y,-z
loop_
_atom_site_type_symbol
_atom_site_label
_atom_site_fract_x
_atom_site_fract_y
_atom_site_fract_z
Si Si1 0.892123 0.780871 0.332598
Si Si2 0.511628 0.966876 0.318698
Si Si3 0.966920 0.822948 0.778374
Si Si4 0.695385 0.974742 0.963181
Si Si5 0.260014 0.028970 0.685201
Si Si6 0.555060 0.387811 0.108030
Si Si7 0.787522 0.599079 0.411530
Si Si8 0.858514 0.555321 0.989600
O O1 0.759764 0.697419 0.416393
O O2 0.855216 0.830762 0.300020
O O3 0.000000 0.000000 0.500000
O O4 0.000000 0.500000 0.000000
O O5 0.385012 0.914155 0.432273
O O6 0.668886 0.985817 0.280475
O O7 0.481111 0.274412 0.562544
O O8 0.509883 0.713003 0.029289
O O9 0.807323 0.889738 0.894538
O O10 0.000000 0.500000 0.500000
O O11 0.095795 0.891689 0.679837
O O12 0.000000 0.000000 0.000000
O O13 0.533692 0.817925 0.947200
O O14 0.761956 0.845022 0.714715
O O15 0.697216 0.316483 0.251719
O O16 0.226873 0.350084 0.956936
O O17 0.738638 0.350464 0.941274
O O18 0.969350 0.523342 0.219885
#
# Coordination Sequence:
#
# PCOD9022782 Si02
#       8
#     2   2   2   2   2   2   2   2
#     4  10  22  41  66  98 130 157 210 275 331 364
#     4  10  23  40  61  91 130 170 206 273 307 367
#     4  12  25  38  59  87 129 166 212 256 310 374
#     4  12  24  42  64  93 131 173 209 259 330 377
#     4  10  22  39  64  91 124 165 224 253 315 375
#     4  11  24  42  64  91 135 168 215 253 326 370
#     4  11  23  42  67  94 127 166 213 269 321 381
#     4  10  23  42  69  97 122 169 218 268 311 390
#
# _framework density 25.502203999999999
#
# number of rings (size 3 to 8) (size 9 to 14) (size 15 to 20)
#    0.000    1.250    1.250    4.500    1.750    8.500 
#    0.000    1.250    0.000    0.000    0.000    0.000 
#    0.000    0.000    0.000    0.000    0.000    0.000 
#
# Total GULP energy -89513.212595 kJ/mol
# GULP energy per Si atom -5594.575787 kJ/mol
# Density = 2.544416 g / cm^3
# Si number density = 25.502204 Si / 1000 Ang^3
#
#
#
# Elastic Constant Matrix: (Units=GPa)
#
#
# Indices 1 2 3 4 5 6 
#
# 1 65.3325 9.2125 8.4499 -0.2016 -7.2573 0.5621
# 2 9.2125 153.5015 0.4853 5.4952 -7.4534 17.5597
# 3 8.4499 0.4853 83.0910 13.6246 22.1115 -7.3168
# 4 -0.2016 5.4952 13.6246 48.7826 -3.7572 -1.2811
# 5 -7.2573 -7.4534 22.1115 -3.7572 28.2560 -3.7011
# 6 0.5621 17.5597 -7.3168 -1.2811 -3.7011 44.3963
#
#
#
# Elastic Compliance Matrix: (Units=1/GPa)
#
#
# Indices 1 2 3 4 5 6 
#
# 1 0.016760 -0.000705 -0.003990 0.001843 0.007497 0.000087
# 2 -0.000705 0.006971 -0.000555 -0.000577 0.001660 -0.002718
# 3 -0.003990 -0.000555 0.017755 -0.006073 -0.015648 0.001717
# 4 0.001843 -0.000577 -0.006073 0.022913 0.008192 0.000548
# 5 0.007497 0.001660 -0.015648 0.008192 0.051243 0.001178
# 6 0.000087 -0.002718 0.001717 0.000548 0.001178 0.023995
#
#
# Mechanical properties :
#
#
# Convention : Reuss Voigt Hill
#
# Bulk Modulus (GPa) = 32.27411 37.58006 34.92709
# Shear Modulus (GPa) = 31.15932 43.20546 37.18239
#
# Velocity S-wave (km/s) = 3.49926 4.12051 3.82253
# Velocity P-wave (km/s) = 5.38603 6.11606 5.76262
#
# Compressibility (1/GPa) = 0.03098459
#
# Stress axis : x y z
#
# Youngs Moduli (GPa) = 59.66754 143.45516 56.32201
#
# Poissons Ratio (x) = 0.10116 0.22471
# Poissons Ratio (y) = 0.04207 0.03128
# Poissons Ratio (z) = 0.23806 0.07968
#
# Static dielectric constant tensor:
#      x y z
#    x 2.153440 -0.054250 -0.016600 
#    y -0.054250 2.052280 0.055650 
#    z -0.016600 0.055650 2.056460 
# 
# From -- ./inp_files/534672.got.cif
#   From: 2010.05.17/outbox.cif.g08.bks.cpg/sg2_268_cif.got.tgz:534672.got - 2010.06.03 11:33:40.
