data_PCOD9022697
_publ_section_title
;
Structure prediction by ZEFSAII (Michael W. Deem and Ramdas Pophale) SiO2 
 PCOD9022697
Probable space group: P -1
;
_chemical_formula_sum "Si O2"
_cell_formula_units_Z 15
_cell_length_a 9.398242
_cell_length_b 8.889053
_cell_length_c 18.370545
_cell_angle_alpha 37.165644
_cell_angle_beta 135.310902
_cell_angle_gamma 134.135544
_cell_volume 620.838832
_symmetry_space_group_name_H-M "P -1"
_symmetry_group_IT_number 2
_symmetry_cell_setting 'triclinic'
loop_
_space_group_symop_operation_xyz
x,y,z
-x,-y,-z
loop_
_atom_site_type_symbol
_atom_site_label
_atom_site_fract_x
_atom_site_fract_y
_atom_site_fract_z
Si Si1 0.293818 0.532946 0.950097
Si Si2 0.902196 0.736076 0.284891
Si Si3 0.956808 0.460980 0.272693
Si Si4 0.651818 0.699294 0.532245
Si Si5 0.000000 0.000000 0.000000
Si Si6 0.786335 0.256417 0.012958
Si Si7 0.534426 0.459751 0.739604
Si Si8 0.605938 0.986033 0.622234
O O1 0.192271 0.670990 0.797846
O O2 0.500000 0.500000 0.000000
O O3 0.329852 0.697120 0.973316
O O4 0.137477 0.235538 0.013709
O O5 0.859114 0.517462 0.290978
O O6 0.846582 0.991291 0.138798
O O7 0.151967 0.824696 0.360422
O O8 0.721075 0.632539 0.320227
O O9 0.114951 0.294274 0.408446
O O10 0.052006 0.762622 0.160383
O O11 0.500000 0.500000 0.500000
O O12 0.627965 0.572021 0.653358
O O13 0.552558 0.936632 0.410074
O O14 0.645025 0.256888 0.890229
O O15 0.000000 0.500000 0.000000
O O16 0.607618 0.689948 0.737940
O O17 0.500000 0.000000 0.500000
#
# Coordination Sequence:
#
# PCOD9022697 Si02
#       8
#     2   2   2   2   1   2   2   2
#     4  10  22  39  63  95 134 170 213 264 329 400
#     4  12  24  44  68 103 138 174 224 284 333 411
#     4  10  22  41  67  93 139 172 220 273 330 395
#     4  11  23  45  70  96 127 184 233 274 335 395
#     4   8  22  36  66  90 132 170 206 264 342 376
#     4  12  23  41  70 105 139 178 216 272 351 407
#     4  11  26  43  71  98 136 177 223 282 345 397
#     4  10  24  44  69  90 134 180 231 275 330 396
#
# _framework density 24.160857
#
# number of rings (size 3 to 8) (size 9 to 14) (size 15 to 20)
#    0.800    0.533    2.667    2.800    3.733    3.200 
#    0.000    2.000    2.933    0.000    0.000    0.000 
#    0.000    0.000    0.000    0.000    0.000    0.000 
#
# Total GULP energy -83517.773863 kJ/mol
# GULP energy per Si atom -5567.851591 kJ/mol
# Density = 2.410587 g / cm^3
# Si number density = 24.160857 Si / 1000 Ang^3
#
#
#
# Elastic Constant Matrix: (Units=GPa)
#
#
# Indices 1 2 3 4 5 6 
#
# 1 87.7353 18.0512 10.5975 -11.9125 13.7971 -17.0518
# 2 18.0512 85.0489 21.4441 -8.2248 -1.4489 -5.9955
# 3 10.5975 21.4441 81.8568 7.7898 20.2873 -4.9091
# 4 -11.9125 -8.2248 7.7898 29.4134 -6.1249 4.0164
# 5 13.7971 -1.4489 20.2873 -6.1249 25.5074 4.0582
# 6 -17.0518 -5.9955 -4.9091 4.0164 4.0582 33.9382
#
#
#
# Elastic Compliance Matrix: (Units=1/GPa)
#
#
# Indices 1 2 3 4 5 6 
#
# 1 0.015445 -0.003245 0.002029 0.001290 -0.011222 0.008670
# 2 -0.003245 0.014838 -0.006704 0.006946 0.009914 -0.001986
# 3 0.002029 -0.006704 0.020704 -0.012042 -0.021931 0.006877
# 4 0.001290 0.006946 -0.012042 0.045159 0.021353 -0.007764
# 5 -0.011222 0.009914 -0.021931 0.021353 0.071289 -0.018111
# 6 0.008670 -0.001986 0.006877 -0.007764 -0.018111 0.037550
#
#
# Mechanical properties :
#
#
# Convention : Reuss Voigt Hill
#
# Bulk Modulus (GPa) = 28.45247 39.42517 33.93882
# Shear Modulus (GPa) = 21.50166 31.40835 26.45501
#
# Velocity S-wave (km/s) = 2.98642 3.60942 3.31260
# Velocity P-wave (km/s) = 4.86759 5.80722 5.35804
#
# Compressibility (1/GPa) = 0.03514633
#
# Stress axis : x y z
#
# Youngs Moduli (GPa) = 64.74404 67.39597 48.30027
#
# Poissons Ratio (x) = 0.21870 -0.09800
# Poissons Ratio (y) = 0.21010 0.32382
# Poissons Ratio (z) = -0.13136 0.45184
#
# Static dielectric constant tensor:
#      x y z
#    x 1.966150 0.030150 -0.016650 
#    y 0.030150 1.931960 -0.072530 
#    z -0.016650 -0.072530 2.006380 
# 
# From -- ./inp_files/378630.got.cif
#   From: 2010.05.17/outbox.cif.g08.bks.cpg/sg2_190_cif.got.tgz:378630.got - 2010.06.03 11:33:40.
