data_PCOD9022714
_publ_section_title
;
Structure prediction by ZEFSAII (Michael W. Deem and Ramdas Pophale) SiO2 
 PCOD9022714
Probable space group: P -1
;
_chemical_formula_sum "Si O2"
_cell_formula_units_Z 14
_cell_length_a 12.581435
_cell_length_b 5.253306
_cell_length_c 17.767798
_cell_angle_alpha 85.679671
_cell_angle_beta 144.441622
_cell_angle_gamma 73.480680
_cell_volume 546.803210
_symmetry_space_group_name_H-M "P -1"
_symmetry_group_IT_number 2
_symmetry_cell_setting 'triclinic'
loop_
_space_group_symop_operation_xyz
x,y,z
-x,-y,-z
loop_
_atom_site_type_symbol
_atom_site_label
_atom_site_fract_x
_atom_site_fract_y
_atom_site_fract_z
Si Si1 0.542685 0.502764 0.150807
Si Si2 0.296170 0.353084 0.897781
Si Si3 0.320035 0.892960 0.377934
Si Si4 0.656302 0.759914 0.470964
Si Si5 0.347790 0.729434 0.617571
Si Si6 0.074417 0.142174 0.859040
Si Si7 0.121105 0.638370 0.102624
O O1 0.710575 0.451157 0.181225
O O2 0.672709 0.328375 0.305573
O O3 0.391114 0.409671 0.025945
O O4 0.334670 0.873033 0.040095
O O5 0.091883 0.331302 0.797816
O O6 0.500000 0.000000 0.000000
O O7 0.500000 0.500000 0.500000
O O8 0.386057 0.921009 0.330265
O O9 0.067472 0.989362 0.240788
O O10 0.325999 0.106287 0.440583
O O11 0.729271 0.432005 0.480241
O O12 0.738624 0.916027 0.459779
O O13 0.617682 0.549097 0.764334
O O14 0.924913 0.364559 0.835987
O O15 0.000000 0.500000 0.000000
O O16 0.000000 0.000000 0.000000
#
# Coordination Sequence:
#
# PCOD9022714 Si02
#       7
#     2   2   2   2   2   2   2
#     4  10  22  39  63  97 127 168 207 270 323 393
#     4   9  21  40  61  92 127 166 217 252 332 383
#     4  11  23  43  61  89 131 173 225 259 305 380
#     4  11  24  40  61  89 122 178 211 256 312 374
#     4  12  23  39  63  92 133 165 206 262 328 384
#     4  11  22  38  63  93 125 174 210 268 311 385
#     4  12  23  34  53  91 135 161 197 249 324 388
#
# _framework density 25.603363000000002
#
# number of rings (size 3 to 8) (size 9 to 14) (size 15 to 20)
#    0.000    1.143    4.286    1.714    4.000    2.286 
#    0.000    0.000    0.000    1.714    0.000    0.000 
#    0.000    0.000    0.000    0.000    0.000    0.000 
#
# Total GULP energy -78140.608639 kJ/mol
# GULP energy per Si atom -5581.472046 kJ/mol
# Density = 2.554509 g / cm^3
# Si number density = 25.603363 Si / 1000 Ang^3
#
#
#
# Elastic Constant Matrix: (Units=GPa)
#
#
# Indices 1 2 3 4 5 6 
#
# 1 124.3073 30.5180 15.8188 34.9376 -19.1161 17.2938
# 2 30.5180 122.1870 20.6721 26.8134 -6.1299 21.0008
# 3 15.8188 20.6721 53.7249 20.3637 -3.9556 5.2800
# 4 34.9376 26.8134 20.3637 55.7150 -0.9919 3.0786
# 5 -19.1161 -6.1299 -3.9556 -0.9919 41.2988 6.5313
# 6 17.2938 21.0008 5.2800 3.0786 6.5313 35.8170
#
#
#
# Elastic Compliance Matrix: (Units=1/GPa)
#
#
# Indices 1 2 3 4 5 6 
#
# 1 0.011850 -0.000067 0.000289 -0.007045 0.006325 -0.006273
# 2 -0.000067 0.010506 -0.001761 -0.004004 0.002201 -0.005925
# 3 0.000289 -0.001761 0.022365 -0.007350 0.002181 -0.002170
# 4 -0.007045 -0.004004 -0.007350 0.026595 -0.004777 0.005418
# 5 0.006325 0.002201 0.002181 -0.004777 0.029074 -0.009557
# 6 -0.006273 -0.005925 -0.002170 0.005418 -0.009557 0.036020
#
#
# Mechanical properties :
#
#
# Convention : Reuss Voigt Hill
#
# Bulk Modulus (GPa) = 24.01300 48.24854 36.13077
# Shear Modulus (GPa) = 32.60116 42.11351 37.35734
#
# Velocity S-wave (km/s) = 3.57223 4.06007 3.82393
# Velocity P-wave (km/s) = 5.13942 6.39252 5.79991
#
# Compressibility (1/GPa) = 0.04164410
#
# Stress axis : x y z
#
# Youngs Moduli (GPa) = 84.39055 95.18071 44.71186
#
# Poissons Ratio (x) = 0.00639 -0.01293
# Poissons Ratio (y) = 0.00567 0.07873
# Poissons Ratio (z) = -0.02441 0.16759
#
# Static dielectric constant tensor:
#      x y z
#    x 2.168450 0.244450 0.062020 
#    y 0.244450 2.616480 0.239250 
#    z 0.062020 0.239250 2.298880 
# 
# From -- ./inp_files/64544.got.cif
#   From: 2010.05.17/outbox.cif.g08.bks.cpg/sg2_33_cif.got.tgz:64544.got - 2010.06.03 11:33:40.
