data_PCOD9022624
_publ_section_title
;
Structure prediction by ZEFSAII (Michael W. Deem and Ramdas Pophale) SiO2 
 PCOD9022624
Probable space group: P -1
;
_chemical_formula_sum "Si O2"
_cell_formula_units_Z 16
_cell_length_a 13.772678
_cell_length_b 7.854926
_cell_length_c 11.494877
_cell_angle_alpha 48.348962
_cell_angle_beta 133.754870
_cell_angle_gamma 129.996687
_cell_volume 631.343677
_symmetry_space_group_name_H-M "P -1"
_symmetry_group_IT_number 2
_symmetry_cell_setting 'triclinic'
loop_
_space_group_symop_operation_xyz
x,y,z
-x,-y,-z
loop_
_atom_site_type_symbol
_atom_site_label
_atom_site_fract_x
_atom_site_fract_y
_atom_site_fract_z
Si Si1 0.954273 0.775463 0.290140
Si Si2 0.019843 0.278721 0.401017
Si Si3 0.794478 0.118833 0.990414
Si Si4 0.274187 0.478253 0.349420
Si Si5 0.419021 0.118675 0.542563
Si Si6 0.782490 0.490961 0.073542
Si Si7 0.788591 0.993264 0.770305
Si Si8 0.493459 0.747311 0.938889
O O1 0.976456 0.677435 0.477623
O O2 0.820432 0.595145 0.190553
O O3 0.083995 0.835201 0.279515
O O4 0.923837 0.028194 0.172869
O O5 0.165744 0.422060 0.391987
O O6 0.889141 0.344593 0.207500
O O7 0.000000 0.000000 0.500000
O O8 0.787652 0.388678 0.862921
O O9 0.785825 0.071899 0.864582
O O10 0.652029 0.929355 0.015041
O O11 0.305360 0.236470 0.447398
O O12 0.428304 0.670250 0.423479
O O13 0.358516 0.038252 0.401383
O O14 0.430881 0.898805 0.728722
O O15 0.616417 0.330373 0.009738
O O16 0.810271 0.734499 0.914386
O O17 0.500000 0.500000 0.000000
#
# Coordination Sequence:
#
# PCOD9022624 Si02
#       8
#     2   2   2   2   2   2   2   2
#     4  11  22  38  61  89 125 161 207 251 308 360
#     4  12  25  40  62  91 124 165 205 250 304 369
#     4  10  22  39  63  92 122 165 200 257 305 364
#     4  10  22  44  62  89 128 163 204 246 307 372
#     4  10  24  40  66  91 123 166 201 254 307 363
#     4  11  23  39  62  90 126 160 200 262 304 359
#     4  11  21  39  61  95 122 157 212 253 306 360
#     4  11  20  40  62  92 128 156 206 256 302 358
#
# _framework density 25.342776000000001
#
# number of rings (size 3 to 8) (size 9 to 14) (size 15 to 20)
#    0.000    1.250    2.500    5.625    0.000    6.000 
#    0.000    2.500    0.000    6.000    0.000    0.000 
#    0.000    0.000    0.000    0.000    0.000    0.000 
#
# Total GULP energy -89692.678114 kJ/mol
# GULP energy per Si atom -5605.792382 kJ/mol
# Density = 2.528509 g / cm^3
# Si number density = 25.342776 Si / 1000 Ang^3
#
#
#
# Elastic Constant Matrix: (Units=GPa)
#
#
# Indices 1 2 3 4 5 6 
#
# 1 155.0919 35.9472 26.5252 -18.3205 10.8014 20.8102
# 2 35.9472 63.8632 17.4572 -27.9132 -8.1285 0.5301
# 3 26.5252 17.4572 114.3319 -21.6181 19.9199 7.4551
# 4 -18.3205 -27.9132 -21.6181 49.0640 -8.1370 0.7649
# 5 10.8014 -8.1285 19.9199 -8.1370 49.3289 -15.5165
# 6 20.8102 0.5301 7.4551 0.7649 -15.5165 49.8412
#
#
#
# Elastic Compliance Matrix: (Units=1/GPa)
#
#
# Indices 1 2 3 4 5 6 
#
# 1 0.008673 -0.005667 -0.000196 -0.000728 -0.004413 -0.004894
# 2 -0.005667 0.026831 -0.002394 0.013773 0.010644 0.005541
# 3 -0.000196 -0.002394 0.010755 0.002476 -0.005288 -0.003185
# 4 -0.000728 0.013773 0.002476 0.030152 0.006862 0.001461
# 5 -0.004413 0.010644 -0.005288 0.006862 0.029952 0.011740
# 6 -0.004894 0.005541 -0.003185 0.001461 0.011740 0.026157
#
#
# Mechanical properties :
#
#
# Convention : Reuss Voigt Hill
#
# Bulk Modulus (GPa) = 33.61991 54.79402 44.20696
# Shear Modulus (GPa) = 31.45647 46.53731 38.99689
#
# Velocity S-wave (km/s) = 3.52695 4.28987 3.92698
# Velocity P-wave (km/s) = 5.46632 6.79746 6.16791
#
# Compressibility (1/GPa) = 0.02974428
#
# Stress axis : x y z
#
# Youngs Moduli (GPa) = 115.29919 37.26988 92.98241
#
# Poissons Ratio (x) = 0.21123 0.01826
# Poissons Ratio (y) = 0.65345 0.22256
# Poissons Ratio (z) = 0.02264 0.08921
#
# Static dielectric constant tensor:
#      x y z
#    x 2.012110 -0.088490 0.036720 
#    y -0.088490 2.094040 0.005340 
#    z 0.036720 0.005340 1.960490 
# 
# From -- ./inp_files/274525.got.cif
#   From: 2010.05.17/outbox.cif.g08.bks.cpg/sg2_138_cif.got.tgz:274525.got - 2010.06.03 11:33:40.
