data_PCOD9022628
_publ_section_title
;
Structure prediction by ZEFSAII (Michael W. Deem and Ramdas Pophale) SiO2 
 PCOD9022628
Probable space group: P -1
;
_chemical_formula_sum "Si O2"
_cell_formula_units_Z 14
_cell_length_a 9.120983
_cell_length_b 12.107490
_cell_length_c 9.403327
_cell_angle_alpha 144.663158
_cell_angle_beta 92.352146
_cell_angle_gamma 88.561699
_cell_volume 600.040503
_symmetry_space_group_name_H-M "P -1"
_symmetry_group_IT_number 2
_symmetry_cell_setting 'triclinic'
loop_
_space_group_symop_operation_xyz
x,y,z
-x,-y,-z
loop_
_atom_site_type_symbol
_atom_site_label
_atom_site_fract_x
_atom_site_fract_y
_atom_site_fract_z
Si Si1 0.445534 0.359910 0.539121
Si Si2 0.949511 0.321906 0.910797
Si Si3 0.864918 0.673001 0.429018
Si Si4 0.125360 0.868432 0.798241
Si Si5 0.394756 0.953221 0.684236
Si Si6 0.391245 0.755263 0.863614
Si Si7 0.805421 0.922221 0.404932
O O1 0.276460 0.293125 0.443852
O O2 0.539479 0.256943 0.555906
O O3 0.433137 0.585160 0.791719
O O4 0.533306 0.307809 0.346813
O O5 0.094305 0.203397 0.829821
O O6 0.856349 0.145016 0.655139
O O7 0.866824 0.448649 0.154455
O O8 0.000000 0.500000 0.000000
O O9 0.832089 0.812727 0.439457
O O10 0.022879 0.720047 0.550981
O O11 0.249344 0.945913 0.772481
O O12 0.224033 0.789454 0.848008
O O13 0.000000 0.000000 0.000000
O O14 0.352023 0.062977 0.655587
O O15 0.527307 0.058456 0.880526
#
# Coordination Sequence:
#
# PCOD9022628 Si02
#       7
#     2   2   2   2   2   2   2
#     4  10  23  41  60  90 126 163 209 253 307 374
#     4   9  19  37  58  89 125 160 204 251 305 363
#     4  11  23  40  65  96 126 159 210 262 308 372
#     4  11  22  39  67  97 124 160 210 262 311 368
#     4  11  22  41  64  88 128 168 201 250 313 377
#     4  10  23  42  63  88 125 168 204 253 316 367
#     4  10  22  39  63  92 126 166 204 255 316 368
#
# _framework density 23.331757
#
# number of rings (size 3 to 8) (size 9 to 14) (size 15 to 20)
#    0.000    1.714    0.000    6.000    0.000   10.286 
#    0.000    2.857    0.000    0.000    0.000    0.000 
#    0.000    0.000    0.000    0.000    0.000    0.000 
#
# Total GULP energy -78029.870087 kJ/mol
# GULP energy per Si atom -5573.562149 kJ/mol
# Density = 2.327865 g / cm^3
# Si number density = 23.331757 Si / 1000 Ang^3
#
#
#
# Elastic Constant Matrix: (Units=GPa)
#
#
# Indices 1 2 3 4 5 6 
#
# 1 150.5069 46.7471 48.6222 10.5106 -26.5263 -25.9498
# 2 46.7471 75.2234 39.8188 31.3374 -3.1355 -25.9231
# 3 48.6222 39.8188 112.4836 32.0419 -22.9927 -16.4419
# 4 10.5106 31.3374 32.0419 20.8320 -1.8576 -8.0505
# 5 -26.5263 -3.1355 -22.9927 -1.8576 22.4171 3.1050
# 6 -25.9498 -25.9231 -16.4419 -8.0505 3.1050 41.9043
#
#
#
# Elastic Compliance Matrix: (Units=1/GPa)
#
#
# Indices 1 2 3 4 5 6 
#
# 1 0.013483 -0.016185 -0.005888 0.027721 0.009862 0.000621
# 2 -0.016185 0.066604 0.016916 -0.111990 -0.004066 0.016604
# 3 -0.005888 0.016916 0.026906 -0.060593 0.017358 0.004448
# 4 0.027721 -0.111990 -0.060593 0.286500 -0.018572 -0.019471
# 5 0.009862 -0.004066 0.017358 -0.018572 0.071764 0.001517
# 6 0.000621 0.016604 0.004448 -0.019471 0.001517 0.032412
#
#
# Mechanical properties :
#
#
# Convention : Reuss Voigt Hill
#
# Bulk Modulus (GPa) = 10.34364 67.62115 38.98240
# Shear Modulus (GPa) = 9.25565 30.56574 19.91070
#
# Velocity S-wave (km/s) = 1.99389 3.62339 2.92442
# Velocity P-wave (km/s) = 3.12149 6.82280 5.30539
#
# Compressibility (1/GPa) = 0.09667775
#
# Stress axis : x y z
#
# Youngs Moduli (GPa) = 74.16794 15.01407 37.16640
#
# Poissons Ratio (x) = 0.24300 0.21885
# Poissons Ratio (y) = 1.20039 -0.62869
# Poissons Ratio (z) = 0.43674 -0.25397
#
# Static dielectric constant tensor:
#      x y z
#    x 1.907060 0.076390 -0.011880 
#    y 0.076390 2.026850 -0.031460 
#    z -0.011880 -0.031460 1.892450 
# 
# From -- ./inp_files/396760.got.cif
#   From: 2010.05.17/outbox.cif.g08.bks.cpg/sg2_199_cif.got.tgz:396760.got - 2010.06.03 11:33:40.
