data_PCOD9022316
_publ_section_title
;
Structure prediction by ZEFSAII (Michael W. Deem and Ramdas Pophale) SiO2 
 PCOD9022316
Probable space group: P -1
;
_chemical_formula_sum "Si O2"
_cell_formula_units_Z 16
_cell_length_a 5.492570
_cell_length_b 9.652255
_cell_length_c 16.529197
_cell_angle_alpha 87.112999
_cell_angle_beta 53.023907
_cell_angle_gamma 83.299788
_cell_volume 695.071559
_symmetry_space_group_name_H-M "P -1"
_symmetry_group_IT_number 2
_symmetry_cell_setting 'triclinic'
loop_
_space_group_symop_operation_xyz
x,y,z
-x,-y,-z
loop_
_atom_site_type_symbol
_atom_site_label
_atom_site_fract_x
_atom_site_fract_y
_atom_site_fract_z
Si Si1 0.292213 0.332768 0.873013
Si Si2 0.881199 0.086930 0.366617
Si Si3 0.501408 0.843426 0.412175
Si Si4 0.817145 0.218452 0.213889
Si Si5 0.680639 0.537926 0.718753
Si Si6 0.810552 0.570577 0.930268
Si Si7 0.457274 0.034705 0.774978
Si Si8 0.631413 0.523075 0.385215
O O1 0.595940 0.406500 0.792238
O O2 0.346970 0.171372 0.844473
O O3 0.053685 0.436903 0.865513
O O4 0.166224 0.361592 0.987307
O O5 0.795229 0.150644 0.470030
O O6 0.719524 0.186574 0.326357
O O7 0.741224 0.938896 0.400702
O O8 0.224484 0.056141 0.264452
O O9 0.445566 0.910175 0.333771
O O10 0.649325 0.688180 0.372892
O O11 0.555680 0.325960 0.221100
O O12 0.116533 0.300635 0.144003
O O13 0.805666 0.068516 0.178524
O O14 0.593632 0.509848 0.642652
O O15 0.025917 0.554509 0.673379
O O16 0.500000 0.500000 0.000000
O O17 0.500000 0.500000 0.500000
#
# Coordination Sequence:
#
# PCOD9022316 Si02
#       8
#     2   2   2   2   2   2   2   2
#     4  10  23  43  69  99 127 182 225 290 355 424
#     4  10  22  40  64  91 138 184 229 284 343 409
#     4  10  22  39  60  97 132 185 238 276 341 410
#     4  10  25  41  65 101 130 184 228 291 353 417
#     4  11  25  43  68  99 142 183 238 288 357 416
#     4  10  24  45  71  96 132 170 229 294 366 426
#     4  11  22  42  67  93 137 176 233 281 348 418
#     4  12  25  41  67 101 140 187 240 294 343 412
#
# _framework density 23.019212
#
# number of rings (size 3 to 8) (size 9 to 14) (size 15 to 20)
#    0.000    1.500    1.250    2.250    7.000    4.500 
#    0.000    1.250    0.000    0.000    0.000    0.000 
#    0.000    0.000    0.000    0.000    0.000    0.000 
#
# Total GULP energy -89265.095378 kJ/mol
# GULP energy per Si atom -5579.068461 kJ/mol
# Density = 2.296682 g / cm^3
# Si number density = 23.019212 Si / 1000 Ang^3
#
#
#
# Elastic Constant Matrix: (Units=GPa)
#
#
# Indices 1 2 3 4 5 6 
#
# 1 63.4677 26.6151 23.0302 5.1551 0.8197 3.5187
# 2 26.6151 146.1766 43.4327 -2.3351 -0.6469 16.2016
# 3 23.0302 43.4327 84.5360 2.7751 6.2756 12.0128
# 4 5.1551 -2.3351 2.7751 44.9369 2.7645 0.7303
# 5 0.8197 -0.6469 6.2756 2.7645 39.9925 -3.0689
# 6 3.5187 16.2016 12.0128 0.7303 -3.0689 26.1902
#
#
#
# Elastic Compliance Matrix: (Units=1/GPa)
#
#
# Indices 1 2 3 4 5 6 
#
# 1 0.018235 -0.002293 -0.003874 -0.002010 0.000401 0.000849
# 2 -0.002293 0.008670 -0.003395 0.000956 0.000387 -0.003479
# 3 -0.003874 -0.003395 0.015532 -0.000444 -0.002751 -0.004813
# 4 -0.002010 0.000956 -0.000444 0.022669 -0.001512 -0.000927
# 5 0.000401 0.000387 -0.002751 -0.001512 0.025849 0.004040
# 6 0.000849 -0.003479 -0.004813 -0.000927 0.004040 0.042927
#
#
# Mechanical properties :
#
#
# Convention : Reuss Voigt Hill
#
# Bulk Modulus (GPa) = 42.89762 53.37071 48.13417
# Shear Modulus (GPa) = 31.09885 35.63073 33.36479
#
# Velocity S-wave (km/s) = 3.67958 3.93856 3.81127
# Velocity P-wave (km/s) = 6.06040 6.62712 6.35008
#
# Compressibility (1/GPa) = 0.02331131
#
# Stress axis : x y z
#
# Youngs Moduli (GPa) = 54.84107 115.33910 64.38381
#
# Poissons Ratio (x) = 0.26453 0.24940
# Poissons Ratio (y) = 0.12578 0.21861
# Poissons Ratio (z) = 0.21244 0.39162
#
# Static dielectric constant tensor:
#      x y z
#    x 2.129020 -0.175530 0.023120 
#    y -0.175530 2.054460 -0.066760 
#    z 0.023120 -0.066760 1.938890 
# 
# From -- ./inp_files/76024.got.cif
#   From: 2010.05.17/outbox.cif.g08.bks.cpg/sg2_39_cif.got.tgz:76024.got - 2010.06.03 11:33:40.
