data_PCOD9022987
_publ_section_title
;
Structure prediction by ZEFSAII (Michael W. Deem and Ramdas Pophale) SiO2 
 PCOD9022987
Probable space group: P -1
;
_chemical_formula_sum "Si O2"
_cell_formula_units_Z 16
_cell_length_a 7.563907
_cell_length_b 7.200385
_cell_length_c 17.194304
_cell_angle_alpha 128.382879
_cell_angle_beta 59.522317
_cell_angle_gamma 120.711296
_cell_volume 605.489037
_symmetry_space_group_name_H-M "P -1"
_symmetry_group_IT_number 2
_symmetry_cell_setting 'triclinic'
loop_
_space_group_symop_operation_xyz
x,y,z
-x,-y,-z
loop_
_atom_site_type_symbol
_atom_site_label
_atom_site_fract_x
_atom_site_fract_y
_atom_site_fract_z
Si Si1 0.897914 0.612597 0.647143
Si Si2 0.681992 0.596114 0.155682
Si Si3 0.203895 0.782270 0.851153
Si Si4 0.356540 0.749596 0.505805
Si Si5 0.487367 0.951707 0.682263
Si Si6 0.522806 0.808919 0.012663
Si Si7 0.905016 0.128674 0.821982
Si Si8 0.919836 0.347086 0.727275
O O1 0.696427 0.473399 0.602356
O O2 0.956428 0.432563 0.651435
O O3 0.110932 0.728559 0.579251
O O4 0.847604 0.836049 0.762072
O O5 0.702412 0.382496 0.153484
O O6 0.602566 0.820026 0.264068
O O7 0.928358 0.737192 0.113822
O O8 0.522095 0.457842 0.087268
O O9 0.971347 0.614635 0.830353
O O10 0.341631 0.821101 0.751673
O O11 0.267978 0.051144 0.947963
O O12 0.500000 0.000000 0.500000
O O13 0.473446 0.762861 0.566107
O O14 0.718497 0.104963 0.698435
O O15 0.308607 0.788431 0.105460
O O16 0.500000 0.000000 0.000000
O O17 0.029629 0.220954 0.736708
#
# Coordination Sequence:
#
# PCOD9022987 Si02
#       8
#     2   2   2   2   2   2   2   2
#     4  11  24  43  68  96 131 168 213 265 322 387
#     4  10  23  41  68  92 130 174 216 262 325 380
#     4  10  22  42  59  96 131 165 219 267 307 391
#     4  11  23  42  69  98 128 167 214 263 323 393
#     4  12  22  43  66  94 130 174 209 265 332 375
#     4  10  22  39  65  95 132 170 221 265 314 383
#     4  11  22  44  67  96 130 177 212 265 326 377
#     4  11  23  39  70  94 130 172 217 264 319 384
#
# _framework density 26.42492
#
# number of rings (size 3 to 8) (size 9 to 14) (size 15 to 20)
#    0.000    1.250    5.000    0.375    3.500    0.500 
#    0.000    5.000    0.000    0.000    0.000    0.000 
#    0.000    0.000    0.000    0.000    0.000    0.000 
#
# Total GULP energy -89216.808844 kJ/mol
# GULP energy per Si atom -5576.050553 kJ/mol
# Density = 2.636478 g / cm^3
# Si number density = 26.424920 Si / 1000 Ang^3
#
#
#
# Elastic Constant Matrix: (Units=GPa)
#
#
# Indices 1 2 3 4 5 6 
#
# 1 78.2959 32.1770 38.5436 29.0958 36.6257 26.6676
# 2 32.1770 143.4401 60.2521 23.6491 23.7845 27.6794
# 3 38.5436 60.2521 87.7467 25.0656 42.8558 5.7774
# 4 29.0958 23.6491 25.0656 46.8001 16.6110 20.7021
# 5 36.6257 23.7845 42.8558 16.6110 49.2137 20.1919
# 6 26.6676 27.6794 5.7774 20.7021 20.1919 58.0583
#
#
#
# Elastic Compliance Matrix: (Units=1/GPa)
#
#
# Indices 1 2 3 4 5 6 
#
# 1 0.023296 -0.000637 -0.001811 -0.007563 -0.011448 -0.003538
# 2 -0.000637 0.011770 -0.010978 0.000968 0.006876 -0.006963
# 3 -0.001811 -0.010978 0.034043 -0.008896 -0.026116 0.014933
# 4 -0.007563 0.000968 -0.008896 0.032566 0.005926 -0.009775
# 5 -0.011448 0.006876 -0.026116 0.005926 0.052778 -0.015889
# 6 -0.003538 -0.006963 0.014933 -0.009775 -0.015889 0.029694
#
#
# Mechanical properties :
#
#
# Convention : Reuss Voigt Hill
#
# Bulk Modulus (GPa) = 23.66474 63.49201 43.57838
# Shear Modulus (GPa) = 22.21384 42.71509 32.46447
#
# Velocity S-wave (km/s) = 2.90252 4.02490 3.50888
# Velocity P-wave (km/s) = 4.49531 6.75864 5.73964
#
# Compressibility (1/GPa) = 0.04225696
#
# Stress axis : x y z
#
# Youngs Moduli (GPa) = 42.92517 84.96372 29.37444
#
# Poissons Ratio (x) = 0.05415 0.05319
# Poissons Ratio (y) = 0.02736 0.32248
# Poissons Ratio (z) = 0.07772 0.93274
#
# Static dielectric constant tensor:
#      x y z
#    x 2.229350 0.031310 0.058210 
#    y 0.031310 2.128530 -0.051870 
#    z 0.058210 -0.051870 2.150600 
# 
# From -- ./inp_files/556521.got.cif
#   From: 2010.05.17/outbox.cif.g08.bks.cpg/sg2_279_cif.got.tgz:556521.got - 2010.06.03 11:33:40.
