data_PCOD9022576
_publ_section_title
;
Structure prediction by ZEFSAII (Michael W. Deem and Ramdas Pophale) SiO2 
 PCOD9022576
Probable space group: P -1
;
_chemical_formula_sum "Si O2"
_cell_formula_units_Z 16
_cell_length_a 5.490873
_cell_length_b 22.791182
_cell_length_c 13.954761
_cell_angle_alpha 152.807558
_cell_angle_beta 106.062818
_cell_angle_gamma 62.125842
_cell_volume 662.269567
_symmetry_space_group_name_H-M "P -1"
_symmetry_group_IT_number 2
_symmetry_cell_setting 'triclinic'
loop_
_space_group_symop_operation_xyz
x,y,z
-x,-y,-z
loop_
_atom_site_type_symbol
_atom_site_label
_atom_site_fract_x
_atom_site_fract_y
_atom_site_fract_z
Si Si1 0.825763 0.039947 0.312146
Si Si2 0.188581 0.574771 0.241262
Si Si3 0.702759 0.283815 0.136766
Si Si4 0.263462 0.701026 0.044898
Si Si5 0.049448 0.702690 0.224001
Si Si6 0.393521 0.286608 0.498144
Si Si7 0.918688 0.457106 0.529364
Si Si8 0.594458 0.073743 0.533455
O O1 0.864993 0.173913 0.554652
O O2 0.596131 0.114970 0.308228
O O3 0.709395 0.994544 0.328379
O O4 0.128644 0.895543 0.102127
O O5 0.198157 0.567626 0.116943
O O6 0.363641 0.662404 0.409879
O O7 0.863826 0.647723 0.353886
O O8 0.394683 0.416834 0.079666
O O9 0.787109 0.350468 0.332394
O O10 0.352101 0.384972 0.234920
O O11 0.820137 0.313096 0.091533
O O12 0.116034 0.666619 0.067680
O O13 0.223865 0.860592 0.298267
O O14 0.708050 0.783991 0.324193
O O15 0.192415 0.357070 0.483502
O O16 0.000000 0.500000 0.500000
O O17 0.500000 0.000000 0.500000
#
# Coordination Sequence:
#
# PCOD9022576 Si02
#       8
#     2   2   2   2   2   2   2   2
#     4  10  23  44  66 101 139 188 228 287 353 425
#     4  11  23  43  71 105 143 188 234 288 355 422
#     4  11  24  44  69  96 139 176 243 285 364 406
#     4  11  23  38  65 102 139 189 235 285 350 415
#     4  10  22  39  62  99 144 182 231 284 341 428
#     4  11  24  47  76 101 145 185 235 296 357 416
#     4  11  26  46  71 101 132 180 239 305 354 421
#     4  11  22  37  62  97 145 186 235 278 343 419
#
# _framework density 24.159344000000001
#
# number of rings (size 3 to 8) (size 9 to 14) (size 15 to 20)
#    0.000    1.250    2.500    2.625    3.500    6.000 
#    0.000    0.625    0.000    0.000    0.000    0.000 
#    0.000    0.000    0.000    0.000    0.000    0.000 
#
# Total GULP energy -89283.248940 kJ/mol
# GULP energy per Si atom -5580.203059 kJ/mol
# Density = 2.410436 g / cm^3
# Si number density = 24.159344 Si / 1000 Ang^3
#
#
#
# Elastic Constant Matrix: (Units=GPa)
#
#
# Indices 1 2 3 4 5 6 
#
# 1 77.9865 30.6951 23.1769 -6.2095 -1.1345 10.9159
# 2 30.6951 183.7003 43.7527 16.7006 -9.7860 5.1257
# 3 23.1769 43.7527 100.4244 23.3674 -23.4963 7.9144
# 4 -6.2095 16.7006 23.3674 28.7288 -0.1957 -7.1207
# 5 -1.1345 -9.7860 -23.4963 -0.1957 34.4442 2.4452
# 6 10.9159 5.1257 7.9144 -7.1207 2.4452 32.4856
#
#
#
# Elastic Compliance Matrix: (Units=1/GPa)
#
#
# Indices 1 2 3 4 5 6 
#
# 1 0.016299 -0.002374 -0.005621 0.009088 -0.003817 -0.001454
# 2 -0.002374 0.006517 -0.001166 -0.003544 0.001014 -0.000800
# 3 -0.005621 -0.001166 0.019844 -0.018528 0.013471 -0.007837
# 4 0.009088 -0.003544 -0.018528 0.057706 -0.014135 0.015732
# 5 -0.003817 0.001014 0.013471 -0.014135 0.038885 -0.008185
# 6 -0.001454 -0.000800 -0.007837 0.015732 -0.008185 0.037371
#
#
# Mechanical properties :
#
#
# Convention : Reuss Voigt Hill
#
# Bulk Modulus (GPa) = 41.08834 61.92895 51.50865
# Shear Modulus (GPa) = 24.62377 36.76416 30.69396
#
# Velocity S-wave (km/s) = 3.19599 3.90518 3.56825
# Velocity P-wave (km/s) = 5.53744 6.78403 6.19219
#
# Compressibility (1/GPa) = 0.02433780
#
# Stress axis : x y z
#
# Youngs Moduli (GPa) = 61.35346 153.45392 50.39365
#
# Poissons Ratio (x) = 0.36426 0.28324
# Poissons Ratio (y) = 0.14564 0.05878
# Poissons Ratio (z) = 0.34485 0.17899
#
# Static dielectric constant tensor:
#      x y z
#    x 2.000260 -0.013500 0.039430 
#    y -0.013500 1.966550 0.019830 
#    z 0.039430 0.019830 1.989610 
# 
# From -- ./inp_files/485974.got.cif
#   From: 2010.05.17/outbox.cif.g08.bks.cpg/sg2_243_cif.got.tgz:485974.got - 2010.06.03 11:33:40.
