data_PCOD9022518
_publ_section_title
;
Structure prediction by ZEFSAII (Michael W. Deem and Ramdas Pophale) SiO2 
 PCOD9022518
Probable space group: P -1
;
_chemical_formula_sum "Si O2"
_cell_formula_units_Z 12
_cell_length_a 9.568501
_cell_length_b 9.620393
_cell_length_c 9.590705
_cell_angle_alpha 91.655764
_cell_angle_beta 84.887176
_cell_angle_gamma 31.840294
_cell_volume 454.613016
_symmetry_space_group_name_H-M "P -1"
_symmetry_group_IT_number 2
_symmetry_cell_setting 'triclinic'
loop_
_space_group_symop_operation_xyz
x,y,z
-x,-y,-z
loop_
_atom_site_type_symbol
_atom_site_label
_atom_site_fract_x
_atom_site_fract_y
_atom_site_fract_z
Si Si1 0.288613 0.450602 0.694673
Si Si2 0.437935 0.595526 0.825074
Si Si3 0.056760 0.141103 0.758533
Si Si4 0.643893 0.080321 0.015150
Si Si5 0.794637 0.719163 0.785127
Si Si6 0.176769 0.148778 0.461817
O O1 0.324291 0.540359 0.806766
O O2 0.572769 0.164019 0.599322
O O3 0.114251 0.470309 0.772981
O O4 0.089934 0.670717 0.594980
O O5 0.758647 0.333435 0.770412
O O6 0.279956 0.828196 0.733566
O O7 0.360686 0.747997 0.977009
O O8 0.113094 0.159936 0.905618
O O9 0.113248 0.199004 0.630507
O O10 0.373604 0.256793 0.124307
O O11 0.678801 0.962361 0.870268
O O12 0.750829 0.768625 0.623269
#
# Coordination Sequence:
#
# PCOD9022518 Si02
#       6
#     2   2   2   2   2   2
#     4  10  22  39  63  92 122 156 199 247 298 352
#     4  10  22  39  63  92 122 156 199 247 298 352
#     4  10  22  39  62  93 120 156 199 247 296 352
#     4   9  22  43  63  86 121 162 201 244 299 358
#     4   9  22  43  63  86 121 162 201 244 299 358
#     4  10  22  39  62  93 120 156 199 247 296 352
#
# _framework density 26.396076000000001
#
# number of rings (size 3 to 8) (size 9 to 14) (size 15 to 20)
#    2.000    0.333    0.000    2.000    0.000    8.000 
#    0.000    6.667    0.000    0.000    0.000    0.000 
#    0.000    0.000    0.000    0.000    0.000    0.000 
#
# Total GULP energy -67090.310706 kJ/mol
# GULP energy per Si atom -5590.859225 kJ/mol
# Density = 2.633600 g / cm^3
# Si number density = 26.396076 Si / 1000 Ang^3
#
#
#
# Elastic Constant Matrix: (Units=GPa)
#
#
# Indices 1 2 3 4 5 6 
#
# 1 147.8727 38.4673 27.5468 8.0824 0.6318 -14.3395
# 2 38.4673 200.5489 44.2684 16.2896 -4.3677 -16.7286
# 3 27.5468 44.2684 128.0137 -9.2636 -9.5504 -5.3339
# 4 8.0824 16.2896 -9.2636 26.7981 -1.6275 1.9615
# 5 0.6318 -4.3677 -9.5504 -1.6275 22.3089 -0.0891
# 6 -14.3395 -16.7286 -5.3339 1.9615 -0.0891 25.7421
#
#
#
# Elastic Compliance Matrix: (Units=1/GPa)
#
#
# Indices 1 2 3 4 5 6 
#
# 1 0.007750 -0.000610 -0.001597 -0.002871 -0.001217 0.003804
# 2 -0.000610 0.006277 -0.002228 -0.004670 -0.000034 0.003633
# 3 -0.001597 -0.002228 0.009596 0.005458 0.004112 -0.000751
# 4 -0.002871 -0.004670 0.005458 0.043690 0.004664 -0.006816
# 5 -0.001217 -0.000034 0.004112 0.004664 0.046954 -0.000041
# 6 0.003804 0.003633 -0.000751 -0.006816 -0.000041 0.043691
#
#
# Mechanical properties :
#
#
# Convention : Reuss Voigt Hill
#
# Bulk Modulus (GPa) = 67.78433 77.44447 72.61440
# Shear Modulus (GPa) = 29.11302 39.38000 34.24651
#
# Velocity S-wave (km/s) = 3.32464 3.86669 3.60586
# Velocity P-wave (km/s) = 6.36185 7.02411 6.70116
#
# Compressibility (1/GPa) = 0.01475267
#
# Stress axis : x y z
#
# Youngs Moduli (GPa) = 129.03686 159.31599 104.20645
#
# Poissons Ratio (x) = 0.09718 0.16639
# Poissons Ratio (y) = 0.07871 0.23221
# Poissons Ratio (z) = 0.20603 0.35502
#
# Static dielectric constant tensor:
#      x y z
#    x 2.046790 0.076740 0.004690 
#    y 0.076740 2.098150 -0.015780 
#    z 0.004690 -0.015780 2.031270 
# 
# From -- ./inp_files/433940.got.cif
#   From: 2010.05.17/outbox.cif.g08.bks.cpg/sg2_217_cif.got.tgz:433940.got - 2010.06.03 11:33:40.
