data_PCOD9022187
_publ_section_title
;
Structure prediction by ZEFSAII (Michael W. Deem and Ramdas Pophale) SiO2 
 PCOD9022187
Probable space group: P -1
;
_chemical_formula_sum "Si O2"
_cell_formula_units_Z 12
_cell_length_a 5.349200
_cell_length_b 17.316546
_cell_length_c 6.666598
_cell_angle_alpha 114.936297
_cell_angle_beta 107.956308
_cell_angle_gamma 100.319675
_cell_volume 497.305281
_symmetry_space_group_name_H-M "P -1"
_symmetry_group_IT_number 2
_symmetry_cell_setting 'triclinic'
loop_
_space_group_symop_operation_xyz
x,y,z
-x,-y,-z
loop_
_atom_site_type_symbol
_atom_site_label
_atom_site_fract_x
_atom_site_fract_y
_atom_site_fract_z
Si Si1 0.631517 0.452254 0.768213
Si Si2 0.934892 0.602290 0.323354
Si Si3 0.691371 0.277080 0.730775
Si Si4 0.779520 0.887554 0.748232
Si Si5 0.809819 0.138411 0.856015
Si Si6 0.308455 0.975337 0.701360
O O1 0.306307 0.418957 0.597931
O O2 0.651328 0.373494 0.841997
O O3 0.828987 0.441321 0.628658
O O4 0.764125 0.546312 0.022752
O O5 0.103523 0.703481 0.394258
O O6 0.396045 0.200841 0.519480
O O7 0.815459 0.237101 0.898072
O O8 0.542389 0.932126 0.782505
O O9 0.037996 0.953875 0.752477
O O10 0.934723 0.857986 0.935111
O O11 0.810944 0.080757 0.593152
O O12 0.504540 0.078650 0.809195
#
# Coordination Sequence:
#
# PCOD9022187 Si02
#       6
#     2   2   2   2   2   2
#     4   8  15  29  50  74 105 143 173 212 275 327
#     4   8  15  29  50  74 105 143 173 212 275 327
#     4   9  20  32  55  82 111 136 186 230 270 321
#     4  11  23  38  58  82 114 150 186 231 280 329
#     4  10  22  39  59  84 110 151 189 232 277 328
#     4  10  24  41  56  79 115 152 188 229 277 334
#
# _framework density 24.130047999999999
#
# number of rings (size 3 to 8) (size 9 to 14) (size 15 to 20)
#    1.000    1.667    0.000    1.000    4.667    8.667 
#    0.000    0.000    0.000    4.000    0.000    4.667 
#    0.000    0.000    0.000    0.000    0.000    0.000 
#
# Total GULP energy -66919.744785 kJ/mol
# GULP energy per Si atom -5576.645399 kJ/mol
# Density = 2.407513 g / cm^3
# Si number density = 24.130048 Si / 1000 Ang^3
#
#
#
# Elastic Constant Matrix: (Units=GPa)
#
#
# Indices 1 2 3 4 5 6 
#
# 1 157.5373 7.4929 16.3836 -11.4510 37.3214 -4.1111
# 2 7.4929 89.9598 32.0049 -10.2471 13.3710 -14.4145
# 3 16.3836 32.0049 63.8408 -21.9155 27.3720 1.4558
# 4 -11.4510 -10.2471 -21.9155 34.6881 0.8431 7.4690
# 5 37.3214 13.3710 27.3720 0.8431 33.3153 1.1279
# 6 -4.1111 -14.4145 1.4558 7.4690 1.1279 21.7882
#
#
#
# Elastic Compliance Matrix: (Units=1/GPa)
#
#
# Indices 1 2 3 4 5 6 
#
# 1 0.010839 -0.000364 0.009571 0.010290 -0.020076 -0.001323
# 2 -0.000364 0.016312 -0.011640 -0.005585 0.003117 0.013254
# 3 0.009571 -0.011640 0.056040 0.040911 -0.052419 -0.020950
# 4 0.010290 -0.005585 0.040911 0.062583 -0.043681 -0.023679
# 5 -0.020076 0.003117 -0.052419 -0.043681 0.095027 0.011831
# 6 -0.001323 0.013254 -0.020950 -0.023679 0.011831 0.063320
#
#
# Mechanical properties :
#
#
# Convention : Reuss Voigt Hill
#
# Bulk Modulus (GPa) = 12.76737 47.01119 29.88928
# Shear Modulus (GPa) = 14.92116 34.98873 24.95494
#
# Velocity S-wave (km/s) = 2.48939 3.81203 3.21936
# Velocity P-wave (km/s) = 3.68311 6.23700 5.12179
#
# Compressibility (1/GPa) = 0.07832470
#
# Stress axis : x y z
#
# Youngs Moduli (GPa) = 92.25867 61.30552 17.84443
#
# Poissons Ratio (x) = 0.02230 -0.17079
# Poissons Ratio (y) = 0.03357 0.20771
# Poissons Ratio (z) = -0.88299 0.71360
#
# Static dielectric constant tensor:
#      x y z
#    x 2.089140 -0.023330 -0.028950 
#    y -0.023330 1.934460 0.009870 
#    z -0.028950 0.009870 1.970020 
# 
# From -- ./inp_files/89467.got.cif
#   From: 2010.05.17/outbox.cif.g08.bks.cpg/sg2_45_cif.got.tgz:89467.got - 2010.06.03 11:33:40.
