data_PCOD9022578
_publ_section_title
;
Structure prediction by ZEFSAII (Michael W. Deem and Ramdas Pophale) SiO2 
 PCOD9022578
Probable space group: P -1
;
_chemical_formula_sum "Si O2"
_cell_formula_units_Z 15
_cell_length_a 11.779225
_cell_length_b 12.737949
_cell_length_c 11.827527
_cell_angle_alpha 132.114349
_cell_angle_beta 132.286480
_cell_angle_gamma 87.863543
_cell_volume 639.413223
_symmetry_space_group_name_H-M "P -1"
_symmetry_group_IT_number 2
_symmetry_cell_setting 'triclinic'
loop_
_space_group_symop_operation_xyz
x,y,z
-x,-y,-z
loop_
_atom_site_type_symbol
_atom_site_label
_atom_site_fract_x
_atom_site_fract_y
_atom_site_fract_z
Si Si1 0.666549 0.229740 0.219874
Si Si2 0.629369 0.196302 0.594248
Si Si3 0.500000 0.500000 0.500000
Si Si4 0.149566 0.153566 0.604153
Si Si5 0.555349 0.457480 0.247131
Si Si6 0.847784 0.505466 0.759739
Si Si7 0.491151 0.790987 0.236447
Si Si8 0.934617 0.677387 0.500346
O O1 0.533662 0.269842 0.104968
O O2 0.816738 0.403382 0.547077
O O3 0.846323 0.269337 0.291456
O O4 0.500000 0.000000 0.000000
O O5 0.666176 0.307665 0.584192
O O6 0.523487 0.210084 0.637889
O O7 0.490904 0.953976 0.313974
O O8 0.891446 0.332701 0.905482
O O9 0.502287 0.480269 0.349594
O O10 0.757629 0.600523 0.752333
O O11 0.273812 0.119928 0.587800
O O12 0.006698 0.157757 0.429833
O O13 0.372132 0.384881 0.979214
O O14 0.000000 0.000000 0.500000
O O15 0.814617 0.658733 0.517306
O O16 0.270233 0.555095 0.866027
#
# Coordination Sequence:
#
# PCOD9022578 Si02
#       8
#     2   2   1   2   2   2   2   2
#     4  11  23  41  65  93 131 171 218 257 326 397
#     4  10  22  40  69  91 127 169 220 271 317 380
#     4  10  24  40  64  92 136 170 210 252 340 386
#     4  11  25  39  69  98 127 166 218 277 327 376
#     4  10  23  42  63  93 129 172 208 268 323 392
#     4  10  23  40  67  93 128 176 209 273 317 383
#     4  10  22  39  63 100 126 161 218 275 325 376
#     4  11  23  42  68  97 128 169 220 276 323 375
#
# _framework density 23.459009999999999
#
# number of rings (size 3 to 8) (size 9 to 14) (size 15 to 20)
#    0.000    1.600    1.333    2.800   11.200    0.000 
#    0.000    0.000    0.000    5.600    0.000    0.000 
#    0.000    0.000    0.000    0.000    0.000    0.000 
#
# Total GULP energy -83655.380406 kJ/mol
# GULP energy per Si atom -5577.025360 kJ/mol
# Density = 2.340562 g / cm^3
# Si number density = 23.459010 Si / 1000 Ang^3
#
#
#
# Elastic Constant Matrix: (Units=GPa)
#
#
# Indices 1 2 3 4 5 6 
#
# 1 169.8367 15.6399 15.6889 -5.9304 5.6287 19.5459
# 2 15.6399 76.6745 1.9433 1.2532 -1.6314 3.8040
# 3 15.6889 1.9433 26.0011 -1.2924 3.2424 -5.2094
# 4 -5.9304 1.2532 -1.2924 35.9263 6.1022 4.7237
# 5 5.6287 -1.6314 3.2424 6.1022 31.4157 -4.2767
# 6 19.5459 3.8040 -5.2094 4.7237 -4.2767 35.1750
#
#
#
# Elastic Compliance Matrix: (Units=1/GPa)
#
#
# Indices 1 2 3 4 5 6 
#
# 1 0.007171 -0.001160 -0.004919 0.002045 -0.001928 -0.005097
# 2 -0.001160 0.013361 -0.000597 -0.000765 0.001022 -0.000662
# 3 -0.004919 -0.000597 0.043570 0.000012 -0.002430 0.008954
# 4 0.002045 -0.000765 0.000012 0.030187 -0.007083 -0.005967
# 5 -0.001928 0.001022 -0.002430 -0.007083 0.034641 0.005764
# 6 -0.005097 -0.000662 0.008954 -0.005967 0.005764 0.034161
#
#
# Mechanical properties :
#
#
# Convention : Reuss Voigt Hill
#
# Bulk Modulus (GPa) = 19.70428 37.67294 28.68861
# Shear Modulus (GPa) = 25.85837 36.45274 31.15556
#
# Velocity S-wave (km/s) = 3.32366 3.94622 3.64824
# Velocity P-wave (km/s) = 4.81110 6.07103 5.47741
#
# Compressibility (1/GPa) = 0.05075041
#
# Stress axis : x y z
#
# Youngs Moduli (GPa) = 139.44744 74.84517 22.95138
#
# Poissons Ratio (x) = 0.08679 0.11291
# Poissons Ratio (y) = 0.16171 0.01370
# Poissons Ratio (z) = 0.68600 0.04468
#
# Static dielectric constant tensor:
#      x y z
#    x 1.873570 0.001350 -0.000340 
#    y 0.001350 1.915000 0.039190 
#    z -0.000340 0.039190 1.875300 
# 
# From -- ./inp_files/426738.got.cif
#   From: 2010.05.17/outbox.cif.g08.bks.cpg/sg2_214_cif.got.tgz:426738.got - 2010.06.03 11:33:40.
