data_PCOD9022648
_publ_section_title
;
Structure prediction by ZEFSAII (Michael W. Deem and Ramdas Pophale) SiO2 
 PCOD9022648
Probable space group: P -1
;
_chemical_formula_sum "Si O2"
_cell_formula_units_Z 16
_cell_length_a 10.310124
_cell_length_b 11.493725
_cell_length_c 9.162866
_cell_angle_alpha 107.731285
_cell_angle_beta 134.976968
_cell_angle_gamma 68.375066
_cell_volume 712.429416
_symmetry_space_group_name_H-M "P -1"
_symmetry_group_IT_number 2
_symmetry_cell_setting 'triclinic'
loop_
_space_group_symop_operation_xyz
x,y,z
-x,-y,-z
loop_
_atom_site_type_symbol
_atom_site_label
_atom_site_fract_x
_atom_site_fract_y
_atom_site_fract_z
Si Si1 0.395895 0.986559 0.559479
Si Si2 0.478688 0.163578 0.137879
Si Si3 0.129639 0.985582 0.741386
Si Si4 0.887833 0.196750 0.784499
Si Si5 0.704020 0.485259 0.237095
Si Si6 0.804840 0.233497 0.068173
Si Si7 0.358448 0.240779 0.761742
Si Si8 0.365144 0.603120 0.531496
O O1 0.303070 0.126118 0.592369
O O2 0.500000 0.000000 0.500000
O O3 0.546605 0.918296 0.773417
O O4 0.253276 0.896686 0.389534
O O5 0.532582 0.288802 0.291034
O O6 0.662421 0.070987 0.175885
O O7 0.351451 0.211870 0.916268
O O8 0.077915 0.117659 0.834263
O O9 0.104642 0.882135 0.800548
O O10 0.000000 0.000000 0.500000
O O11 0.806298 0.322657 0.676383
O O12 0.884808 0.220701 0.963569
O O13 0.824906 0.362758 0.207658
O O14 0.754233 0.618881 0.306557
O O15 0.689540 0.457237 0.386111
O O16 0.500000 0.500000 0.000000
O O17 0.578609 0.235004 0.888837
O O18 0.500000 0.500000 0.500000
#
# Coordination Sequence:
#
# PCOD9022648 Si02
#       8
#     2   2   2   2   2   2   2   2
#     4  11  21  33  50  76 113 141 176 214 259 324
#     4  10  21  35  53  79 107 145 174 219 267 310
#     4  11  18  36  55  78 106 137 183 223 264 309
#     4  11  22  34  54  83 110 141 176 219 271 309
#     4  10  17  31  51  75 108 139 173 219 268 315
#     4  10  19  33  52  81 106 135 177 221 268 307
#     4  10  19  33  52  76 111 143 172 208 271 325
#     4  11  19  29  50  79 108 136 172 223 269 312
#
# _framework density 22.458366000000002
#
# number of rings (size 3 to 8) (size 9 to 14) (size 15 to 20)
#    0.000    1.500    7.500    2.250    1.750    0.000 
#    0.000    0.000    0.000    0.750    0.000    0.875 
#    0.000    0.125    0.000    0.000    0.000    0.000 
#
# Total GULP energy -89440.862906 kJ/mol
# GULP energy per Si atom -5590.053932 kJ/mol
# Density = 2.240725 g / cm^3
# Si number density = 22.458366 Si / 1000 Ang^3
#
#
#
# Elastic Constant Matrix: (Units=GPa)
#
#
# Indices 1 2 3 4 5 6 
#
# 1 86.3457 52.9362 66.2371 -3.4649 -39.2849 -4.2855
# 2 52.9362 199.0476 74.3790 -16.4174 -40.6778 -11.1226
# 3 66.2371 74.3790 131.1263 -13.6675 -54.6286 -4.6242
# 4 -3.4649 -16.4174 -13.6675 39.6298 4.7463 -10.9913
# 5 -39.2849 -40.6778 -54.6286 4.7463 58.9387 1.4174
# 6 -4.2855 -11.1226 -4.6242 -10.9913 1.4174 35.1485
#
#
#
# Elastic Compliance Matrix: (Units=1/GPa)
#
#
# Indices 1 2 3 4 5 6 
#
# 1 0.020944 -0.001774 -0.007187 -0.002090 0.006239 0.000141
# 2 -0.001774 0.006902 -0.002102 0.002484 0.001375 0.002412
# 3 -0.007187 -0.002102 0.016508 0.003530 0.008742 0.001382
# 4 -0.002090 0.002484 0.003530 0.030059 0.000923 0.010358
# 5 0.006239 0.001375 0.008742 0.000923 0.030068 0.001422
# 6 0.000141 0.002412 0.001382 0.010358 0.001422 0.032595
#
#
# Mechanical properties :
#
#
# Convention : Reuss Voigt Hill
#
# Bulk Modulus (GPa) = 44.99018 89.29157 67.14088
# Shear Modulus (GPa) = 30.01001 41.60787 35.80894
#
# Velocity S-wave (km/s) = 3.65944 4.30893 3.99740
# Velocity P-wave (km/s) = 6.15886 8.03747 7.16004
#
# Compressibility (1/GPa) = 0.02222707
#
# Stress axis : x y z
#
# Youngs Moduli (GPa) = 47.74661 144.88994 60.57762
#
# Poissons Ratio (x) = 0.25701 0.43537
# Poissons Ratio (y) = 0.08469 0.12735
# Poissons Ratio (z) = 0.34316 0.30460
#
# Static dielectric constant tensor:
#      x y z
#    x 1.922340 0.007580 0.115150 
#    y 0.007580 1.823170 -0.003190 
#    z 0.115150 -0.003190 1.883410 
# 
# From -- ./inp_files/259144.got.cif
#   From: 2010.05.17/outbox.cif.g08.bks.cpg/sg2_130_cif.got.tgz:259144.got - 2010.06.03 11:33:40.
