data_PCOD9022003
_publ_section_title
;
Structure prediction by ZEFSAII (Michael W. Deem and Ramdas Pophale) SiO2 
 PCOD9022003
Probable space group: P -1
;
_chemical_formula_sum "Si O2"
_cell_formula_units_Z 13
_cell_length_a 11.486095
_cell_length_b 9.718290
_cell_length_c 7.092052
_cell_angle_alpha 110.748678
_cell_angle_beta 41.367609
_cell_angle_gamma 117.889552
_cell_volume 462.417525
_symmetry_space_group_name_H-M "P -1"
_symmetry_group_IT_number 2
_symmetry_cell_setting 'triclinic'
loop_
_space_group_symop_operation_xyz
x,y,z
-x,-y,-z
loop_
_atom_site_type_symbol
_atom_site_label
_atom_site_fract_x
_atom_site_fract_y
_atom_site_fract_z
Si Si1 0.500000 0.500000 0.000000
Si Si2 0.598875 0.738610 0.663960
Si Si3 0.436732 0.859027 0.243757
Si Si4 0.013308 0.268109 0.743538
Si Si5 0.090260 0.273517 0.250297
Si Si6 0.156183 0.625787 0.681307
Si Si7 0.293900 0.088736 0.724090
O O1 0.496882 0.155762 0.051682
O O2 0.657591 0.318938 0.646345
O O3 0.825338 0.802769 0.436709
O O4 0.575643 0.762061 0.482475
O O5 0.519528 0.577073 0.791895
O O6 0.706236 0.631535 0.868774
O O7 0.608170 0.930134 0.209170
O O8 0.118705 0.454433 0.717424
O O9 0.960905 0.228427 0.571674
O O10 0.852880 0.256421 0.083759
O O11 0.009531 0.375122 0.260147
O O12 0.118582 0.133385 0.029178
O O13 0.292966 0.946874 0.519314
#
# Coordination Sequence:
#
# PCOD9022003 Si02
#       7
#     1   2   2   2   2   2   2
#     4  10  22  38  68  94 124 162 214 258 318 390
#     4  11  21  43  67  95 129 172 212 263 321 389
#     4  11  24  43  65  98 128 170 226 262 302 392
#     4  10  22  40  64  96 132 161 212 269 321 389
#     4  11  22  43  63  96 130 166 209 269 321 383
#     4  11  24  41  65  95 130 165 211 269 331 368
#     4  11  24  41  69  91 131 176 217 260 317 376
#
# _framework density 28.113122000000001
#
# number of rings (size 3 to 8) (size 9 to 14) (size 15 to 20)
#    0.000    1.231    4.615    2.769    0.000    4.923 
#    0.000    0.769    0.000    0.000    0.000    0.000 
#    0.000    0.000    0.000    0.000    0.000    0.000 
#
# Total GULP energy -72584.089787 kJ/mol
# GULP energy per Si atom -5583.391522 kJ/mol
# Density = 2.804914 g / cm^3
# Si number density = 28.113122 Si / 1000 Ang^3
#
#
#
# Elastic Constant Matrix: (Units=GPa)
#
#
# Indices 1 2 3 4 5 6 
#
# 1 86.8614 10.0666 39.0451 2.8490 5.4860 1.8547
# 2 10.0666 96.0157 22.4062 7.9746 6.1550 8.2536
# 3 39.0451 22.4062 210.5708 23.1205 39.7498 0.9613
# 4 2.8490 7.9746 23.1205 47.9491 2.5430 4.4392
# 5 5.4860 6.1550 39.7498 2.5430 54.1599 7.1923
# 6 1.8547 8.2536 0.9613 4.4392 7.1923 37.6551
#
#
#
# Elastic Compliance Matrix: (Units=1/GPa)
#
#
# Indices 1 2 3 4 5 6 
#
# 1 0.012657 -0.000796 -0.002446 0.000579 0.000654 -0.000580
# 2 -0.000796 0.010992 -0.000846 -0.001161 -0.000205 -0.002173
# 3 -0.002446 -0.000846 0.006415 -0.002694 -0.004411 0.001302
# 4 0.000579 -0.001161 -0.002694 0.022484 0.001342 -0.002612
# 5 0.000654 -0.000205 -0.004411 0.001342 0.022162 -0.004266
# 6 -0.000580 -0.002173 0.001302 -0.002612 -0.004266 0.028151
#
#
# Mechanical properties :
#
#
# Convention : Reuss Voigt Hill
#
# Bulk Modulus (GPa) = 45.69022 59.60931 52.64976
# Shear Modulus (GPa) = 42.25351 49.41482 45.83417
#
# Velocity S-wave (km/s) = 3.88104 4.19706 4.04214
# Velocity P-wave (km/s) = 6.03082 6.68853 6.36817
#
# Compressibility (1/GPa) = 0.02188652
#
# Stress axis : x y z
#
# Youngs Moduli (GPa) = 79.00962 90.97393 155.88163
#
# Poissons Ratio (x) = 0.07244 0.38136
# Poissons Ratio (y) = 0.06291 0.13187
# Poissons Ratio (z) = 0.19330 0.07696
#
# Static dielectric constant tensor:
#      x y z
#    x 2.075730 0.089780 0.086230 
#    y 0.089780 1.882880 -0.211310 
#    z 0.086230 -0.211310 2.010590 
# 
# From -- ./inp_files/292890.got.cif
#   From: 2010.05.17/outbox.cif.g08.bks.cpg/sg2_147_cif.got.tgz:292890.got - 2010.06.03 11:33:40.
