data_PCOD9022423
_publ_section_title
;
Structure prediction by ZEFSAII (Michael W. Deem and Ramdas Pophale) SiO2 
 PCOD9022423
Probable space group: P -1
;
_chemical_formula_sum "Si O2"
_cell_formula_units_Z 16
_cell_length_a 16.821675
_cell_length_b 10.745943
_cell_length_c 13.111374
_cell_angle_alpha 147.469093
_cell_angle_beta 143.522437
_cell_angle_gamma 55.785496
_cell_volume 706.408798
_symmetry_space_group_name_H-M "P -1"
_symmetry_group_IT_number 2
_symmetry_cell_setting 'triclinic'
loop_
_space_group_symop_operation_xyz
x,y,z
-x,-y,-z
loop_
_atom_site_type_symbol
_atom_site_label
_atom_site_fract_x
_atom_site_fract_y
_atom_site_fract_z
Si Si1 0.076565 0.486462 0.311608
Si Si2 0.616901 0.764354 0.337992
Si Si3 0.236310 0.359171 0.783604
Si Si4 0.096230 0.717849 0.819744
Si Si5 0.710835 0.756455 0.666266
Si Si6 0.137285 0.502804 0.076088
Si Si7 0.059411 0.970691 0.653308
Si Si8 0.409056 0.716675 0.381876
O O1 0.206921 0.430659 0.359441
O O2 0.004280 0.294519 0.195241
O O3 0.136830 0.774254 0.605367
O O4 0.939434 0.477945 0.097416
O O5 0.726822 0.777004 0.369020
O O6 0.664950 0.739639 0.486277
O O7 0.579639 0.014079 0.466242
O O8 0.500000 0.500000 0.000000
O O9 0.218816 0.614104 0.906480
O O10 0.339016 0.473440 0.066205
O O11 0.085563 0.156197 0.521509
O O12 0.000000 0.500000 0.500000
O O13 0.165353 0.974020 0.011845
O O14 0.571905 0.731241 0.571287
O O15 0.301117 0.677002 0.339803
O O16 0.153749 0.253167 0.963292
O O17 0.000000 0.500000 0.000000
O O18 0.000000 0.000000 0.500000
#
# Coordination Sequence:
#
# PCOD9022423 Si02
#       8
#     2   2   2   2   2   2   2   2
#     4  10  22  39  61  97 129 170 223 270 328 398
#     4  12  23  37  63  96 138 185 213 253 336 404
#     4  11  20  39  64  97 125 174 228 267 321 395
#     4  11  22  39  64  96 140 178 213 268 333 395
#     4  12  24  41  63  97 146 172 216 279 326 397
#     4  11  22  43  72  93 122 175 226 285 335 386
#     4   9  18  37  63  84 121 159 226 274 318 377
#     4  12  23  42  65  99 133 171 229 274 319 404
#
# _framework density 22.649775999999999
#
# number of rings (size 3 to 8) (size 9 to 14) (size 15 to 20)
#    0.000    1.000    6.250    3.000    0.000    3.000 
#    0.000    1.250    0.000    0.000    0.000    0.000 
#    0.000    0.000    0.000    0.000    0.000    0.000 
#
# Total GULP energy -89098.159766 kJ/mol
# GULP energy per Si atom -5568.634985 kJ/mol
# Density = 2.259822 g / cm^3
# Si number density = 22.649776 Si / 1000 Ang^3
#
#
#
# Elastic Constant Matrix: (Units=GPa)
#
#
# Indices 1 2 3 4 5 6 
#
# 1 121.5293 26.1464 29.2559 -2.0255 25.3036 -18.9322
# 2 26.1464 88.7001 30.5841 16.7368 29.7481 -24.5365
# 3 29.2559 30.5841 104.9239 12.7550 14.1555 -1.8654
# 4 -2.0255 16.7368 12.7550 26.4517 6.2436 8.6070
# 5 25.3036 29.7481 14.1555 6.2436 36.1551 -7.1663
# 6 -18.9322 -24.5365 -1.8654 8.6070 -7.1663 30.6191
#
#
#
# Elastic Compliance Matrix: (Units=1/GPa)
#
#
# Indices 1 2 3 4 5 6 
#
# 1 0.010870 0.001389 -0.002525 0.000857 -0.006748 0.005860
# 2 0.001389 0.027618 -0.003631 -0.020643 -0.013681 0.025370
# 3 -0.002525 -0.003631 0.011532 -0.002476 0.000062 -0.003059
# 4 0.000857 -0.020643 -0.002476 0.063270 -0.000315 -0.034022
# 5 -0.006748 -0.013681 0.000062 -0.000315 0.042665 -0.005057
# 6 0.005860 0.025370 -0.003059 -0.034022 -0.005057 0.064806
#
#
# Mechanical properties :
#
#
# Convention : Reuss Voigt Hill
#
# Bulk Modulus (GPa) = 24.70130 54.12511 39.41320
# Shear Modulus (GPa) = 20.50934 33.92298 27.21616
#
# Velocity S-wave (km/s) = 3.01241 3.87423 3.47018
# Velocity P-wave (km/s) = 4.79885 6.63033 5.78750
#
# Compressibility (1/GPa) = 0.04048370
#
# Stress axis : x y z
#
# Youngs Moduli (GPa) = 91.99895 36.20843 86.71827
#
# Poissons Ratio (x) = -0.05029 0.21899
# Poissons Ratio (y) = -0.12778 0.31490
# Poissons Ratio (z) = 0.23233 0.13149
#
# Static dielectric constant tensor:
#      x y z
#    x 2.115140 0.065500 -0.037680 
#    y 0.065500 1.743400 0.145630 
#    z -0.037680 0.145630 1.908220 
# 
# From -- ./inp_files/538494.got.cif
#   From: 2010.05.17/outbox.cif.g08.bks.cpg/sg2_270_cif.got.tgz:538494.got - 2010.06.03 11:33:40.
