data_PCOD9022419
_publ_section_title
;
Structure prediction by ZEFSAII (Michael W. Deem and Ramdas Pophale) SiO2 
 PCOD9022419
Probable space group: P -1
;
_chemical_formula_sum "Si O2"
_cell_formula_units_Z 14
_cell_length_a 10.513958
_cell_length_b 8.799822
_cell_length_c 10.110027
_cell_angle_alpha 117.938232
_cell_angle_beta 138.715620
_cell_angle_gamma 53.112605
_cell_volume 493.349915
_symmetry_space_group_name_H-M "P -1"
_symmetry_group_IT_number 2
_symmetry_cell_setting 'triclinic'
loop_
_space_group_symop_operation_xyz
x,y,z
-x,-y,-z
loop_
_atom_site_type_symbol
_atom_site_label
_atom_site_fract_x
_atom_site_fract_y
_atom_site_fract_z
Si Si1 0.746331 0.032300 0.629776
Si Si2 0.797442 0.975919 0.055691
Si Si3 0.409288 0.684829 0.603556
Si Si4 0.640808 0.751523 0.300542
Si Si5 0.372135 0.593899 0.129298
Si Si6 0.048354 0.389500 0.136347
Si Si7 0.014950 0.262347 0.638425
O O1 0.614229 0.148169 0.445270
O O2 0.686431 0.200910 0.760266
O O3 0.998478 0.974045 0.778172
O O4 0.678970 0.858330 0.504126
O O5 0.834188 0.862096 0.175844
O O6 0.829597 0.824147 0.901789
O O7 0.565037 0.135577 0.909047
O O8 0.500000 0.500000 0.500000
O O9 0.567742 0.590781 0.807410
O O10 0.181689 0.790900 0.545018
O O11 0.587683 0.572415 0.217242
O O12 0.847588 0.725502 0.369163
O O13 0.140447 0.613686 0.919036
O O14 0.126879 0.521901 0.332196
O O15 0.000000 0.500000 0.000000
#
# Coordination Sequence:
#
# PCOD9022419 Si02
#       7
#     2   2   2   2   2   2   2
#     4   9  21  40  63  89 119 165 217 249 300 375
#     4   9  21  40  63  89 119 165 217 249 300 375
#     4   9  19  38  64  86 115 160 217 254 285 371
#     4  12  24  38  62  94 136 160 188 270 332 354
#     4  10  22  39  61  96 121 161 215 250 312 372
#     4   9  19  38  64  86 115 160 217 254 285 371
#     4  10  22  39  61  96 121 161 215 250 312 372
#
# _framework density 28.377426
#
# number of rings (size 3 to 8) (size 9 to 14) (size 15 to 20)
#    0.000    2.286    0.000    3.429    8.000    5.714 
#    5.143    0.000    0.000    0.000    0.000    0.000 
#    0.000    0.000    0.000    0.000    0.000    0.000 
#
# Total GULP energy -78071.407368 kJ/mol
# GULP energy per Si atom -5576.529098 kJ/mol
# Density = 2.831284 g / cm^3
# Si number density = 28.377426 Si / 1000 Ang^3
#
#
#
# Elastic Constant Matrix: (Units=GPa)
#
#
# Indices 1 2 3 4 5 6 
#
# 1 138.7567 -0.5087 31.4924 -4.9910 37.1658 -9.2651
# 2 -0.5087 73.9225 33.2989 -2.9484 -10.6208 10.1677
# 3 31.4924 33.2989 82.4540 6.9583 23.5663 -4.8978
# 4 -4.9910 -2.9484 6.9583 37.7360 -1.9850 -11.1058
# 5 37.1658 -10.6208 23.5663 -1.9850 46.6345 -2.1645
# 6 -9.2651 10.1677 -4.8978 -11.1058 -2.1645 36.8369
#
#
#
# Elastic Compliance Matrix: (Units=1/GPa)
#
#
# Indices 1 2 3 4 5 6 
#
# 1 0.009612 -0.000484 -0.001545 0.001903 -0.006792 0.002520
# 2 -0.000484 0.021775 -0.012491 0.002688 0.011479 -0.006308
# 3 -0.001545 -0.012491 0.022047 -0.004802 -0.012783 0.003792
# 4 0.001903 0.002688 -0.004802 0.030514 0.003215 0.008487
# 5 -0.006792 0.011479 -0.012783 0.003215 0.035905 -0.003497
# 6 0.002520 -0.006308 0.003792 0.008487 -0.003497 0.032379
#
#
# Mechanical properties :
#
#
# Convention : Reuss Voigt Hill
#
# Bulk Modulus (GPa) = 40.99733 47.07759 44.03746
# Shear Modulus (GPa) = 26.39864 39.63153 33.01508
#
# Velocity S-wave (km/s) = 3.05334 3.74115 3.41461
# Velocity P-wave (km/s) = 5.18739 5.94032 5.57658
#
# Compressibility (1/GPa) = 0.02439183
#
# Stress axis : x y z
#
# Youngs Moduli (GPa) = 104.04059 45.92351 45.35807
#
# Poissons Ratio (x) = 0.02224 0.07009
# Poissons Ratio (y) = 0.05039 0.56659
# Poissons Ratio (z) = 0.16077 0.57365
#
# Static dielectric constant tensor:
#      x y z
#    x 2.450670 -0.013300 0.025810 
#    y -0.013300 2.304010 -0.010720 
#    z 0.025810 -0.010720 2.247220 
# 
# From -- ./inp_files/177847.got.cif
#   From: 2010.05.17/outbox.cif.g08.bks.cpg/sg2_89_cif.got.tgz:177847.got - 2010.06.03 11:33:40.
