data_PCOD9022330
_publ_section_title
;
Structure prediction by ZEFSAII (Michael W. Deem and Ramdas Pophale) SiO2 
 PCOD9022330
Probable space group: P -1
;
_chemical_formula_sum "Si O2"
_cell_formula_units_Z 14
_cell_length_a 8.943167
_cell_length_b 11.649592
_cell_length_c 12.911396
_cell_angle_alpha 132.016101
_cell_angle_beta 39.800819
_cell_angle_gamma 121.678965
_cell_volume 639.567046
_symmetry_space_group_name_H-M "P -1"
_symmetry_group_IT_number 2
_symmetry_cell_setting 'triclinic'
loop_
_space_group_symop_operation_xyz
x,y,z
-x,-y,-z
loop_
_atom_site_type_symbol
_atom_site_label
_atom_site_fract_x
_atom_site_fract_y
_atom_site_fract_z
Si Si1 0.384196 0.207352 0.038425
Si Si2 0.657249 0.133040 0.443298
Si Si3 0.909913 0.470193 0.790037
Si Si4 0.465776 0.552804 0.206242
Si Si5 0.891289 0.152189 0.696692
Si Si6 0.110586 0.974732 0.154794
Si Si7 0.912411 0.215386 0.158982
O O1 0.419403 0.379819 0.168994
O O2 0.160730 0.203006 0.079068
O O3 0.334719 0.083283 0.078316
O O4 0.616070 0.167775 0.828093
O O5 0.555822 0.299549 0.621821
O O6 0.718774 0.137995 0.291121
O O7 0.500000 0.000000 0.500000
O O8 0.905467 0.099506 0.344341
O O9 0.740862 0.431484 0.759301
O O10 0.002775 0.312490 0.693326
O O11 0.102615 0.600476 0.738051
O O12 0.721960 0.546100 0.014387
O O13 0.897805 0.130274 0.803407
O O14 0.000000 0.000000 0.500000
O O15 0.078263 0.870280 0.006726
#
# Coordination Sequence:
#
# PCOD9022330 Si02
#       7
#     2   2   2   2   2   2   2
#     4   9  20  40  60  83 117 155 197 240 291 348
#     4  11  22  36  60  91 117 147 199 250 291 343
#     4   9  19  37  57  82 118 154 192 237 294 348
#     4   9  18  34  60  85 110 151 197 245 285 337
#     4  11  23  37  60  89 119 155 197 242 286 349
#     4  11  23  37  59  88 123 159 188 239 301 347
#     4  10  22  39  61  85 117 157 194 243 296 344
#
# _framework density 21.889807000000001
#
# number of rings (size 3 to 8) (size 9 to 14) (size 15 to 20)
#    0.000    2.000    0.000    4.714    0.000   12.571 
#    0.000    0.000    0.000    5.143    0.000    0.000 
#    0.000    0.000    0.000    0.000    0.000    0.000 
#
# Total GULP energy -78166.126692 kJ/mol
# GULP energy per Si atom -5583.294764 kJ/mol
# Density = 2.183998 g / cm^3
# Si number density = 21.889807 Si / 1000 Ang^3
#
#
#
# Elastic Constant Matrix: (Units=GPa)
#
#
# Indices 1 2 3 4 5 6 
#
# 1 33.5456 42.8947 26.8000 1.9751 11.9421 -17.9391
# 2 42.8947 201.0540 55.1115 5.6303 3.2525 -23.3353
# 3 26.8000 55.1115 98.8979 22.6552 8.8862 5.3037
# 4 1.9751 5.6303 22.6552 35.2059 -3.0184 -4.0798
# 5 11.9421 3.2525 8.8862 -3.0184 19.6372 -1.1824
# 6 -17.9391 -23.3353 5.3037 -4.0798 -1.1824 30.2623
#
#
#
# Elastic Compliance Matrix: (Units=1/GPa)
#
#
# Indices 1 2 3 4 5 6 
#
# 1 0.121146 -0.008621 -0.031596 0.018820 -0.050764 0.071257
# 2 -0.008621 0.007703 -0.003001 0.001887 0.005725 0.001834
# 3 -0.031596 -0.003001 0.025344 -0.016915 0.003981 -0.027611
# 4 0.018820 0.001887 -0.016915 0.040681 0.003426 0.021194
# 5 -0.050764 0.005725 0.003981 0.003426 0.078196 -0.022858
# 6 0.071257 0.001834 -0.027611 0.021194 -0.022858 0.083502
#
#
# Mechanical properties :
#
#
# Convention : Reuss Voigt Hill
#
# Bulk Modulus (GPa) = 14.75886 64.79000 39.77443
# Shear Modulus (GPa) = 10.73897 30.93383 20.83640
#
# Velocity S-wave (km/s) = 2.21734 3.76328 3.08860
# Velocity P-wave (km/s) = 3.64862 6.96746 5.56138
#
# Compressibility (1/GPa) = 0.06775593
#
# Stress axis : x y z
#
# Youngs Moduli (GPa) = 8.25451 129.81737 39.45708
#
# Poissons Ratio (x) = 1.11912 1.24670
# Poissons Ratio (y) = 0.07116 0.11843
# Poissons Ratio (z) = 0.26081 0.38964
#
# Static dielectric constant tensor:
#      x y z
#    x 1.827130 0.004700 -0.013930 
#    y 0.004700 1.896350 -0.047960 
#    z -0.013930 -0.047960 1.820680 
# 
# From -- ./inp_files/392946.got.cif
#   From: 2010.05.17/outbox.cif.g08.bks.cpg/sg2_197_cif.got.tgz:392946.got - 2010.06.03 11:33:40.
