data_PCOD9022925
_publ_section_title
;
Structure prediction by ZEFSAII (Michael W. Deem and Ramdas Pophale) SiO2 
 PCOD9022925
Probable space group: P -1
;
_chemical_formula_sum "Si O2"
_cell_formula_units_Z 10
_cell_length_a 8.824530
_cell_length_b 19.156861
_cell_length_c 5.578374
_cell_angle_alpha 49.335446
_cell_angle_beta 129.057049
_cell_angle_gamma 147.879922
_cell_volume 373.113695
_symmetry_space_group_name_H-M "P -1"
_symmetry_group_IT_number 2
_symmetry_cell_setting 'triclinic'
loop_
_space_group_symop_operation_xyz
x,y,z
-x,-y,-z
loop_
_atom_site_type_symbol
_atom_site_label
_atom_site_fract_x
_atom_site_fract_y
_atom_site_fract_z
Si Si1 0.800904 0.639737 0.104683
Si Si2 0.350101 0.586782 0.296540
Si Si3 0.471986 0.704931 0.660131
Si Si4 0.459489 0.067800 0.619164
Si Si5 0.041520 0.795447 0.562882
O O1 0.809627 0.566800 0.483253
O O2 0.500000 0.500000 0.000000
O O3 0.741512 0.727007 0.887667
O O4 0.039556 0.723790 0.946438
O O5 0.322501 0.633977 0.412205
O O6 0.701968 0.692136 0.403175
O O7 0.287516 0.608725 0.925742
O O8 0.571823 0.843399 0.494548
O O9 0.748177 0.165526 0.524036
O O10 0.189460 0.942696 0.465594
O O11 0.500000 0.000000 0.000000
#
# Coordination Sequence:
#
# PCOD9022925 Si02
#       5
#     2   2   2   2   2
#     4   8  18  41  65  91 117 152 203 260 301 354
#     4  10  22  42  68  93 118 153 208 260 301 356
#     4  10  22  39  65  91 122 158 207 248 302 360
#     4  11  25  40  58  87 131 166 200 246 301 367
#     4   9  22  41  61  85 126 163 199 252 307 351
#
# _framework density 26.801483000000001
#
# number of rings (size 3 to 8) (size 9 to 14) (size 15 to 20)
#    0.000    2.800    0.000    0.600   11.200    4.000 
#    0.000   10.000    0.000    0.000    0.000    0.000 
#    0.000    0.000    0.000    0.000    0.000    0.000 
#
# Total GULP energy -55924.092823 kJ/mol
# GULP energy per Si atom -5592.409282 kJ/mol
# Density = 2.674048 g / cm^3
# Si number density = 26.801483 Si / 1000 Ang^3
#
#
#
# Elastic Constant Matrix: (Units=GPa)
#
#
# Indices 1 2 3 4 5 6 
#
# 1 169.8081 62.6049 101.4314 -19.3993 2.3806 -28.8352
# 2 62.6049 142.7497 47.8666 -29.3796 -0.3771 -18.8605
# 3 101.4314 47.8666 166.3913 -22.2775 -21.3559 -20.4382
# 4 -19.3993 -29.3796 -22.2775 49.6279 -4.9888 0.8435
# 5 2.3806 -0.3771 -21.3559 -4.9888 68.7883 -6.9138
# 6 -28.8352 -18.8605 -20.4382 0.8435 -6.9138 60.2918
#
#
#
# Elastic Compliance Matrix: (Units=1/GPa)
#
#
# Indices 1 2 3 4 5 6 
#
# 1 0.010624 -0.002476 -0.005774 -0.000139 -0.001970 0.002125
# 2 -0.002476 0.009325 -0.000312 0.004438 0.000525 0.001625
# 3 -0.005774 -0.000312 0.010606 0.002682 0.003799 0.001134
# 4 -0.000139 0.004438 0.002682 0.024174 0.002838 0.002218
# 5 -0.001970 0.000525 0.003799 0.002838 0.016228 0.002331
# 6 0.002125 0.001625 0.001134 0.002218 0.002331 0.018731
#
#
# Mechanical properties :
#
#
# Convention : Reuss Voigt Hill
#
# Bulk Modulus (GPa) = 74.46241 100.30612 87.38426
# Shear Modulus (GPa) = 44.92794 53.54466 49.23630
#
# Velocity S-wave (km/s) = 4.09873 4.47455 4.29076
# Velocity P-wave (km/s) = 7.08821 8.01264 7.56456
#
# Compressibility (1/GPa) = 0.01342960
#
# Stress axis : x y z
#
# Youngs Moduli (GPa) = 94.13019 107.23534 94.28920
#
# Poissons Ratio (x) = 0.26552 0.54446
# Poissons Ratio (y) = 0.23307 0.02943
# Poissons Ratio (z) = 0.54354 0.03347
#
# Static dielectric constant tensor:
#      x y z
#    x 2.344010 -0.065700 -0.129000 
#    y -0.065700 2.253190 0.186800 
#    z -0.129000 0.186800 2.199150 
# 
# From -- ./inp_files/43161.got.cif
#   From: 2010.05.17/outbox.cif.g08.bks.cpg/sg2_22_cif.got.tgz:43161.got - 2010.06.03 11:33:40.
