data_PCOD9022065
_publ_section_title
;
Structure prediction by ZEFSAII (Michael W. Deem and Ramdas Pophale) SiO2 
 PCOD9022065
Probable space group: P -1
;
_chemical_formula_sum "Si O2"
_cell_formula_units_Z 16
_cell_length_a 14.963641
_cell_length_b 14.733211
_cell_length_c 7.549137
_cell_angle_alpha 103.321475
_cell_angle_beta 54.395255
_cell_angle_gamma 146.325622
_cell_volume 619.770370
_symmetry_space_group_name_H-M "P -1"
_symmetry_group_IT_number 2
_symmetry_cell_setting 'triclinic'
loop_
_space_group_symop_operation_xyz
x,y,z
-x,-y,-z
loop_
_atom_site_type_symbol
_atom_site_label
_atom_site_fract_x
_atom_site_fract_y
_atom_site_fract_z
Si Si1 0.344651 0.656800 0.666747
Si Si2 0.852877 0.888137 0.843297
Si Si3 0.754173 0.084159 0.469538
Si Si4 0.096205 0.271098 0.440413
Si Si5 0.430304 0.684435 0.167020
Si Si6 0.439376 0.888495 0.183820
Si Si7 0.072784 0.768905 0.027472
Si Si8 0.645344 0.702042 0.388510
O O1 0.376267 0.675814 0.426672
O O2 0.485725 0.673605 0.591814
O O3 0.075866 0.436648 0.918941
O O4 0.487192 0.852965 0.650870
O O5 0.700322 0.856797 0.921648
O O6 0.722171 0.764528 0.122120
O O7 0.157137 0.210104 0.311676
O O8 0.116112 0.110231 0.691909
O O9 0.757235 0.198219 0.529396
O O10 0.862316 0.119224 0.533383
O O11 0.895198 0.157327 0.165317
O O12 0.281607 0.479334 0.225250
O O13 0.068480 0.281588 0.680070
O O14 0.371326 0.731838 0.144646
O O15 0.500000 0.000000 0.000000
O O16 0.670085 0.053927 0.112762
O O17 0.500000 0.500000 0.500000
#
# Coordination Sequence:
#
# PCOD9022065 Si02
#       8
#     2   2   2   2   2   2   2   2
#     4  10  23  43  72 109 146 189 251 300 366 449
#     4  10  22  45  75 104 159 194 237 313 365 439
#     4  12  25  48  77 104 149 199 242 312 374 427
#     4  11  24  49  76 112 149 195 253 300 374 450
#     4  10  24  46  74 105 151 199 246 307 372 437
#     4  12  26  49  75 106 150 194 253 312 370 440
#     4  11  26  47  74 110 148 189 252 307 368 445
#     4  10  22  38  70 114 148 195 246 295 371 449
#
# _framework density 25.816011
#
# number of rings (size 3 to 8) (size 9 to 14) (size 15 to 20)
#    0.000    1.250    3.750    0.750    3.500    2.000 
#    4.500    0.625    0.000    0.000    0.000    0.000 
#    0.000    0.000    0.000    0.000    0.000    0.000 
#
# Total GULP energy -89720.108056 kJ/mol
# GULP energy per Si atom -5607.506754 kJ/mol
# Density = 2.575725 g / cm^3
# Si number density = 25.816011 Si / 1000 Ang^3
#
#
#
# Elastic Constant Matrix: (Units=GPa)
#
#
# Indices 1 2 3 4 5 6 
#
# 1 93.2259 23.9667 25.3810 10.2659 19.6491 -27.8925
# 2 23.9667 106.5682 41.4647 -7.6499 16.1256 -16.6967
# 3 25.3810 41.4647 101.6484 -5.5113 16.5829 -6.7515
# 4 10.2659 -7.6499 -5.5113 46.5250 -4.2534 -0.2403
# 5 19.6491 16.1256 16.5829 -4.2534 29.0467 -1.9839
# 6 -27.8925 -16.6967 -6.7515 -0.2403 -1.9839 45.1693
#
#
#
# Elastic Compliance Matrix: (Units=1/GPa)
#
#
# Indices 1 2 3 4 5 6 
#
# 1 0.016904 -0.000320 -0.002068 -0.004906 -0.010144 0.009540
# 2 -0.000320 0.012240 -0.003974 0.001276 -0.003879 0.003569
# 3 -0.002068 -0.003974 0.012527 0.000964 -0.003475 -0.001021
# 4 -0.004906 0.001276 0.000964 0.023378 0.005343 -0.002054
# 5 -0.010144 -0.003879 -0.003475 0.005343 0.045787 -0.006178
# 6 0.009540 0.003569 -0.001021 -0.002054 -0.006178 0.028914
#
#
# Mechanical properties :
#
#
# Convention : Reuss Voigt Hill
#
# Bulk Modulus (GPa) = 34.54539 53.67415 44.10977
# Shear Modulus (GPa) = 30.84098 38.19023 34.51560
#
# Velocity S-wave (km/s) = 3.46011 3.85037 3.66045
# Velocity P-wave (km/s) = 5.41974 6.37207 5.91510
#
# Compressibility (1/GPa) = 0.02894743
#
# Stress axis : x y z
#
# Youngs Moduli (GPa) = 59.15700 81.70215 79.83029
#
# Poissons Ratio (x) = 0.02611 0.16509
# Poissons Ratio (y) = 0.01891 0.31723
# Poissons Ratio (z) = 0.12234 0.32467
#
# Static dielectric constant tensor:
#      x y z
#    x 1.987620 -0.021820 0.013560 
#    y -0.021820 2.055380 -0.008640 
#    z 0.013560 -0.008640 2.064140 
# 
# From -- ./inp_files/313127.got.cif
#   From: 2010.05.17/outbox.cif.g08.bks.cpg/sg2_157_cif.got.tgz:313127.got - 2010.06.03 11:33:40.
