data_PCOD9022230
_publ_section_title
;
Structure prediction by ZEFSAII (Michael W. Deem and Ramdas Pophale) SiO2 
 PCOD9022230
Probable space group: P -1
;
_chemical_formula_sum "Si O2"
_cell_formula_units_Z 16
_cell_length_a 18.037896
_cell_length_b 8.254853
_cell_length_c 9.679411
_cell_angle_alpha 96.729183
_cell_angle_beta 24.454721
_cell_angle_gamma 93.924353
_cell_volume 589.969674
_symmetry_space_group_name_H-M "P -1"
_symmetry_group_IT_number 2
_symmetry_cell_setting 'triclinic'
loop_
_space_group_symop_operation_xyz
x,y,z
-x,-y,-z
loop_
_atom_site_type_symbol
_atom_site_label
_atom_site_fract_x
_atom_site_fract_y
_atom_site_fract_z
Si Si1 0.325803 0.223048 0.787488
Si Si2 0.685084 0.124462 0.875062
Si Si3 0.890512 0.817435 0.390149
Si Si4 0.169168 0.686629 0.694638
Si Si5 0.411910 0.419429 0.409154
Si Si6 0.977852 0.308030 0.558127
Si Si7 0.587207 0.085321 0.543511
Si Si8 0.671472 0.526887 0.805356
O O1 0.352021 0.374459 0.657958
O O2 0.516000 0.181001 0.537196
O O3 0.288926 0.072340 0.733982
O O4 0.162853 0.232395 0.169590
O O5 0.813237 0.228461 0.758551
O O6 0.810455 0.006564 0.548686
O O7 0.508439 0.252216 0.157125
O O8 0.588372 0.988567 0.108509
O O9 0.022961 0.754734 0.287123
O O10 0.739872 0.696197 0.666327
O O11 0.986968 0.767044 0.077633
O O12 0.240224 0.521263 0.642204
O O13 0.315631 0.810650 0.499605
O O14 0.182425 0.620425 0.508097
O O15 0.584476 0.524874 0.104358
O O16 0.000000 0.500000 0.500000
O O17 0.500000 0.500000 0.000000
#
# Coordination Sequence:
#
# PCOD9022230 Si02
#       8
#     2   2   2   2   2   2   2   2
#     4  10  22  39  59  94 134 161 213 260 332 387
#     4  11  23  41  65  98 138 173 212 264 335 396
#     4  12  24  42  66  98 131 174 219 268 334 384
#     4  11  24  43  70  93 129 176 226 272 322 379
#     4  10  23  41  65  94 128 171 219 269 316 387
#     4  12  25  38  63 100 139 171 209 269 329 396
#     4  10  22  40  65  93 130 173 215 262 323 398
#     4  10  23  46  68  94 127 175 230 273 317 385
#
# _framework density 27.120038000000001
#
# number of rings (size 3 to 8) (size 9 to 14) (size 15 to 20)
#    0.000    1.250    1.250    4.500    7.000    0.500 
#    0.000   10.625    0.000    0.000    0.000    0.000 
#    0.000    0.000    0.000    0.000    0.000    0.000 
#
# Total GULP energy -89458.225629 kJ/mol
# GULP energy per Si atom -5591.139102 kJ/mol
# Density = 2.705831 g / cm^3
# Si number density = 27.120038 Si / 1000 Ang^3
#
#
#
# Elastic Constant Matrix: (Units=GPa)
#
#
# Indices 1 2 3 4 5 6 
#
# 1 70.0698 25.7507 -14.2685 -14.4251 0.0830 -2.7908
# 2 25.7507 134.5109 13.1128 13.2274 -16.0342 23.8207
# 3 -14.2685 13.1128 81.3411 15.5517 13.3881 4.2015
# 4 -14.4251 13.2274 15.5517 62.8029 6.2374 1.6197
# 5 0.0830 -16.0342 13.3881 6.2374 37.6095 -1.6359
# 6 -2.7908 23.8207 4.2015 1.6197 -1.6359 44.9963
#
#
#
# Elastic Compliance Matrix: (Units=1/GPa)
#
#
# Indices 1 2 3 4 5 6 
#
# 1 0.018108 -0.005386 0.003676 0.004724 -0.004284 0.003305
# 2 -0.005386 0.010710 -0.002732 -0.003258 0.005855 -0.005418
# 3 0.003676 -0.002732 0.014689 -0.001613 -0.006128 0.000138
# 4 0.004724 -0.003258 -0.001613 0.018438 -0.003824 0.001366
# 5 -0.004284 0.005855 -0.006128 -0.003824 0.031845 -0.001498
# 6 0.003305 -0.005418 0.000138 0.001366 -0.001498 0.025181
#
#
# Mechanical properties :
#
#
# Convention : Reuss Voigt Hill
#
# Bulk Modulus (GPa) = 28.88194 37.23462 33.05828
# Shear Modulus (GPa) = 35.86921 46.50355 41.18638
#
# Velocity S-wave (km/s) = 3.64071 4.14542 3.90124
# Velocity P-wave (km/s) = 5.32408 6.05575 5.70166
#
# Compressibility (1/GPa) = 0.03462371
#
# Stress axis : x y z
#
# Youngs Moduli (GPa) = 55.22315 93.37497 68.07797
#
# Poissons Ratio (x) = 0.50287 -0.25026
# Poissons Ratio (y) = 0.29740 0.18600
# Poissons Ratio (z) = -0.20300 0.25511
#
# Static dielectric constant tensor:
#      x y z
#    x 2.198050 -0.022860 0.040880 
#    y -0.022860 2.238360 0.024120 
#    z 0.040880 0.024120 2.163520 
# 
# From -- ./inp_files/474417.got.cif
#   From: 2010.05.17/outbox.cif.g08.bks.cpg/sg2_238_cif.got.tgz:474417.got - 2010.06.03 11:33:40.
