data_PCOD9022710
_publ_section_title
;
Structure prediction by ZEFSAII (Michael W. Deem and Ramdas Pophale) SiO2 
 PCOD9022710
Probable space group: P -1
;
_chemical_formula_sum "Si O2"
_cell_formula_units_Z 16
_cell_length_a 10.847336
_cell_length_b 6.561758
_cell_length_c 10.753605
_cell_angle_alpha 115.206349
_cell_angle_beta 92.827966
_cell_angle_gamma 69.528334
_cell_volume 644.300456
_symmetry_space_group_name_H-M "P -1"
_symmetry_group_IT_number 2
_symmetry_cell_setting 'triclinic'
loop_
_space_group_symop_operation_xyz
x,y,z
-x,-y,-z
loop_
_atom_site_type_symbol
_atom_site_label
_atom_site_fract_x
_atom_site_fract_y
_atom_site_fract_z
Si Si1 0.227984 0.871527 0.478654
Si Si2 0.687057 0.333760 0.315250
Si Si3 0.396102 0.358172 0.977252
Si Si4 0.630363 0.847456 0.543093
Si Si5 0.025260 0.894839 0.798884
Si Si6 0.905755 0.398894 0.049020
Si Si7 0.448317 0.214045 0.205105
Si Si8 0.994870 0.274746 0.513675
O O1 0.320847 0.772139 0.575283
O O2 0.141674 0.703031 0.422734
O O3 0.299571 0.954472 0.394045
O O4 0.115755 0.134287 0.570972
O O5 0.695835 0.596283 0.404431
O O6 0.818252 0.147788 0.209842
O O7 0.557521 0.339321 0.241787
O O8 0.253869 0.458736 0.925219
O O9 0.359315 0.339014 0.115880
O O10 0.500000 0.500000 0.000000
O O11 0.477829 0.075638 0.878259
O O12 0.614909 0.759418 0.656165
O O13 0.500000 0.000000 0.500000
O O14 0.989365 0.891525 0.652616
O O15 0.032049 0.667543 0.826387
O O16 0.931465 0.136807 0.920974
O O17 0.000000 0.500000 0.000000
O O18 0.000000 0.500000 0.500000
#
# Coordination Sequence:
#
# PCOD9022710 Si02
#       8
#     2   2   2   2   2   2   2   2
#     4  10  22  39  63  96 138 178 227 270 355 416
#     4  11  23  44  69  98 142 183 234 291 353 440
#     4  11  27  48  73 101 143 193 237 305 354 410
#     4  12  26  40  68 107 141 181 230 292 361 432
#     4  10  24  42  68  99 130 175 236 285 344 420
#     4  11  25  45  72  98 130 179 238 294 348 406
#     4  11  26  44  69 105 141 188 244 280 360 432
#     4  10  22  41  64  97 137 183 223 282 348 430
#
# _framework density 24.833134000000001
#
# number of rings (size 3 to 8) (size 9 to 14) (size 15 to 20)
#    0.000    1.250    1.250    3.375    3.500   12.000 
#    0.000    0.000    0.000    0.000    0.000    0.000 
#    0.000    0.000    0.000    0.000    0.000    0.000 
#
# Total GULP energy -89286.782325 kJ/mol
# GULP energy per Si atom -5580.423895 kJ/mol
# Density = 2.477661 g / cm^3
# Si number density = 24.833134 Si / 1000 Ang^3
#
#
#
# Elastic Constant Matrix: (Units=GPa)
#
#
# Indices 1 2 3 4 5 6 
#
# 1 88.9118 44.5795 -0.5836 -2.2937 -3.4687 20.1223
# 2 44.5795 147.9736 26.5539 -9.2722 -0.0560 6.1981
# 3 -0.5836 26.5539 57.1435 -3.6688 -11.7164 0.3642
# 4 -2.2937 -9.2722 -3.6688 39.9654 0.7766 -3.5070
# 5 -3.4687 -0.0560 -11.7164 0.7766 26.6953 -6.5934
# 6 20.1223 6.1981 0.3642 -3.5070 -6.5934 51.4816
#
#
#
# Elastic Compliance Matrix: (Units=1/GPa)
#
#
# Indices 1 2 3 4 5 6 
#
# 1 0.014874 -0.004797 0.002773 -0.000484 0.001908 -0.005044
# 2 -0.004797 0.009120 -0.004722 0.001508 -0.002576 0.000583
# 3 0.002773 -0.004722 0.021845 0.000933 0.010080 0.000685
# 4 -0.000484 0.001508 0.000933 0.025582 0.000037 0.001749
# 5 0.001908 -0.002576 0.010080 0.000037 0.043373 0.005051
# 6 -0.005044 0.000583 0.000685 0.001749 0.005051 0.022087
#
#
# Mechanical properties :
#
#
# Convention : Reuss Voigt Hill
#
# Bulk Modulus (GPa) = 30.91485 48.34762 39.63123
# Shear Modulus (GPa) = 31.02629 38.52708 34.77669
#
# Velocity S-wave (km/s) = 3.53851 3.94310 3.74627
# Velocity P-wave (km/s) = 5.40100 6.34366 5.89121
#
# Compressibility (1/GPa) = 0.03234692
#
# Stress axis : x y z
#
# Youngs Moduli (GPa) = 67.23101 109.65382 45.77795
#
# Poissons Ratio (x) = 0.52602 -0.12696
# Poissons Ratio (y) = 0.32251 0.21616
# Poissons Ratio (z) = -0.18645 0.51777
#
# Static dielectric constant tensor:
#      x y z
#    x 2.094310 0.024570 -0.026650 
#    y 0.024570 1.973780 0.029720 
#    z -0.026650 0.029720 2.006680 
# 
# From -- ./inp_files/411072.got.cif
#   From: 2010.05.17/outbox.cif.g08.bks.cpg/sg2_206_cif.got.tgz:411072.got - 2010.06.03 11:33:40.
