data_PCOD9022436
_publ_section_title
;
Structure prediction by ZEFSAII (Michael W. Deem and Ramdas Pophale) SiO2 
 PCOD9022436
Probable space group: P -1
;
_chemical_formula_sum "Si O2"
_cell_formula_units_Z 14
_cell_length_a 15.624596
_cell_length_b 5.674634
_cell_length_c 21.726962
_cell_angle_alpha 107.144359
_cell_angle_beta 162.079977
_cell_angle_gamma 69.343553
_cell_volume 549.009466
_symmetry_space_group_name_H-M "P -1"
_symmetry_group_IT_number 2
_symmetry_cell_setting 'triclinic'
loop_
_space_group_symop_operation_xyz
x,y,z
-x,-y,-z
loop_
_atom_site_type_symbol
_atom_site_label
_atom_site_fract_x
_atom_site_fract_y
_atom_site_fract_z
Si Si1 0.029926 0.136342 0.668099
Si Si2 0.538930 0.670776 0.958470
Si Si3 0.934332 0.572821 0.390658
Si Si4 0.626087 0.254998 0.611514
Si Si5 0.264251 0.611300 0.167922
Si Si6 0.695425 0.805102 0.939444
Si Si7 0.435637 0.100235 0.673794
O O1 0.019229 0.177121 0.590339
O O2 0.283445 0.884806 0.831836
O O3 0.159476 0.351676 0.803745
O O4 0.720961 0.110585 0.474757
O O5 0.395267 0.435698 0.845843
O O6 0.585006 0.756728 0.927359
O O7 0.000000 0.500000 0.500000
O O8 0.180574 0.351278 0.510410
O O9 0.500000 0.500000 0.500000
O O10 0.584308 0.355209 0.661120
O O11 0.500000 0.000000 0.500000
O O12 0.971603 0.183260 0.829996
O O13 0.345684 0.426750 0.149732
O O14 0.287692 0.874559 0.171617
O O15 0.000000 0.500000 0.000000
O O16 0.521385 0.043277 0.798819
#
# Coordination Sequence:
#
# PCOD9022436 Si02
#       7
#     2   2   2   2   2   2   2
#     4  10  22  39  61  99 143 182 234 299 354 428
#     4  10  22  40  63  97 139 185 236 291 362 421
#     4  11  21  38  63  96 140 181 237 287 354 428
#     4  11  29  51  77 109 145 187 240 312 378 440
#     4  10  25  45  70  99 137 181 240 299 364 433
#     4  11  25  43  72  99 139 188 247 292 364 448
#     4  11  23  39  68  97 134 188 232 295 355 432
#
# _framework density 25.500468999999999
#
# number of rings (size 3 to 8) (size 9 to 14) (size 15 to 20)
#    0.000    1.429    0.000    3.857    8.000    4.571 
#    0.000    0.000    0.000    0.000    0.000    0.000 
#    0.000    0.000    0.000    0.000    0.000    0.000 
#
# Total GULP energy -78084.589513 kJ/mol
# GULP energy per Si atom -5577.470680 kJ/mol
# Density = 2.544243 g / cm^3
# Si number density = 25.500469 Si / 1000 Ang^3
#
#
#
# Elastic Constant Matrix: (Units=GPa)
#
#
# Indices 1 2 3 4 5 6 
#
# 1 110.1643 38.8296 46.6619 17.6837 -6.6261 20.6837
# 2 38.8296 97.7667 79.7849 30.5784 3.3567 23.9780
# 3 46.6619 79.7849 181.2361 36.9336 12.3017 8.8444
# 4 17.6837 30.5784 36.9336 51.1833 11.1828 1.1025
# 5 -6.6261 3.3567 12.3017 11.1828 47.2360 0.8728
# 6 20.6837 23.9780 8.8444 1.1025 0.8728 47.0557
#
#
#
# Elastic Compliance Matrix: (Units=1/GPa)
#
#
# Indices 1 2 3 4 5 6 
#
# 1 0.011703 -0.001498 -0.001876 -0.002334 0.002863 -0.004027
# 2 -0.001498 0.020804 -0.007052 -0.007073 0.001979 -0.008488
# 3 -0.001876 -0.007052 0.009424 -0.001584 -0.001891 0.002719
# 4 -0.002334 -0.007073 -0.001584 0.026898 -0.005862 0.004406
# 5 0.002863 0.001979 -0.001891 -0.005862 0.023352 -0.002207
# 6 -0.004027 -0.008488 0.002719 0.004406 -0.002207 0.026773
#
#
# Mechanical properties :
#
#
# Convention : Reuss Voigt Hill
#
# Bulk Modulus (GPa) = 47.43999 79.96888 63.70443
# Shear Modulus (GPa) = 34.05271 44.02103 39.03687
#
# Velocity S-wave (km/s) = 3.65824 4.15936 3.91683
# Velocity P-wave (km/s) = 6.04050 7.38207 6.74472
#
# Compressibility (1/GPa) = 0.02107926
#
# Stress axis : x y z
#
# Youngs Moduli (GPa) = 85.45022 48.06805 106.11765
#
# Poissons Ratio (x) = 0.07200 0.19907
# Poissons Ratio (y) = 0.12800 0.74830
# Poissons Ratio (z) = 0.16030 0.33895
#
# Static dielectric constant tensor:
#      x y z
#    x 2.059770 -0.057390 0.030090 
#    y -0.057390 2.303970 -0.053780 
#    z 0.030090 -0.053780 2.183380 
# 
# From -- ./inp_files/122888.got.cif
#   From: 2010.05.17/outbox.cif.g08.bks.cpg/sg2_62_cif.got.tgz:122888.got - 2010.06.03 11:33:40.
