data_PCOD9022050
_publ_section_title
;
Structure prediction by ZEFSAII (Michael W. Deem and Ramdas Pophale) SiO2 
 PCOD9022050
Probable space group: P -1
;
_chemical_formula_sum "Si O2"
_cell_formula_units_Z 14
_cell_length_a 8.621009
_cell_length_b 15.189556
_cell_length_c 18.649584
_cell_angle_alpha 160.655139
_cell_angle_beta 80.859932
_cell_angle_gamma 107.666215
_cell_volume 705.142014
_symmetry_space_group_name_H-M "P -1"
_symmetry_group_IT_number 2
_symmetry_cell_setting 'triclinic'
loop_
_space_group_symop_operation_xyz
x,y,z
-x,-y,-z
loop_
_atom_site_type_symbol
_atom_site_label
_atom_site_fract_x
_atom_site_fract_y
_atom_site_fract_z
Si Si1 0.723127 0.737735 0.109821
Si Si2 0.698200 0.689364 0.661187
Si Si3 0.575154 0.580431 0.841227
Si Si4 0.628360 0.211509 0.089568
Si Si5 0.853892 0.667444 0.775562
Si Si6 0.523308 0.072655 0.638603
Si Si7 0.935779 0.713336 0.535037
O O1 0.642956 0.901637 0.293841
O O2 0.612480 0.665072 0.987075
O O3 0.680953 0.413332 0.896092
O O4 0.928840 0.950262 0.240261
O O5 0.500000 0.500000 0.500000
O O6 0.708223 0.579343 0.655556
O O7 0.846562 0.674439 0.589297
O O8 0.734189 0.032488 0.921776
O O9 0.484646 0.751261 0.937418
O O10 0.763760 0.671250 0.859585
O O11 0.466119 0.219635 0.558100
O O12 0.768175 0.533196 0.357066
O O13 0.500000 0.000000 0.000000
O O14 0.943404 0.453471 0.603237
O O15 0.000000 0.000000 0.000000
O O16 0.500000 0.000000 0.500000
#
# Coordination Sequence:
#
# PCOD9022050 Si02
#       7
#     2   2   2   2   2   2   2
#     4  10  22  38  69  98 116 158 217 264 314 372
#     4  12  25  39  58  85 131 176 212 246 302 375
#     4  11  22  40  64  90 129 169 204 255 321 370
#     4  12  24  42  56  88 135 174 203 249 309 371
#     4  12  22  38  59  90 128 165 212 260 301 361
#     4   9  20  42  67  95 124 153 206 270 325 369
#     4  12  24  39  62  92 124 168 215 262 303 361
#
# _framework density 19.854157000000001
#
# number of rings (size 3 to 8) (size 9 to 14) (size 15 to 20)
#    0.000    0.857    5.714    1.286    2.000    1.143 
#    0.000    0.714    0.000    8.571    0.000    0.000 
#    0.000    0.000    0.000    0.000    0.000    0.000 
#
# Total GULP energy -78177.137033 kJ/mol
# GULP energy per Si atom -5584.081217 kJ/mol
# Density = 1.980897 g / cm^3
# Si number density = 19.854157 Si / 1000 Ang^3
#
#
#
# Elastic Constant Matrix: (Units=GPa)
#
#
# Indices 1 2 3 4 5 6 
#
# 1 65.0647 23.0801 10.6992 -3.4905 -3.4374 -0.3801
# 2 23.0801 83.0084 21.8441 -3.8812 -2.6577 11.1808
# 3 10.6992 21.8441 71.8337 7.6669 10.7834 4.3664
# 4 -3.4905 -3.8812 7.6669 44.4622 10.4355 -3.6544
# 5 -3.4374 -2.6577 10.7834 10.4355 40.0347 -2.9265
# 6 -0.3801 11.1808 4.3664 -3.6544 -2.9265 25.5207
#
#
#
# Elastic Compliance Matrix: (Units=1/GPa)
#
#
# Indices 1 2 3 4 5 6 
#
# 1 0.017480 -0.004706 -0.001709 0.001131 0.001570 0.002956
# 2 -0.004706 0.015220 -0.003815 0.000909 0.000970 -0.005844
# 3 -0.001709 -0.003815 0.016366 -0.002440 -0.004318 -0.001999
# 4 0.001131 0.000909 -0.002440 0.024584 -0.005379 0.002940
# 5 0.001570 0.000970 -0.004318 -0.005379 0.027945 0.002772
# 6 0.002956 -0.005844 -0.001999 0.002940 0.002772 0.042869
#
#
# Mechanical properties :
#
#
# Convention : Reuss Voigt Hill
#
# Bulk Modulus (GPa) = 34.95561 36.79486 35.87524
# Shear Modulus (GPa) = 28.66011 32.95574 30.80792
#
# Velocity S-wave (km/s) = 3.80351 4.07860 3.94345
# Velocity P-wave (km/s) = 6.07728 6.38379 6.23242
#
# Compressibility (1/GPa) = 0.02860771
#
# Stress axis : x y z
#
# Youngs Moduli (GPa) = 57.20686 65.70311 61.10325
#
# Poissons Ratio (x) = 0.30918 0.10441
# Poissons Ratio (y) = 0.26920 0.23309
# Poissons Ratio (z) = 0.09775 0.25064
#
# Static dielectric constant tensor:
#      x y z
#    x 1.678990 -0.000680 0.008110 
#    y -0.000680 1.729230 -0.006230 
#    z 0.008110 -0.006230 1.783110 
# 
# From -- ./inp_files/51031.got.cif
#   From: 2010.05.17/outbox.cif.g08.bks.cpg/sg2_26_cif.got.tgz:51031.got - 2010.06.03 11:33:40.
