data_PCOD9022766
_publ_section_title
;
Structure prediction by ZEFSAII (Michael W. Deem and Ramdas Pophale) SiO2 
 PCOD9022766
Probable space group: P -1
;
_chemical_formula_sum "Si O2"
_cell_formula_units_Z 16
_cell_length_a 5.377969
_cell_length_b 20.321780
_cell_length_c 21.177070
_cell_angle_alpha 21.190221
_cell_angle_beta 126.786643
_cell_angle_gamma 116.293491
_cell_volume 614.486459
_symmetry_space_group_name_H-M "P -1"
_symmetry_group_IT_number 2
_symmetry_cell_setting 'triclinic'
loop_
_space_group_symop_operation_xyz
x,y,z
-x,-y,-z
loop_
_atom_site_type_symbol
_atom_site_label
_atom_site_fract_x
_atom_site_fract_y
_atom_site_fract_z
Si Si1 0.554142 0.298744 0.457589
Si Si2 0.258781 0.849108 0.252318
Si Si3 0.129254 0.185694 0.175376
Si Si4 0.727889 0.794380 0.149471
Si Si5 0.118201 0.728991 0.068870
Si Si6 0.656916 0.766168 0.652523
Si Si7 0.645986 0.373827 0.048042
Si Si8 0.940065 0.524739 0.613436
O O1 0.623687 0.147103 0.661641
O O2 0.336689 0.518004 0.256529
O O3 0.375938 0.266506 0.397694
O O4 0.907623 0.318314 0.482362
O O5 0.539742 0.646083 0.447913
O O6 0.902890 0.825598 0.211619
O O7 0.257890 0.032627 0.048262
O O8 0.336085 0.322486 0.068921
O O9 0.811664 0.282981 0.086493
O O10 0.392393 0.988357 0.424515
O O11 0.034174 0.135553 0.136024
O O12 0.353718 0.800516 0.083855
O O13 0.947609 0.582916 0.339706
O O14 0.911311 0.655765 0.152039
O O15 0.038243 0.720384 0.772041
O O16 0.557474 0.606725 0.818125
#
# Coordination Sequence:
#
# PCOD9022766 Si02
#       8
#     2   2   2   2   2   2   2   2
#     4  10  22  44  62  98 130 175 226 282 341 417
#     4  10  23  40  63  93 129 170 230 274 339 415
#     4  12  26  47  75 105 147 189 239 293 358 431
#     4  10  23  41  61  93 130 173 222 283 336 408
#     4  10  23  41  65  94 134 173 226 287 341 410
#     4  11  25  45  76 102 144 192 231 297 364 418
#     4  11  27  50  71 112 145 183 243 296 351 435
#     4  10  22  39  64  88 128 174 221 278 344 396
#
# _framework density 26.038001000000001
#
# number of rings (size 3 to 8) (size 9 to 14) (size 15 to 20)
#    0.000    1.500    1.250    1.875    5.250    8.500 
#    6.750    2.500    0.000    0.000    0.000    0.000 
#    0.000    0.000    0.000    0.000    0.000    0.000 
#
# Total GULP energy -89636.218066 kJ/mol
# GULP energy per Si atom -5602.263629 kJ/mol
# Density = 2.597874 g / cm^3
# Si number density = 26.038001 Si / 1000 Ang^3
#
#
#
# Elastic Constant Matrix: (Units=GPa)
#
#
# Indices 1 2 3 4 5 6 
#
# 1 62.2018 28.5044 17.7948 -6.3779 -2.3583 -2.9965
# 2 28.5044 99.9491 3.3306 13.9798 6.0787 -10.2709
# 3 17.7948 3.3306 113.9429 1.2461 -12.1379 9.5618
# 4 -6.3779 13.9798 1.2461 30.0493 3.2362 -2.5565
# 5 -2.3583 6.0787 -12.1379 3.2362 27.3247 0.3077
# 6 -2.9965 -10.2709 9.5618 -2.5565 0.3077 35.9653
#
#
#
# Elastic Compliance Matrix: (Units=1/GPa)
#
#
# Indices 1 2 3 4 5 6 
#
# 1 0.021055 -0.006935 -0.003160 0.007815 0.001018 0.001161
# 2 -0.006935 0.013421 0.000262 -0.007212 -0.002644 0.002695
# 3 -0.003160 0.000262 0.010003 -0.001936 0.004376 -0.003023
# 4 0.007815 -0.007212 -0.001936 0.038880 -0.003207 0.001897
# 5 0.001018 -0.002644 0.004376 -0.003207 0.039624 -0.002401
# 6 0.001161 0.002695 -0.003023 0.001897 -0.002401 0.029630
#
#
# Mechanical properties :
#
#
# Convention : Reuss Voigt Hill
#
# Bulk Modulus (GPa) = 40.30264 41.70593 41.00429
# Shear Modulus (GPa) = 27.69335 33.76548 30.72941
#
# Velocity S-wave (km/s) = 3.26479 3.60499 3.43910
# Velocity P-wave (km/s) = 5.45195 5.77754 5.61711
#
# Compressibility (1/GPa) = 0.02481227
#
# Stress axis : x y z
#
# Youngs Moduli (GPa) = 47.49572 74.51172 99.96839
#
# Poissons Ratio (x) = 0.51674 0.31589
# Poissons Ratio (y) = 0.32938 -0.02617
# Poissons Ratio (z) = 0.15008 -0.01951
#
# Static dielectric constant tensor:
#      x y z
#    x 2.040330 -0.019690 0.022810 
#    y -0.019690 2.027460 0.003570 
#    z 0.022810 0.003570 2.083380 
# 
# From -- ./inp_files/605209.got.cif
#   From: 2010.05.17/outbox.cif.g08.bks.cpg/sg2_303_cif.got.tgz:605209.got - 2010.06.03 11:33:40.
