data_PCOD9022345
_publ_section_title
;
Structure prediction by ZEFSAII (Michael W. Deem and Ramdas Pophale) SiO2 
 PCOD9022345
Probable space group: P -1
;
_chemical_formula_sum "Si O2"
_cell_formula_units_Z 14
_cell_length_a 9.558880
_cell_length_b 9.147182
_cell_length_c 13.647083
_cell_angle_alpha 140.087092
_cell_angle_beta 76.496382
_cell_angle_gamma 121.865128
_cell_volume 617.225695
_symmetry_space_group_name_H-M "P -1"
_symmetry_group_IT_number 2
_symmetry_cell_setting 'triclinic'
loop_
_space_group_symop_operation_xyz
x,y,z
-x,-y,-z
loop_
_atom_site_type_symbol
_atom_site_label
_atom_site_fract_x
_atom_site_fract_y
_atom_site_fract_z
Si Si1 0.454902 0.028487 0.766378
Si Si2 0.756516 0.328452 0.223520
Si Si3 0.992417 0.178199 0.429425
Si Si4 0.949829 0.602307 0.157156
Si Si5 0.888166 0.047487 0.177178
Si Si6 0.324672 0.760330 0.457724
Si Si7 0.797863 0.490103 0.841896
O O1 0.426875 0.890551 0.806813
O O2 0.307443 0.094047 0.820647
O O3 0.388711 0.786104 0.571779
O O4 0.632941 0.295120 0.839202
O O5 0.850865 0.609559 0.416510
O O6 0.774457 0.389629 0.137106
O O7 0.870835 0.206512 0.172306
O O8 0.017044 0.245978 0.343217
O O9 0.823052 0.175280 0.483316
O O10 0.959105 0.879376 0.284345
O O11 0.095447 0.647334 0.232917
O O12 0.000000 0.500000 0.000000
O O13 0.904410 0.801519 0.021085
O O14 0.740876 0.482842 0.735285
O O15 0.500000 0.000000 0.500000
#
# Coordination Sequence:
#
# PCOD9022345 Si02
#       7
#     2   2   2   2   2   2   2
#     4   8  20  38  61  90 116 155 201 248 300 345
#     4  10  22  39  61  88 118 159 203 251 299 343
#     4  11  20  40  62  85 124 161 196 244 302 364
#     4  12  25  40  59  88 122 165 202 238 304 367
#     4   9  20  36  64  87 117 152 204 251 297 338
#     4   9  19  35  63  93 114 153 200 242 295 356
#     4  11  19  38  62  89 125 156 199 247 299 357
#
# _framework density 22.682141999999999
#
# number of rings (size 3 to 8) (size 9 to 14) (size 15 to 20)
#    0.857    1.143    2.857    1.286    0.000    0.571 
#    2.571    1.429    0.000    0.000    0.000    0.000 
#    0.000    0.000    0.000    0.000    0.000    0.000 
#
# Total GULP energy -77949.715371 kJ/mol
# GULP energy per Si atom -5567.836812 kJ/mol
# Density = 2.263052 g / cm^3
# Si number density = 22.682142 Si / 1000 Ang^3
#
#
#
# Elastic Constant Matrix: (Units=GPa)
#
#
# Indices 1 2 3 4 5 6 
#
# 1 20.8988 9.8167 6.7555 7.5472 -4.7804 6.6883
# 2 9.8167 143.0007 46.9919 -14.8934 -15.2706 8.4557
# 3 6.7555 46.9919 118.7226 -4.1265 -5.1928 0.8196
# 4 7.5472 -14.8934 -4.1265 31.6291 -4.7611 -8.9064
# 5 -4.7804 -15.2706 -5.1928 -4.7611 22.7076 0.0858
# 6 6.6883 8.4557 0.8196 -8.9064 0.0858 27.3934
#
#
#
# Elastic Compliance Matrix: (Units=1/GPa)
#
#
# Indices 1 2 3 4 5 6 
#
# 1 0.068282 -0.004382 -0.002582 -0.024343 0.005821 -0.023175
# 2 -0.004382 0.009580 -0.003064 0.006125 0.006103 0.000177
# 3 -0.002582 -0.003064 0.009794 0.000863 -0.000189 0.001564
# 4 -0.024343 0.006125 0.000863 0.047230 0.009021 0.019355
# 5 0.005821 0.006103 -0.000189 0.009021 0.051218 -0.000527
# 6 -0.023175 0.000177 0.001564 0.019355 -0.000527 0.048356
#
#
# Mechanical properties :
#
#
# Convention : Reuss Voigt Hill
#
# Bulk Modulus (GPa) = 14.79322 45.52781 30.16051
# Shear Modulus (GPa) = 18.04734 30.94988 24.49861
#
# Velocity S-wave (km/s) = 2.82381 3.69793 3.29003
# Velocity P-wave (km/s) = 4.14343 6.19262 5.26861
#
# Compressibility (1/GPa) = 0.06759856
#
# Stress axis : x y z
#
# Youngs Moduli (GPa) = 14.64514 104.38631 102.10787
#
# Poissons Ratio (x) = 0.45745 0.26368
# Poissons Ratio (y) = 0.06418 0.31284
# Poissons Ratio (z) = 0.03782 0.31982
#
# Static dielectric constant tensor:
#      x y z
#    x 1.841160 0.034340 0.036800 
#    y 0.034340 1.965910 -0.062470 
#    z 0.036800 -0.062470 1.874830 
# 
# From -- ./inp_files/513823.got.cif
#   From: 2010.05.17/outbox.cif.g08.bks.cpg/sg2_257_cif.got.tgz:513823.got - 2010.06.03 11:33:40.
