data_PCOD9022796
_publ_section_title
;
Structure prediction by ZEFSAII (Michael W. Deem and Ramdas Pophale) SiO2 
 PCOD9022796
Probable space group: P -1
;
_chemical_formula_sum "Si O2"
_cell_formula_units_Z 16
_cell_length_a 8.489252
_cell_length_b 9.600938
_cell_length_c 13.240595
_cell_angle_alpha 120.275804
_cell_angle_beta 62.248071
_cell_angle_gamma 104.235599
_cell_volume 824.690163
_symmetry_space_group_name_H-M "P -1"
_symmetry_group_IT_number 2
_symmetry_cell_setting 'triclinic'
loop_
_space_group_symop_operation_xyz
x,y,z
-x,-y,-z
loop_
_atom_site_type_symbol
_atom_site_label
_atom_site_fract_x
_atom_site_fract_y
_atom_site_fract_z
Si Si1 0.919482 0.872297 0.058130
Si Si2 0.656418 0.191364 0.581650
Si Si3 0.144227 0.640553 0.028930
Si Si4 0.592849 0.041866 0.327419
Si Si5 0.987845 0.598941 0.434419
Si Si6 0.585344 0.650501 0.590982
Si Si7 0.180987 0.458288 0.146765
Si Si8 0.494918 0.474831 0.215087
O O1 0.062972 0.806830 0.073409
O O2 0.752668 0.950021 0.192955
O O3 0.853581 0.709754 0.961120
O O4 0.000000 0.000000 0.000000
O O5 0.651975 0.103996 0.443233
O O6 0.515312 0.337780 0.681126
O O7 0.850347 0.271145 0.568219
O O8 0.581637 0.069777 0.643229
O O9 0.184922 0.609384 0.123315
O O10 0.315602 0.592092 0.895720
O O11 0.000000 0.500000 0.000000
O O12 0.532503 0.196620 0.340883
O O13 0.792155 0.669178 0.506852
O O14 0.000000 0.500000 0.500000
O O15 0.028649 0.483927 0.285342
O O16 0.500000 0.500000 0.500000
O O17 0.580736 0.616400 0.698669
O O18 0.364772 0.454750 0.151541
#
# Coordination Sequence:
#
# PCOD9022796 Si02
#       8
#     2   2   2   2   2   2   2   2
#     4  11  25  41  64  95 135 174 209 265 320 387
#     4  10  22  41  66  91 134 171 206 282 319 376
#     4  10  22  39  64  92 123 170 217 251 309 392
#     4  11  24  41  62  98 136 168 216 262 334 379
#     4  11  22  42  69  97 124 166 225 269 325 381
#     4  12  24  39  70  97 125 172 217 275 320 400
#     4  10  23  41  67  92 128 170 212 267 315 386
#     4  11  21  42  67  93 127 167 222 264 319 374
#
# _framework density 19.401225
#
# number of rings (size 3 to 8) (size 9 to 14) (size 15 to 20)
#    0.000    1.250    3.750    2.625    7.000    3.500 
#    0.000    7.500    0.000    0.000    0.000    0.000 
#    0.000    0.000    0.000    0.000    0.000    0.000 
#
# Total GULP energy -89337.321530 kJ/mol
# GULP energy per Si atom -5583.582596 kJ/mol
# Density = 1.935707 g / cm^3
# Si number density = 19.401225 Si / 1000 Ang^3
#
#
#
# Elastic Constant Matrix: (Units=GPa)
#
#
# Indices 1 2 3 4 5 6 
#
# 1 106.9071 45.0089 54.3259 -2.1953 -19.1993 -7.4359
# 2 45.0089 127.3281 48.9691 -1.9309 -1.3837 -16.1974
# 3 54.3259 48.9691 138.1859 11.6194 -14.3668 -12.6632
# 4 -2.1953 -1.9309 11.6194 15.5010 -3.5166 0.8253
# 5 -19.1993 -1.3837 -14.3668 -3.5166 31.7147 2.0974
# 6 -7.4359 -16.1974 -12.6632 0.8253 2.0974 30.4606
#
#
#
# Elastic Compliance Matrix: (Units=1/GPa)
#
#
# Indices 1 2 3 4 5 6 
#
# 1 0.014356 -0.003329 -0.004319 0.006567 0.007367 -0.000746
# 2 -0.003329 0.010479 -0.002493 0.001877 -0.002735 0.003861
# 3 -0.004319 -0.002493 0.010896 -0.008971 0.001064 0.002319
# 4 0.006567 0.001877 -0.008971 0.074529 0.008504 -0.003733
# 5 0.007367 -0.002735 0.001064 0.008504 0.037430 -0.002021
# 6 -0.000746 0.003861 0.002319 -0.003733 -0.002021 0.035904
#
#
# Mechanical properties :
#
#
# Convention : Reuss Voigt Hill
#
# Bulk Modulus (GPa) = 64.72971 74.33656 69.53314
# Shear Modulus (GPa) = 23.92055 30.47640 27.19848
#
# Velocity S-wave (km/s) = 3.51513 3.96769 3.74825
# Velocity P-wave (km/s) = 7.06478 7.70641 7.39256
#
# Compressibility (1/GPa) = 0.01544886
#
# Stress axis : x y z
#
# Youngs Moduli (GPa) = 69.65730 95.42756 91.78047
#
# Poissons Ratio (x) = 0.31768 0.39639
# Poissons Ratio (y) = 0.23189 0.22882
# Poissons Ratio (z) = 0.30084 0.23791
#
# Static dielectric constant tensor:
#      x y z
#    x 1.689100 -0.005520 0.007230 
#    y -0.005520 1.754760 -0.068570 
#    z 0.007230 -0.068570 1.742530 
# 
# From -- ./inp_files/176279.got.cif
#   From: 2010.05.17/outbox.cif.g08.bks.cpg/sg2_89_cif.got.tgz:176279.got - 2010.06.03 11:33:40.
