data_PCOD9022457
_publ_section_title
;
Structure prediction by ZEFSAII (Michael W. Deem and Ramdas Pophale) SiO2 
 PCOD9022457
Probable space group: P -1
;
_chemical_formula_sum "Si O2"
_cell_formula_units_Z 15
_cell_length_a 5.437273
_cell_length_b 14.306177
_cell_length_c 8.465850
_cell_angle_alpha 85.676202
_cell_angle_beta 114.768143
_cell_angle_gamma 96.630964
_cell_volume 593.685341
_symmetry_space_group_name_H-M "P -1"
_symmetry_group_IT_number 2
_symmetry_cell_setting 'triclinic'
loop_
_space_group_symop_operation_xyz
x,y,z
-x,-y,-z
loop_
_atom_site_type_symbol
_atom_site_label
_atom_site_fract_x
_atom_site_fract_y
_atom_site_fract_z
Si Si1 0.773362 0.736063 0.644042
Si Si2 0.398337 0.942889 0.674044
Si Si3 0.000000 0.500000 0.000000
Si Si4 0.666391 0.189626 0.043566
Si Si5 0.010893 0.458573 0.334497
Si Si6 0.114983 0.130475 0.614882
Si Si7 0.130650 0.927120 0.158022
Si Si8 0.451575 0.357482 0.112759
O O1 0.720594 0.804182 0.476817
O O2 0.546755 0.702180 0.716075
O O3 0.024750 0.783556 0.810892
O O4 0.865463 0.640762 0.606994
O O5 0.458620 0.887278 0.855730
O O6 0.198048 0.871613 0.529592
O O7 0.218523 0.027622 0.653172
O O8 0.680262 0.999136 0.689786
O O9 0.825123 0.592931 0.970648
O O10 0.848865 0.485090 0.782700
O O11 0.519436 0.285230 0.003538
O O12 0.692976 0.138168 0.891627
O O13 0.711015 0.434964 0.176885
O O14 0.000000 0.500000 0.500000
O O15 0.076500 0.142927 0.789199
O O16 0.000000 0.000000 0.000000
#
# Coordination Sequence:
#
# PCOD9022457 Si02
#       8
#     2   2   1   2   2   2   2   2
#     4   9  22  42  64  94 131 173 215 271 324 395
#     4  10  22  39  62  87 128 181 220 273 318 378
#     4  10  22  44  74 102 128 172 214 272 340 402
#     4  10  22  39  64  94 132 176 215 275 324 381
#     4  10  22  45  72 102 134 168 216 275 338 410
#     4  10  22  41  63  94 127 174 232 264 325 387
#     4  12  24  38  63  94 132 176 226 276 323 378
#     4  10  22  43  74  96 133 172 218 267 340 398
#
# _framework density 25.265910000000002
#
# number of rings (size 3 to 8) (size 9 to 14) (size 15 to 20)
#    0.000    1.867    1.333    1.200    1.867    5.333 
#    9.600    0.000    0.000    0.000    0.000    0.000 
#    0.000    0.000    0.000    0.000    0.000    0.000 
#
# Total GULP energy -83545.030024 kJ/mol
# GULP energy per Si atom -5569.668668 kJ/mol
# Density = 2.520840 g / cm^3
# Si number density = 25.265910 Si / 1000 Ang^3
#
#
#
# Elastic Constant Matrix: (Units=GPa)
#
#
# Indices 1 2 3 4 5 6 
#
# 1 49.1454 21.8199 -15.8734 -4.6420 -4.8133 -19.4563
# 2 21.8199 106.6074 38.2443 -6.6665 -6.5991 -35.8363
# 3 -15.8734 38.2443 88.0090 -2.7903 -1.6784 -20.4815
# 4 -4.6420 -6.6665 -2.7903 42.3345 2.5874 -1.8095
# 5 -4.8133 -6.5991 -1.6784 2.5874 41.4440 1.9514
# 6 -19.4563 -35.8363 -20.4815 -1.8095 1.9514 50.7827
#
#
#
# Elastic Compliance Matrix: (Units=1/GPa)
#
#
# Indices 1 2 3 4 5 6 
#
# 1 0.032561 -0.006140 0.011711 0.003778 0.002435 0.012906
# 2 -0.006140 0.014933 -0.006205 0.001448 0.001055 0.005694
# 3 0.011711 -0.006205 0.017959 0.001767 0.000641 0.007389
# 4 0.003778 0.001448 0.001767 0.024616 -0.000989 0.004097
# 5 0.002435 0.001055 0.000641 -0.000989 0.024622 0.000954
# 6 0.012906 0.005694 0.007389 0.004097 0.000954 0.031744
#
#
# Mechanical properties :
#
#
# Convention : Reuss Voigt Hill
#
# Bulk Modulus (GPa) = 15.58029 36.90482 26.24256
# Shear Modulus (GPa) = 29.56837 40.21696 34.89266
#
# Velocity S-wave (km/s) = 3.42466 3.99400 3.72024
# Velocity P-wave (km/s) = 4.67093 5.99230 5.37240
#
# Compressibility (1/GPa) = 0.06418365
#
# Stress axis : x y z
#
# Youngs Moduli (GPa) = 30.71135 66.96631 55.68205
#
# Poissons Ratio (x) = 0.41118 -0.65208
# Poissons Ratio (y) = 0.18857 0.34553
# Poissons Ratio (z) = -0.35965 0.41556
#
# Static dielectric constant tensor:
#      x y z
#    x -2.711430 -2.729430 1.674500 
#    y -2.729430 0.341220 0.958970 
#    z 1.674500 0.958970 1.564450 
# 
# From -- ./inp_files/135392.got.cif
#   From: 2010.05.17/outbox.cif.g08.bks.cpg/sg2_68_cif.got.tgz:135392.got - 2010.06.03 11:33:40.
