data_PCOD9022102
_publ_section_title
;
Structure prediction by ZEFSAII (Michael W. Deem and Ramdas Pophale) SiO2 
 PCOD9022102
Probable space group: P -1
;
_chemical_formula_sum "Si O2"
_cell_formula_units_Z 13
_cell_length_a 8.549862
_cell_length_b 14.951922
_cell_length_c 23.730011
_cell_angle_alpha 20.721477
_cell_angle_beta 32.582857
_cell_angle_gamma 30.894501
_cell_volume 537.592684
_symmetry_space_group_name_H-M "P -1"
_symmetry_group_IT_number 2
_symmetry_cell_setting 'triclinic'
loop_
_space_group_symop_operation_xyz
x,y,z
-x,-y,-z
loop_
_atom_site_type_symbol
_atom_site_label
_atom_site_fract_x
_atom_site_fract_y
_atom_site_fract_z
Si Si1 0.145986 0.194715 0.810278
Si Si2 0.220477 0.081987 0.281216
Si Si3 0.218861 0.242201 0.414559
Si Si4 0.474524 0.875634 0.725508
Si Si5 0.000000 0.500000 0.500000
Si Si6 0.519733 0.757418 0.211962
Si Si7 0.077695 0.321311 0.976869
O O1 0.294957 0.314405 0.744101
O O2 0.905786 0.458621 0.695283
O O3 0.427951 0.023229 0.786335
O O4 0.000000 0.000000 0.000000
O O5 0.267018 0.119888 0.310818
O O6 0.007786 0.379632 0.148441
O O7 0.058442 0.872023 0.439035
O O8 0.353367 0.273745 0.294386
O O9 0.500000 0.000000 0.500000
O O10 0.250402 0.184136 0.599590
O O11 0.242910 0.730914 0.902826
O O12 0.708649 0.401860 0.633242
O O13 0.749188 0.706846 0.118897
O O14 0.309315 0.079729 0.086809
#
# Coordination Sequence:
#
# PCOD9022102 Si02
#       7
#     2   2   2   2   1   2   2
#     4  12  27  46  71 102 146 182 231 290 355 415
#     4  12  25  43  73 100 142 180 235 283 356 411
#     4  12  29  45  69 103 142 185 235 289 350 412
#     4  11  23  43  70  96 138 182 234 282 346 417
#     4  10  22  38  72  96 134 180 230 286 338 408
#     4  10  22  42  69 103 142 178 238 283 353 410
#     4  10  22  41  71 103 132 186 232 287 339 423
#
# _framework density 24.181875000000002
#
# number of rings (size 3 to 8) (size 9 to 14) (size 15 to 20)
#    0.000    0.923    0.000    6.000    8.615    0.615 
#    0.000    0.000    0.000    0.000    0.000    0.000 
#    0.000    0.000    0.000    0.000    0.000    0.000 
#
# Total GULP energy -72619.857941 kJ/mol
# GULP energy per Si atom -5586.142919 kJ/mol
# Density = 2.412684 g / cm^3
# Si number density = 24.181875 Si / 1000 Ang^3
#
#
#
# Elastic Constant Matrix: (Units=GPa)
#
#
# Indices 1 2 3 4 5 6 
#
# 1 37.0524 2.3827 14.0678 10.5795 5.5742 -9.5457
# 2 2.3827 130.6776 51.0274 -23.3323 -1.3537 -20.0092
# 3 14.0678 51.0274 115.5838 -18.1074 -22.3289 -11.8710
# 4 10.5795 -23.3323 -18.1074 51.4296 -10.6983 4.0863
# 5 5.5742 -1.3537 -22.3289 -10.6983 22.4475 -6.4441
# 6 -9.5457 -20.0092 -11.8710 4.0863 -6.4441 24.2279
#
#
#
# Elastic Compliance Matrix: (Units=1/GPa)
#
#
# Indices 1 2 3 4 5 6 
#
# 1 0.047015 0.002171 -0.016949 -0.022954 -0.037659 0.005867
# 2 0.002171 0.010672 -0.004063 0.002227 -0.000844 0.007078
# 3 -0.016949 -0.004063 0.023363 0.017048 0.037794 0.008591
# 4 -0.022954 0.002227 0.017048 0.039741 0.043457 0.006004
# 5 -0.037659 -0.000844 0.037794 0.043457 0.120076 0.027592
# 6 0.005867 0.007078 0.008591 0.006004 0.027592 0.059968
#
#
# Mechanical properties :
#
#
# Convention : Reuss Voigt Hill
#
# Bulk Modulus (GPa) = 23.05851 46.47440 34.76646
# Shear Modulus (GPa) = 14.16537 34.01007 24.08772
#
# Velocity S-wave (km/s) = 2.42292 3.75431 3.15954
# Velocity P-wave (km/s) = 4.16936 6.16875 5.26484
#
# Compressibility (1/GPa) = 0.04336793
#
# Stress axis : x y z
#
# Youngs Moduli (GPa) = 21.26964 93.70340 42.80335
#
# Poissons Ratio (x) = -0.20343 0.72549
# Poissons Ratio (y) = -0.04618 0.17390
# Poissons Ratio (z) = 0.36050 0.38070
#
# Static dielectric constant tensor:
#      x y z
#    x 1.947470 -0.020430 0.066210 
#    y -0.020430 1.951130 -0.054210 
#    z 0.066210 -0.054210 1.911610 
# 
# From -- ./inp_files/145857.got.cif
#   From: 2010.05.17/outbox.cif.g08.bks.cpg/sg2_73_cif.got.tgz:145857.got - 2010.06.03 11:33:40.
