data_PCOD9022295
_publ_section_title
;
Structure prediction by ZEFSAII (Michael W. Deem and Ramdas Pophale) SiO2 
 PCOD9022295
Probable space group: P -1
;
_chemical_formula_sum "Si O2"
_cell_formula_units_Z 16
_cell_length_a 6.700939
_cell_length_b 23.465855
_cell_length_c 9.306297
_cell_angle_alpha 140.821580
_cell_angle_beta 132.304487
_cell_angle_gamma 64.142143
_cell_volume 672.130414
_symmetry_space_group_name_H-M "P -1"
_symmetry_group_IT_number 2
_symmetry_cell_setting 'triclinic'
loop_
_space_group_symop_operation_xyz
x,y,z
-x,-y,-z
loop_
_atom_site_type_symbol
_atom_site_label
_atom_site_fract_x
_atom_site_fract_y
_atom_site_fract_z
Si Si1 0.488230 0.132918 0.166148
Si Si2 0.648190 0.863356 0.225623
Si Si3 0.789723 0.256061 0.042911
Si Si4 0.885156 0.258026 0.779331
Si Si5 0.358659 0.382510 0.539599
Si Si6 0.070690 0.000411 0.867947
Si Si7 0.660415 0.421480 0.474766
Si Si8 0.828659 0.455452 0.124270
O O1 0.670904 0.229024 0.490489
O O2 0.707259 0.066317 0.168072
O O3 0.395206 0.126204 0.943730
O O4 0.226256 0.096717 0.068258
O O5 0.852857 0.790317 0.204785
O O6 0.807853 0.955388 0.558546
O O7 0.357327 0.823724 0.080749
O O8 0.664671 0.344572 0.204960
O O9 0.116591 0.296068 0.281239
O O10 0.733458 0.225106 0.791034
O O11 0.965123 0.367362 0.050466
O O12 0.540308 0.375364 0.473876
O O13 0.548489 0.408636 0.821130
O O14 0.235190 0.477098 0.649699
O O15 0.000000 0.000000 0.000000
O O16 0.500000 0.500000 0.500000
O O17 0.973027 0.475412 0.748719
#
# Coordination Sequence:
#
# PCOD9022295 Si02
#       8
#     2   2   2   2   2   2   2   2
#     4  10  24  43  68  99 133 167 212 262 318 391
#     4  11  24  43  66 101 132 172 213 261 326 384
#     4  11  23  38  60  92 129 168 219 267 325 385
#     4  11  24  41  63  94 132 171 217 271 326 381
#     4  10  22  40  60  89 127 174 225 274 329 379
#     4  10  22  45  72 101 131 168 210 257 320 389
#     4  11  21  37  62  85 123 171 221 274 329 378
#     4  10  22  39  60  92 122 175 225 274 322 388
#
# _framework density 23.804905000000002
#
# number of rings (size 3 to 8) (size 9 to 14) (size 15 to 20)
#    0.000    1.500    0.000    4.500    3.500    3.500 
#    4.500    0.000    0.000    0.000    0.000    0.000 
#    0.000    0.000    0.000    0.000    0.000    0.000 
#
# Total GULP energy -89498.416714 kJ/mol
# GULP energy per Si atom -5593.651045 kJ/mol
# Density = 2.375072 g / cm^3
# Si number density = 23.804905 Si / 1000 Ang^3
#
#
#
# Elastic Constant Matrix: (Units=GPa)
#
#
# Indices 1 2 3 4 5 6 
#
# 1 125.6026 11.1668 39.2415 -0.3875 18.4967 32.5082
# 2 11.1668 46.0221 23.5727 -3.1109 19.6818 11.3663
# 3 39.2415 23.5727 151.9930 -16.3344 18.6484 18.6476
# 4 -0.3875 -3.1109 -16.3344 41.3041 1.4297 -4.9409
# 5 18.4967 19.6818 18.6484 1.4297 38.3121 5.1214
# 6 32.5082 11.3663 18.6476 -4.9409 5.1214 49.8425
#
#
#
# Elastic Compliance Matrix: (Units=1/GPa)
#
#
# Indices 1 2 3 4 5 6 
#
# 1 0.010634 0.001634 -0.001830 -0.001109 -0.004199 -0.006302
# 2 0.001634 0.030203 -0.002557 0.001130 -0.014380 -0.005407
# 3 -0.001830 -0.002557 0.008074 0.002951 -0.001740 -0.000773
# 4 -0.001109 0.001130 0.002951 0.025810 -0.002739 0.002202
# 5 -0.004199 -0.014380 -0.001740 -0.002739 0.036106 0.002687
# 6 -0.006302 -0.005407 -0.000773 0.002202 0.002687 0.025638
#
#
# Mechanical properties :
#
#
# Convention : Reuss Voigt Hill
#
# Bulk Modulus (GPa) = 23.03826 52.39775 37.71801
# Shear Modulus (GPa) = 31.96127 42.53418 37.24773
#
# Velocity S-wave (km/s) = 3.66817 4.23162 3.95993
# Velocity P-wave (km/s) = 5.25734 6.77751 6.06524
#
# Compressibility (1/GPa) = 0.04340605
#
# Stress axis : x y z
#
# Youngs Moduli (GPa) = 94.03705 33.10878 123.86029
#
# Poissons Ratio (x) = -0.05411 0.22664
# Poissons Ratio (y) = -0.15368 0.31672
# Poissons Ratio (z) = 0.17207 0.08466
#
# Static dielectric constant tensor:
#      x y z
#    x 1.911430 -0.068850 0.011330 
#    y -0.068850 1.963520 0.019390 
#    z 0.011330 0.019390 1.888370 
# 
# From -- ./inp_files/143173.got.cif
#   From: 2010.05.17/outbox.cif.g08.bks.cpg/sg2_72_cif.got.tgz:143173.got - 2010.06.03 11:33:40.
