data_PCOD9022929
_publ_section_title
;
Structure prediction by ZEFSAII (Michael W. Deem and Ramdas Pophale) SiO2 
 PCOD9022929
Probable space group: P -1
;
_chemical_formula_sum "Si O2"
_cell_formula_units_Z 16
_cell_length_a 17.204633
_cell_length_b 7.759598
_cell_length_c 8.739432
_cell_angle_alpha 127.845794
_cell_angle_beta 129.224825
_cell_angle_gamma 51.695433
_cell_volume 660.466429
_symmetry_space_group_name_H-M "P -1"
_symmetry_group_IT_number 2
_symmetry_cell_setting 'triclinic'
loop_
_space_group_symop_operation_xyz
x,y,z
-x,-y,-z
loop_
_atom_site_type_symbol
_atom_site_label
_atom_site_fract_x
_atom_site_fract_y
_atom_site_fract_z
Si Si1 0.137630 0.320578 0.211424
Si Si2 0.401337 0.208935 0.912076
Si Si3 0.614535 0.904543 0.500449
Si Si4 0.189784 0.189164 0.762446
Si Si5 0.160330 0.639080 0.182982
Si Si6 0.617332 0.391146 0.660866
Si Si7 0.094357 0.961080 0.726235
Si Si8 0.966423 0.809168 0.696737
O O1 0.113607 0.574930 0.245407
O O2 0.268367 0.233279 0.350559
O O3 0.068201 0.310110 0.267341
O O4 0.105401 0.160060 0.963148
O O5 0.300255 0.140443 0.788362
O O6 0.406000 0.227019 0.745868
O O7 0.383415 0.450573 0.107394
O O8 0.500000 0.000000 0.000000
O O9 0.633651 0.132544 0.589518
O O10 0.500000 0.000000 0.500000
O O11 0.191826 0.960808 0.736167
O O12 0.099076 0.243542 0.551870
O O13 0.164950 0.426423 0.960277
O O14 0.284542 0.615655 0.329556
O O15 0.089672 0.904989 0.187613
O O16 0.500000 0.500000 0.500000
O O17 0.080006 0.779416 0.735910
O O18 0.000000 0.000000 0.500000
#
# Coordination Sequence:
#
# PCOD9022929 Si02
#       8
#     2   2   2   2   2   2   2   2
#     4  11  22  40  65  96 130 167 215 273 316 382
#     4  11  22  38  65  91 126 173 215 265 322 387
#     4  12  25  42  63  98 133 166 219 274 321 387
#     4   9  20  39  60  92 127 161 214 261 313 385
#     4  10  22  39  65  91 127 173 210 262 329 380
#     4  11  21  40  65  91 126 175 219 259 326 387
#     4   9  21  39  66  95 128 172 216 266 327 386
#     4  11  20  42  66  92 128 169 214 267 324 378
#
# _framework density 24.225304999999999
#
# number of rings (size 3 to 8) (size 9 to 14) (size 15 to 20)
#    0.000    1.500    3.750    1.125    3.500    2.500 
#    0.000    7.500    0.000    8.250    0.000    0.000 
#    0.000    0.000    0.000    0.000    0.000    0.000 
#
# Total GULP energy -89321.209269 kJ/mol
# GULP energy per Si atom -5582.575579 kJ/mol
# Density = 2.417017 g / cm^3
# Si number density = 24.225305 Si / 1000 Ang^3
#
#
#
# Elastic Constant Matrix: (Units=GPa)
#
#
# Indices 1 2 3 4 5 6 
#
# 1 188.6388 32.9014 55.7809 -6.9249 0.2419 27.6667
# 2 32.9014 65.7923 21.1509 -5.9342 -1.9312 5.0715
# 3 55.7809 21.1509 124.0904 3.7783 4.3105 -2.7008
# 4 -6.9249 -5.9342 3.7783 39.3023 -5.3810 7.6911
# 5 0.2419 -1.9312 4.3105 -5.3810 42.2133 -5.3945
# 6 27.6667 5.0715 -2.7008 7.6911 -5.3945 45.1304
#
#
#
# Elastic Compliance Matrix: (Units=1/GPa)
#
#
# Indices 1 2 3 4 5 6 
#
# 1 0.007394 -0.002120 -0.003130 0.002216 -0.000161 -0.004879
# 2 -0.002120 0.017330 -0.002155 0.002838 0.001245 -0.001112
# 3 -0.003130 -0.002155 0.010015 -0.002584 -0.001040 0.003077
# 4 0.002216 0.002838 -0.002584 0.028169 0.003173 -0.006254
# 5 -0.000161 0.001245 -0.001040 0.003173 0.024550 0.002290
# 6 -0.004879 -0.001112 0.003077 -0.006254 0.002290 0.026797
#
#
# Mechanical properties :
#
#
# Convention : Reuss Voigt Hill
#
# Bulk Modulus (GPa) = 50.17866 66.46533 58.32200
# Shear Modulus (GPa) = 36.84356 43.24176 40.04266
#
# Velocity S-wave (km/s) = 3.90407 4.22949 4.07003
# Velocity P-wave (km/s) = 6.40941 7.16570 6.79808
#
# Compressibility (1/GPa) = 0.01992879
#
# Stress axis : x y z
#
# Youngs Moduli (GPa) = 135.25236 57.70197 99.85192
#
# Poissons Ratio (x) = 0.12232 0.31257
# Poissons Ratio (y) = 0.28671 0.21517
# Poissons Ratio (z) = 0.42338 0.12434
#
# Static dielectric constant tensor:
#      x y z
#    x 1.955480 -0.033740 -0.027680 
#    y -0.033740 2.111110 -0.022460 
#    z -0.027680 -0.022460 1.921910 
# 
# From -- ./inp_files/221928.got.cif
#   From: 2010.05.17/outbox.cif.g08.bks.cpg/sg2_111_cif.got.tgz:221928.got - 2010.06.03 11:33:40.
