data_PCOD9022326
_publ_section_title
;
Structure prediction by ZEFSAII (Michael W. Deem and Ramdas Pophale) SiO2 
 PCOD9022326
Probable space group: P -1
;
_chemical_formula_sum "Si O2"
_cell_formula_units_Z 16
_cell_length_a 12.702203
_cell_length_b 16.795492
_cell_length_c 8.628162
_cell_angle_alpha 94.748153
_cell_angle_beta 69.323168
_cell_angle_gamma 152.477084
_cell_volume 673.442194
_symmetry_space_group_name_H-M "P -1"
_symmetry_group_IT_number 2
_symmetry_cell_setting 'triclinic'
loop_
_space_group_symop_operation_xyz
x,y,z
-x,-y,-z
loop_
_atom_site_type_symbol
_atom_site_label
_atom_site_fract_x
_atom_site_fract_y
_atom_site_fract_z
Si Si1 0.091207 0.726332 0.627633
Si Si2 0.157283 0.663805 0.330369
Si Si3 0.883484 0.645817 0.017463
Si Si4 0.069449 0.160310 0.133513
Si Si5 0.638594 0.000854 0.933946
Si Si6 0.437388 0.276525 0.772486
Si Si7 0.778175 0.021219 0.534548
Si Si8 0.629642 0.388096 0.371799
O O1 0.048069 0.690294 0.827267
O O2 0.765790 0.495834 0.697445
O O3 0.287620 0.805289 0.419475
O O4 0.204480 0.889120 0.565787
O O5 0.000000 0.500000 0.500000
O O6 0.934927 0.566295 0.320739
O O7 0.393304 0.787017 0.108301
O O8 0.805582 0.672996 0.962048
O O9 0.101480 0.822495 0.056794
O O10 0.651055 0.449933 0.211755
O O11 0.033098 0.137912 0.335676
O O12 0.751115 0.927824 0.191010
O O13 0.265566 0.219364 0.970793
O O14 0.761111 0.044351 0.719490
O O15 0.500000 0.000000 0.000000
O O16 0.460199 0.321501 0.588649
O O17 0.509088 0.788221 0.616535
#
# Coordination Sequence:
#
# PCOD9022326 Si02
#       8
#     2   2   2   2   2   2   2   2
#     4  10  22  40  61  91 121 159 205 247 296 371
#     4  11  25  39  61  87 117 167 202 249 306 360
#     4  11  24  37  60  93 124 157 206 250 297 355
#     4   9  21  41  67  93 117 161 199 249 304 364
#     4  12  23  42  59  85 126 164 198 253 302 349
#     4   9  19  42  68  88 123 160 197 247 309 359
#     4  10  22  39  61  84 122 160 199 245 298 359
#     4  10  22  41  59  91 124 155 205 254 299 359
#
# _framework density 23.758534999999998
#
# number of rings (size 3 to 8) (size 9 to 14) (size 15 to 20)
#    0.000    1.750    2.500    0.750    8.750    4.500 
#    0.000    1.250    0.000    5.250    0.000    0.000 
#    0.000    0.000    0.000    0.000    0.000    0.000 
#
# Total GULP energy -89146.318551 kJ/mol
# GULP energy per Si atom -5571.644909 kJ/mol
# Density = 2.370446 g / cm^3
# Si number density = 23.758535 Si / 1000 Ang^3
#
#
#
# Elastic Constant Matrix: (Units=GPa)
#
#
# Indices 1 2 3 4 5 6 
#
# 1 33.4881 19.3877 37.5166 -3.5521 6.8757 -7.3888
# 2 19.3877 91.1945 53.2820 6.6802 1.9097 -7.5493
# 3 37.5166 53.2820 206.1883 31.3934 20.3046 -5.5834
# 4 -3.5521 6.6802 31.3934 56.3940 -7.3113 7.5682
# 5 6.8757 1.9097 20.3046 -7.3113 22.2130 -5.8940
# 6 -7.3888 -7.5493 -5.5834 7.5682 -5.8940 32.0906
#
#
#
# Elastic Compliance Matrix: (Units=1/GPa)
#
#
# Indices 1 2 3 4 5 6 
#
# 1 0.043116 -0.004978 -0.007040 0.006091 -0.003008 0.005543
# 2 -0.004978 0.013873 -0.002947 -0.000158 0.003601 0.002303
# 3 -0.007040 -0.002947 0.008455 -0.005642 -0.007384 -0.000869
# 4 0.006091 -0.000158 -0.005642 0.023003 0.010007 -0.003203
# 5 -0.003008 0.003601 -0.007384 0.010007 0.057562 0.007082
# 6 0.005543 0.002303 -0.000869 -0.003203 0.007082 0.034885
#
#
# Mechanical properties :
#
#
# Convention : Reuss Voigt Hill
#
# Bulk Modulus (GPa) = 28.15753 61.24926 44.70339
# Shear Modulus (GPa) = 22.45555 36.85184 29.65369
#
# Velocity S-wave (km/s) = 3.07768 3.94267 3.53672
# Velocity P-wave (km/s) = 4.95043 6.82364 5.96107
#
# Compressibility (1/GPa) = 0.03551448
#
# Stress axis : x y z
#
# Youngs Moduli (GPa) = 23.19301 72.08393 118.27175
#
# Poissons Ratio (x) = 0.35880 0.83263
# Poissons Ratio (y) = 0.11544 0.34859
# Poissons Ratio (z) = 0.16328 0.21246
#
# Static dielectric constant tensor:
#      x y z
#    x 2.000500 -0.036160 -0.051290 
#    y -0.036160 1.954090 -0.012300 
#    z -0.051290 -0.012300 2.000150 
# 
# From -- ./inp_files/272170.got.cif
#   From: 2010.05.17/outbox.cif.g08.bks.cpg/sg2_137_cif.got.tgz:272170.got - 2010.06.03 11:33:40.
