data_PCOD9022864
_publ_section_title
;
Structure prediction by ZEFSAII (Michael W. Deem and Ramdas Pophale) SiO2 
 PCOD9022864
Probable space group: P -1
;
_chemical_formula_sum "Si O2"
_cell_formula_units_Z 16
_cell_length_a 10.246145
_cell_length_b 5.445125
_cell_length_c 12.862911
_cell_angle_alpha 91.197833
_cell_angle_beta 74.213153
_cell_angle_gamma 109.663560
_cell_volume 648.322528
_symmetry_space_group_name_H-M "P -1"
_symmetry_group_IT_number 2
_symmetry_cell_setting 'triclinic'
loop_
_space_group_symop_operation_xyz
x,y,z
-x,-y,-z
loop_
_atom_site_type_symbol
_atom_site_label
_atom_site_fract_x
_atom_site_fract_y
_atom_site_fract_z
Si Si1 0.102818 0.998734 0.628649
Si Si2 0.693549 0.263127 0.492849
Si Si3 0.406234 0.779336 0.098353
Si Si4 0.184743 0.289196 0.393854
Si Si5 0.172954 0.604226 0.979555
Si Si6 0.556661 0.896329 0.697977
Si Si7 0.678200 0.796502 0.126262
Si Si8 0.687439 0.566443 0.313819
O O1 0.136664 0.107983 0.504807
O O2 0.147758 0.247778 0.697106
O O3 0.211468 0.836043 0.608975
O O4 0.937734 0.817609 0.666453
O O5 0.799189 0.428577 0.562566
O O6 0.640344 0.464956 0.440530
O O7 0.581022 0.042628 0.582876
O O8 0.252702 0.633078 0.076389
O O9 0.526856 0.650390 0.098918
O O10 0.397021 0.918356 0.210692
O O11 0.500000 0.000000 0.000000
O O12 0.336994 0.273462 0.327226
O O13 0.221494 0.377595 0.914409
O O14 0.000000 0.500000 0.000000
O O15 0.239875 0.904271 0.923809
O O16 0.393792 0.697715 0.733583
O O17 0.639020 0.768360 0.257017
#
# Coordination Sequence:
#
# PCOD9022864 Si02
#       8
#     2   2   2   2   2   2   2   2
#     4   9  20  38  63  87 135 186 233 288 362 425
#     4  10  22  39  64  97 140 188 239 299 355 426
#     4  10  24  48  75 100 143 190 236 299 377 443
#     4   9  20  40  59  92 130 183 237 294 355 428
#     4  11  25  50  80 113 144 184 247 316 370 438
#     4  11  24  41  65 101 138 183 248 299 358 429
#     4  11  25  47  75 109 148 196 239 297 379 455
#     4  11  24  39  67  97 142 186 240 289 356 430
#
# _framework density 24.679072999999999
#
# number of rings (size 3 to 8) (size 9 to 14) (size 15 to 20)
#    0.000    1.750    0.000    3.000    5.250    7.500 
#    2.250    0.000    0.000    0.000    0.000    0.000 
#    0.000    0.000    0.000    0.000    0.000    0.000 
#
# Total GULP energy -89136.251718 kJ/mol
# GULP energy per Si atom -5571.015732 kJ/mol
# Density = 2.462290 g / cm^3
# Si number density = 24.679073 Si / 1000 Ang^3
#
#
#
# Elastic Constant Matrix: (Units=GPa)
#
#
# Indices 1 2 3 4 5 6 
#
# 1 169.2060 70.8554 58.5672 13.8141 15.0515 27.3094
# 2 70.8554 141.9132 43.7453 7.2193 3.7077 18.2980
# 3 58.5672 43.7453 75.8134 0.3120 18.7964 8.0480
# 4 13.8141 7.2193 0.3120 41.5262 -8.0465 8.3277
# 5 15.0515 3.7077 18.7964 -8.0465 25.3062 11.5799
# 6 27.3094 18.2980 8.0480 8.3277 11.5799 44.5477
#
#
#
# Elastic Compliance Matrix: (Units=1/GPa)
#
#
# Indices 1 2 3 4 5 6 
#
# 1 0.009640 -0.002566 -0.005499 -0.002126 -0.000413 -0.003357
# 2 -0.002566 0.010043 -0.004803 0.000833 0.005368 -0.003235
# 3 -0.005499 -0.004803 0.023817 -0.001982 -0.017017 0.005835
# 4 -0.002126 0.000833 -0.001982 0.029363 0.015730 -0.008259
# 5 -0.000413 0.005368 -0.017017 0.015730 0.065204 -0.018767
# 6 -0.003357 -0.003235 0.005835 -0.008259 -0.018767 0.031203
#
#
# Mechanical properties :
#
#
# Convention : Reuss Voigt Hill
#
# Bulk Modulus (GPa) = 56.29410 81.47424 68.88417
# Shear Modulus (GPa) = 24.88451 36.52700 30.70575
#
# Velocity S-wave (km/s) = 3.17886 3.85135 3.53115
# Velocity P-wave (km/s) = 6.02773 7.27065 6.67817
#
# Compressibility (1/GPa) = 0.01776385
#
# Stress axis : x y z
#
# Youngs Moduli (GPa) = 103.73351 99.57137 41.98618
#
# Poissons Ratio (x) = 0.25553 0.23087
# Poissons Ratio (y) = 0.26621 0.20167
# Poissons Ratio (z) = 0.57040 0.47827
#
# Static dielectric constant tensor:
#      x y z
#    x 2.022300 -0.037000 0.036240 
#    y -0.037000 2.028600 0.016680 
#    z 0.036240 0.016680 1.990250 
# 
# From -- ./inp_files/410481.got.cif
#   From: 2010.05.17/outbox.cif.g08.bks.cpg/sg2_206_cif.got.tgz:410481.got - 2010.06.03 11:33:40.
