data_PCOD9022660
_publ_section_title
;
Structure prediction by ZEFSAII (Michael W. Deem and Ramdas Pophale) SiO2 
 PCOD9022660
Probable space group: P -1
;
_chemical_formula_sum "Si O2"
_cell_formula_units_Z 16
_cell_length_a 15.291445
_cell_length_b 15.271959
_cell_length_c 6.037321
_cell_angle_alpha 56.277469
_cell_angle_beta 124.352425
_cell_angle_gamma 139.889254
_cell_volume 729.386955
_symmetry_space_group_name_H-M "P -1"
_symmetry_group_IT_number 2
_symmetry_cell_setting 'triclinic'
loop_
_space_group_symop_operation_xyz
x,y,z
-x,-y,-z
loop_
_atom_site_type_symbol
_atom_site_label
_atom_site_fract_x
_atom_site_fract_y
_atom_site_fract_z
Si Si1 0.393891 0.540679 0.378130
Si Si2 0.657913 0.055039 0.142425
Si Si3 0.466915 0.391471 0.918736
Si Si4 0.035598 0.068045 0.204130
Si Si5 0.120918 0.657026 0.682744
Si Si6 0.340105 0.183452 0.388430
Si Si7 0.890141 0.561161 0.816670
Si Si8 0.113749 0.815274 0.063633
O O1 0.390953 0.413628 0.597104
O O2 0.398440 0.559942 0.093013
O O3 0.525793 0.690365 0.454640
O O4 0.258627 0.490708 0.382929
O O5 0.759791 0.206207 0.193801
O O6 0.669346 0.948475 0.425173
O O7 0.732600 0.079388 0.977924
O O8 0.500000 0.000000 0.000000
O O9 0.500000 0.500000 0.000000
O O10 0.375401 0.242106 0.106540
O O11 0.204275 0.159499 0.308577
O O12 0.000000 0.000000 0.500000
O O13 0.950725 0.123445 0.000719
O O14 0.000000 0.000000 0.000000
O O15 0.117610 0.716642 0.366432
O O16 0.969452 0.568064 0.708968
O O17 0.144187 0.548461 0.891524
O O18 0.997685 0.716263 0.848552
#
# Coordination Sequence:
#
# PCOD9022660 Si02
#       8
#     2   2   2   2   2   2   2   2
#     4  10  22  39  63  93 133 171 227 281 352 414
#     4  11  24  44  68  97 133 177 236 295 359 429
#     4   9  22  38  57  91 130 170 218 276 344 419
#     4  12  28  47  73 106 152 194 241 295 360 436
#     4  10  23  44  64  96 133 174 232 294 352 427
#     4  11  24  41  65  99 137 181 231 288 357 424
#     4  10  23  41  67  96 133 177 232 293 355 422
#     4  11  25  41  69 100 136 185 236 290 362 428
#
# _framework density 21.936229000000001
#
# number of rings (size 3 to 8) (size 9 to 14) (size 15 to 20)
#    0.000    1.500    1.250    1.875   10.500    3.500 
#    0.000    0.000    0.000    0.000    0.000    0.000 
#    0.000    0.000    0.000    0.000    0.000    0.000 
#
# Total GULP energy -89121.964272 kJ/mol
# GULP energy per Si atom -5570.122767 kJ/mol
# Density = 2.188630 g / cm^3
# Si number density = 21.936229 Si / 1000 Ang^3
#
#
#
# Elastic Constant Matrix: (Units=GPa)
#
#
# Indices 1 2 3 4 5 6 
#
# 1 115.1134 43.0836 24.6159 -6.0119 11.2013 23.3256
# 2 43.0836 68.7800 16.6781 -1.9045 5.8914 13.0684
# 3 24.6159 16.6781 78.0958 -32.8449 -13.9183 18.9805
# 4 -6.0119 -1.9045 -32.8449 49.8979 3.0687 -1.0367
# 5 11.2013 5.8914 -13.9183 3.0687 33.5361 0.6730
# 6 23.3256 13.0684 18.9805 -1.0367 0.6730 40.5238
#
#
#
# Elastic Compliance Matrix: (Units=1/GPa)
#
#
# Indices 1 2 3 4 5 6 
#
# 1 0.012795 -0.006282 -0.002501 -0.000177 -0.004110 -0.004104
# 2 -0.006282 0.019637 -0.003185 -0.001978 -0.002468 -0.001235
# 3 -0.002501 -0.003185 0.024538 0.014906 0.010392 -0.008817
# 4 -0.000177 -0.001978 0.014906 0.029394 0.004015 -0.005557
# 5 -0.004110 -0.002468 0.010392 0.004015 0.035614 -0.002195
# 6 -0.004104 -0.001235 -0.008817 -0.005557 -0.002195 0.031462
#
#
# Mechanical properties :
#
#
# Convention : Reuss Voigt Hill
#
# Bulk Modulus (GPa) = 30.27139 47.86049 39.06594
# Shear Modulus (GPa) = 26.54112 36.63235 31.58674
#
# Velocity S-wave (km/s) = 3.48217 4.09093 3.79876
# Velocity P-wave (km/s) = 5.47695 6.64678 6.09002
#
# Compressibility (1/GPa) = 0.03303449
#
# Stress axis : x y z
#
# Youngs Moduli (GPa) = 78.15467 50.92301 40.75383
#
# Poissons Ratio (x) = 0.31987 0.10192
# Poissons Ratio (y) = 0.49093 0.12982
# Poissons Ratio (z) = 0.19545 0.16221
#
# Static dielectric constant tensor:
#      x y z
#    x 1.889570 0.018240 0.014150 
#    y 0.018240 1.825830 0.020640 
#    z 0.014150 0.020640 1.901710 
# 
# From -- ./inp_files/97630.got.cif
#   From: 2010.05.17/outbox.cif.g08.bks.cpg/sg2_49_cif.got.tgz:97630.got - 2010.06.03 11:33:40.
