data_PCOD9022367
_publ_section_title
;
Structure prediction by ZEFSAII (Michael W. Deem and Ramdas Pophale) SiO2 
 PCOD9022367
Probable space group: P -1
;
_chemical_formula_sum "Si O2"
_cell_formula_units_Z 16
_cell_length_a 6.946991
_cell_length_b 23.657609
_cell_length_c 5.092905
_cell_angle_alpha 92.128912
_cell_angle_beta 114.296802
_cell_angle_gamma 74.298583
_cell_volume 731.779511
_symmetry_space_group_name_H-M "P -1"
_symmetry_group_IT_number 2
_symmetry_cell_setting 'triclinic'
loop_
_space_group_symop_operation_xyz
x,y,z
-x,-y,-z
loop_
_atom_site_type_symbol
_atom_site_label
_atom_site_fract_x
_atom_site_fract_y
_atom_site_fract_z
Si Si1 0.199198 0.536603 0.305327
Si Si2 0.634687 0.724602 0.754180
Si Si3 0.723535 0.544460 0.163080
Si Si4 0.106550 0.901584 0.094836
Si Si5 0.624455 0.367183 0.319437
Si Si6 0.817206 0.176829 0.376263
Si Si7 0.921567 0.729417 0.417963
Si Si8 0.351525 0.999449 0.166517
O O1 0.253934 0.484004 0.542739
O O2 0.257410 0.508205 0.047548
O O3 0.322983 0.584054 0.456609
O O4 0.938837 0.564632 0.209372
O O5 0.534229 0.669208 0.660658
O O6 0.426070 0.778949 0.723105
O O7 0.742586 0.736019 0.546103
O O8 0.815242 0.716125 0.084565
O O9 0.508416 0.596846 0.993333
O O10 0.152643 0.875596 0.407349
O O11 0.263887 0.941965 0.117359
O O12 0.144209 0.848907 0.898524
O O13 0.860165 0.944007 0.944723
O O14 0.860132 0.321777 0.385529
O O15 0.992336 0.212866 0.547278
O O16 0.500000 0.000000 0.500000
O O17 0.500000 0.000000 0.000000
#
# Coordination Sequence:
#
# PCOD9022367 Si02
#       8
#     2   2   2   2   2   2   2   2
#     4  10  22  39  61  90 121 157 202 249 306 376
#     4  11  26  44  64  93 125 162 211 261 317 374
#     4  10  22  39  61  90 121 157 202 249 306 376
#     4  11  24  42  66  99 130 168 222 257 302 379
#     4  11  24  42  66  90 124 164 202 256 316 374
#     4  11  24  43  68  93 126 169 214 267 310 361
#     4  11  26  44  64  93 125 162 211 261 317 374
#     4  11  24  41  64  98 138 175 208 257 316 364
#
# _framework density 21.864511
#
# number of rings (size 3 to 8) (size 9 to 14) (size 15 to 20)
#    0.000    1.250    0.000    4.500    0.000   18.000 
#    0.000    0.000    0.000    0.000    0.000    0.000 
#    0.000    0.000    0.000    0.000    0.000    0.000 
#
# Total GULP energy -89623.691851 kJ/mol
# GULP energy per Si atom -5601.480741 kJ/mol
# Density = 2.181475 g / cm^3
# Si number density = 21.864511 Si / 1000 Ang^3
#
#
#
# Elastic Constant Matrix: (Units=GPa)
#
#
# Indices 1 2 3 4 5 6 
#
# 1 114.5383 23.8760 20.9121 1.1606 6.5027 16.1335
# 2 23.8760 54.3819 3.7202 -12.5612 18.0622 9.5754
# 3 20.9121 3.7202 89.9266 -5.0019 10.3620 2.7454
# 4 1.1606 -12.5612 -5.0019 23.8427 -1.0819 -5.7028
# 5 6.5027 18.0622 10.3620 -1.0819 46.1434 3.4458
# 6 16.1335 9.5754 2.7454 -5.7028 3.4458 4.7609
#
#
#
# Elastic Compliance Matrix: (Units=1/GPa)
#
#
# Indices 1 2 3 4 5 6 
#
# 1 0.033257 0.004367 -0.005735 -0.041569 0.006830 -0.172913
# 2 0.004367 0.031948 0.000769 -0.001761 -0.007655 -0.076068
# 3 -0.005735 0.000769 0.012634 0.008930 -0.003923 0.024138
# 4 -0.041569 -0.001761 0.008930 0.112139 -0.014017 0.283733
# 5 0.006830 -0.007655 -0.003923 -0.014017 0.027402 -0.042109
# 6 -0.172913 -0.076068 0.024138 0.283733 -0.042109 1.305427
#
#
# Mechanical properties :
#
#
# Convention : Reuss Voigt Hill
#
# Bulk Modulus (GPa) = 13.04781 39.54038 26.29409
# Shear Modulus (GPa) = 3.22674 28.97195 16.09935
#
# Velocity S-wave (km/s) = 1.21614 3.64410 2.71647
# Velocity P-wave (km/s) = 2.82002 5.98577 4.67878
#
# Compressibility (1/GPa) = 0.07664123
#
# Stress axis : x y z
#
# Youngs Moduli (GPa) = 30.06904 31.30106 79.15272
#
# Poissons Ratio (x) = -0.13669 0.45392
# Poissons Ratio (y) = -0.13131 -0.06088
# Poissons Ratio (z) = 0.17244 -0.02407
#
# Static dielectric constant tensor:
#      x y z
#    x 1.789350 0.000730 0.034530 
#    y 0.000730 1.788230 -0.002040 
#    z 0.034530 -0.002040 1.769130 
# 
# From -- ./inp_files/13367.got.cif
#   From: 2010.05.17/outbox.cif.g08.bks.cpg/sg2_7_cif.got.tgz:13367.got - 2010.06.03 11:33:40.
