data_PCOD9022687
_publ_section_title
;
Structure prediction by ZEFSAII (Michael W. Deem and Ramdas Pophale) SiO2 
 PCOD9022687
Probable space group: P -1
;
_chemical_formula_sum "Si O2"
_cell_formula_units_Z 14
_cell_length_a 17.462270
_cell_length_b 5.513637
_cell_length_c 11.891495
_cell_angle_alpha 108.305377
_cell_angle_beta 41.678468
_cell_angle_gamma 89.071400
_cell_volume 663.308013
_symmetry_space_group_name_H-M "P -1"
_symmetry_group_IT_number 2
_symmetry_cell_setting 'triclinic'
loop_
_space_group_symop_operation_xyz
x,y,z
-x,-y,-z
loop_
_atom_site_type_symbol
_atom_site_label
_atom_site_fract_x
_atom_site_fract_y
_atom_site_fract_z
Si Si1 0.390313 0.031057 0.462683
Si Si2 0.024290 0.053166 0.611981
Si Si3 0.654726 0.981418 0.112171
Si Si4 0.642563 0.360479 0.368187
Si Si5 0.075130 0.371416 0.282699
Si Si6 0.485649 0.747891 0.915529
Si Si7 0.684284 0.225091 0.695192
O O1 0.330383 0.362974 0.601893
O O2 0.543568 0.915911 0.283823
O O3 0.349784 0.839784 0.563493
O O4 0.354479 0.983767 0.368095
O O5 0.976330 0.385994 0.717869
O O6 0.169980 0.904200 0.459679
O O7 0.000000 0.000000 0.500000
O O8 0.954662 0.900883 0.739108
O O9 0.706205 0.147018 0.166252
O O10 0.577875 0.177766 0.124011
O O11 0.774314 0.729851 0.893005
O O12 0.500000 0.500000 0.500000
O O13 0.000000 0.500000 0.500000
O O14 0.622456 0.504131 0.730728
O O15 0.388326 0.685614 0.093910
O O16 0.500000 0.000000 0.000000
#
# Coordination Sequence:
#
# PCOD9022687 Si02
#       7
#     2   2   2   2   2   2   2
#     4  11  23  40  64  98 124 166 208 265 332 371
#     4  10  23  39  59  84 121 170 212 246 299 375
#     4  11  22  41  67  93 136 162 213 267 317 386
#     4  10  22  39  63  95 125 165 212 260 320 383
#     4  10  23  38  61  89 123 169 215 250 305 371
#     4  11  23  36  58  99 129 166 198 259 344 384
#     4  11  24  38  63  90 135 165 210 266 324 389
#
# _framework density 21.106332999999999
#
# number of rings (size 3 to 8) (size 9 to 14) (size 15 to 20)
#    0.000    1.429    1.429    5.143    6.000    4.571 
#    0.000    0.000    0.000    5.143    0.000    0.000 
#    0.000    0.000    0.000    0.000    0.000    0.000 
#
# Total GULP energy -78068.465862 kJ/mol
# GULP energy per Si atom -5576.318990 kJ/mol
# Density = 2.105829 g / cm^3
# Si number density = 21.106333 Si / 1000 Ang^3
#
#
#
# Elastic Constant Matrix: (Units=GPa)
#
#
# Indices 1 2 3 4 5 6 
#
# 1 88.8888 44.9560 40.1415 12.7996 -5.8948 -7.7281
# 2 44.9560 160.7186 34.9906 3.4440 -4.4656 -14.9007
# 3 40.1415 34.9906 86.1543 12.1020 -14.2195 -7.5958
# 4 12.7996 3.4440 12.1020 15.8524 -1.7911 1.4107
# 5 -5.8948 -4.4656 -14.2195 -1.7911 45.7074 5.6115
# 6 -7.7281 -14.9007 -7.5958 1.4107 5.6115 34.9105
#
#
#
# Elastic Compliance Matrix: (Units=1/GPa)
#
#
# Indices 1 2 3 4 5 6 
#
# 1 0.016571 -0.003198 -0.005066 -0.008995 -0.000302 0.001613
# 2 -0.003198 0.007649 -0.001780 0.002043 -0.000403 0.002152
# 3 -0.005066 -0.001780 0.016552 -0.007852 0.003840 0.001420
# 4 -0.008995 0.002043 -0.007852 0.076464 0.000326 -0.005970
# 5 -0.000302 -0.000403 0.003840 0.000326 0.023397 -0.003177
# 6 0.001613 0.002152 0.001420 -0.005970 -0.003177 0.030981
#
#
# Mechanical properties :
#
#
# Convention : Reuss Voigt Hill
#
# Bulk Modulus (GPa) = 48.34805 63.99310 56.17057
# Shear Modulus (GPa) = 25.17665 33.67231 29.42448
#
# Velocity S-wave (km/s) = 3.45751 3.99854 3.73782
# Velocity P-wave (km/s) = 6.23665 7.19047 6.73048
#
# Compressibility (1/GPa) = 0.02068336
#
# Stress axis : x y z
#
# Youngs Moduli (GPa) = 60.34737 130.74051 60.41461
#
# Poissons Ratio (x) = 0.41815 0.30605
# Poissons Ratio (y) = 0.19301 0.10754
# Poissons Ratio (z) = 0.30571 0.23272
#
# Static dielectric constant tensor:
#      x y z
#    x 1.754900 0.019810 0.039600 
#    y 0.019810 1.876260 0.005150 
#    z 0.039600 0.005150 1.837110 
# 
# From -- ./inp_files/67451.got.cif
#   From: 2010.05.17/outbox.cif.g08.bks.cpg/sg2_34_cif.got.tgz:67451.got - 2010.06.03 11:33:40.
