data_PCOD9022745
_publ_section_title
;
Structure prediction by ZEFSAII (Michael W. Deem and Ramdas Pophale) SiO2 
 PCOD9022745
Probable space group: P -1
;
_chemical_formula_sum "Si O2"
_cell_formula_units_Z 16
_cell_length_a 27.255700
_cell_length_b 5.824121
_cell_length_c 10.334263
_cell_angle_alpha 120.147086
_cell_angle_beta 150.696545
_cell_angle_gamma 55.656271
_cell_volume 662.716605
_symmetry_space_group_name_H-M "P -1"
_symmetry_group_IT_number 2
_symmetry_cell_setting 'triclinic'
loop_
_space_group_symop_operation_xyz
x,y,z
-x,-y,-z
loop_
_atom_site_type_symbol
_atom_site_label
_atom_site_fract_x
_atom_site_fract_y
_atom_site_fract_z
Si Si1 0.109624 0.422820 0.151282
Si Si2 0.587275 0.211026 0.699557
Si Si3 0.766358 0.525073 0.225494
Si Si4 0.109425 0.787241 0.005010
Si Si5 0.530669 0.297838 0.295734
Si Si6 0.672236 0.839003 0.319677
Si Si7 0.234047 0.311970 0.009353
Si Si8 0.069364 0.018096 0.543058
O O1 0.232913 0.391517 0.458001
O O2 0.088659 0.656942 0.056422
O O3 0.000000 0.500000 0.000000
O O4 0.123592 0.087555 0.090520
O O5 0.549251 0.194115 0.459697
O O6 0.501217 0.373361 0.652248
O O7 0.670400 0.394131 0.943961
O O8 0.653885 0.908059 0.810144
O O9 0.727793 0.812221 0.298166
O O10 0.804716 0.578611 0.189516
O O11 0.862909 0.283919 0.441041
O O12 0.215112 0.568240 0.132102
O O13 0.006856 0.799479 0.686830
O O14 0.626674 0.117315 0.377566
O O15 0.429979 0.255300 0.977714
O O16 0.156281 0.147755 0.833987
O O17 0.000000 0.000000 0.500000
#
# Coordination Sequence:
#
# PCOD9022745 Si02
#       8
#     2   2   2   2   2   2   2   2
#     4  12  28  48  72 105 150 201 245 302 365 445
#     4   9  20  41  69  97 133 176 238 303 366 434
#     4  10  22  39  64 100 139 182 231 306 366 437
#     4  12  26  43  73 104 145 197 251 303 362 434
#     4   9  19  42  73  97 135 191 238 305 364 441
#     4  10  22  42  70  98 144 189 243 298 370 439
#     4  11  23  37  67 101 137 177 240 305 370 429
#     4  11  22  39  64 101 143 187 243 304 368 437
#
# _framework density 24.143049999999999
#
# number of rings (size 3 to 8) (size 9 to 14) (size 15 to 20)
#    0.000    1.500    1.250    3.000    7.000    0.000 
#    4.500    6.250    5.500    0.000    0.000    0.000 
#    0.000    0.000    0.000    0.000    0.000    0.000 
#
# Total GULP energy -89081.284099 kJ/mol
# GULP energy per Si atom -5567.580256 kJ/mol
# Density = 2.408810 g / cm^3
# Si number density = 24.143050 Si / 1000 Ang^3
#
#
#
# Elastic Constant Matrix: (Units=GPa)
#
#
# Indices 1 2 3 4 5 6 
#
# 1 115.1897 50.4235 32.2436 -3.2947 6.9176 -20.1389
# 2 50.4235 129.2861 38.3293 -19.9067 15.4988 -32.8573
# 3 32.2436 38.3293 131.7713 -12.8595 -7.3188 -5.9613
# 4 -3.2947 -19.9067 -12.8595 42.7037 3.8736 8.0461
# 5 6.9176 15.4988 -7.3188 3.8736 22.9602 -14.2107
# 6 -20.1389 -32.8573 -5.9613 8.0461 -14.2107 48.0158
#
#
#
# Elastic Compliance Matrix: (Units=1/GPa)
#
#
# Indices 1 2 3 4 5 6 
#
# 1 0.011049 -0.003486 -0.001739 -0.001773 0.000258 0.002406
# 2 -0.003486 0.012298 -0.002450 0.004541 -0.006309 0.004021
# 3 -0.001739 -0.002450 0.009099 0.001017 0.004911 0.000007
# 4 -0.001773 0.004541 0.001017 0.027571 -0.010010 -0.005093
# 5 0.000258 -0.006309 0.004911 -0.010010 0.060967 0.016122
# 6 0.002406 0.004021 0.000007 -0.005093 0.016122 0.030213
#
#
# Mechanical properties :
#
#
# Convention : Reuss Voigt Hill
#
# Bulk Modulus (GPa) = 58.49239 68.69333 63.59286
# Shear Modulus (GPa) = 29.02822 39.75265 34.39044
#
# Velocity S-wave (km/s) = 3.47124 4.06217 3.77828
# Velocity P-wave (km/s) = 6.35185 7.10746 6.74025
#
# Compressibility (1/GPa) = 0.01709624
#
# Stress axis : x y z
#
# Youngs Moduli (GPa) = 90.50918 81.31354 109.89733
#
# Poissons Ratio (x) = 0.28345 0.19115
# Poissons Ratio (y) = 0.31551 0.26921
# Poissons Ratio (z) = 0.15743 0.19919
#
# Static dielectric constant tensor:
#      x y z
#    x 2.002300 -0.031740 -0.026300 
#    y -0.031740 2.011360 0.042670 
#    z -0.026300 0.042670 2.032010 
# 
# From -- ./inp_files/477367.got.cif
#   From: 2010.05.17/outbox.cif.g08.bks.cpg/sg2_239_cif.got.tgz:477367.got - 2010.06.03 11:33:40.
