data_PCOD9022216
_publ_section_title
;
Structure prediction by ZEFSAII (Michael W. Deem and Ramdas Pophale) SiO2 
 PCOD9022216
Probable space group: P -1
;
_chemical_formula_sum "Si O2"
_cell_formula_units_Z 16
_cell_length_a 9.613868
_cell_length_b 18.879539
_cell_length_c 11.883419
_cell_angle_alpha 135.700912
_cell_angle_beta 45.235677
_cell_angle_gamma 100.364388
_cell_volume 809.512031
_symmetry_space_group_name_H-M "P -1"
_symmetry_group_IT_number 2
_symmetry_cell_setting 'triclinic'
loop_
_space_group_symop_operation_xyz
x,y,z
-x,-y,-z
loop_
_atom_site_type_symbol
_atom_site_label
_atom_site_fract_x
_atom_site_fract_y
_atom_site_fract_z
Si Si1 0.907661 0.599609 0.326310
Si Si2 0.208686 0.635726 0.337464
Si Si3 0.752699 0.278707 0.347848
Si Si4 0.252728 0.544578 0.848964
Si Si5 0.482783 0.847978 0.714859
Si Si6 0.961540 0.111662 0.413577
Si Si7 0.235897 0.035291 0.654566
Si Si8 0.077374 0.155635 0.636615
O O1 0.857956 0.497475 0.226713
O O2 0.641803 0.746683 0.613609
O O3 0.023476 0.604089 0.378975
O O4 0.108428 0.562694 0.069500
O O5 0.177469 0.692935 0.543022
O O6 0.139850 0.747570 0.415377
O O7 0.500000 0.500000 0.000000
O O8 0.552660 0.418762 0.554718
O O9 0.602918 0.221867 0.386565
O O10 0.004623 0.163562 0.003708
O O11 0.167791 0.686276 0.029348
O O12 0.682014 0.853344 0.544938
O O13 0.232760 0.992272 0.063436
O O14 0.015730 0.105377 0.508345
O O15 0.771143 0.083667 0.459732
O O16 0.158665 0.076546 0.615541
O O17 0.500000 0.000000 0.500000
#
# Coordination Sequence:
#
# PCOD9022216 Si02
#       8
#     2   2   2   2   2   2   2   2
#     4   9  17  32  56  95 119 143 187 256 297 351
#     4  12  22  34  62  95 122 149 195 255 305 345
#     4  10  22  39  59  91 125 155 197 250 299 359
#     4   9  17  36  60  88 119 148 199 240 303 347
#     4   9  20  36  63  92 114 152 205 248 300 341
#     4  11  23  40  62  91 118 155 205 255 291 349
#     4  11  28  42  56  85 127 170 199 235 303 361
#     4  11  21  39  65  88 120 160 198 246 292 361
#
# _framework density 19.764993
#
# number of rings (size 3 to 8) (size 9 to 14) (size 15 to 20)
#    0.000    1.750    3.750    1.500    3.500    1.500 
#    0.000    1.250    0.000    3.750    0.000    0.000 
#    0.000    0.000    0.000    0.000    0.000    0.000 
#
# Total GULP energy -89370.606870 kJ/mol
# GULP energy per Si atom -5585.662929 kJ/mol
# Density = 1.972001 g / cm^3
# Si number density = 19.764993 Si / 1000 Ang^3
#
#
#
# Elastic Constant Matrix: (Units=GPa)
#
#
# Indices 1 2 3 4 5 6 
#
# 1 154.2906 16.6835 41.2553 -3.8734 18.1143 10.0290
# 2 16.6835 25.1024 25.1943 7.5713 5.0970 4.8000
# 3 41.2553 25.1943 77.7392 15.4589 3.7196 7.0628
# 4 -3.8734 7.5713 15.4589 20.4767 2.9293 -0.5115
# 5 18.1143 5.0970 3.7196 2.9293 27.4802 -3.0348
# 6 10.0290 4.8000 7.0628 -0.5115 -3.0348 25.1090
#
#
#
# Elastic Compliance Matrix: (Units=1/GPa)
#
#
# Indices 1 2 3 4 5 6 
#
# 1 0.009073 -0.001054 -0.005334 0.006940 -0.006081 -0.002516
# 2 -0.001054 0.063985 -0.017027 -0.009963 -0.008721 -0.008278
# 3 -0.005334 -0.017027 0.023724 -0.013332 0.004776 -0.000982
# 4 0.006940 -0.009963 -0.013332 0.065051 -0.007492 0.003302
# 5 -0.006081 -0.008721 0.004776 -0.007492 0.043029 0.007801
# 6 -0.002516 -0.008278 -0.000982 0.003302 0.007801 0.043700
#
#
# Mechanical properties :
#
#
# Convention : Reuss Voigt Hill
#
# Bulk Modulus (GPa) = 20.01891 47.04428 33.53159
# Shear Modulus (GPa) = 16.02335 26.21314 21.11825
#
# Velocity S-wave (km/s) = 2.85036 3.64571 3.27229
# Velocity P-wave (km/s) = 4.58074 6.44787 5.59277
#
# Compressibility (1/GPa) = 0.04995278
#
# Stress axis : x y z
#
# Youngs Moduli (GPa) = 110.21527 15.62855 42.15107
#
# Poissons Ratio (x) = 0.01648 0.22483
# Poissons Ratio (y) = 0.11619 0.71770
# Poissons Ratio (z) = 0.58788 0.26611
#
# Static dielectric constant tensor:
#      x y z
#    x 1.698910 0.002810 0.000650 
#    y 0.002810 1.697580 0.002690 
#    z 0.000650 0.002690 1.686470 
# 
# From -- ./inp_files/175135.got.cif
#   From: 2010.05.17/outbox.cif.g08.bks.cpg/sg2_88_cif.got.tgz:175135.got - 2010.06.03 11:33:40.
