data_PCOD9022705
_publ_section_title
;
Structure prediction by ZEFSAII (Michael W. Deem and Ramdas Pophale) SiO2 
 PCOD9022705
Probable space group: P -1
;
_chemical_formula_sum "Si O2"
_cell_formula_units_Z 14
_cell_length_a 10.154329
_cell_length_b 8.613801
_cell_length_c 10.647782
_cell_angle_alpha 69.262314
_cell_angle_beta 55.280576
_cell_angle_gamma 106.406171
_cell_volume 556.096242
_symmetry_space_group_name_H-M "P -1"
_symmetry_group_IT_number 2
_symmetry_cell_setting 'triclinic'
loop_
_space_group_symop_operation_xyz
x,y,z
-x,-y,-z
loop_
_atom_site_type_symbol
_atom_site_label
_atom_site_fract_x
_atom_site_fract_y
_atom_site_fract_z
Si Si1 0.775115 0.834806 0.811198
Si Si2 0.360700 0.690043 0.206452
Si Si3 0.015933 0.331015 0.182436
Si Si4 0.049779 0.319653 0.883635
Si Si5 0.363493 0.117872 0.394208
Si Si6 0.639925 0.091162 0.096323
Si Si7 0.181237 0.284646 0.566918
O O1 0.830656 0.676592 0.812187
O O2 0.741111 0.890365 0.676984
O O3 0.565454 0.731004 0.030822
O O4 0.969400 0.050644 0.711531
O O5 0.201135 0.458299 0.417979
O O6 0.440852 0.859503 0.227086
O O7 0.294900 0.767537 0.106217
O O8 0.993027 0.511374 0.159266
O O9 0.787744 0.110698 0.392582
O O10 0.095715 0.332763 0.000238
O O11 0.188159 0.341074 0.691695
O O12 0.822895 0.095664 0.043591
O O13 0.573341 0.171218 0.220664
O O14 0.366198 0.280134 0.433492
#
# Coordination Sequence:
#
# PCOD9022705 Si02
#       7
#     2   2   2   2   2   2   2
#     4  10  22  42  63  97 125 161 207 268 305 366
#     4  10  22  39  63  96 128 158 211 259 309 367
#     4  10  23  42  63  88 129 165 213 254 306 377
#     4  11  24  40  64  91 124 176 205 248 318 367
#     4  10  23  40  64  95 122 163 211 258 316 362
#     4  10  22  40  60  94 131 160 206 260 309 372
#     4  11  22  39  64  94 120 167 207 251 318 363
#
# _framework density 25.1755
#
# number of rings (size 3 to 8) (size 9 to 14) (size 15 to 20)
#    0.000    1.714    1.429    2.571    6.000    4.571 
#    0.000    0.714    0.000    0.000    0.000    0.000 
#    0.000    0.000    0.000    0.000    0.000    0.000 
#
# Total GULP energy -78407.040934 kJ/mol
# GULP energy per Si atom -5600.502924 kJ/mol
# Density = 2.511820 g / cm^3
# Si number density = 25.175500 Si / 1000 Ang^3
#
#
#
# Elastic Constant Matrix: (Units=GPa)
#
#
# Indices 1 2 3 4 5 6 
#
# 1 21.3106 4.8411 10.4412 -3.1674 -1.9976 -1.9367
# 2 4.8411 93.3378 56.7794 24.5472 4.5540 -1.7088
# 3 10.4412 56.7794 109.6899 24.5093 -2.2670 -2.3658
# 4 -3.1674 24.5472 24.5093 56.1105 -11.3084 -4.6262
# 5 -1.9976 4.5540 -2.2670 -11.3084 20.4781 4.1249
# 6 -1.9367 -1.7088 -2.3658 -4.6262 4.1249 25.7935
#
#
#
# Elastic Compliance Matrix: (Units=1/GPa)
#
#
# Indices 1 2 3 4 5 6 
#
# 1 0.052467 -0.001835 -0.005640 0.008278 0.008792 0.003379
# 2 -0.001835 0.017495 -0.007693 -0.006037 -0.008370 0.000571
# 3 -0.005640 -0.007693 0.014324 -0.003004 0.001156 -0.000343
# 4 0.008278 -0.006037 -0.003004 0.025537 0.015507 0.002046
# 5 0.008792 -0.008370 0.001156 0.015507 0.061625 -0.006862
# 6 0.003379 0.000571 -0.000343 0.002046 -0.006862 0.040494
#
#
# Mechanical properties :
#
#
# Convention : Reuss Voigt Hill
#
# Bulk Modulus (GPa) = 18.53567 40.94018 29.73792
# Shear Modulus (GPa) = 19.21153 30.62820 24.91986
#
# Velocity S-wave (km/s) = 2.76543 3.49175 3.14959
# Velocity P-wave (km/s) = 4.19230 5.70558 5.00644
#
# Compressibility (1/GPa) = 0.05395003
#
# Stress axis : x y z
#
# Youngs Moduli (GPa) = 19.05975 57.15768 69.81468
#
# Poissons Ratio (x) = 0.10488 0.39372
# Poissons Ratio (y) = 0.03497 0.53711
# Poissons Ratio (z) = 0.10749 0.43974
#
# Static dielectric constant tensor:
#      x y z
#    x 1.979120 -0.000470 -0.022450 
#    y -0.000470 2.050760 -0.003720 
#    z -0.022450 -0.003720 1.951760 
# 
# From -- ./inp_files/198971.got.cif
#   From: 2010.05.17/outbox.cif.g08.bks.cpg/sg2_100_cif.got.tgz:198971.got - 2010.06.03 11:33:40.
