data_PCOD9022843
_publ_section_title
;
Structure prediction by ZEFSAII (Michael W. Deem and Ramdas Pophale) SiO2 
 PCOD9022843
Probable space group: P -1
;
_chemical_formula_sum "Si O2"
_cell_formula_units_Z 16
_cell_length_a 4.961997
_cell_length_b 22.574633
_cell_length_c 11.826092
_cell_angle_alpha 141.843563
_cell_angle_beta 80.433313
_cell_angle_gamma 116.239864
_cell_volume 693.604036
_symmetry_space_group_name_H-M "P -1"
_symmetry_group_IT_number 2
_symmetry_cell_setting 'triclinic'
loop_
_space_group_symop_operation_xyz
x,y,z
-x,-y,-z
loop_
_atom_site_type_symbol
_atom_site_label
_atom_site_fract_x
_atom_site_fract_y
_atom_site_fract_z
Si Si1 0.630351 0.633125 0.695037
Si Si2 0.874915 0.214061 0.960160
Si Si3 0.422828 0.738587 0.309166
Si Si4 0.853811 0.946824 0.304817
Si Si5 0.370193 0.290520 0.439677
Si Si6 0.042941 0.852507 0.560453
Si Si7 0.999065 0.404598 0.696119
Si Si8 0.233879 0.645783 0.951076
O O1 0.500000 0.500000 0.500000
O O2 0.604648 0.687137 0.661625
O O3 0.427327 0.648488 0.830622
O O4 0.999722 0.708841 0.820686
O O5 0.521800 0.136051 0.817224
O O6 0.991451 0.127807 0.840570
O O7 0.008810 0.313877 0.007834
O O8 0.740308 0.756500 0.370132
O O9 0.133080 0.628011 0.217686
O O10 0.337847 0.833767 0.490946
O O11 0.441464 0.727454 0.159199
O O12 0.000000 0.000000 0.500000
O O13 0.921652 0.040814 0.346964
O O14 0.086422 0.175316 0.342903
O O15 0.703322 0.315333 0.505145
O O16 0.286945 0.382839 0.628252
O O17 0.077095 0.522834 0.825191
#
# Coordination Sequence:
#
# PCOD9022843 Si02
#       8
#     2   2   2   2   2   2   2   2
#     4  12  26  46  69  98 144 188 230 279 329 403
#     4  12  27  43  66 106 132 178 235 276 341 407
#     4  10  22  39  65 102 133 169 221 279 342 419
#     4  12  24  46  72 101 136 174 226 292 350 406
#     4  10  23  42  65  95 129 181 233 269 330 404
#     4  10  22  44  70  94 132 178 218 282 352 396
#     4  10  22  39  64  95 132 178 223 272 342 404
#     4  12  24  40  65  98 140 174 225 278 346 398
#
# _framework density 23.067919
#
# number of rings (size 3 to 8) (size 9 to 14) (size 15 to 20)
#    0.000    1.000    2.500    3.750    3.500    1.000 
#    0.000    5.000    0.000    0.000    0.000    0.000 
#    0.000    0.000    0.000    0.000    0.000    0.000 
#
# Total GULP energy -89220.885532 kJ/mol
# GULP energy per Si atom -5576.305346 kJ/mol
# Density = 2.301542 g / cm^3
# Si number density = 23.067919 Si / 1000 Ang^3
#
#
#
# Elastic Constant Matrix: (Units=GPa)
#
#
# Indices 1 2 3 4 5 6 
#
# 1 108.6035 35.4799 29.7525 1.4370 2.2468 -22.0997
# 2 35.4799 198.2026 56.3026 6.1060 -16.7697 -21.9967
# 3 29.7525 56.3026 89.0366 4.5348 6.4796 -0.7595
# 4 1.4370 6.1060 4.5348 51.4738 -11.1230 -7.9917
# 5 2.2468 -16.7697 6.4796 -11.1230 26.5066 1.4048
# 6 -22.0997 -21.9967 -0.7595 -7.9917 1.4048 38.2452
#
#
#
# Elastic Compliance Matrix: (Units=1/GPa)
#
#
# Indices 1 2 3 4 5 6 
#
# 1 0.011680 -0.000365 -0.003649 0.001022 -0.000255 0.006690
# 2 -0.000365 0.007538 -0.005167 0.001621 0.006525 0.004121
# 3 -0.003649 -0.005167 0.016429 -0.003276 -0.008078 -0.005142
# 4 0.001022 0.001621 -0.003276 0.022772 0.010988 0.005813
# 5 -0.000255 0.006525 -0.008078 0.010988 0.048251 0.003969
# 6 0.006690 0.004121 -0.005142 0.005813 0.003969 0.033349
#
#
# Mechanical properties :
#
#
# Convention : Reuss Voigt Hill
#
# Bulk Modulus (GPa) = 57.85223 70.99029 64.42126
# Shear Modulus (GPa) = 30.46162 41.53233 35.99697
#
# Velocity S-wave (km/s) = 3.63784 4.24776 3.95457
# Velocity P-wave (km/s) = 6.54054 7.40940 6.98849
#
# Compressibility (1/GPa) = 0.01728542
#
# Stress axis : x y z
#
# Youngs Moduli (GPa) = 85.61967 132.66368 60.86904
#
# Poissons Ratio (x) = 0.04841 0.22208
# Poissons Ratio (y) = 0.03124 0.31450
# Poissons Ratio (z) = 0.31239 0.68546
#
# Static dielectric constant tensor:
#      x y z
#    x 1.905370 0.048150 0.015510 
#    y 0.048150 2.004190 0.000230 
#    z 0.015510 0.000230 1.904120 
# 
# From -- ./inp_files/78611.got.cif
#   From: 2010.05.17/outbox.cif.g08.bks.cpg/sg2_40_cif.got.tgz:78611.got - 2010.06.03 11:33:40.
