data_PCOD9022709
_publ_section_title
;
Structure prediction by ZEFSAII (Michael W. Deem and Ramdas Pophale) SiO2 
 PCOD9022709
Probable space group: P -1
;
_chemical_formula_sum "Si O2"
_cell_formula_units_Z 16
_cell_length_a 14.921366
_cell_length_b 14.780186
_cell_length_c 14.145047
_cell_angle_alpha 39.655982
_cell_angle_beta 28.511002
_cell_angle_gamma 29.944060
_cell_volume 742.796685
_symmetry_space_group_name_H-M "P -1"
_symmetry_group_IT_number 2
_symmetry_cell_setting 'triclinic'
loop_
_space_group_symop_operation_xyz
x,y,z
-x,-y,-z
loop_
_atom_site_type_symbol
_atom_site_label
_atom_site_fract_x
_atom_site_fract_y
_atom_site_fract_z
Si Si1 0.349121 0.638750 0.800540
Si Si2 0.364377 0.907195 0.309357
Si Si3 0.224269 0.259167 0.433738
Si Si4 0.257307 0.653525 0.653393
Si Si5 0.511306 0.134623 0.551776
Si Si6 0.040691 0.523549 0.212382
Si Si7 0.306771 0.519575 0.232467
Si Si8 0.825140 0.712764 0.908374
O O1 0.326769 0.619091 0.726317
O O2 0.320560 0.821699 0.683940
O O3 0.599024 0.488587 0.743199
O O4 0.160119 0.621373 0.034998
O O5 0.205059 0.840076 0.519245
O O6 0.446589 0.895292 0.350435
O O7 0.238896 0.107120 0.226826
O O8 0.593488 0.775590 0.133729
O O9 0.149840 0.368427 0.315416
O O10 0.307346 0.350138 0.348614
O O11 0.971724 0.310845 0.660845
O O12 0.423431 0.046422 0.407306
O O13 0.500000 0.500000 0.500000
O O14 0.044780 0.648582 0.825537
O O15 0.241043 0.316852 0.645696
O O16 0.102141 0.427165 0.130776
O O17 0.500000 0.500000 0.000000
#
# Coordination Sequence:
#
# PCOD9022709 Si02
#       8
#     2   2   2   2   2   2   2   2
#     4  11  24  42  67 101 135 176 226 279 339 404
#     4  10  22  39  63  96 136 181 231 273 329 397
#     4  11  25  46  73 100 132 180 224 285 346 409
#     4  11  23  38  61  97 135 179 222 273 335 397
#     4  11  24  44  67 103 138 177 231 280 338 404
#     4  12  23  43  71  98 140 182 223 281 342 397
#     4  11  24  48  74  99 135 177 226 285 352 407
#     4  11  22  40  64  97 137 184 227 274 328 402
#
# _framework density 21.540213000000001
#
# number of rings (size 3 to 8) (size 9 to 14) (size 15 to 20)
#    0.000    1.000    3.750    3.375    0.000    3.000 
#    0.000    2.500    0.000    0.000    0.000    0.000 
#    0.000    0.000    0.000    0.000    0.000    0.000 
#
# Total GULP energy -89411.943920 kJ/mol
# GULP energy per Si atom -5588.246495 kJ/mol
# Density = 2.149119 g / cm^3
# Si number density = 21.540213 Si / 1000 Ang^3
#
#
#
# Elastic Constant Matrix: (Units=GPa)
#
#
# Indices 1 2 3 4 5 6 
#
# 1 119.0454 22.5382 30.7866 3.6490 -9.6866 -6.0990
# 2 22.5382 103.1494 23.1367 -1.8027 -0.2437 12.1399
# 3 30.7866 23.1367 110.9710 -3.1912 -7.0532 -1.3749
# 4 3.6490 -1.8027 -3.1912 23.8244 -0.4813 3.0344
# 5 -9.6866 -0.2437 -7.0532 -0.4813 31.8522 -4.0602
# 6 -6.0990 12.1399 -1.3749 3.0344 -4.0602 27.4928
#
#
#
# Elastic Compliance Matrix: (Units=1/GPa)
#
#
# Indices 1 2 3 4 5 6 
#
# 1 0.009860 -0.002152 -0.002121 -0.002373 0.002952 0.003729
# 2 -0.002152 0.011324 -0.001900 0.001663 -0.001730 -0.006012
# 3 -0.002121 -0.001900 0.010160 0.001453 0.001736 0.000973
# 4 -0.002373 0.001663 0.001453 0.043419 -0.000503 -0.006054
# 5 0.002952 -0.001730 0.001736 -0.000503 0.033486 0.006506
# 6 0.003729 -0.006012 0.000973 -0.006054 0.006506 0.041533
#
#
# Mechanical properties :
#
#
# Convention : Reuss Voigt Hill
#
# Bulk Modulus (GPa) = 52.64100 54.00988 53.32544
# Shear Modulus (GPa) = 29.68048 33.74750 31.71399
#
# Velocity S-wave (km/s) = 3.71605 3.96248 3.84124
# Velocity P-wave (km/s) = 6.55008 6.78700 6.66959
#
# Compressibility (1/GPa) = 0.01899660
#
# Stress axis : x y z
#
# Youngs Moduli (GPa) = 101.41833 88.31046 98.42253
#
# Poissons Ratio (x) = 0.19005 0.20877
# Poissons Ratio (y) = 0.21826 0.18705
# Poissons Ratio (z) = 0.21513 0.16783
#
# Static dielectric constant tensor:
#      x y z
#    x 1.772980 -0.063350 -0.039120 
#    y -0.063350 1.718110 -0.104870 
#    z -0.039120 -0.104870 1.705820 
# 
# From -- ./inp_files/533655.got.cif
#   From: 2010.05.17/outbox.cif.g08.bks.cpg/sg2_267_cif.got.tgz:533655.got - 2010.06.03 11:33:40.
