data_PCOD9022721
_publ_section_title
;
Structure prediction by ZEFSAII (Michael W. Deem and Ramdas Pophale) SiO2 
 PCOD9022721
Probable space group: P -1
;
_chemical_formula_sum "Si O2"
_cell_formula_units_Z 16
_cell_length_a 16.755660
_cell_length_b 15.330096
_cell_length_c 9.909854
_cell_angle_alpha 98.028666
_cell_angle_beta 116.819264
_cell_angle_gamma 26.244655
_cell_volume 744.381838
_symmetry_space_group_name_H-M "P -1"
_symmetry_group_IT_number 2
_symmetry_cell_setting 'triclinic'
loop_
_space_group_symop_operation_xyz
x,y,z
-x,-y,-z
loop_
_atom_site_type_symbol
_atom_site_label
_atom_site_fract_x
_atom_site_fract_y
_atom_site_fract_z
Si Si1 0.008481 0.157356 0.182614
Si Si2 0.048715 0.500082 0.680158
Si Si3 0.224227 0.785882 0.425894
Si Si4 0.597041 0.049382 0.556512
Si Si5 0.460960 0.858043 0.153567
Si Si6 0.997345 0.426333 0.868851
Si Si7 0.479811 0.485628 0.135111
Si Si8 0.798875 0.080399 0.004125
O O1 0.116600 0.976112 0.317680
O O2 0.192371 0.068478 0.340957
O O3 0.047144 0.107647 0.041845
O O4 0.685404 0.450297 0.999510
O O5 0.295849 0.336287 0.799430
O O6 0.000000 0.500000 0.500000
O O7 0.777353 0.797523 0.598343
O O8 0.109880 0.368895 0.808126
O O9 0.500000 0.500000 0.500000
O O10 0.292461 0.733958 0.625067
O O11 0.995083 0.926899 0.242501
O O12 0.505461 0.145471 0.663775
O O13 0.314195 0.313378 0.321134
O O14 0.416904 0.794094 0.097400
O O15 0.187083 0.165848 0.978346
O O16 0.000000 0.500000 0.000000
O O17 0.500000 0.500000 0.000000
O O18 0.310119 0.728786 0.107732
#
# Coordination Sequence:
#
# PCOD9022721 Si02
#       8
#     2   2   2   2   2   2   2   2
#     4  10  22  39  64  97 125 173 221 268 328 395
#     4  12  24  47  72  96 136 177 220 277 347 399
#     4  11  19  39  67  89 128 174 218 260 326 394
#     4  11  25  44  69 103 139 171 223 285 335 400
#     4  11  25  43  70 103 136 174 225 282 334 404
#     4  12  24  45  70  98 134 177 225 275 344 404
#     4  11  23  39  63  92 136 170 213 273 327 388
#     4  10  22  39  63  98 126 170 224 268 326 396
#
# _framework density 21.494343000000001
#
# number of rings (size 3 to 8) (size 9 to 14) (size 15 to 20)
#    0.000    1.000    5.000    2.250    3.500    2.000 
#    0.000    2.500    0.000    0.000    0.000    0.000 
#    0.000    0.000    0.000    0.000    0.000    0.000 
#
# Total GULP energy -89188.866181 kJ/mol
# GULP energy per Si atom -5574.304136 kJ/mol
# Density = 2.144542 g / cm^3
# Si number density = 21.494343 Si / 1000 Ang^3
#
#
#
# Elastic Constant Matrix: (Units=GPa)
#
#
# Indices 1 2 3 4 5 6 
#
# 1 83.3435 -2.2149 41.0391 8.8946 19.8560 -8.5803
# 2 -2.2149 71.1122 24.0683 3.3527 5.4819 -4.2523
# 3 41.0391 24.0683 159.9471 8.5537 8.8087 -5.6461
# 4 8.8946 3.3527 8.5537 39.1806 -7.0767 -2.6404
# 5 19.8560 5.4819 8.8087 -7.0767 35.6784 -0.6741
# 6 -8.5803 -4.2523 -5.6461 -2.6404 -0.6741 28.1127
#
#
#
# Elastic Compliance Matrix: (Units=1/GPa)
#
#
# Indices 1 2 3 4 5 6 
#
# 1 0.017401 0.003149 -0.003971 -0.004883 -0.010075 0.004289
# 2 0.003149 0.015630 -0.002756 -0.001972 -0.003818 0.002495
# 3 -0.003971 -0.002756 0.007669 -0.000426 0.000654 -0.000113
# 4 -0.004883 -0.001972 -0.000426 0.028553 0.008809 0.001019
# 5 -0.010075 -0.003818 0.000654 0.008809 0.035773 -0.001836
# 6 0.004289 0.002495 -0.000113 0.001019 -0.001836 0.037287
#
#
# Mechanical properties :
#
#
# Convention : Reuss Voigt Hill
#
# Bulk Modulus (GPa) = 29.81238 48.90975 39.36107
# Shear Modulus (GPa) = 31.12392 37.36170 34.24281
#
# Velocity S-wave (km/s) = 3.80939 4.17371 3.99571
# Velocity P-wave (km/s) = 5.76616 6.78458 6.29600
#
# Compressibility (1/GPa) = 0.03354311
#
# Stress axis : x y z
#
# Youngs Moduli (GPa) = 57.46893 63.98084 130.40299
#
# Poissons Ratio (x) = -0.20150 0.51785
# Poissons Ratio (y) = -0.18099 0.35941
# Poissons Ratio (z) = 0.22822 0.17634
#
# Static dielectric constant tensor:
#      x y z
#    x 1.985930 0.171800 0.049900 
#    y 0.171800 2.141130 -0.000040 
#    z 0.049900 -0.000040 1.771790 
# 
# From -- ./inp_files/315273.got.cif
#   From: 2010.05.17/outbox.cif.g08.bks.cpg/sg2_158_cif.got.tgz:315273.got - 2010.06.03 11:33:40.
