data_PCOD9022274
_publ_section_title
;
Structure prediction by ZEFSAII (Michael W. Deem and Ramdas Pophale) SiO2 
 PCOD9022274
Probable space group: P -1
;
_chemical_formula_sum "Si O2"
_cell_formula_units_Z 16
_cell_length_a 23.000609
_cell_length_b 8.901460
_cell_length_c 8.950683
_cell_angle_alpha 50.057273
_cell_angle_beta 136.932807
_cell_angle_gamma 152.690205
_cell_volume 573.982628
_symmetry_space_group_name_H-M "P -1"
_symmetry_group_IT_number 2
_symmetry_cell_setting 'triclinic'
loop_
_space_group_symop_operation_xyz
x,y,z
-x,-y,-z
loop_
_atom_site_type_symbol
_atom_site_label
_atom_site_fract_x
_atom_site_fract_y
_atom_site_fract_z
Si Si1 0.997845 0.828696 0.240029
Si Si2 0.095128 0.528484 0.967981
Si Si3 0.751593 0.867765 0.966702
Si Si4 0.550922 0.749202 0.145239
Si Si5 0.607784 0.149721 0.740356
Si Si6 0.360851 0.351997 0.407347
Si Si7 0.897566 0.736359 0.606714
Si Si8 0.266321 0.629444 0.734747
O O1 0.855954 0.558031 0.249786
O O2 0.988212 0.623971 0.246062
O O3 0.118020 0.110766 0.405276
O O4 0.000000 0.000000 0.000000
O O5 0.240113 0.664565 0.136955
O O6 0.025758 0.281466 0.132957
O O7 0.141984 0.824414 0.923477
O O8 0.593692 0.640982 0.869230
O O9 0.756118 0.910878 0.770055
O O10 0.727542 0.592713 0.115196
O O11 0.663890 0.795098 0.384859
O O12 0.595547 0.000382 0.189250
O O13 0.548956 0.870276 0.914773
O O14 0.628956 0.396043 0.709765
O O15 0.500000 0.000000 0.500000
O O16 0.500000 0.500000 0.500000
O O17 0.773347 0.403347 0.492377
O O18 0.000000 0.000000 0.500000
#
# Coordination Sequence:
#
# PCOD9022274 Si02
#       8
#     2   2   2   2   2   2   2   2
#     4   9  19  41  65  87 123 167 220 283 342 383
#     4  11  22  42  64  95 136 171 217 276 336 389
#     4  11  23  37  63  98 133 177 223 264 320 405
#     4  11  23  40  64  92 141 178 220 259 319 392
#     4  12  25  40  61  95 139 182 216 269 326 389
#     4  10  22  39  60  89 127 179 228 259 307 381
#     4   9  21  40  69  93 117 169 227 277 339 391
#     4  11  20  40  66  95 126 177 221 267 333 392
#
# _framework density 27.875409000000001
#
# number of rings (size 3 to 8) (size 9 to 14) (size 15 to 20)
#    0.000    1.500    2.500    2.625    3.500    2.000 
#    0.000    6.250    0.000    6.000    0.000    0.000 
#    0.000    0.000    0.000    0.000    0.000    0.000 
#
# Total GULP energy -89385.085226 kJ/mol
# GULP energy per Si atom -5586.567827 kJ/mol
# Density = 2.781196 g / cm^3
# Si number density = 27.875409 Si / 1000 Ang^3
#
#
#
# Elastic Constant Matrix: (Units=GPa)
#
#
# Indices 1 2 3 4 5 6 
#
# 1 150.8395 54.3475 30.9517 8.6049 -7.7547 -19.9780
# 2 54.3475 119.3628 19.1966 11.3995 -29.7606 -41.2395
# 3 30.9517 19.1966 156.2010 8.4917 -34.5640 -12.1843
# 4 8.6049 11.3995 8.4917 58.5008 -12.4696 -10.9117
# 5 -7.7547 -29.7606 -34.5640 -12.4696 47.2972 11.0921
# 6 -19.9780 -41.2395 -12.1843 -10.9117 11.0921 45.8286
#
#
#
# Elastic Compliance Matrix: (Units=1/GPa)
#
#
# Indices 1 2 3 4 5 6 
#
# 1 0.008373 -0.004160 -0.001704 -0.000758 -0.002671 -0.000080
# 2 -0.004160 0.015750 0.001460 0.001099 0.007988 0.011077
# 3 -0.001704 0.001460 0.008036 0.000383 0.006315 0.001270
# 4 -0.000758 0.001099 0.000383 0.018721 0.004833 0.004048
# 5 -0.002671 0.007988 0.006315 0.004833 0.031322 0.001273
# 6 -0.000080 0.011077 0.001270 0.004048 0.001273 0.032747
#
#
# Mechanical properties :
#
#
# Convention : Reuss Voigt Hill
#
# Bulk Modulus (GPa) = 42.82071 70.59942 56.71006
# Shear Modulus (GPa) = 38.01134 51.78584 44.89859
#
# Velocity S-wave (km/s) = 3.69672 4.31485 4.01769
# Velocity P-wave (km/s) = 5.79792 7.08560 6.47385
#
# Compressibility (1/GPa) = 0.02335319
#
# Stress axis : x y z
#
# Youngs Moduli (GPa) = 119.42799 63.49028 124.44242
#
# Poissons Ratio (x) = 0.26409 0.21205
# Poissons Ratio (y) = 0.49677 -0.18173
# Poissons Ratio (z) = 0.20351 -0.09272
#
# Static dielectric constant tensor:
#      x y z
#    x 2.355440 0.141160 0.012360 
#    y 0.141160 2.253120 0.027920 
#    z 0.012360 0.027920 2.341350 
# 
# From -- ./inp_files/356357.got.cif
#   From: 2010.05.17/outbox.cif.g08.bks.cpg/sg2_179_cif.got.tgz:356357.got - 2010.06.03 11:33:40.
