data_PCOD9022485
_publ_section_title
;
Structure prediction by ZEFSAII (Michael W. Deem and Ramdas Pophale) SiO2 
 PCOD9022485
Probable space group: P -1
;
_chemical_formula_sum "Si O2"
_cell_formula_units_Z 16
_cell_length_a 21.553651
_cell_length_b 5.241640
_cell_length_c 5.094684
_cell_angle_alpha 86.962933
_cell_angle_beta 87.323451
_cell_angle_gamma 75.864968
_cell_volume 557.029826
_symmetry_space_group_name_H-M "P -1"
_symmetry_group_IT_number 2
_symmetry_cell_setting 'triclinic'
loop_
_space_group_symop_operation_xyz
x,y,z
-x,-y,-z
loop_
_atom_site_type_symbol
_atom_site_label
_atom_site_fract_x
_atom_site_fract_y
_atom_site_fract_z
Si Si1 0.104328 0.975418 0.067333
Si Si2 0.224570 0.713639 0.869397
Si Si3 0.685130 0.729753 0.282739
Si Si4 0.453390 0.542430 0.259724
Si Si5 0.138290 0.492001 0.496269
Si Si6 0.575767 0.916648 0.934639
Si Si7 0.014488 0.751793 0.710407
Si Si8 0.250980 0.072871 0.249208
O O1 0.054499 0.241522 0.152335
O O2 0.165823 0.981256 0.874793
O O3 0.129883 0.755708 0.301011
O O4 0.058344 0.838923 0.916412
O O5 0.289864 0.588072 0.704478
O O6 0.251564 0.784588 0.146081
O O7 0.180756 0.542086 0.735700
O O8 0.612569 0.838358 0.201105
O O9 0.721326 0.789842 0.005022
O O10 0.709238 0.875832 0.508248
O O11 0.500000 0.500000 0.500000
O O12 0.412109 0.330591 0.246461
O O13 0.409854 0.832122 0.220563
O O14 0.500000 0.500000 0.000000
O O15 0.065061 0.500773 0.593412
O O16 0.179911 0.245884 0.337166
O O17 0.500000 0.000000 0.000000
O O18 0.000000 0.000000 0.500000
#
# Coordination Sequence:
#
# PCOD9022485 Si02
#       8
#     2   2   2   2   2   2   2   2
#     4   9  15  31  56  84 119 166 211 268 337 391
#     4  10  22  39  62  90 126 173 219 276 334 407
#     4  11  26  44  66  98 134 174 225 278 341 409
#     4  10  22  42  71 102 141 182 226 279 345 419
#     4   9  18  36  57  87 124 164 219 272 336 397
#     4  10  24  47  72 108 143 187 235 293 357 426
#     4   8  15  27  54  85 119 164 207 269 336 394
#     4  11  25  42  66  95 131 175 225 277 340 406
#
# _framework density 28.723779
#
# number of rings (size 3 to 8) (size 9 to 14) (size 15 to 20)
#    0.000    2.250    1.250    0.375    3.500    4.000 
#    0.000    0.625    0.000   25.500    0.000    0.000 
#    0.000    0.000    0.000    0.000    0.000    0.000 
#
# Total GULP energy -89304.908792 kJ/mol
# GULP energy per Si atom -5581.556799 kJ/mol
# Density = 2.865840 g / cm^3
# Si number density = 28.723779 Si / 1000 Ang^3
#
#
#
# Elastic Constant Matrix: (Units=GPa)
#
#
# Indices 1 2 3 4 5 6 
#
# 1 113.3172 37.0203 38.9447 -6.7860 13.0362 -40.5068
# 2 37.0203 146.5006 81.8866 31.4932 12.7931 0.3925
# 3 38.9447 81.8866 236.9476 8.0581 31.5412 -4.2695
# 4 -6.7860 31.4932 8.0581 61.2015 -3.8348 -5.4107
# 5 13.0362 12.7931 31.5412 -3.8348 57.2816 -4.8377
# 6 -40.5068 0.3925 -4.2695 -5.4107 -4.8377 55.9330
#
#
#
# Elastic Compliance Matrix: (Units=1/GPa)
#
#
# Indices 1 2 3 4 5 6 
#
# 1 0.014891 -0.004332 -0.000825 0.004933 -0.000694 0.011169
# 2 -0.004332 0.010882 -0.002829 -0.006108 -0.000640 -0.004075
# 3 -0.000825 -0.002829 0.005614 0.000457 -0.002267 -0.000301
# 4 0.004933 -0.006108 0.000457 0.020599 0.001859 0.005803
# 5 -0.000694 -0.000640 -0.002267 0.001859 0.019230 0.001172
# 6 0.011169 -0.004075 -0.000301 0.005803 0.001172 0.026635
#
#
# Mechanical properties :
#
#
# Convention : Reuss Voigt Hill
#
# Bulk Modulus (GPa) = 64.86755 90.27429 77.57092
# Shear Modulus (GPa) = 42.03069 57.47747 49.75408
#
# Velocity S-wave (km/s) = 3.82942 4.47815 4.16643
# Velocity P-wave (km/s) = 6.49499 7.63119 7.08590
#
# Compressibility (1/GPa) = 0.01541603
#
# Stress axis : x y z
#
# Youngs Moduli (GPa) = 67.15491 91.89791 178.11284
#
# Poissons Ratio (x) = 0.39807 0.14688
# Poissons Ratio (y) = 0.29089 0.50392
# Poissons Ratio (z) = 0.05538 0.26000
#
# Static dielectric constant tensor:
#      x y z
#    x 2.341450 0.141830 -0.072080 
#    y 0.141830 2.561420 -0.048050 
#    z -0.072080 -0.048050 2.310290 
# 
# From -- ./inp_files/121851.got.cif
#   From: 2010.05.17/outbox.cif.g08.bks.cpg/sg2_61_cif.got.tgz:121851.got - 2010.06.03 11:33:40.
