data_PCOD9022579
_publ_section_title
;
Structure prediction by ZEFSAII (Michael W. Deem and Ramdas Pophale) SiO2 
 PCOD9022579
Probable space group: P -1
;
_chemical_formula_sum "Si O2"
_cell_formula_units_Z 14
_cell_length_a 12.709483
_cell_length_b 22.687387
_cell_length_c 22.332314
_cell_angle_alpha 12.636546
_cell_angle_beta 156.710272
_cell_angle_gamma 155.834620
_cell_volume 547.248779
_symmetry_space_group_name_H-M "P -1"
_symmetry_group_IT_number 2
_symmetry_cell_setting 'triclinic'
loop_
_space_group_symop_operation_xyz
x,y,z
-x,-y,-z
loop_
_atom_site_type_symbol
_atom_site_label
_atom_site_fract_x
_atom_site_fract_y
_atom_site_fract_z
Si Si1 0.352219 0.461994 0.896337
Si Si2 0.169215 0.779219 0.783409
Si Si3 0.780064 0.870712 0.061045
Si Si4 0.199533 0.588492 0.393463
Si Si5 0.426240 0.736590 0.152896
Si Si6 0.149102 0.178221 0.610685
Si Si7 0.623570 0.013523 0.442611
O O1 0.035822 0.473851 0.717219
O O2 0.510672 0.691544 0.705872
O O3 0.500000 0.500000 0.000000
O O4 0.380530 0.170115 0.173386
O O5 0.214400 0.845978 0.669801
O O6 0.477720 0.806089 0.940639
O O7 0.000000 0.000000 0.500000
O O8 0.000000 0.500000 0.000000
O O9 0.887885 0.604591 0.404268
O O10 0.760496 0.097373 0.877704
O O11 0.000000 0.000000 0.000000
O O12 0.461367 0.459029 0.641454
O O13 0.225949 0.500913 0.318184
O O14 0.688212 0.864619 0.202237
O O15 0.265655 0.983215 0.816065
O O16 0.832012 0.078839 0.542097
#
# Coordination Sequence:
#
# PCOD9022579 Si02
#       7
#     2   2   2   2   2   2   2
#     4  12  26  46  74 109 145 191 242 299 371 453
#     4  12  28  48  75 110 147 197 256 311 375 442
#     4  12  27  48  73 104 147 194 253 310 372 439
#     4  12  25  43  74 100 142 183 243 294 366 428
#     4  10  22  39  63 100 131 177 230 278 351 429
#     4  10  22  40  66  94 139 178 223 284 354 429
#     4  12  26  46  72 100 149 187 242 299 377 426
#
# _framework density 25.582515999999998
#
# number of rings (size 3 to 8) (size 9 to 14) (size 15 to 20)
#    0.000    0.571    0.000    7.714    6.000    3.429 
#    0.000    0.000    0.000    0.000    0.000    0.000 
#    0.000    0.000    0.000    0.000    0.000    0.000 
#
# Total GULP energy -78338.903815 kJ/mol
# GULP energy per Si atom -5595.635987 kJ/mol
# Density = 2.552429 g / cm^3
# Si number density = 25.582516 Si / 1000 Ang^3
#
#
#
# Elastic Constant Matrix: (Units=GPa)
#
#
# Indices 1 2 3 4 5 6 
#
# 1 91.8470 7.3948 25.9447 -1.7882 -0.3838 15.5998
# 2 7.3948 133.9481 41.4773 10.1933 -16.0997 3.0630
# 3 25.9447 41.4773 158.2979 -6.3528 0.8909 1.3960
# 4 -1.7882 10.1933 -6.3528 43.0498 6.3101 -3.7874
# 5 -0.3838 -16.0997 0.8909 6.3101 44.7882 0.3754
# 6 15.5998 3.0630 1.3960 -3.7874 0.3754 33.1971
#
#
#
# Elastic Compliance Matrix: (Units=1/GPa)
#
#
# Indices 1 2 3 4 5 6 
#
# 1 0.012435 0.000143 -0.002041 -0.000374 0.000300 -0.005817
# 2 0.000143 0.008945 -0.002503 -0.003131 0.003717 -0.001187
# 3 -0.002041 -0.002503 0.007381 0.001891 -0.001340 0.001111
# 4 -0.000374 -0.003131 0.001891 0.025221 -0.004747 0.003316
# 5 0.000300 0.003717 -0.001340 -0.004747 0.024372 -0.001245
# 6 -0.005817 -0.001187 0.001111 0.003316 -0.001245 0.033312
#
#
# Mechanical properties :
#
#
# Convention : Reuss Voigt Hill
#
# Bulk Modulus (GPa) = 50.10389 59.30295 54.70342
# Shear Modulus (GPa) = 39.33255 44.82544 42.07900
#
# Velocity S-wave (km/s) = 3.92532 4.19046 4.06006
# Velocity P-wave (km/s) = 6.33813 6.82969 6.58850
#
# Compressibility (1/GPa) = 0.01995853
#
# Stress axis : x y z
#
# Youngs Moduli (GPa) = 80.42097 111.79390 135.47793
#
# Poissons Ratio (x) = -0.01599 0.27650
# Poissons Ratio (y) = -0.01150 0.33915
# Poissons Ratio (z) = 0.16413 0.27986
#
# Static dielectric constant tensor:
#      x y z
#    x 2.232600 0.048900 -0.070580 
#    y 0.048900 2.004750 -0.060350 
#    z -0.070580 -0.060350 1.971120 
# 
# From -- ./inp_files/619978.got.cif
#   From: 2010.05.17/outbox.cif.g08.bks.cpg/sg2_310_cif.got.tgz:619978.got - 2010.06.03 11:33:40.
