data_PCOD9022158
_publ_section_title
;
Structure prediction by ZEFSAII (Michael W. Deem and Ramdas Pophale) SiO2 
 PCOD9022158
Probable space group: P -1
;
_chemical_formula_sum "Si O2"
_cell_formula_units_Z 16
_cell_length_a 9.411541
_cell_length_b 14.942165
_cell_length_c 13.949608
_cell_angle_alpha 29.181381
_cell_angle_beta 84.720404
_cell_angle_gamma 104.339199
_cell_volume 702.212203
_symmetry_space_group_name_H-M "P -1"
_symmetry_group_IT_number 2
_symmetry_cell_setting 'triclinic'
loop_
_space_group_symop_operation_xyz
x,y,z
-x,-y,-z
loop_
_atom_site_type_symbol
_atom_site_label
_atom_site_fract_x
_atom_site_fract_y
_atom_site_fract_z
Si Si1 0.409326 0.353901 0.900678
Si Si2 0.328126 0.391096 0.540347
Si Si3 0.678365 0.389821 0.191555
Si Si4 0.966738 0.937984 0.266279
Si Si5 0.724103 0.243307 0.761177
Si Si6 0.005862 0.455251 0.375962
Si Si7 0.541797 0.159188 0.218249
Si Si8 0.066345 0.732015 0.935956
O O1 0.562313 0.507638 0.662964
O O2 0.398043 0.516588 0.821451
O O3 0.463342 0.217150 0.083729
O O4 0.197450 0.158979 0.048162
O O5 0.500000 0.500000 0.500000
O O6 0.136020 0.114026 0.781101
O O7 0.252677 0.518303 0.464662
O O8 0.587837 0.325135 0.152288
O O9 0.912244 0.600716 0.982373
O O10 0.612015 0.131594 0.473424
O O11 0.930172 0.691806 0.524350
O O12 0.889036 0.020386 0.268923
O O13 0.827547 0.293603 0.808859
O O14 0.836954 0.270374 0.636489
O O15 0.500000 0.000000 0.000000
O O16 0.953458 0.538690 0.213052
O O17 0.740851 0.219983 0.131085
#
# Coordination Sequence:
#
# PCOD9022158 Si02
#       8
#     2   2   2   2   2   2   2   2
#     4  11  23  43  66  91 131 173 208 263 325 377
#     4  11  25  40  62  94 128 167 220 264 312 382
#     4  10  24  41  66 100 128 165 213 266 322 390
#     4  10  23  42  60  91 127 167 210 261 315 371
#     4  10  22  39  58  86 122 164 214 261 313 364
#     4  10  22  40  59  87 123 166 211 256 311 378
#     4  11  22  42  69  97 129 165 214 264 323 389
#     4  11  23  39  68  92 130 169 207 263 324 378
#
# _framework density 22.785138
#
# number of rings (size 3 to 8) (size 9 to 14) (size 15 to 20)
#    0.000    1.500    0.000    4.500    5.250    1.500 
#    0.000    0.000    0.000   10.500    0.000    0.000 
#    0.000    0.000    0.000    0.000    0.000    0.000 
#
# Total GULP energy -89385.602386 kJ/mol
# GULP energy per Si atom -5586.600149 kJ/mol
# Density = 2.273328 g / cm^3
# Si number density = 22.785138 Si / 1000 Ang^3
#
#
#
# Elastic Constant Matrix: (Units=GPa)
#
#
# Indices 1 2 3 4 5 6 
#
# 1 118.3293 45.4584 25.3991 -13.4237 -6.5542 -2.6400
# 2 45.4584 104.1587 39.3378 -25.2141 -6.9266 -0.2362
# 3 25.3991 39.3378 56.2290 -23.7822 -13.3874 6.2796
# 4 -13.4237 -25.2141 -23.7822 35.2285 5.1951 -3.0491
# 5 -6.5542 -6.9266 -13.3874 5.1951 39.7111 -11.7690
# 6 -2.6400 -0.2362 6.2796 -3.0491 -11.7690 44.3319
#
#
#
# Elastic Compliance Matrix: (Units=1/GPa)
#
#
# Indices 1 2 3 4 5 6 
#
# 1 0.010378 -0.003722 -0.002095 -0.000133 0.000692 0.001069
# 2 -0.003722 0.015004 -0.007101 0.004718 -0.000712 0.001000
# 3 -0.002095 -0.007101 0.031514 0.014255 0.006615 -0.001890
# 4 -0.000133 0.004718 0.014255 0.041348 0.000485 0.000971
# 5 0.000692 -0.000712 0.006615 0.000485 0.029394 0.006937
# 6 0.001069 0.001000 -0.001890 0.000971 0.006937 0.024802
#
#
# Mechanical properties :
#
#
# Convention : Reuss Voigt Hill
#
# Bulk Modulus (GPa) = 32.19638 55.45642 43.82640
# Shear Modulus (GPa) = 26.50706 35.08906 30.79806
#
# Velocity S-wave (km/s) = 3.41449 3.92854 3.68050
# Velocity P-wave (km/s) = 5.45033 6.70594 6.11047
#
# Compressibility (1/GPa) = 0.03105939
#
# Stress axis : x y z
#
# Youngs Moduli (GPa) = 96.36229 66.64860 31.73214
#
# Poissons Ratio (x) = 0.24805 0.06648
# Poissons Ratio (y) = 0.35863 0.22534
# Poissons Ratio (z) = 0.20188 0.47329
#
# Static dielectric constant tensor:
#      x y z
#    x 2.070440 0.155910 -0.082730 
#    y 0.155910 1.929010 -0.048570 
#    z -0.082730 -0.048570 1.864320 
# 
# From -- ./inp_files/504981.got.cif
#   From: 2010.05.17/outbox.cif.g08.bks.cpg/sg2_253_cif.got.tgz:504981.got - 2010.06.03 11:33:40.
