data_PCOD9022036
_publ_section_title
;
Structure prediction by ZEFSAII (Michael W. Deem and Ramdas Pophale) SiO2 
 PCOD9022036
Probable space group: P -1
;
_chemical_formula_sum "Si O2"
_cell_formula_units_Z 16
_cell_length_a 5.653999
_cell_length_b 13.321211
_cell_length_c 10.248884
_cell_angle_alpha 111.107513
_cell_angle_beta 107.442227
_cell_angle_gamma 100.206117
_cell_volume 650.811743
_symmetry_space_group_name_H-M "P -1"
_symmetry_group_IT_number 2
_symmetry_cell_setting 'triclinic'
loop_
_space_group_symop_operation_xyz
x,y,z
-x,-y,-z
loop_
_atom_site_type_symbol
_atom_site_label
_atom_site_fract_x
_atom_site_fract_y
_atom_site_fract_z
Si Si1 0.107965 0.900220 0.630107
Si Si2 0.878229 0.512358 0.124052
Si Si3 0.572319 0.115017 0.856488
Si Si4 0.792774 0.075116 0.623171
Si Si5 0.416463 0.317831 0.844971
Si Si6 0.513921 0.363532 0.304791
Si Si7 0.408609 0.590463 0.364517
Si Si8 0.918484 0.247596 0.201588
O O1 0.100625 0.857375 0.460350
O O2 0.019241 0.805072 0.678450
O O3 0.396049 0.984039 0.757362
O O4 0.934795 0.983322 0.635407
O O5 0.814478 0.628941 0.169113
O O6 0.100778 0.521443 0.269563
O O7 0.617828 0.404162 0.020413
O O8 0.000000 0.500000 0.000000
O O9 0.770709 0.141506 0.779847
O O10 0.390829 0.194077 0.835331
O O11 0.736196 0.151791 0.031097
O O12 0.500000 0.000000 0.500000
O O13 0.517579 0.333844 0.718560
O O14 0.558586 0.496399 0.343414
O O15 0.547841 0.352094 0.460982
O O16 0.725786 0.318050 0.247445
O O17 0.200651 0.302097 0.202629
#
# Coordination Sequence:
#
# PCOD9022036 Si02
#       8
#     2   2   2   2   2   2   2   2
#     4  10  24  46  72 102 141 187 235 298 349 434
#     4   9  20  38  63  96 137 179 223 293 350 416
#     4  11  25  42  71 105 141 189 234 296 357 428
#     4   9  22  44  70  98 138 177 239 290 357 412
#     4  10  22  38  69 101 140 179 238 291 360 417
#     4  11  29  46  71 104 142 192 242 289 359 425
#     4  10  24  44  69  97 142 187 238 296 351 426
#     4  12  29  47  74 105 147 189 241 294 356 427
#
# _framework density 24.584681
#
# number of rings (size 3 to 8) (size 9 to 14) (size 15 to 20)
#    0.000    1.750    0.000    1.125   15.750    5.500 
#    0.000    0.000    0.000    0.000    0.000    0.000 
#    0.000    0.000    0.000    0.000    0.000    0.000 
#
# Total GULP energy -89494.694231 kJ/mol
# GULP energy per Si atom -5593.418389 kJ/mol
# Density = 2.452872 g / cm^3
# Si number density = 24.584681 Si / 1000 Ang^3
#
#
#
# Elastic Constant Matrix: (Units=GPa)
#
#
# Indices 1 2 3 4 5 6 
#
# 1 104.2391 20.3009 37.4483 5.2088 1.2243 -7.2094
# 2 20.3009 62.1246 -4.2685 -16.2006 -2.0641 11.4534
# 3 37.4483 -4.2685 106.2140 -12.0417 -0.4875 -11.4579
# 4 5.2088 -16.2006 -12.0417 38.7779 -0.5884 -0.9043
# 5 1.2243 -2.0641 -0.4875 -0.5884 36.3969 1.3500
# 6 -7.2094 11.4534 -11.4579 -0.9043 1.3500 25.5933
#
#
#
# Elastic Compliance Matrix: (Units=1/GPa)
#
#
# Indices 1 2 3 4 5 6 
#
# 1 0.013607 -0.007390 -0.005341 -0.006485 -0.001223 0.004585
# 2 -0.007390 0.023956 0.003768 0.011953 0.002252 -0.010812
# 3 -0.005341 0.003768 0.012434 0.006221 0.000565 0.002566
# 4 -0.006485 0.011953 0.006221 0.033533 0.001644 -0.003293
# 5 -0.001223 0.002252 0.000565 0.001644 0.027771 -0.002506
# 6 0.004585 -0.010812 0.002566 -0.003293 -0.002506 0.046367
#
#
# Mechanical properties :
#
#
# Convention : Reuss Voigt Hill
#
# Bulk Modulus (GPa) = 31.18250 42.17101 36.67675
# Shear Modulus (GPa) = 26.84064 34.76009 30.80036
#
# Velocity S-wave (km/s) = 3.30777 3.76425 3.54337
# Velocity P-wave (km/s) = 5.22491 6.00695 5.62953
#
# Compressibility (1/GPa) = 0.03206927
#
# Stress axis : x y z
#
# Youngs Moduli (GPa) = 73.49238 41.74365 80.42416
#
# Poissons Ratio (x) = 0.30850 0.42952
# Poissons Ratio (y) = 0.54314 -0.30300
# Poissons Ratio (z) = 0.39250 -0.15727
#
# Static dielectric constant tensor:
#      x y z
#    x 2.016510 0.084440 0.028800 
#    y 0.084440 1.990370 0.011940 
#    z 0.028800 0.011940 1.923130 
# 
# From -- ./inp_files/367879.got.cif
#   From: 2010.05.17/outbox.cif.g08.bks.cpg/sg2_184_cif.got.tgz:367879.got - 2010.06.03 11:33:40.
