data_PCOD9022390
_publ_section_title
;
Structure prediction by ZEFSAII (Michael W. Deem and Ramdas Pophale) SiO2 
 PCOD9022390
Probable space group: P -1
;
_chemical_formula_sum "Si O2"
_cell_formula_units_Z 12
_cell_length_a 6.369061
_cell_length_b 15.026001
_cell_length_c 14.680516
_cell_angle_alpha 27.170485
_cell_angle_beta 117.452169
_cell_angle_gamma 104.316448
_cell_volume 521.309936
_symmetry_space_group_name_H-M "P -1"
_symmetry_group_IT_number 2
_symmetry_cell_setting 'triclinic'
loop_
_space_group_symop_operation_xyz
x,y,z
-x,-y,-z
loop_
_atom_site_type_symbol
_atom_site_label
_atom_site_fract_x
_atom_site_fract_y
_atom_site_fract_z
Si Si1 0.782165 0.337010 0.671690
Si Si2 0.935304 0.251325 0.450534
Si Si3 0.742274 0.539453 0.303768
Si Si4 0.477362 0.278374 0.223757
Si Si5 0.686978 0.067071 0.039781
Si Si6 0.205601 0.108094 0.454955
O O1 0.500000 0.500000 0.500000
O O2 0.755065 0.345869 0.549169
O O3 0.839420 0.137420 0.929484
O O4 0.003512 0.418665 0.662913
O O5 0.119868 0.236032 0.415553
O O6 0.769221 0.473391 0.264655
O O7 0.715296 0.180700 0.432625
O O8 0.124266 0.108938 0.695495
O O9 0.494252 0.740204 0.106540
O O10 0.235788 0.266789 0.240285
O O11 0.538661 0.110770 0.305795
O O12 0.500000 0.500000 0.000000
O O13 0.500000 0.000000 0.000000
O O14 0.000000 0.000000 0.500000
#
# Coordination Sequence:
#
# PCOD9022390 Si02
#       6
#     2   2   2   2   2   2
#     4   9  19  39  61  86 129 175 225 264 318 388
#     4  11  24  40  64 102 129 170 225 277 331 409
#     4  10  22  39  61  92 127 177 220 267 333 382
#     4  10  23  45  74  97 135 180 220 283 351 411
#     4  11  24  40  63  92 135 179 219 272 321 390
#     4   9  22  45  68 102 136 168 228 280 342 415
#
# _framework density 23.018934000000002
#
# number of rings (size 3 to 8) (size 9 to 14) (size 15 to 20)
#    0.000    2.000    0.000    3.000    2.333   10.667 
#    6.000    0.000    0.000    0.000    0.000    0.000 
#    0.000    0.000    0.000    0.000    0.000    0.000 
#
# Total GULP energy -66834.982871 kJ/mol
# GULP energy per Si atom -5569.581906 kJ/mol
# Density = 2.296654 g / cm^3
# Si number density = 23.018934 Si / 1000 Ang^3
#
#
#
# Elastic Constant Matrix: (Units=GPa)
#
#
# Indices 1 2 3 4 5 6 
#
# 1 155.5226 42.0564 47.8776 -13.5704 -28.8169 -30.3931
# 2 42.0564 86.9569 23.1236 -11.5246 -0.1029 -36.7708
# 3 47.8776 23.1236 101.8377 -6.7329 -10.1316 -6.2458
# 4 -13.5704 -11.5246 -6.7329 33.7582 2.3648 14.0023
# 5 -28.8169 -0.1029 -10.1316 2.3648 43.6898 -7.7737
# 6 -30.3931 -36.7708 -6.2458 14.0023 -7.7737 55.9240
#
#
#
# Elastic Compliance Matrix: (Units=1/GPa)
#
#
# Indices 1 2 3 4 5 6 
#
# 1 0.010211 -0.001997 -0.003362 0.000319 0.006773 0.004722
# 2 -0.001997 0.017361 -0.002368 0.000545 -0.000091 0.009916
# 3 -0.003362 -0.002368 0.011877 0.001178 0.000050 -0.002346
# 4 0.000319 0.000545 0.001178 0.033760 -0.002797 -0.008178
# 5 0.006773 -0.000091 0.000050 -0.002797 0.029006 0.008360
# 6 0.004722 0.009916 -0.002346 -0.008178 0.008360 0.029915
#
#
# Mechanical properties :
#
#
# Convention : Reuss Voigt Hill
#
# Bulk Modulus (GPa) = 41.67757 63.38136 52.52947
# Shear Modulus (GPa) = 32.13714 42.09171 37.11443
#
# Velocity S-wave (km/s) = 3.74052 4.28082 4.01976
# Velocity P-wave (km/s) = 6.06633 7.21305 6.66440
#
# Compressibility (1/GPa) = 0.02399372
#
# Stress axis : x y z
#
# Youngs Moduli (GPa) = 97.93494 57.60107 84.19652
#
# Poissons Ratio (x) = 0.11504 0.28311
# Poissons Ratio (y) = 0.19559 0.19937
# Poissons Ratio (z) = 0.32930 0.13639
#
# Static dielectric constant tensor:
#      x y z
#    x 1.853310 -0.083840 -0.094470 
#    y -0.083840 1.868550 -0.116410 
#    z -0.094470 -0.116410 1.899010 
# 
# From -- ./inp_files/483789.got.cif
#   From: 2010.05.17/outbox.cif.g08.bks.cpg/sg2_242_cif.got.tgz:483789.got - 2010.06.03 11:33:40.
