data_PCOD9022286
_publ_section_title
;
Structure prediction by ZEFSAII (Michael W. Deem and Ramdas Pophale) SiO2 
 PCOD9022286
Probable space group: P -1
;
_chemical_formula_sum "Si O2"
_cell_formula_units_Z 16
_cell_length_a 23.585461
_cell_length_b 5.203650
_cell_length_c 8.656890
_cell_angle_alpha 56.438905
_cell_angle_beta 43.380598
_cell_angle_gamma 70.803555
_cell_volume 603.128653
_symmetry_space_group_name_H-M "P -1"
_symmetry_group_IT_number 2
_symmetry_cell_setting 'triclinic'
loop_
_space_group_symop_operation_xyz
x,y,z
-x,-y,-z
loop_
_atom_site_type_symbol
_atom_site_label
_atom_site_fract_x
_atom_site_fract_y
_atom_site_fract_z
Si Si1 0.647514 0.743462 0.286922
Si Si2 0.751658 0.385107 0.966006
Si Si3 0.006523 0.623024 0.175937
Si Si4 0.128871 0.729617 0.632163
Si Si5 0.283664 0.045721 0.345113
Si Si6 0.392006 0.261172 0.297845
Si Si7 0.444014 0.932550 0.876370
Si Si8 0.915648 0.714832 0.635187
O O1 0.712130 0.053879 0.090695
O O2 0.690768 0.516065 0.167892
O O3 0.620167 0.607906 0.551354
O O4 0.569836 0.870201 0.313425
O O5 0.844328 0.424181 0.840180
O O6 0.753526 0.644943 0.739942
O O7 0.046507 0.318456 0.259713
O O8 0.926142 0.553252 0.248740
O O9 0.981717 0.735773 0.356046
O O10 0.075761 0.794627 0.869070
O O11 0.221413 0.753410 0.506231
O O12 0.129736 0.986178 0.409859
O O13 0.372854 0.034182 0.094018
O O14 0.305758 0.083318 0.466932
O O15 0.420625 0.558134 0.033956
O O16 0.463713 0.038919 0.247861
#
# Coordination Sequence:
#
# PCOD9022286 Si02
#       8
#     2   2   2   2   2   2   2   2
#     4  11  24  44  66  99 131 174 218 272 325 389
#     4  10  24  43  67  97 134 170 222 269 326 387
#     4  10  22  39  62  89 124 165 210 268 316 390
#     4  10  22  39  60  91 124 161 214 262 325 377
#     4  10  22  41  66  92 129 175 211 275 323 392
#     4  11  23  40  67  92 129 173 216 272 324 390
#     4  10  23  43  61  97 130 169 218 268 329 387
#     4  10  22  39  62  87 124 167 210 264 323 379
#
# _framework density 26.528338000000002
#
# number of rings (size 3 to 8) (size 9 to 14) (size 15 to 20)
#    0.000    1.750    1.250    1.500    8.750    0.000 
#    0.000    4.375    0.000    0.000    0.000    0.000 
#    0.000    0.000    0.000    0.000    0.000    0.000 
#
# Total GULP energy -89517.858989 kJ/mol
# GULP energy per Si atom -5594.866187 kJ/mol
# Density = 2.646796 g / cm^3
# Si number density = 26.528338 Si / 1000 Ang^3
#
#
#
# Elastic Constant Matrix: (Units=GPa)
#
#
# Indices 1 2 3 4 5 6 
#
# 1 174.8039 26.9907 38.3408 -2.9850 0.1454 5.3509
# 2 26.9907 70.2253 18.8051 -4.9238 -7.5873 11.8638
# 3 38.3408 18.8051 68.7895 5.2986 0.2277 -3.2698
# 4 -2.9850 -4.9238 5.2986 33.5419 -7.3272 4.1714
# 5 0.1454 -7.5873 0.2277 -7.3272 35.2452 -2.8666
# 6 5.3509 11.8638 -3.2698 4.1714 -2.8666 29.7148
#
#
#
# Elastic Compliance Matrix: (Units=1/GPa)
#
#
# Indices 1 2 3 4 5 6 
#
# 1 0.006766 -0.001395 -0.003529 0.001066 -0.000183 -0.001217
# 2 -0.001395 0.018316 -0.005031 0.005316 0.004441 -0.007933
# 3 -0.003529 -0.005031 0.018520 -0.005021 -0.001808 0.005213
# 4 0.001066 0.005316 -0.005021 0.034019 0.007683 -0.006901
# 5 -0.000183 0.004441 -0.001808 0.007683 0.030936 -0.000033
# 6 -0.001217 -0.007933 0.005213 -0.006901 -0.000033 0.038579
#
#
# Mechanical properties :
#
#
# Convention : Reuss Voigt Hill
#
# Bulk Modulus (GPa) = 42.20819 53.56577 47.88698
# Shear Modulus (GPa) = 28.58097 35.01253 31.79675
#
# Velocity S-wave (km/s) = 3.28590 3.63687 3.46583
# Velocity P-wave (km/s) = 5.50830 6.15398 5.84007
#
# Compressibility (1/GPa) = 0.02369208
#
# Stress axis : x y z
#
# Youngs Moduli (GPa) = 147.80392 54.59746 53.99580
#
# Poissons Ratio (x) = 0.07615 0.19056
# Poissons Ratio (y) = 0.20614 0.27165
# Poissons Ratio (z) = 0.52161 0.27468
#
# Static dielectric constant tensor:
#      x y z
#    x 2.112480 -0.026000 -0.011460 
#    y -0.026000 2.202810 -0.039450 
#    z -0.011460 -0.039450 2.083480 
# 
# From -- ./inp_files/52979.got.cif
#   From: 2010.05.17/outbox.cif.g08.bks.cpg/sg2_27_cif.got.tgz:52979.got - 2010.06.03 11:33:40.
