data_PCOD9022605
_publ_section_title
;
Structure prediction by ZEFSAII (Michael W. Deem and Ramdas Pophale) SiO2 
 PCOD9022605
Probable space group: P -1
;
_chemical_formula_sum "Si O2"
_cell_formula_units_Z 14
_cell_length_a 15.494603
_cell_length_b 11.734381
_cell_length_c 7.549490
_cell_angle_alpha 77.483067
_cell_angle_beta 65.314715
_cell_angle_gamma 133.185984
_cell_volume 592.566068
_symmetry_space_group_name_H-M "P -1"
_symmetry_group_IT_number 2
_symmetry_cell_setting 'triclinic'
loop_
_space_group_symop_operation_xyz
x,y,z
-x,-y,-z
loop_
_atom_site_type_symbol
_atom_site_label
_atom_site_fract_x
_atom_site_fract_y
_atom_site_fract_z
Si Si1 0.021628 0.120168 0.288934
Si Si2 0.552018 0.070104 0.724335
Si Si3 0.705440 0.413873 0.894496
Si Si4 0.664476 0.941759 0.218129
Si Si5 0.060350 0.479233 0.617557
Si Si6 0.581777 0.718219 0.726134
Si Si7 0.664387 0.699314 0.147765
O O1 0.147908 0.363718 0.172480
O O2 0.151532 0.187772 0.013770
O O3 0.000000 0.000000 0.500000
O O4 0.805149 0.925616 0.492698
O O5 0.783729 0.299297 0.453264
O O6 0.491873 0.133089 0.691550
O O7 0.500000 0.000000 0.000000
O O8 0.408127 0.819749 0.847568
O O9 0.827205 0.504168 0.588506
O O10 0.534124 0.322039 0.027508
O O11 0.592092 0.806983 0.506827
O O12 0.708086 0.882446 0.063938
O O13 0.868310 0.228378 0.962642
O O14 0.000000 0.500000 0.500000
O O15 0.439110 0.456889 0.889686
O O16 0.500000 0.500000 0.500000
#
# Coordination Sequence:
#
# PCOD9022605 Si02
#       7
#     2   2   2   2   2   2   2
#     4  11  24  42  64  94 126 166 211 256 312 368
#     4  10  22  39  63  90 125 159 205 256 309 364
#     4  10  23  41  64  90 131 161 208 257 310 373
#     4  11  22  41  66  92 125 166 208 257 311 366
#     4  11  22  39  63  95 119 161 214 253 304 366
#     4  10  25  42  62  92 130 168 204 255 317 369
#     4   9  22  42  65  93 126 160 212 256 314 368
#
# _framework density 23.626056999999999
#
# number of rings (size 3 to 8) (size 9 to 14) (size 15 to 20)
#    0.000    1.714    2.857    0.857    2.000   14.286 
#    0.000    1.429    0.000    0.000    0.000    0.000 
#    0.000    0.000    0.000    0.000    0.000    0.000 
#
# Total GULP energy -78243.296036 kJ/mol
# GULP energy per Si atom -5588.806860 kJ/mol
# Density = 2.357228 g / cm^3
# Si number density = 23.626057 Si / 1000 Ang^3
#
#
#
# Elastic Constant Matrix: (Units=GPa)
#
#
# Indices 1 2 3 4 5 6 
#
# 1 140.7845 40.8756 24.2085 -13.6002 -27.8177 3.7517
# 2 40.8756 81.0509 21.9828 -27.2406 -7.2272 -11.3239
# 3 24.2085 21.9828 96.2522 -23.4502 -24.8014 4.8789
# 4 -13.6002 -27.2406 -23.4502 56.0214 -5.5434 -5.7474
# 5 -27.8177 -7.2272 -24.8014 -5.5434 47.0657 -4.6527
# 6 3.7517 -11.3239 4.8789 -5.7474 -4.6527 30.7970
#
#
#
# Elastic Compliance Matrix: (Units=1/GPa)
#
#
# Indices 1 2 3 4 5 6 
#
# 1 0.009432 -0.004501 0.000087 0.000403 0.004777 -0.002021
# 2 -0.004501 0.019519 -0.001149 0.009107 0.001780 0.009876
# 3 0.000087 -0.001149 0.014233 0.006187 0.008073 -0.000314
# 4 0.000403 0.009107 0.006187 0.026735 0.008901 0.008653
# 5 0.004777 0.001780 0.008073 0.008901 0.030141 0.005008
# 6 -0.002021 0.009876 -0.000314 0.008653 0.005008 0.038769
#
#
# Mechanical properties :
#
#
# Convention : Reuss Voigt Hill
#
# Bulk Modulus (GPa) = 31.19327 54.69127 42.94227
# Shear Modulus (GPa) = 31.12532 42.17821 36.65176
#
# Velocity S-wave (km/s) = 3.63356 4.22980 3.94296
# Velocity P-wave (km/s) = 5.55295 6.85958 6.24056
#
# Compressibility (1/GPa) = 0.03205820
#
# Stress axis : x y z
#
# Youngs Moduli (GPa) = 106.02673 51.23259 70.25749
#
# Poissons Ratio (x) = 0.23061 -0.00614
# Poissons Ratio (y) = 0.47725 0.08072
# Poissons Ratio (z) = -0.00926 0.05886
#
# Static dielectric constant tensor:
#      x y z
#    x 1.952070 -0.009910 -0.013060 
#    y -0.009910 2.027930 0.020730 
#    z -0.013060 0.020730 1.946990 
# 
# From -- ./inp_files/306979.got.cif
#   From: 2010.05.17/outbox.cif.g08.bks.cpg/sg2_154_cif.got.tgz:306979.got - 2010.06.03 11:33:40.
