data_PCOD9022756
_publ_section_title
;
Structure prediction by ZEFSAII (Michael W. Deem and Ramdas Pophale) SiO2 
 PCOD9022756
Probable space group: P -1
;
_chemical_formula_sum "Si O2"
_cell_formula_units_Z 15
_cell_length_a 5.097400
_cell_length_b 16.964151
_cell_length_c 12.507935
_cell_angle_alpha 140.284546
_cell_angle_beta 101.407416
_cell_angle_gamma 72.371402
_cell_volume 657.560760
_symmetry_space_group_name_H-M "P -1"
_symmetry_group_IT_number 2
_symmetry_cell_setting 'triclinic'
loop_
_space_group_symop_operation_xyz
x,y,z
-x,-y,-z
loop_
_atom_site_type_symbol
_atom_site_label
_atom_site_fract_x
_atom_site_fract_y
_atom_site_fract_z
Si Si1 0.619564 0.394585 0.041285
Si Si2 0.170321 0.042216 0.426110
Si Si3 0.698205 0.090370 0.085094
Si Si4 0.000000 0.500000 0.000000
Si Si5 0.839945 0.616431 0.330111
Si Si6 0.508373 0.155968 0.904871
Si Si7 0.982990 0.805175 0.235098
Si Si8 0.714674 0.231731 0.453488
O O1 0.773442 0.481571 0.213476
O O2 0.309071 0.462065 0.054989
O O3 0.609101 0.267171 0.968802
O O4 0.831708 0.340618 0.900190
O O5 0.214378 0.141104 0.624079
O O6 0.896695 0.120746 0.426748
O O7 0.370292 0.982509 0.283177
O O8 0.149847 0.913865 0.352701
O O9 0.688897 0.180470 0.279745
O O10 0.591311 0.156947 0.034578
O O11 0.500000 0.000000 0.000000
O O12 0.000000 0.000000 0.000000
O O13 0.147997 0.401917 0.815019
O O14 0.577108 0.718164 0.460254
O O15 0.111899 0.660442 0.429676
O O16 0.190237 0.185698 0.877750
#
# Coordination Sequence:
#
# PCOD9022756 Si02
#       8
#     2   2   2   1   2   2   2   2
#     4  11  25  45  70 107 145 198 249 297 369 443
#     4  10  22  39  64 106 144 184 235 298 378 436
#     4  12  26  50  78 110 147 195 250 304 374 441
#     4  12  24  48  74 102 152 200 248 298 362 444
#     4  12  27  45  70 109 147 194 249 300 365 435
#     4  11  24  43  74 102 149 190 245 306 371 442
#     4  10  22  40  67 104 148 188 234 307 371 451
#     4  12  26  45  73 107 150 191 248 310 361 438
#
# _framework density 22.811582999999999
#
# number of rings (size 3 to 8) (size 9 to 14) (size 15 to 20)
#    0.000    0.800    2.667    4.000    7.467    0.000 
#    0.000    1.333    0.000    0.000    0.000    0.000 
#    0.000    0.000    0.000    0.000    0.000    0.000 
#
# Total GULP energy -83633.301908 kJ/mol
# GULP energy per Si atom -5575.553461 kJ/mol
# Density = 2.275966 g / cm^3
# Si number density = 22.811583 Si / 1000 Ang^3
#
#
#
# Elastic Constant Matrix: (Units=GPa)
#
#
# Indices 1 2 3 4 5 6 
#
# 1 123.1654 16.3555 58.6531 -4.2229 -7.7290 -13.8213
# 2 16.3555 100.3548 65.1137 -13.1971 -6.7316 -8.3663
# 3 58.6531 65.1137 190.6766 -9.4616 -4.5378 -13.2446
# 4 -4.2229 -13.1971 -9.4616 44.4137 2.1556 7.5856
# 5 -7.7290 -6.7316 -4.5378 2.1556 51.0551 8.5487
# 6 -13.8213 -8.3663 -13.2446 7.5856 8.5487 22.5677
#
#
#
# Elastic Compliance Matrix: (Units=1/GPa)
#
#
# Indices 1 2 3 4 5 6 
#
# 1 0.009985 0.000694 -0.002997 -0.000277 0.000598 0.004480
# 2 0.000694 0.013329 -0.004506 0.002779 0.001116 0.001365
# 3 -0.002997 -0.004506 0.007776 -0.000167 -0.000572 0.001330
# 4 -0.000277 0.002779 -0.000167 0.024569 0.000563 -0.007709
# 5 0.000598 0.001116 -0.000572 0.000563 0.021042 -0.007716
# 6 0.004480 0.001365 0.001330 -0.007709 -0.007716 0.053856
#
#
# Mechanical properties :
#
#
# Convention : Reuss Voigt Hill
#
# Bulk Modulus (GPa) = 57.23200 77.16016 67.19608
# Shear Modulus (GPa) = 33.33390 41.87892 37.60641
#
# Velocity S-wave (km/s) = 3.82680 4.28934 4.06466
# Velocity P-wave (km/s) = 6.68352 7.64393 7.17980
#
# Compressibility (1/GPa) = 0.01747274
#
# Stress axis : x y z
#
# Youngs Moduli (GPa) = 100.15124 75.02221 128.60725
#
# Poissons Ratio (x) = -0.05209 0.38541
# Poissons Ratio (y) = -0.06954 0.57952
# Poissons Ratio (z) = 0.30014 0.33806
#
# Static dielectric constant tensor:
#      x y z
#    x 1.839620 -0.050170 0.053950 
#    y -0.050170 1.806490 -0.173590 
#    z 0.053950 -0.173590 5.477350 
# 
# From -- ./inp_files/369198.got.cif
#   From: 2010.05.17/outbox.cif.g08.bks.cpg/sg2_185_cif.got.tgz:369198.got - 2010.06.03 11:33:40.
