data_PCOD9022894
_publ_section_title
;
Structure prediction by ZEFSAII (Michael W. Deem and Ramdas Pophale) SiO2 
 PCOD9022894
Probable space group: P -1
;
_chemical_formula_sum "Si O2"
_cell_formula_units_Z 12
_cell_length_a 14.767296
_cell_length_b 9.028205
_cell_length_c 5.324340
_cell_angle_alpha 96.677550
_cell_angle_beta 140.453324
_cell_angle_gamma 86.636867
_cell_volume 448.362088
_symmetry_space_group_name_H-M "P -1"
_symmetry_group_IT_number 2
_symmetry_cell_setting 'triclinic'
loop_
_space_group_symop_operation_xyz
x,y,z
-x,-y,-z
loop_
_atom_site_type_symbol
_atom_site_label
_atom_site_fract_x
_atom_site_fract_y
_atom_site_fract_z
Si Si1 0.215916 0.350967 0.140319
Si Si2 0.362781 0.710325 0.167391
Si Si3 0.137886 0.687252 0.044063
Si Si4 0.391290 0.390311 0.009025
Si Si5 0.645322 0.057051 0.185278
Si Si6 0.104726 0.143212 0.232135
O O1 0.148636 0.510595 0.080928
O O2 0.291730 0.358794 0.035682
O O3 0.118810 0.207055 0.990116
O O4 0.332103 0.338468 0.607534
O O5 0.197837 0.703047 0.892395
O O6 0.396042 0.570014 0.039193
O O7 0.460092 0.674333 0.608047
O O8 0.398226 0.868491 0.153408
O O9 0.247809 0.808310 0.443125
O O10 0.979009 0.732901 0.769589
O O11 0.747678 0.918783 0.363111
O O12 0.500000 0.000000 0.000000
O O13 0.000000 0.000000 0.000000
#
# Coordination Sequence:
#
# PCOD9022894 Si02
#       6
#     2   2   2   2   2   2
#     4  11  22  47  71 102 132 185 234 279 338 402
#     4  10  22  39  65 101 133 181 224 285 341 400
#     4  10  23  43  68  94 136 178 232 280 337 409
#     4  10  23  39  74 104 136 172 236 291 327 398
#     4  11  23  42  66  97 138 176 227 282 346 407
#     4  10  24  46  66  99 141 180 224 285 348 410
#
# _framework density 26.764082999999999
#
# number of rings (size 3 to 8) (size 9 to 14) (size 15 to 20)
#    0.000    1.667    1.667    1.500    4.667    3.333 
#   12.000    2.500    0.000    0.000    0.000    0.000 
#    0.000    0.000    0.000    0.000    0.000    0.000 
#
# Total GULP energy -67127.459330 kJ/mol
# GULP energy per Si atom -5593.954944 kJ/mol
# Density = 2.670317 g / cm^3
# Si number density = 26.764083 Si / 1000 Ang^3
#
#
#
# Elastic Constant Matrix: (Units=GPa)
#
#
# Indices 1 2 3 4 5 6 
#
# 1 150.0052 70.7257 42.0321 -37.3735 37.2200 18.5982
# 2 70.7257 189.7214 31.9815 -30.6344 10.7697 25.1677
# 3 42.0321 31.9815 100.5297 -11.3660 22.3723 -1.7406
# 4 -37.3735 -30.6344 -11.3660 48.1180 -13.6001 -2.2781
# 5 37.2200 10.7697 22.3723 -13.6001 39.0315 -9.6324
# 6 18.5982 25.1677 -1.7406 -2.2781 -9.6324 60.8203
#
#
#
# Elastic Compliance Matrix: (Units=1/GPa)
#
#
# Indices 1 2 3 4 5 6 
#
# 1 0.012375 -0.002453 -0.001827 0.004754 -0.009442 -0.004139
# 2 -0.002453 0.006972 -0.001289 0.002598 0.001610 -0.001820
# 3 -0.001827 -0.001289 0.012155 -0.000745 -0.004975 0.000624
# 4 0.004754 0.002598 -0.000745 0.027168 0.004438 -0.000830
# 5 -0.009442 0.001610 -0.004975 0.004438 0.040723 0.008694
# 6 -0.004139 -0.001820 0.000624 -0.000830 0.008694 0.019824
#
#
# Mechanical properties :
#
#
# Convention : Reuss Voigt Hill
#
# Bulk Modulus (GPa) = 49.10182 81.08165 65.09173
# Shear Modulus (GPa) = 36.45857 49.29509 42.87683
#
# Velocity S-wave (km/s) = 3.69483 4.29632 4.00688
# Velocity P-wave (km/s) = 6.04883 7.41430 6.76610
#
# Compressibility (1/GPa) = 0.02036584
#
# Stress axis : x y z
#
# Youngs Moduli (GPa) = 80.80755 143.43203 82.27226
#
# Poissons Ratio (x) = 0.35179 0.15029
# Poissons Ratio (y) = 0.19819 0.10601
# Poissons Ratio (z) = 0.14762 0.18482
#
# Static dielectric constant tensor:
#      x y z
#    x 2.136850 0.015470 -0.017120 
#    y 0.015470 2.100040 0.123820 
#    z -0.017120 0.123820 2.210020 
# 
# From -- ./inp_files/22641.got.cif
#   From: 2010.05.17/outbox.cif.g08.bks.cpg/sg2_12_cif.got.tgz:22641.got - 2010.06.03 11:33:40.
