data_PCOD9022351
_publ_section_title
;
Structure prediction by ZEFSAII (Michael W. Deem and Ramdas Pophale) SiO2 
 PCOD9022351
Probable space group: P -1
;
_chemical_formula_sum "Si O2"
_cell_formula_units_Z 16
_cell_length_a 19.667698
_cell_length_b 16.023210
_cell_length_c 7.358668
_cell_angle_alpha 46.893679
_cell_angle_beta 37.305529
_cell_angle_gamma 26.331234
_cell_volume 619.636852
_symmetry_space_group_name_H-M "P -1"
_symmetry_group_IT_number 2
_symmetry_cell_setting 'triclinic'
loop_
_space_group_symop_operation_xyz
x,y,z
-x,-y,-z
loop_
_atom_site_type_symbol
_atom_site_label
_atom_site_fract_x
_atom_site_fract_y
_atom_site_fract_z
Si Si1 0.593933 0.888241 0.744705
Si Si2 0.248498 0.711017 0.442103
Si Si3 0.209515 0.826894 0.756128
Si Si4 0.079389 0.402846 0.773404
Si Si5 0.406648 0.441397 0.069493
Si Si6 0.197546 0.183540 0.294088
Si Si7 0.442219 0.327085 0.759555
Si Si8 0.057710 0.704855 0.628819
O O1 0.709582 0.772079 0.487947
O O2 0.690127 0.914639 0.608593
O O3 0.625107 0.746760 0.009473
O O4 0.369481 0.080331 0.946058
O O5 0.211277 0.801573 0.575795
O O6 0.332013 0.519835 0.613804
O O7 0.088018 0.802854 0.511185
O O8 0.401949 0.669005 0.087590
O O9 0.344037 0.822990 0.523693
O O10 0.305751 0.638688 0.922551
O O11 0.000000 0.000000 0.000000
O O12 0.962762 0.595194 0.633295
O O13 0.013957 0.324942 0.023850
O O14 0.000000 0.500000 0.000000
O O15 0.260362 0.502563 0.422754
O O16 0.438464 0.347472 0.956306
O O17 0.078650 0.193159 0.406676
#
# Coordination Sequence:
#
# PCOD9022351 Si02
#       8
#     2   2   2   2   2   2   2   2
#     4  11  22  41  62  89 126 155 210 255 295 353
#     4   9  19  37  60  87 117 153 191 244 302 355
#     4   9  19  35  59  87 116 142 195 248 286 356
#     4  10  22  39  61  88 122 160 200 249 300 355
#     4   9  19  36  61  86 116 149 196 241 293 365
#     4  10  24  39  61  90 118 163 209 253 296 351
#     4   9  18  36  61  85 109 157 192 242 305 341
#     4  11  21  36  60  87 118 160 198 234 305 358
#
# _framework density 25.821577000000001
#
# number of rings (size 3 to 8) (size 9 to 14) (size 15 to 20)
#    0.000    2.250    0.000    4.500    1.750    4.000 
#    2.250    0.625   16.500    0.000    0.000    0.000 
#    0.000    0.000    0.000    0.000    0.000    0.000 
#
# Total GULP energy -89247.682641 kJ/mol
# GULP energy per Si atom -5577.980165 kJ/mol
# Density = 2.576281 g / cm^3
# Si number density = 25.821577 Si / 1000 Ang^3
#
#
#
# Elastic Constant Matrix: (Units=GPa)
#
#
# Indices 1 2 3 4 5 6 
#
# 1 147.7757 -2.3633 36.6293 12.3721 -26.0788 2.3256
# 2 -2.3633 56.9664 11.3011 6.4051 -2.9714 0.3982
# 3 36.6293 11.3011 157.1382 21.9576 -3.5806 8.5195
# 4 12.3721 6.4051 21.9576 35.2591 10.8912 5.6453
# 5 -26.0788 -2.9714 -3.5806 10.8912 50.4731 2.5809
# 6 2.3256 0.3982 8.5195 5.6453 2.5809 16.3888
#
#
#
# Elastic Compliance Matrix: (Units=1/GPa)
#
#
# Indices 1 2 3 4 5 6 
#
# 1 0.008366 0.001329 -0.001384 -0.003910 0.005145 0.000037
# 2 0.001329 0.018403 -0.001055 -0.004081 0.002529 0.000920
# 3 -0.001384 -0.001055 0.007439 -0.003776 0.000691 -0.002453
# 4 -0.003910 -0.004081 -0.003776 0.037344 -0.010144 -0.008650
# 5 0.005145 0.002529 0.000691 -0.010144 0.024938 -0.001583
# 6 0.000037 0.000920 -0.002453 -0.008650 -0.001583 0.065494
#
#
# Mechanical properties :
#
#
# Convention : Reuss Voigt Hill
#
# Bulk Modulus (GPa) = 31.26238 50.33495 40.79867
# Shear Modulus (GPa) = 28.59317 41.51175 35.05246
#
# Velocity S-wave (km/s) = 3.33128 4.01389 3.68841
# Velocity P-wave (km/s) = 5.18940 6.40448 5.82869
#
# Compressibility (1/GPa) = 0.03198733
#
# Stress axis : x y z
#
# Youngs Moduli (GPa) = 119.53104 54.33882 134.43231
#
# Poissons Ratio (x) = -0.07224 0.18607
# Poissons Ratio (y) = -0.15890 0.14189
# Poissons Ratio (z) = 0.16545 0.05735
#
# Static dielectric constant tensor:
#      x y z
#    x 2.090800 -0.020270 -0.003530 
#    y -0.020270 2.142350 -0.024360 
#    z -0.003530 -0.024360 2.063790 
# 
# From -- ./inp_files/348400.got.cif
#   From: 2010.05.17/outbox.cif.g08.bks.cpg/sg2_175_cif.got.tgz:348400.got - 2010.06.03 11:33:40.
