data_PCOD9022140
_publ_section_title
;
Structure prediction by ZEFSAII (Michael W. Deem and Ramdas Pophale) SiO2 
 PCOD9022140
Probable space group: P -1
;
_chemical_formula_sum "Si O2"
_cell_formula_units_Z 16
_cell_length_a 8.428685
_cell_length_b 11.893436
_cell_length_c 14.654425
_cell_angle_alpha 107.273639
_cell_angle_beta 110.089425
_cell_angle_gamma 37.181927
_cell_volume 833.097864
_symmetry_space_group_name_H-M "P -1"
_symmetry_group_IT_number 2
_symmetry_cell_setting 'triclinic'
loop_
_space_group_symop_operation_xyz
x,y,z
-x,-y,-z
loop_
_atom_site_type_symbol
_atom_site_label
_atom_site_fract_x
_atom_site_fract_y
_atom_site_fract_z
Si Si1 0.701021 0.493246 0.644179
Si Si2 0.146909 0.804218 0.517157
Si Si3 0.977041 0.594408 0.157697
Si Si4 0.526452 0.766950 0.242293
Si Si5 0.995705 0.464364 0.385359
Si Si6 0.253128 0.785529 0.029361
Si Si7 0.730044 0.910754 0.595087
Si Si8 0.849245 0.429893 0.009025
O O1 0.409828 0.686465 0.599705
O O2 0.765739 0.327518 0.581120
O O3 0.778043 0.476375 0.758972
O O4 0.891052 0.482463 0.628260
O O5 0.961798 0.831393 0.555733
O O6 0.000000 0.000000 0.500000
O O7 0.989882 0.640680 0.070295
O O8 0.709852 0.746711 0.203852
O O9 0.988304 0.446484 0.110284
O O10 0.349592 0.778526 0.146427
O O11 0.718944 0.592329 0.308486
O O12 0.360721 0.940755 0.317170
O O13 0.177187 0.251595 0.367940
O O14 0.000000 0.500000 0.500000
O O15 0.163510 0.697845 0.993224
O O16 0.533770 0.640220 0.992178
O O17 0.000000 0.000000 0.000000
O O18 0.500000 0.000000 0.500000
#
# Coordination Sequence:
#
# PCOD9022140 Si02
#       8
#     2   2   2   2   2   2   2   2
#     4  10  22  39  57  85 119 153 200 243 292 350
#     4  11  24  37  54  83 120 158 191 244 293 348
#     4   9  19  41  63  86 114 157 197 248 296 355
#     4  10  23  37  59  92 120 156 204 244 297 361
#     4  11  20  39  63  83 118 163 203 245 290 351
#     4  10  22  40  61  92 123 152 197 251 300 362
#     4  12  22  37  61  87 119 162 202 242 296 355
#     4   9  20  41  66  84 119 154 195 247 308 351
#
# _framework density 19.205427
#
# number of rings (size 3 to 8) (size 9 to 14) (size 15 to 20)
#    0.000    1.750    2.500    1.500    0.000    7.000 
#    0.000    9.375    0.000    0.000    0.000    0.000 
#    0.000    0.000    0.000    0.000    0.000    0.000 
#
# Total GULP energy -89173.867069 kJ/mol
# GULP energy per Si atom -5573.366692 kJ/mol
# Density = 1.916171 g / cm^3
# Si number density = 19.205427 Si / 1000 Ang^3
#
#
#
# Elastic Constant Matrix: (Units=GPa)
#
#
# Indices 1 2 3 4 5 6 
#
# 1 29.1218 -4.4295 0.7946 -0.0838 14.6073 -0.4625
# 2 -4.4295 99.3441 15.2277 -9.1153 14.4861 8.9355
# 3 0.7946 15.2277 83.5628 -4.0937 15.1367 -15.6538
# 4 -0.0838 -9.1153 -4.0937 23.0288 -8.5060 -0.5990
# 5 14.6073 14.4861 15.1367 -8.5060 33.7375 -1.0242
# 6 -0.4625 8.9355 -15.6538 -0.5990 -1.0242 23.1270
#
#
#
# Elastic Compliance Matrix: (Units=1/GPa)
#
#
# Indices 1 2 3 4 5 6 
#
# 1 0.047994 0.004850 0.002978 -0.006972 -0.025964 -0.000229
# 2 0.004850 0.012278 -0.002294 0.002082 -0.006013 -0.006412
# 3 0.002978 -0.002294 0.015739 -0.000442 -0.007135 0.011272
# 4 -0.006972 0.002082 -0.000442 0.049652 0.014862 0.000701
# 5 -0.025964 -0.006013 -0.007135 0.014862 0.050400 -0.000409
# 6 -0.000229 -0.006412 0.011272 0.000701 -0.000409 0.053342
#
#
# Mechanical properties :
#
#
# Convention : Reuss Voigt Hill
#
# Bulk Modulus (GPa) = 11.48342 26.13494 18.80918
# Shear Modulus (GPa) = 20.21323 29.34105 24.77714
#
# Velocity S-wave (km/s) = 3.24771 3.91288 3.59571
# Velocity P-wave (km/s) = 4.47836 5.83540 5.20132
#
# Compressibility (1/GPa) = 0.08708208
#
# Stress axis : x y z
#
# Youngs Moduli (GPa) = 20.83572 81.44408 63.53617
#
# Poissons Ratio (x) = -0.39502 -0.18924
# Poissons Ratio (y) = -0.10106 0.14573
# Poissons Ratio (z) = -0.06206 0.18680
#
# Static dielectric constant tensor:
#      x y z
#    x 1.678200 -0.012080 0.028220 
#    y -0.012080 1.688970 -0.037900 
#    z 0.028220 -0.037900 1.764580 
# 
# From -- ./inp_files/500579.got.cif
#   From: 2010.05.17/outbox.cif.g08.bks.cpg/sg2_251_cif.got.tgz:500579.got - 2010.06.03 11:33:40.
