data_PCOD9022503
_publ_section_title
;
Structure prediction by ZEFSAII (Michael W. Deem and Ramdas Pophale) SiO2 
 PCOD9022503
Probable space group: P -1
;
_chemical_formula_sum "Si O2"
_cell_formula_units_Z 10
_cell_length_a 8.469697
_cell_length_b 12.975497
_cell_length_c 5.983281
_cell_angle_alpha 72.994960
_cell_angle_beta 47.366971
_cell_angle_gamma 67.173612
_cell_volume 445.452360
_symmetry_space_group_name_H-M "P -1"
_symmetry_group_IT_number 2
_symmetry_cell_setting 'triclinic'
loop_
_space_group_symop_operation_xyz
x,y,z
-x,-y,-z
loop_
_atom_site_type_symbol
_atom_site_label
_atom_site_fract_x
_atom_site_fract_y
_atom_site_fract_z
Si Si1 0.154323 0.638948 0.211168
Si Si2 0.424448 0.757386 0.186346
Si Si3 0.938575 0.161362 0.135743
Si Si4 0.664420 0.038754 0.151931
Si Si5 0.159505 0.430371 0.079622
O O1 0.339461 0.686929 0.121283
O O2 0.251032 0.523620 0.060330
O O3 0.986843 0.616759 0.572906
O O4 0.024802 0.733412 0.101462
O O5 0.226722 0.794532 0.530059
O O6 0.456405 0.869751 0.971601
O O7 0.644754 0.673304 0.127863
O O8 0.811130 0.099484 0.125247
O O9 0.164094 0.070631 0.047125
O O10 0.500000 0.000000 0.500000
O O11 0.000000 0.500000 0.000000
#
# Coordination Sequence:
#
# PCOD9022503 Si02
#       5
#     2   2   2   2   2
#     4  10  23  41  61  88 125 159 201 249 300 359
#     4  11  23  40  64  90 122 162 202 249 302 357
#     4  10  22  39  62  92 120 155 202 249 301 360
#     4  10  22  40  62  89 123 157 197 250 304 359
#     4  11  24  40  62  91 123 162 205 248 298 357
#
# _framework density 22.449092
#
# number of rings (size 3 to 8) (size 9 to 14) (size 15 to 20)
#    0.000    1.600    0.000    3.600    0.000   13.600 
#    0.000    0.000    0.000    0.000    0.000    0.000 
#    0.000    0.000    0.000    0.000    0.000    0.000 
#
# Total GULP energy -55961.332281 kJ/mol
# GULP energy per Si atom -5596.133228 kJ/mol
# Density = 2.239800 g / cm^3
# Si number density = 22.449092 Si / 1000 Ang^3
#
#
#
# Elastic Constant Matrix: (Units=GPa)
#
#
# Indices 1 2 3 4 5 6 
#
# 1 60.9292 55.2334 21.5241 0.4912 4.0618 -27.0171
# 2 55.2334 198.1498 96.1942 -3.7967 -5.3605 -46.5471
# 3 21.5241 96.1942 128.8601 -5.9627 7.3955 -26.4749
# 4 0.4912 -3.7967 -5.9627 52.1543 -3.2424 -9.7826
# 5 4.0618 -5.3605 7.3955 -3.2424 20.2886 2.4637
# 6 -27.0171 -46.5471 -26.4749 -9.7826 2.4637 29.1089
#
#
#
# Elastic Compliance Matrix: (Units=1/GPa)
#
#
# Indices 1 2 3 4 5 6 
#
# 1 0.033503 -0.005001 0.005434 0.004911 -0.012963 0.030788
# 2 -0.005001 0.011765 -0.006419 0.002133 0.005751 0.008563
# 3 0.005434 -0.006419 0.014121 0.002267 -0.008676 0.009118
# 4 0.004911 0.002133 0.002267 0.022878 0.000261 0.017697
# 5 -0.012963 0.005751 -0.008676 0.000261 0.058501 -0.015591
# 6 0.030788 0.008563 0.009118 0.017697 -0.015591 0.092183
#
#
# Mechanical properties :
#
#
# Convention : Reuss Voigt Hill
#
# Bulk Modulus (GPa) = 21.08980 81.53805 51.31393
# Shear Modulus (GPa) = 19.17705 34.64287 26.90996
#
# Velocity S-wave (km/s) = 2.92592 3.93259 3.46600
# Velocity P-wave (km/s) = 4.56394 7.55119 6.23899
#
# Compressibility (1/GPa) = 0.04741628
#
# Stress axis : x y z
#
# Youngs Moduli (GPa) = 29.84805 84.99786 70.81772
#
# Poissons Ratio (x) = 0.42507 -0.38481
# Poissons Ratio (y) = 0.14927 0.45459
# Poissons Ratio (z) = -0.16219 0.54562
#
# Static dielectric constant tensor:
#      x y z
#    x 1.855340 0.009680 0.005000 
#    y 0.009680 1.833900 0.001880 
#    z 0.005000 0.001880 1.765930 
# 
# From -- ./inp_files/1457.got.cif
#   From: 2010.05.17/outbox.cif.g08.bks.cpg/sg2_1_cif.got.tgz:1457.got - 2010.06.03 11:33:40.
