data_PCOD9022371
_publ_section_title
;
Structure prediction by ZEFSAII (Michael W. Deem and Ramdas Pophale) SiO2 
 PCOD9022371
Probable space group: P -1
;
_chemical_formula_sum "Si O2"
_cell_formula_units_Z 16
_cell_length_a 8.810348
_cell_length_b 8.756752
_cell_length_c 12.103858
_cell_angle_alpha 111.060599
_cell_angle_beta 110.644848
_cell_angle_gamma 108.468658
_cell_volume 702.491150
_symmetry_space_group_name_H-M "P -1"
_symmetry_group_IT_number 2
_symmetry_cell_setting 'triclinic'
loop_
_space_group_symop_operation_xyz
x,y,z
-x,-y,-z
loop_
_atom_site_type_symbol
_atom_site_label
_atom_site_fract_x
_atom_site_fract_y
_atom_site_fract_z
Si Si1 0.796337 0.459034 0.675899
Si Si2 0.822586 0.455723 0.307287
Si Si3 0.409015 0.629590 0.992709
Si Si4 0.990259 0.185543 0.060416
Si Si5 0.264356 0.935082 0.829224
Si Si6 0.777765 0.253478 0.842523
Si Si7 0.951856 0.134291 0.451076
Si Si8 0.562927 0.102322 0.424757
O O1 0.819768 0.344784 0.755556
O O2 0.616061 0.316904 0.521535
O O3 0.974227 0.519578 0.659026
O O4 0.824780 0.647644 0.789146
O O5 0.703942 0.233849 0.255010
O O6 0.879807 0.645868 0.439892
O O7 0.727524 0.459095 0.169738
O O8 0.300110 0.638769 0.074527
O O9 0.563909 0.851241 0.068165
O O10 0.500000 0.500000 0.000000
O O11 0.816929 0.130425 0.085741
O O12 0.945627 0.255829 0.953653
O O13 0.000000 0.000000 0.000000
O O14 0.104986 0.930476 0.706762
O O15 0.609606 0.034798 0.732490
O O16 0.756959 0.109624 0.444101
O O17 0.000000 0.000000 0.500000
O O18 0.500000 0.000000 0.500000
#
# Coordination Sequence:
#
# PCOD9022371 Si02
#       8
#     2   2   2   2   2   2   2   2
#     4   9  20  40  64  87 120 159 212 247 303 369
#     4  10  22  39  61  90 124 170 196 256 320 364
#     4  12  24  36  61  93 123 160 211 257 311 365
#     4  11  25  40  63  92 123 166 204 256 315 368
#     4  11  23  42  59  87 132 159 207 253 318 383
#     4  11  21  40  64  89 122 164 207 254 311 367
#     4  11  22  39  64  94 122 161 215 262 305 374
#     4   9  20  38  63  86 120 160 201 253 313 358
#
# _framework density 22.77609
#
# number of rings (size 3 to 8) (size 9 to 14) (size 15 to 20)
#    0.000    1.500    3.750    1.875    1.750    3.000 
#    0.000    0.625    0.000    0.000    0.000    0.000 
#    0.000    0.000    0.000    0.000    0.000    0.000 
#
# Total GULP energy -89325.755693 kJ/mol
# GULP energy per Si atom -5582.859731 kJ/mol
# Density = 2.272425 g / cm^3
# Si number density = 22.776090 Si / 1000 Ang^3
#
#
#
# Elastic Constant Matrix: (Units=GPa)
#
#
# Indices 1 2 3 4 5 6 
#
# 1 18.2918 18.0505 12.5868 9.9647 -2.2227 -7.7439
# 2 18.0505 97.1819 26.3819 21.6701 -2.2981 -0.6059
# 3 12.5868 26.3819 142.4027 31.7868 11.6004 -6.7043
# 4 9.9647 21.6701 31.7868 60.3055 5.7615 -2.1120
# 5 -2.2227 -2.2981 11.6004 5.7615 18.6428 4.8490
# 6 -7.7439 -0.6059 -6.7043 -2.1120 4.8490 38.1911
#
#
#
# Elastic Compliance Matrix: (Units=1/GPa)
#
#
# Indices 1 2 3 4 5 6 
#
# 1 0.079728 -0.011965 -0.003207 -0.007533 0.008743 0.013887
# 2 -0.011965 0.013453 -0.001204 -0.002565 0.002524 -0.002886
# 3 -0.003207 -0.001204 0.008716 -0.003071 -0.005362 0.001371
# 4 -0.007533 -0.002565 -0.003071 0.020904 -0.005705 -0.000227
# 5 0.008743 0.002524 -0.005362 -0.005705 0.061995 -0.007315
# 6 0.013887 -0.002886 0.001371 -0.000227 -0.007315 0.030111
#
#
# Mechanical properties :
#
#
# Convention : Reuss Voigt Hill
#
# Bulk Modulus (GPa) = 14.46238 41.32388 27.89313
# Shear Modulus (GPa) = 18.47006 36.81835 27.64421
#
# Velocity S-wave (km/s) = 2.85079 4.02498 3.48765
# Velocity P-wave (km/s) = 4.14724 6.30742 5.33775
#
# Compressibility (1/GPa) = 0.06914492
#
# Stress axis : x y z
#
# Youngs Moduli (GPa) = 12.54257 74.33448 114.73501
#
# Poissons Ratio (x) = 0.88941 0.36799
# Poissons Ratio (y) = 0.15007 0.13811
# Poissons Ratio (z) = 0.04023 0.08948
#
# Static dielectric constant tensor:
#      x y z
#    x 1.948810 -0.031520 0.037460 
#    y -0.031520 1.947560 -0.017470 
#    z 0.037460 -0.017470 1.960920 
# 
# From -- ./inp_files/382988.got.cif
#   From: 2010.05.17/outbox.cif.g08.bks.cpg/sg2_192_cif.got.tgz:382988.got - 2010.06.03 11:33:40.
