data_PCOD9022334
_publ_section_title
;
Structure prediction by ZEFSAII (Michael W. Deem and Ramdas Pophale) SiO2 
 PCOD9022334
Probable space group: P -1
;
_chemical_formula_sum "Si O2"
_cell_formula_units_Z 16
_cell_length_a 9.113786
_cell_length_b 8.540685
_cell_length_c 19.022792
_cell_angle_alpha 130.256046
_cell_angle_beta 58.618040
_cell_angle_gamma 90.467282
_cell_volume 833.239560
_symmetry_space_group_name_H-M "P -1"
_symmetry_group_IT_number 2
_symmetry_cell_setting 'triclinic'
loop_
_space_group_symop_operation_xyz
x,y,z
-x,-y,-z
loop_
_atom_site_type_symbol
_atom_site_label
_atom_site_fract_x
_atom_site_fract_y
_atom_site_fract_z
Si Si1 0.080260 0.181207 0.319341
Si Si2 0.327080 0.675910 0.707999
Si Si3 0.963228 0.350069 0.131394
Si Si4 0.957742 0.181643 0.930719
Si Si5 0.522238 0.860680 0.527698
Si Si6 0.293123 0.291551 0.421755
Si Si7 0.068845 0.181134 0.759235
Si Si8 0.715736 0.964842 0.923783
O O1 0.203176 0.194475 0.358120
O O2 0.196985 0.148777 0.207477
O O3 0.872731 0.432314 0.442817
O O4 0.043613 0.959649 0.274222
O O5 0.237178 0.654055 0.798679
O O6 0.396299 0.418211 0.584195
O O7 0.510998 0.718070 0.663457
O O8 0.129989 0.905469 0.793668
O O9 0.938791 0.607724 0.222775
O O10 0.141654 0.186329 0.091447
O O11 0.003453 0.255292 0.014679
O O12 0.981484 0.303401 0.891651
O O13 0.746109 0.193450 0.985014
O O14 0.652474 0.854672 0.560648
O O15 0.500000 0.000000 0.500000
O O16 0.299090 0.985572 0.647805
O O17 0.500000 0.000000 0.000000
#
# Coordination Sequence:
#
# PCOD9022334 Si02
#       8
#     2   2   2   2   2   2   2   2
#     4  10  24  40  61  89 126 167 200 243 311 369
#     4  11  20  36  67  90 120 155 204 257 293 353
#     4  11  23  38  63  93 121 158 206 258 302 356
#     4  10  22  39  62  90 120 162 211 248 297 358
#     4  12  22  37  65  95 124 156 201 252 316 358
#     4  11  22  40  64  92 123 162 205 247 302 375
#     4  11  21  41  59  91 129 158 194 259 313 361
#     4  10  22  39  61  86 120 163 207 251 294 361
#
# _framework density 19.202162000000001
#
# number of rings (size 3 to 8) (size 9 to 14) (size 15 to 20)
#    0.000    1.250    3.750    4.500    3.500    0.000 
#    0.000    5.625    0.000    0.000    0.000    0.000 
#    0.000    0.000    0.000    0.000    0.000    0.000 
#
# Total GULP energy -89089.661892 kJ/mol
# GULP energy per Si atom -5568.103868 kJ/mol
# Density = 1.915846 g / cm^3
# Si number density = 19.202162 Si / 1000 Ang^3
#
#
#
# Elastic Constant Matrix: (Units=GPa)
#
#
# Indices 1 2 3 4 5 6 
#
# 1 123.7451 51.4254 51.6718 -19.8546 1.2439 -4.2629
# 2 51.4254 88.2500 27.1458 -16.7859 3.9622 9.2672
# 3 51.6718 27.1458 71.7067 -16.0571 1.1055 8.8368
# 4 -19.8546 -16.7859 -16.0571 26.9073 2.0391 0.7980
# 5 1.2439 3.9622 1.1055 2.0391 35.7668 -11.6109
# 6 -4.2629 9.2672 8.8368 0.7980 -11.6109 19.2236
#
#
#
# Elastic Compliance Matrix: (Units=1/GPa)
#
#
# Indices 1 2 3 4 5 6 
#
# 1 0.016587 -0.008374 -0.011019 -0.000508 0.006065 0.016465
# 2 -0.008374 0.019179 0.003061 0.008764 -0.008218 -0.017837
# 3 -0.011019 0.003061 0.025798 0.010426 -0.008222 -0.021177
# 4 -0.000508 0.008764 0.010426 0.049713 -0.009632 -0.017011
# 5 0.006065 -0.008218 -0.008222 -0.009632 0.040478 0.033935
# 6 0.016465 -0.017837 -0.021177 -0.017011 0.033935 0.095207
#
#
# Mechanical properties :
#
#
# Convention : Reuss Voigt Hill
#
# Bulk Modulus (GPa) = 34.60147 60.46530 47.53339
# Shear Modulus (GPa) = 17.28564 26.61013 21.94788
#
# Velocity S-wave (km/s) = 3.00358 3.72666 3.38448
# Velocity P-wave (km/s) = 5.48519 7.07633 6.33095
#
# Compressibility (1/GPa) = 0.02890050
#
# Stress axis : x y z
#
# Youngs Moduli (GPa) = 60.28824 52.14122 38.76274
#
# Poissons Ratio (x) = 0.43664 0.42712
# Poissons Ratio (y) = 0.50487 -0.11867
# Poissons Ratio (z) = 0.66430 -0.15963
#
# Static dielectric constant tensor:
#      x y z
#    x 1.656970 -0.004870 0.019310 
#    y -0.004870 1.734070 -0.028480 
#    z 0.019310 -0.028480 1.709410 
# 
# From -- ./inp_files/187635.got.cif
#   From: 2010.05.17/outbox.cif.g08.bks.cpg/sg2_94_cif.got.tgz:187635.got - 2010.06.03 11:33:40.
