data_PCOD9022341
_publ_section_title
;
Structure prediction by ZEFSAII (Michael W. Deem and Ramdas Pophale) SiO2 
 PCOD9022341
Probable space group: P -1
;
_chemical_formula_sum "Si O2"
_cell_formula_units_Z 16
_cell_length_a 13.808615
_cell_length_b 7.644540
_cell_length_c 26.101535
_cell_angle_alpha 47.735395
_cell_angle_beta 152.390600
_cell_angle_gamma 113.655034
_cell_volume 777.867282
_symmetry_space_group_name_H-M "P -1"
_symmetry_group_IT_number 2
_symmetry_cell_setting 'triclinic'
loop_
_space_group_symop_operation_xyz
x,y,z
-x,-y,-z
loop_
_atom_site_type_symbol
_atom_site_label
_atom_site_fract_x
_atom_site_fract_y
_atom_site_fract_z
Si Si1 0.814506 0.123371 0.728702
Si Si2 0.987955 0.320841 0.576842
Si Si3 0.333178 0.530247 0.063197
Si Si4 0.310700 0.306591 0.822984
Si Si5 0.445437 0.756475 0.587769
Si Si6 0.710414 0.771779 0.810465
Si Si7 0.360557 0.663088 0.851404
Si Si8 0.316377 0.354191 0.383998
O O1 0.594432 0.245103 0.559272
O O2 0.865579 0.355601 0.726204
O O3 0.708941 0.049712 0.743414
O O4 0.054898 0.821108 0.881172
O O5 0.720401 0.369655 0.455791
O O6 0.000000 0.500000 0.500000
O O7 0.102159 0.337515 0.681367
O O8 0.220374 0.538121 0.780588
O O9 0.518568 0.628473 0.144695
O O10 0.391924 0.268280 0.177337
O O11 0.412564 0.416350 0.065578
O O12 0.169243 0.993846 0.707395
O O13 0.500000 0.000000 0.000000
O O14 0.573201 0.740984 0.704259
O O15 0.655968 0.609053 0.670443
O O16 0.282421 0.096221 0.428262
O O17 0.000000 0.500000 0.000000
O O18 0.500000 0.500000 0.000000
#
# Coordination Sequence:
#
# PCOD9022341 Si02
#       8
#     2   2   2   2   2   2   2   2
#     4   9  18  36  64  92 117 163 207 264 325 396
#     4  12  25  43  66  99 139 178 225 276 338 403
#     4   9  20  37  62  84 133 164 215 260 329 379
#     4  10  22  41  64  93 133 173 232 270 321 402
#     4  10  22  39  61  87 133 163 212 274 329 391
#     4   9  18  39  61  87 122 166 202 264 330 394
#     4  10  23  43  65  96 131 178 233 275 326 399
#     4   9  20  38  59  94 122 154 216 265 331 378
#
# _framework density 20.569061999999999
#
# number of rings (size 3 to 8) (size 9 to 14) (size 15 to 20)
#    0.750    1.500    1.250    0.750    3.500    2.500 
#    4.500    2.500    0.000    0.000    0.000    0.000 
#    0.000    0.000    0.000    0.000    0.000    0.000 
#
# Total GULP energy -89147.627302 kJ/mol
# GULP energy per Si atom -5571.726706 kJ/mol
# Density = 2.052225 g / cm^3
# Si number density = 20.569062 Si / 1000 Ang^3
#
#
#
# Elastic Constant Matrix: (Units=GPa)
#
#
# Indices 1 2 3 4 5 6 
#
# 1 118.2293 18.9231 14.8620 9.6629 -23.2301 -3.1296
# 2 18.9231 91.0864 17.6899 6.7990 -13.3835 -8.0071
# 3 14.8620 17.6899 46.3497 4.2350 -13.2881 -7.2486
# 4 9.6629 6.7990 4.2350 27.0807 -2.8127 5.3959
# 5 -23.2301 -13.3835 -13.2881 -2.8127 27.4523 2.1927
# 6 -3.1296 -8.0071 -7.2486 5.3959 2.1927 38.6540
#
#
#
# Elastic Compliance Matrix: (Units=1/GPa)
#
#
# Indices 1 2 3 4 5 6 
#
# 1 0.010424 -0.000650 -0.000477 -0.002767 0.007945 0.000555
# 2 -0.000650 0.012615 -0.002972 -0.002509 0.003733 0.002142
# 3 -0.000477 -0.002972 0.026798 -0.003023 0.010474 0.004199
# 4 -0.002767 -0.002509 -0.003023 0.040362 -0.000340 -0.006926
# 5 0.007945 0.003733 0.010474 -0.000340 0.049958 0.000594
# 6 0.000555 0.002142 0.004199 -0.006926 0.000594 0.028080
#
#
# Mechanical properties :
#
#
# Convention : Reuss Voigt Hill
#
# Bulk Modulus (GPa) = 24.01550 39.84614 31.93082
# Shear Modulus (GPa) = 26.27250 32.25010 29.26130
#
# Velocity S-wave (km/s) = 3.57779 3.96396 3.77581
# Velocity P-wave (km/s) = 5.36361 6.35331 5.87932
#
# Compressibility (1/GPa) = 0.04163978
#
# Stress axis : x y z
#
# Youngs Moduli (GPa) = 95.93136 79.27127 37.31634
#
# Poissons Ratio (x) = 0.05154 0.01779
# Poissons Ratio (y) = 0.06238 0.11089
# Poissons Ratio (z) = 0.04574 0.23556
#
# Static dielectric constant tensor:
#      x y z
#    x 1.818820 0.012380 0.011360 
#    y 0.012380 1.769180 -0.002940 
#    z 0.011360 -0.002940 1.719600 
# 
# From -- ./inp_files/609538.got.cif
#   From: 2010.05.17/outbox.cif.g08.bks.cpg/sg2_305_cif.got.tgz:609538.got - 2010.06.03 11:33:40.
