data_PCOD9022997
_publ_section_title
;
Structure prediction by ZEFSAII (Michael W. Deem and Ramdas Pophale) SiO2 
 PCOD9022997
Probable space group: P -1
;
_chemical_formula_sum "Si O2"
_cell_formula_units_Z 14
_cell_length_a 11.329633
_cell_length_b 10.332217
_cell_length_c 14.699238
_cell_angle_alpha 64.327304
_cell_angle_beta 156.283858
_cell_angle_gamma 119.237598
_cell_volume 603.427324
_symmetry_space_group_name_H-M "P -1"
_symmetry_group_IT_number 2
_symmetry_cell_setting 'triclinic'
loop_
_space_group_symop_operation_xyz
x,y,z
-x,-y,-z
loop_
_atom_site_type_symbol
_atom_site_label
_atom_site_fract_x
_atom_site_fract_y
_atom_site_fract_z
Si Si1 0.836616 0.236142 0.447652
Si Si2 0.337007 0.116887 0.885698
Si Si3 0.170834 0.055967 0.982177
Si Si4 0.866087 0.517539 0.756740
Si Si5 0.751925 0.416828 0.172449
Si Si6 0.070667 0.277427 0.102255
Si Si7 0.325174 0.821461 0.443122
O O1 0.886417 0.376684 0.374655
O O2 0.814986 0.248126 0.537524
O O3 0.108142 0.161173 0.641072
O O4 0.510970 0.128713 0.228102
O O5 0.565362 0.263489 0.041037
O O6 0.500000 0.000000 0.000000
O O7 0.143410 0.042275 0.858172
O O8 0.076286 0.885094 0.993685
O O9 0.967565 0.170435 0.825337
O O10 0.500000 0.500000 0.500000
O O11 0.006687 0.669254 0.867942
O O12 0.004431 0.516218 0.753714
O O13 0.975352 0.393916 0.931321
O O14 0.500000 0.500000 0.000000
O O15 0.418629 0.266167 0.364548
O O16 0.500000 0.000000 0.500000
#
# Coordination Sequence:
#
# PCOD9022997 Si02
#       7
#     2   2   2   2   2   2   2
#     4  10  22  39  65  96 127 167 214 273 331 384
#     4  10  22  40  63  93 128 164 212 267 329 393
#     4   9  20  37  62  94 122 159 211 270 328 385
#     4  11  26  42  63  93 127 175 225 267 319 390
#     4  11  25  44  67  96 132 176 222 267 326 396
#     4  10  22  40  61  88 130 170 211 268 328 384
#     4   9  19  36  60  91 125 161 207 259 319 390
#
# _framework density 23.200804999999999
#
# number of rings (size 3 to 8) (size 9 to 14) (size 15 to 20)
#    0.000    2.000    0.000    1.714    0.000   17.714 
#    0.000    0.000    0.000    0.000    0.000    0.000 
#    0.000    0.000    0.000    0.000    0.000    0.000 
#
# Total GULP energy -78033.621548 kJ/mol
# GULP energy per Si atom -5573.830111 kJ/mol
# Density = 2.314800 g / cm^3
# Si number density = 23.200805 Si / 1000 Ang^3
#
#
#
# Elastic Constant Matrix: (Units=GPa)
#
#
# Indices 1 2 3 4 5 6 
#
# 1 161.8684 52.5083 40.1078 -30.4723 0.7227 8.0228
# 2 52.5083 100.7879 56.5552 -27.6613 0.2501 -3.3372
# 3 40.1078 56.5552 104.2244 -36.6991 6.8302 -3.7356
# 4 -30.4723 -27.6613 -36.6991 50.3674 -3.3597 3.6019
# 5 0.7227 0.2501 6.8302 -3.3597 36.0227 -8.1126
# 6 8.0228 -3.3372 -3.7356 3.6019 -8.1126 36.6403
#
#
#
# Elastic Compliance Matrix: (Units=1/GPa)
#
#
# Indices 1 2 3 4 5 6 
#
# 1 0.007994 -0.003242 -0.000340 0.002960 -0.000349 -0.002448
# 2 -0.003242 0.016011 -0.006850 0.001840 0.001805 0.001688
# 3 -0.000340 -0.006850 0.016333 0.007788 -0.002355 -0.000171
# 4 0.002960 0.001840 0.007788 0.028538 0.000580 -0.002363
# 5 -0.000349 0.001805 -0.002355 0.000580 0.029725 0.006525
# 6 -0.002448 0.001688 -0.000171 -0.002363 0.006525 0.029642
#
#
# Mechanical properties :
#
#
# Convention : Reuss Voigt Hill
#
# Bulk Modulus (GPa) = 51.34932 73.91370 62.63151
# Shear Modulus (GPa) = 32.13407 39.12005 35.62706
#
# Velocity S-wave (km/s) = 3.72565 4.11073 3.92292
# Velocity P-wave (km/s) = 6.37871 7.37958 6.89732
#
# Compressibility (1/GPa) = 0.01947446
#
# Stress axis : x y z
#
# Youngs Moduli (GPa) = 125.09692 62.45646 61.22505
#
# Poissons Ratio (x) = 0.20247 0.02080
# Poissons Ratio (y) = 0.40553 0.41942
# Poissons Ratio (z) = 0.04249 0.42785
#
# Static dielectric constant tensor:
#      x y z
#    x 1.920290 0.018740 0.000790 
#    y 0.018740 1.972490 0.015130 
#    z 0.000790 0.015130 1.900010 
# 
# From -- ./inp_files/519657.got.cif
#   From: 2010.05.17/outbox.cif.g08.bks.cpg/sg2_260_cif.got.tgz:519657.got - 2010.06.03 11:33:40.
