data_PCOD9022297
_publ_section_title
;
Structure prediction by ZEFSAII (Michael W. Deem and Ramdas Pophale) SiO2 
 PCOD9022297
Probable space group: P -1
;
_chemical_formula_sum "Si O2"
_cell_formula_units_Z 16
_cell_length_a 28.159893
_cell_length_b 7.701787
_cell_length_c 10.152735
_cell_angle_alpha 134.629382
_cell_angle_beta 26.226172
_cell_angle_gamma 130.921907
_cell_volume 690.340195
_symmetry_space_group_name_H-M "P -1"
_symmetry_group_IT_number 2
_symmetry_cell_setting 'triclinic'
loop_
_space_group_symop_operation_xyz
x,y,z
-x,-y,-z
loop_
_atom_site_type_symbol
_atom_site_label
_atom_site_fract_x
_atom_site_fract_y
_atom_site_fract_z
Si Si1 0.475079 0.218574 0.384330
Si Si2 0.153059 0.536493 0.274446
Si Si3 0.300944 0.015550 0.237954
Si Si4 0.841393 0.336244 0.236804
Si Si5 0.174764 0.723314 0.048217
Si Si6 0.921495 0.751376 0.449234
Si Si7 0.700525 0.856513 0.409247
Si Si8 0.375969 0.021329 0.781068
O O1 0.500000 0.500000 0.500000
O O2 0.421842 0.174127 0.351338
O O3 0.386382 0.137485 0.673255
O O4 0.585270 0.092036 0.064749
O O5 0.209633 0.789790 0.328391
O O6 0.114184 0.602367 0.260307
O O7 0.075443 0.394675 0.497757
O O8 0.240634 0.342349 0.925500
O O9 0.278680 0.176474 0.505350
O O10 0.322837 0.134696 0.103030
O O11 0.851037 0.567788 0.431525
O O12 0.750670 0.128482 0.393771
O O13 0.827752 0.403904 0.154270
O O14 0.957809 0.221218 0.893736
O O15 0.129522 0.990335 0.277899
O O16 0.298402 0.776398 0.819855
O O17 0.500000 0.000000 0.500000
#
# Coordination Sequence:
#
# PCOD9022297 Si02
#       8
#     2   2   2   2   2   2   2   2
#     4  11  20  37  65  91 121 171 216 259 324 381
#     4  11  23  40  67  93 132 168 212 267 322 384
#     4  10  22  39  60  92 128 168 213 262 322 378
#     4  11  24  43  69  95 130 168 221 269 324 385
#     4  11  23  42  68  96 129 174 213 266 327 387
#     4  11  24  46  66  96 130 171 215 277 324 375
#     4  12  22  40  64  94 128 171 216 266 317 389
#     4   9  20  38  62  86 129 164 203 263 310 373
#
# _framework density 23.176978999999999
#
# number of rings (size 3 to 8) (size 9 to 14) (size 15 to 20)
#    0.000    1.250    5.000    0.750    0.000    2.500 
#    0.000    1.875    0.000    0.000    0.000    0.000 
#    0.000    0.000    0.000    0.000    0.000    0.000 
#
# Total GULP energy -89412.860235 kJ/mol
# GULP energy per Si atom -5588.303765 kJ/mol
# Density = 2.312423 g / cm^3
# Si number density = 23.176979 Si / 1000 Ang^3
#
#
#
# Elastic Constant Matrix: (Units=GPa)
#
#
# Indices 1 2 3 4 5 6 
#
# 1 104.4012 25.0194 -5.0498 4.0755 24.8860 0.7596
# 2 25.0194 67.2261 9.9259 -7.5662 0.2193 6.9035
# 3 -5.0498 9.9259 42.2408 -5.0630 9.4686 -1.6112
# 4 4.0755 -7.5662 -5.0630 27.4197 5.4515 3.0715
# 5 24.8860 0.2193 9.4686 5.4515 43.3279 -2.5821
# 6 0.7596 6.9035 -1.6112 3.0715 -2.5821 37.3512
#
#
#
# Elastic Compliance Matrix: (Units=1/GPa)
#
#
# Indices 1 2 3 4 5 6 
#
# 1 0.013240 -0.005769 0.004723 -0.001066 -0.008443 0.000505
# 2 -0.005769 0.018732 -0.005475 0.004716 0.003600 -0.003720
# 3 0.004723 -0.005475 0.028240 0.004746 -0.009388 0.001095
# 4 -0.001066 0.004716 0.004746 0.040449 -0.005799 -0.004372
# 5 -0.008443 0.003600 -0.009388 -0.005799 0.030794 0.001707
# 6 0.000505 -0.003720 0.001095 -0.004372 0.001707 0.027975
#
#
# Mechanical properties :
#
#
# Convention : Reuss Voigt Hill
#
# Bulk Modulus (GPa) = 21.20046 30.40656 25.80351
# Shear Modulus (GPa) = 26.56822 33.88461 30.22642
#
# Velocity S-wave (km/s) = 3.38941 3.82775 3.61523
# Velocity P-wave (km/s) = 4.94818 5.71694 5.34639
#
# Compressibility (1/GPa) = 0.04716878
#
# Stress axis : x y z
#
# Youngs Moduli (GPa) = 75.52926 53.38561 35.41099
#
# Poissons Ratio (x) = 0.30798 -0.16723
# Poissons Ratio (y) = 0.43573 0.19387
# Poissons Ratio (z) = -0.35669 0.29228
#
# Static dielectric constant tensor:
#      x y z
#    x 1.909910 -0.029680 0.036320 
#    y -0.029680 1.968490 -0.138330 
#    z 0.036320 -0.138330 1.983130 
# 
# From -- ./inp_files/299763.got.cif
#   From: 2010.05.17/outbox.cif.g08.bks.cpg/sg2_150_cif.got.tgz:299763.got - 2010.06.03 11:33:40.
