data_PCOD9022827
_publ_section_title
;
Structure prediction by ZEFSAII (Michael W. Deem and Ramdas Pophale) SiO2 
 PCOD9022827
Probable space group: P -1
;
_chemical_formula_sum "Si O2"
_cell_formula_units_Z 14
_cell_length_a 9.740050
_cell_length_b 9.140499
_cell_length_c 12.138199
_cell_angle_alpha 129.791897
_cell_angle_beta 57.037442
_cell_angle_gamma 89.177915
_cell_volume 576.064630
_symmetry_space_group_name_H-M "P -1"
_symmetry_group_IT_number 2
_symmetry_cell_setting 'triclinic'
loop_
_space_group_symop_operation_xyz
x,y,z
-x,-y,-z
loop_
_atom_site_type_symbol
_atom_site_label
_atom_site_fract_x
_atom_site_fract_y
_atom_site_fract_z
Si Si1 0.455576 0.379809 0.559207
Si Si2 0.601716 0.029199 0.632665
Si Si3 0.203890 0.799951 0.500186
Si Si4 0.939978 0.716429 0.704062
Si Si5 0.334752 0.354339 0.084982
Si Si6 0.054008 0.760210 0.901257
Si Si7 0.181417 0.361263 0.935608
O O1 0.500000 0.500000 0.500000
O O2 0.400695 0.196712 0.465096
O O3 0.644333 0.268603 0.500101
O O4 0.253134 0.600145 0.804666
O O5 0.785401 0.016419 0.490356
O O6 0.538869 0.168070 0.843565
O O7 0.408263 0.206946 0.725843
O O8 0.997576 0.861566 0.674324
O O9 0.302089 0.562714 0.272005
O O10 0.072352 0.635886 0.717947
O O11 0.000000 0.500000 0.500000
O O12 0.730435 0.788696 0.883287
O O13 0.190293 0.478331 0.100574
O O14 0.866695 0.811614 0.074406
O O15 0.000000 0.000000 0.000000
O O16 0.000000 0.500000 0.000000
#
# Coordination Sequence:
#
# PCOD9022827 Si02
#       7
#     2   2   2   2   2   2   2
#     4  12  24  38  62  97 127 164 212 264 316 368
#     4  10  22  39  64  94 129 162 208 262 318 361
#     4  11  20  38  64  96 130 161 207 265 312 365
#     4   9  19  37  62  87 122 167 202 252 309 371
#     4   8  20  38  65  90 128 172 208 247 315 378
#     4  11  22  41  62  85 121 165 215 252 308 383
#     4   9  19  37  64  86 121 161 209 248 303 370
#
# _framework density 24.30283
#
# number of rings (size 3 to 8) (size 9 to 14) (size 15 to 20)
#    0.857    1.143    1.429    2.571    0.000    0.000 
#    0.000    2.143    0.000    3.429    0.000    0.000 
#    0.000    0.000    0.000    0.000    0.000    0.000 
#
# Total GULP energy -77983.290296 kJ/mol
# GULP energy per Si atom -5570.235021 kJ/mol
# Density = 2.424752 g / cm^3
# Si number density = 24.302830 Si / 1000 Ang^3
#
#
#
# Elastic Constant Matrix: (Units=GPa)
#
#
# Indices 1 2 3 4 5 6 
#
# 1 39.3671 24.7032 34.9990 6.2889 10.4315 12.0442
# 2 24.7032 149.0173 40.1057 -14.5446 3.5304 36.7383
# 3 34.9990 40.1057 91.6525 -6.9990 15.5254 -6.5455
# 4 6.2889 -14.5446 -6.9990 44.6613 10.7642 -12.2193
# 5 10.4315 3.5304 15.5254 10.7642 35.1157 -6.5440
# 6 12.0442 36.7383 -6.5455 -12.2193 -6.5440 32.3837
#
#
#
# Elastic Compliance Matrix: (Units=1/GPa)
#
#
# Indices 1 2 3 4 5 6 
#
# 1 0.082887 0.010713 -0.041515 -0.029934 -0.010233 -0.064735
# 2 0.010713 0.013631 -0.011766 -0.004964 -0.002334 -0.024171
# 3 -0.041515 -0.011766 0.036647 0.019828 -0.000650 0.043546
# 4 -0.029934 -0.004964 0.019828 0.038667 -0.004819 0.034388
# 5 -0.010233 -0.002334 -0.000650 -0.004819 0.035700 0.011718
# 6 -0.064735 -0.024171 0.043546 0.034388 0.011718 0.106523
#
#
# Mechanical properties :
#
#
# Convention : Reuss Voigt Hill
#
# Bulk Modulus (GPa) = 20.82087 53.29474 37.05780
# Shear Modulus (GPa) = 12.04243 34.44739 23.24491
#
# Velocity S-wave (km/s) = 2.22843 3.76895 3.09604
# Velocity P-wave (km/s) = 3.89962 6.39664 5.29736
#
# Compressibility (1/GPa) = 0.04802874
#
# Stress axis : x y z
#
# Youngs Moduli (GPa) = 12.06467 73.36134 27.28766
#
# Poissons Ratio (x) = -0.78592 1.13285
# Poissons Ratio (y) = -0.12925 0.32106
# Poissons Ratio (z) = 0.50087 0.86315
#
# Static dielectric constant tensor:
#      x y z
#    x 1.979980 0.063920 -0.007320 
#    y 0.063920 1.997040 -0.044470 
#    z -0.007320 -0.044470 1.942950 
# 
# From -- ./inp_files/418364.got.cif
#   From: 2010.05.17/outbox.cif.g08.bks.cpg/sg2_210_cif.got.tgz:418364.got - 2010.06.03 11:33:40.
