data_PCOD9022264
_publ_section_title
;
Structure prediction by ZEFSAII (Michael W. Deem and Ramdas Pophale) SiO2 
 PCOD9022264
Probable space group: P -1
;
_chemical_formula_sum "Si O2"
_cell_formula_units_Z 16
_cell_length_a 12.306366
_cell_length_b 21.394961
_cell_length_c 7.766015
_cell_angle_alpha 130.208758
_cell_angle_beta 138.073134
_cell_angle_gamma 31.146579
_cell_volume 706.440228
_symmetry_space_group_name_H-M "P -1"
_symmetry_group_IT_number 2
_symmetry_cell_setting 'triclinic'
loop_
_space_group_symop_operation_xyz
x,y,z
-x,-y,-z
loop_
_atom_site_type_symbol
_atom_site_label
_atom_site_fract_x
_atom_site_fract_y
_atom_site_fract_z
Si Si1 0.096467 0.372956 0.860670
Si Si2 0.737707 0.370418 0.974267
Si Si3 0.822191 0.881886 0.920839
Si Si4 0.020581 0.120587 0.537637
Si Si5 0.454195 0.871741 0.421294
Si Si6 0.901173 0.622910 0.543767
Si Si7 0.640304 0.131486 0.079713
Si Si8 0.751389 0.365557 0.599530
O O1 0.085725 0.367256 0.629731
O O2 0.935687 0.368229 0.766652
O O3 0.369757 0.255436 0.031055
O O4 0.000000 0.500000 0.000000
O O5 0.687915 0.356868 0.701801
O O6 0.907024 0.242208 0.044189
O O7 0.500000 0.500000 0.000000
O O8 0.923585 0.375069 0.166950
O O9 0.855754 0.872106 0.151154
O O10 0.720547 0.008819 0.989184
O O11 0.637460 0.881700 0.634356
O O12 0.825726 0.125441 0.372632
O O13 0.880517 0.235481 0.450878
O O14 0.230543 0.990985 0.468467
O O15 0.627118 0.741718 0.485461
O O16 0.363470 0.864460 0.125746
O O17 0.000000 0.500000 0.500000
O O18 0.500000 0.500000 0.500000
#
# Coordination Sequence:
#
# PCOD9022264 Si02
#       8
#     2   2   2   2   2   2   2   2
#     4  11  23  40  62  89 123 166 209 255 308 371
#     4  10  22  39  60  89 121 158 204 252 306 363
#     4  10  22  40  61  88 121 162 206 252 310 370
#     4  11  23  39  61  92 124 160 206 259 311 366
#     4  10  22  40  61  88 121 162 206 252 310 370
#     4  10  22  39  60  89 121 158 204 252 306 363
#     4  11  23  39  61  92 124 160 206 259 311 366
#     4  11  23  40  62  89 123 166 209 255 308 371
#
# _framework density 22.648765000000001
#
# number of rings (size 3 to 8) (size 9 to 14) (size 15 to 20)
#    0.000    1.500    0.000    4.500    0.000    9.000 
#    0.000    0.000    0.000    0.000    0.000    0.000 
#    0.000    0.000    0.000    0.000    0.000    0.000 
#
# Total GULP energy -89215.064350 kJ/mol
# GULP energy per Si atom -5575.941522 kJ/mol
# Density = 2.259722 g / cm^3
# Si number density = 22.648765 Si / 1000 Ang^3
#
#
#
# Elastic Constant Matrix: (Units=GPa)
#
#
# Indices 1 2 3 4 5 6 
#
# 1 50.8218 43.7811 6.5003 -7.5974 4.7536 -8.7799
# 2 43.7811 249.7649 13.2541 -11.7553 22.6887 -0.9385
# 3 6.5003 13.2541 55.0725 4.9083 5.6908 -3.3257
# 4 -7.5974 -11.7553 4.9083 41.8787 0.3304 8.1688
# 5 4.7536 22.6887 5.6908 0.3304 27.6154 3.3355
# 6 -8.7799 -0.9385 -3.3257 8.1688 3.3355 48.4014
#
#
#
# Elastic Compliance Matrix: (Units=1/GPa)
#
#
# Indices 1 2 3 4 5 6 
#
# 1 0.024503 -0.003951 -0.001847 0.002812 -0.001088 0.003842
# 2 -0.003951 0.005066 -0.000526 0.000906 -0.003314 -0.000579
# 3 -0.001847 -0.000526 0.019228 -0.003046 -0.003384 0.001723
# 4 0.002812 0.000906 -0.003046 0.025784 -0.000425 -0.004004
# 5 -0.001088 -0.003314 -0.003384 -0.000425 0.040210 -0.003193
# 6 0.003842 -0.000579 0.001723 -0.004004 -0.003193 0.022360
#
#
# Mechanical properties :
#
#
# Convention : Reuss Voigt Hill
#
# Bulk Modulus (GPa) = 27.66496 53.63669 40.65083
# Shear Modulus (GPa) = 30.89293 43.05402 36.97348
#
# Velocity S-wave (km/s) = 3.69724 4.36471 4.04477
# Velocity P-wave (km/s) = 5.51973 7.00959 6.30879
#
# Compressibility (1/GPa) = 0.03614681
#
# Stress axis : x y z
#
# Youngs Moduli (GPa) = 40.81190 197.39995 52.00832
#
# Poissons Ratio (x) = 0.78000 0.09607
# Poissons Ratio (y) = 0.16126 0.02736
# Poissons Ratio (z) = 0.07539 0.10384
#
# Static dielectric constant tensor:
#      x y z
#    x 1.864860 -0.007690 -0.067820 
#    y -0.007690 1.993580 -0.002200 
#    z -0.067820 -0.002200 1.870740 
# 
# From -- ./inp_files/278747.got.cif
#   From: 2010.05.17/outbox.cif.g08.bks.cpg/sg2_140_cif.got.tgz:278747.got - 2010.06.03 11:33:40.
