data_PCOD9022214
_publ_section_title
;
Structure prediction by ZEFSAII (Michael W. Deem and Ramdas Pophale) SiO2 
 PCOD9022214
Probable space group: P -1
;
_chemical_formula_sum "Si O2"
_cell_formula_units_Z 14
_cell_length_a 7.032135
_cell_length_b 10.582664
_cell_length_c 14.895287
_cell_angle_alpha 134.949586
_cell_angle_beta 134.563964
_cell_angle_gamma 57.863581
_cell_volume 557.495383
_symmetry_space_group_name_H-M "P -1"
_symmetry_group_IT_number 2
_symmetry_cell_setting 'triclinic'
loop_
_space_group_symop_operation_xyz
x,y,z
-x,-y,-z
loop_
_atom_site_type_symbol
_atom_site_label
_atom_site_fract_x
_atom_site_fract_y
_atom_site_fract_z
Si Si1 0.702495 0.885650 0.891209
Si Si2 0.931222 0.458192 0.100669
Si Si3 0.234189 0.787957 0.813284
Si Si4 0.563534 0.563418 0.199774
Si Si5 0.675714 0.107345 0.381580
Si Si6 0.119442 0.828942 0.332295
Si Si7 0.874008 0.798855 0.545707
O O1 0.418266 0.879826 0.847060
O O2 0.605151 0.884401 0.756227
O O3 0.879075 0.712122 0.893767
O O4 0.823004 0.066432 0.054889
O O5 0.786286 0.532920 0.180413
O O6 0.081356 0.625041 0.195011
O O7 0.707888 0.404299 0.929718
O O8 0.408385 0.623279 0.831175
O O9 0.982480 0.729579 0.642891
O O10 0.638113 0.710540 0.371046
O O11 0.676668 0.155102 0.509658
O O12 0.876167 0.231726 0.457634
O O13 0.831957 0.912254 0.320722
O O14 0.168677 0.984316 0.355201
#
# Coordination Sequence:
#
# PCOD9022214 Si02
#       7
#     2   2   2   2   2   2   2
#     4  10  22  39  59  91 115 157 206 237 285 352
#     4  11  23  37  62  92 118 152 199 248 289 348
#     4  10  22  40  62  82 120 160 195 242 293 354
#     4  11  22  39  61  89 124 152 190 247 308 339
#     4   8  15  32  61  82 112 147 197 239 280 334
#     4   9  16  35  61  87 110 155 195 238 283 349
#     4   9  18  37  63  84 114 158 195 236 294 353
#
# _framework density 25.112316
#
# number of rings (size 3 to 8) (size 9 to 14) (size 15 to 20)
#    0.857    1.429    1.429    1.286    2.000    2.857 
#    0.000    0.714    0.000    0.000    0.000    0.000 
#    0.000    0.000    0.000    0.000    0.000    0.000 
#
# Total GULP energy -78319.942738 kJ/mol
# GULP energy per Si atom -5594.281624 kJ/mol
# Density = 2.505516 g / cm^3
# Si number density = 25.112316 Si / 1000 Ang^3
#
#
#
# Elastic Constant Matrix: (Units=GPa)
#
#
# Indices 1 2 3 4 5 6 
#
# 1 65.7149 2.1573 15.6129 -6.2619 -13.0399 -5.0079
# 2 2.1573 120.0071 92.1187 -17.0991 -14.7281 -23.2737
# 3 15.6129 92.1187 181.3234 -32.4362 -4.4157 -18.3191
# 4 -6.2619 -17.0991 -32.4362 51.7684 5.6059 -3.6358
# 5 -13.0399 -14.7281 -4.4157 5.6059 33.7435 1.9539
# 6 -5.0079 -23.2737 -18.3191 -3.6358 1.9539 27.3938
#
#
#
# Elastic Compliance Matrix: (Units=1/GPa)
#
#
# Indices 1 2 3 4 5 6 
#
# 1 0.017622 0.003483 -0.002467 0.001209 0.007566 0.004151
# 2 0.003483 0.016985 -0.007564 0.001212 0.007008 0.009669
# 3 -0.002467 -0.007564 0.010299 0.004107 -0.003637 0.000814
# 4 0.001209 0.001212 0.004107 0.023245 -0.002750 0.007278
# 5 0.007566 0.007008 -0.003637 -0.002750 0.035482 0.002009
# 6 0.004151 0.009669 0.000814 0.007278 0.002009 0.046846
#
#
# Mechanical properties :
#
#
# Convention : Reuss Voigt Hill
#
# Bulk Modulus (GPa) = 31.43845 65.20257 48.32051
# Shear Modulus (GPa) = 28.70620 39.72491 34.21556
#
# Velocity S-wave (km/s) = 3.38466 3.98161 3.69521
# Velocity P-wave (km/s) = 5.27455 6.86720 6.12288
#
# Compressibility (1/GPa) = 0.03180819
#
# Stress axis : x y z
#
# Youngs Moduli (GPa) = 56.74781 58.87661 97.09974
#
# Poissons Ratio (x) = -0.20504 0.23952
# Poissons Ratio (y) = -0.19763 0.73449
# Poissons Ratio (z) = 0.13998 0.44536
#
# Static dielectric constant tensor:
#      x y z
#    x 2.097080 -0.028900 0.043380 
#    y -0.028900 1.911090 0.003080 
#    z 0.043380 0.003080 1.955440 
# 
# From -- ./inp_files/560084.got.cif
#   From: 2010.05.17/outbox.cif.g08.bks.cpg/sg2_281_cif.got.tgz:560084.got - 2010.06.03 11:33:40.
