data_PCOD9022955
_publ_section_title
;
Structure prediction by ZEFSAII (Michael W. Deem and Ramdas Pophale) SiO2 
 PCOD9022955
Probable space group: P -1
;
_chemical_formula_sum "Si O2"
_cell_formula_units_Z 16
_cell_length_a 5.170320
_cell_length_b 11.992238
_cell_length_c 13.181670
_cell_angle_alpha 68.743614
_cell_angle_beta 84.851902
_cell_angle_gamma 98.762103
_cell_volume 743.437942
_symmetry_space_group_name_H-M "P -1"
_symmetry_group_IT_number 2
_symmetry_cell_setting 'triclinic'
loop_
_space_group_symop_operation_xyz
x,y,z
-x,-y,-z
loop_
_atom_site_type_symbol
_atom_site_label
_atom_site_fract_x
_atom_site_fract_y
_atom_site_fract_z
Si Si1 0.687070 0.210592 0.726400
Si Si2 0.183280 0.876921 0.455067
Si Si3 0.365407 0.149111 0.403112
Si Si4 0.134521 0.487506 0.890988
Si Si5 0.679899 0.983565 0.095657
Si Si6 0.718630 0.479483 0.576916
Si Si7 0.973855 0.206817 0.931880
Si Si8 0.707181 0.603417 0.752288
O O1 0.853713 0.189513 0.629602
O O2 0.468013 0.086046 0.781182
O O3 0.620772 0.341419 0.666028
O O4 0.807605 0.219248 0.831897
O O5 0.366834 0.821023 0.548030
O O6 0.890385 0.870400 0.508906
O O7 0.338103 0.017457 0.394897
O O8 0.321548 0.255944 0.294382
O O9 0.446781 0.536011 0.845102
O O10 0.089644 0.343346 0.915417
O O11 0.967633 0.562640 0.800529
O O12 0.000000 0.500000 0.000000
O O13 0.840996 0.883321 0.084095
O O14 0.500000 0.000000 0.000000
O O15 0.830309 0.123144 0.057138
O O16 0.500000 0.500000 0.500000
O O17 0.712508 0.564695 0.646693
O O18 0.000000 0.500000 0.500000
#
# Coordination Sequence:
#
# PCOD9022955 Si02
#       8
#     2   2   2   2   2   2   2   2
#     4  11  22  38  65  93 129 164 215 267 335 390
#     4  10  22  39  65  93 127 171 208 270 323 392
#     4  10  22  43  62  91 132 168 217 261 325 393
#     4  12  27  46  69  95 132 182 227 279 339 398
#     4   9  21  40  65  94 124 166 209 276 340 386
#     4  12  25  39  66 103 135 176 217 267 335 408
#     4  10  22  43  64  93 131 164 220 283 334 399
#     4  12  24  46  67  95 137 177 222 280 330 403
#
# _framework density 21.521636999999998
#
# number of rings (size 3 to 8) (size 9 to 14) (size 15 to 20)
#    0.000    1.250    1.250    4.125    5.250    1.000 
#    6.750    0.000    0.000    0.000    0.000    0.000 
#    0.000    0.000    0.000    0.000    0.000    0.000 
#
# Total GULP energy -89222.614219 kJ/mol
# GULP energy per Si atom -5576.413389 kJ/mol
# Density = 2.147265 g / cm^3
# Si number density = 21.521637 Si / 1000 Ang^3
#
#
#
# Elastic Constant Matrix: (Units=GPa)
#
#
# Indices 1 2 3 4 5 6 
#
# 1 56.7397 -18.0161 11.1330 -4.6554 5.0171 -19.2702
# 2 -18.0161 68.1057 24.4470 -28.0380 4.1348 -5.6953
# 3 11.1330 24.4470 69.5663 -21.9551 13.4071 -7.4602
# 4 -4.6554 -28.0380 -21.9551 51.7431 -12.5891 5.6389
# 5 5.0171 4.1348 13.4071 -12.5891 30.0533 -7.5821
# 6 -19.2702 -5.6953 -7.4602 5.6389 -7.5821 20.9688
#
#
#
# Elastic Compliance Matrix: (Units=1/GPa)
#
#
# Indices 1 2 3 4 5 6 
#
# 1 0.037840 0.018708 -0.007458 0.008051 0.007315 0.037683
# 2 0.018708 0.029565 -0.008226 0.013740 0.007623 0.021358
# 3 -0.007458 -0.008226 0.019937 0.002213 -0.006871 -0.005074
# 4 0.008051 0.013740 0.002213 0.030118 0.010298 0.007542
# 5 0.007315 0.007623 -0.006871 0.010298 0.043230 0.019211
# 6 0.037683 0.021358 -0.005074 0.007542 0.019211 0.091234
#
#
# Mechanical properties :
#
#
# Convention : Reuss Voigt Hill
#
# Bulk Modulus (GPa) = 10.70780 25.50440 18.10610
# Shear Modulus (GPa) = 18.05022 32.34289 25.19656
#
# Velocity S-wave (km/s) = 2.89918 3.88081 3.42534
# Velocity P-wave (km/s) = 4.02407 5.65307 4.90665
#
# Compressibility (1/GPa) = 0.09338987
#
# Stress axis : x y z
#
# Youngs Moduli (GPa) = 26.42733 33.82434 50.15699
#
# Poissons Ratio (x) = -0.63279 0.37408
# Poissons Ratio (y) = -0.49441 0.41259
# Poissons Ratio (z) = 0.19710 0.27824
#
# Static dielectric constant tensor:
#      x y z
#    x 1.846670 0.057720 -0.051420 
#    y 0.057720 1.779470 0.039290 
#    z -0.051420 0.039290 1.829690 
# 
# From -- ./inp_files/363851.got.cif
#   From: 2010.05.17/outbox.cif.g08.bks.cpg/sg2_182_cif.got.tgz:363851.got - 2010.06.03 11:33:40.
