data_PCOD9022043
_publ_section_title
;
Structure prediction by ZEFSAII (Michael W. Deem and Ramdas Pophale) SiO2 
 PCOD9022043
Probable space group: P -1
;
_chemical_formula_sum "Si O2"
_cell_formula_units_Z 14
_cell_length_a 5.494514
_cell_length_b 15.012415
_cell_length_c 24.019914
_cell_angle_alpha 158.839664
_cell_angle_beta 86.235895
_cell_angle_gamma 84.126298
_cell_volume 635.850624
_symmetry_space_group_name_H-M "P -1"
_symmetry_group_IT_number 2
_symmetry_cell_setting 'triclinic'
loop_
_space_group_symop_operation_xyz
x,y,z
-x,-y,-z
loop_
_atom_site_type_symbol
_atom_site_label
_atom_site_fract_x
_atom_site_fract_y
_atom_site_fract_z
Si Si1 0.299101 0.467090 0.134327
Si Si2 0.624868 0.142358 0.412848
Si Si3 0.745761 0.833872 0.941045
Si Si4 0.858127 0.466059 0.546716
Si Si5 0.102635 0.715079 0.763856
Si Si6 0.362137 0.184557 0.665670
Si Si7 0.558900 0.905951 0.731698
O O1 0.331727 0.364366 0.137539
O O2 0.461545 0.647502 0.229029
O O3 0.967153 0.626673 0.226391
O O4 0.438820 0.194338 0.934463
O O5 0.839171 0.268430 0.479955
O O6 0.348723 0.421170 0.579564
O O7 0.617957 0.027656 0.284044
O O8 0.628619 0.977384 0.371517
O O9 0.002356 0.700316 0.818724
O O10 0.500000 0.000000 0.000000
O O11 0.815685 0.038351 0.096901
O O12 0.586608 0.649189 0.621038
O O13 0.893144 0.715291 0.721205
O O14 0.118093 0.245310 0.379315
O O15 0.500000 0.000000 0.500000
#
# Coordination Sequence:
#
# PCOD9022043 Si02
#       7
#     2   2   2   2   2   2   2
#     4  12  29  48  75 106 147 190 248 302 359 434
#     4  11  24  44  71  98 144 194 240 295 358 431
#     4  11  24  40  69 104 142 182 238 305 373 429
#     4  10  22  42  73 108 148 180 238 299 375 430
#     4  10  22  38  69 104 138 182 237 296 375 431
#     4  12  31  51  75 103 147 198 249 299 359 432
#     4  10  24  43  73 107 144 186 240 301 368 429
#
# _framework density 22.017748999999998
#
# number of rings (size 3 to 8) (size 9 to 14) (size 15 to 20)
#    0.000    1.143    0.000    4.286   16.000    2.286 
#    0.000    0.000    0.000    0.000    0.000    0.000 
#    0.000    0.000    0.000    0.000    0.000    0.000 
#
# Total GULP energy -78048.374628 kJ/mol
# GULP energy per Si atom -5574.883902 kJ/mol
# Density = 2.196764 g / cm^3
# Si number density = 22.017749 Si / 1000 Ang^3
#
#
#
# Elastic Constant Matrix: (Units=GPa)
#
#
# Indices 1 2 3 4 5 6 
#
# 1 104.4623 41.7388 56.8244 -1.4715 11.9847 10.8450
# 2 41.7388 154.7413 36.2258 15.7743 9.1660 17.9094
# 3 56.8244 36.2258 117.1587 -17.9064 4.7065 1.7235
# 4 -1.4715 15.7743 -17.9064 32.8295 0.4574 6.4982
# 5 11.9847 9.1660 4.7065 0.4574 28.0743 7.2463
# 6 10.8450 17.9094 1.7235 6.4982 7.2463 32.3879
#
#
#
# Elastic Compliance Matrix: (Units=1/GPa)
#
#
# Indices 1 2 3 4 5 6 
#
# 1 0.014488 -0.001709 -0.006549 -0.001578 -0.003891 -0.002371
# 2 -0.001709 0.008353 -0.002423 -0.004853 -0.000798 -0.002765
# 3 -0.006549 -0.002423 0.013649 0.008110 0.000915 0.000974
# 4 -0.001578 -0.004853 0.008110 0.038159 0.001629 -0.005240
# 5 -0.003891 -0.000798 0.000915 0.001629 0.039277 -0.007419
# 6 -0.002371 -0.002765 0.000974 -0.005240 -0.007419 0.035858
#
#
# Mechanical properties :
#
#
# Convention : Reuss Voigt Hill
#
# Bulk Modulus (GPa) = 66.09718 71.77114 68.93416
# Shear Modulus (GPa) = 28.37880 34.76322 31.57101
#
# Velocity S-wave (km/s) = 3.59403 3.97781 3.79078
# Velocity P-wave (km/s) = 6.87807 7.33247 7.10890
#
# Compressibility (1/GPa) = 0.01512924
#
# Stress axis : x y z
#
# Youngs Moduli (GPa) = 69.02102 119.72304 73.26496
#
# Poissons Ratio (x) = 0.20463 0.47978
# Poissons Ratio (y) = 0.11797 0.17749
# Poissons Ratio (z) = 0.45199 0.29004
#
# Static dielectric constant tensor:
#      x y z
#    x 2.075880 0.104920 -0.029200 
#    y 0.104920 1.877720 -0.019240 
#    z -0.029200 -0.019240 1.760640 
# 
# From -- ./inp_files/101067.got.cif
#   From: 2010.05.17/outbox.cif.g08.bks.cpg/sg2_51_cif.got.tgz:101067.got - 2010.06.03 11:33:40.
