data_PCOD9022174
_publ_section_title
;
Structure prediction by ZEFSAII (Michael W. Deem and Ramdas Pophale) SiO2 
 PCOD9022174
Probable space group: P -1
;
_chemical_formula_sum "Si O2"
_cell_formula_units_Z 16
_cell_length_a 24.542835
_cell_length_b 12.459427
_cell_length_c 8.773305
_cell_angle_alpha 45.762061
_cell_angle_beta 146.576574
_cell_angle_gamma 151.315369
_cell_volume 703.212794
_symmetry_space_group_name_H-M "P -1"
_symmetry_group_IT_number 2
_symmetry_cell_setting 'triclinic'
loop_
_space_group_symop_operation_xyz
x,y,z
-x,-y,-z
loop_
_atom_site_type_symbol
_atom_site_label
_atom_site_fract_x
_atom_site_fract_y
_atom_site_fract_z
Si Si1 0.639159 0.549461 0.254802
Si Si2 0.947334 0.531541 0.200047
Si Si3 0.109014 0.030857 0.115489
Si Si4 0.336863 0.762691 0.987373
Si Si5 0.609541 0.511802 0.564084
Si Si6 0.578256 0.161078 0.373733
Si Si7 0.187905 0.732779 0.363629
Si Si8 0.740517 0.838045 0.949712
O O1 0.668236 0.536645 0.507400
O O2 0.593214 0.353465 0.245913
O O3 0.500000 0.500000 0.000000
O O4 0.757013 0.782054 0.208554
O O5 0.013728 0.529947 0.205036
O O6 0.000000 0.500000 0.500000
O O7 0.032140 0.784693 0.162130
O O8 0.775835 0.356284 0.012917
O O9 0.275983 0.228653 0.377707
O O10 0.150484 0.126114 0.946262
O O11 0.000000 0.000000 0.000000
O O12 0.369878 0.624091 0.166499
O O13 0.480575 0.005566 0.152585
O O14 0.267470 0.768322 0.673243
O O15 0.437456 0.369740 0.302326
O O16 0.741686 0.284436 0.590077
O O17 0.500000 0.000000 0.500000
O O18 0.226024 0.947700 0.196797
#
# Coordination Sequence:
#
# PCOD9022174 Si02
#       8
#     2   2   2   2   2   2   2   2
#     4  10  23  40  59  88 125 156 192 246 297 354
#     4   9  21  39  58  87 123 151 194 248 294 348
#     4  11  22  36  63  88 120 158 197 246 298 347
#     4  11  21  38  66  90 117 154 201 249 293 350
#     4  11  21  39  61  90 120 155 201 243 297 351
#     4  12  22  38  63  90 119 158 198 241 299 352
#     4  10  22  39  62  90 117 155 200 247 295 352
#     4  10  22  39  58  91 122 153 198 248 295 352
#
# _framework density 22.752714000000001
#
# number of rings (size 3 to 8) (size 9 to 14) (size 15 to 20)
#    0.000    1.500    3.750    1.500    1.750    6.000 
#    0.000    1.250    0.000    0.000    0.000    0.000 
#    0.000    0.000    0.000    0.000    0.000    0.000 
#
# Total GULP energy -89213.689551 kJ/mol
# GULP energy per Si atom -5575.855597 kJ/mol
# Density = 2.270093 g / cm^3
# Si number density = 22.752714 Si / 1000 Ang^3
#
#
#
# Elastic Constant Matrix: (Units=GPa)
#
#
# Indices 1 2 3 4 5 6 
#
# 1 165.9597 34.5353 13.8748 -14.0305 29.2119 36.5970
# 2 34.5353 72.0520 14.4299 -6.8755 3.8636 19.3863
# 3 13.8748 14.4299 59.9162 -14.9671 -1.9026 6.6316
# 4 -14.0305 -6.8755 -14.9671 35.9239 7.0326 -3.1303
# 5 29.2119 3.8636 -1.9026 7.0326 29.0560 -1.4864
# 6 36.5970 19.3863 6.6316 -3.1303 -1.4864 40.9768
#
#
#
# Elastic Compliance Matrix: (Units=1/GPa)
#
#
# Indices 1 2 3 4 5 6 
#
# 1 0.011144 -0.001601 -0.000163 0.005692 -0.012850 -0.009201
# 2 -0.001601 0.017054 -0.002797 0.001222 -0.001451 -0.006145
# 3 -0.000163 -0.002797 0.019366 0.007381 -0.000039 -0.001103
# 4 0.005692 0.001222 0.007381 0.035763 -0.014295 -0.004643
# 5 -0.012850 -0.001451 -0.000039 -0.014295 0.051649 0.012951
# 6 -0.009201 -0.006145 -0.001103 -0.004643 0.012951 0.035822
#
#
# Mechanical properties :
#
#
# Convention : Reuss Voigt Hill
#
# Bulk Modulus (GPa) = 26.01322 47.06755 36.54039
# Shear Modulus (GPa) = 25.94240 36.86387 31.40314
#
# Velocity S-wave (km/s) = 3.38033 4.02953 3.71913
# Velocity P-wave (km/s) = 5.16656 6.51007 5.87683
#
# Compressibility (1/GPa) = 0.03844200
#
# Stress axis : x y z
#
# Youngs Moduli (GPa) = 89.73108 58.63609 51.63702
#
# Poissons Ratio (x) = 0.09389 0.00841
# Poissons Ratio (y) = 0.14368 0.14444
# Poissons Ratio (z) = 0.01462 0.16402
#
# Static dielectric constant tensor:
#      x y z
#    x 1.940560 0.031680 -0.018650 
#    y 0.031680 1.821820 0.024810 
#    z -0.018650 0.024810 1.868560 
# 
# From -- ./inp_files/321020.got.cif
#   From: 2010.05.17/outbox.cif.g08.bks.cpg/sg2_161_cif.got.tgz:321020.got - 2010.06.03 11:33:40.
