data_PCOD9022200
_publ_section_title
;
Structure prediction by ZEFSAII (Michael W. Deem and Ramdas Pophale) SiO2 
 PCOD9022200
Probable space group: P -1
;
_chemical_formula_sum "Si O2"
_cell_formula_units_Z 15
_cell_length_a 13.518386
_cell_length_b 11.444752
_cell_length_c 12.770242
_cell_angle_alpha 85.206185
_cell_angle_beta 33.296986
_cell_angle_gamma 63.708329
_cell_volume 790.487064
_symmetry_space_group_name_H-M "P -1"
_symmetry_group_IT_number 2
_symmetry_cell_setting 'triclinic'
loop_
_space_group_symop_operation_xyz
x,y,z
-x,-y,-z
loop_
_atom_site_type_symbol
_atom_site_label
_atom_site_fract_x
_atom_site_fract_y
_atom_site_fract_z
Si Si1 0.339433 0.047250 0.037149
Si Si2 0.413496 0.914923 0.366918
Si Si3 0.686495 0.356720 0.138688
Si Si4 0.109521 0.926880 0.160903
Si Si5 0.132378 0.462726 0.997271
Si Si6 0.996307 0.162359 0.064468
Si Si7 0.884147 0.381427 0.339440
Si Si8 0.500000 0.000000 0.500000
O O1 0.479671 0.039726 0.813471
O O2 0.078595 0.232321 0.254884
O O3 0.500000 0.000000 0.000000
O O4 0.280211 0.937583 0.076288
O O5 0.382587 0.987170 0.502094
O O6 0.610955 0.722232 0.216341
O O7 0.148667 0.984648 0.561589
O O8 0.774397 0.246937 0.172661
O O9 0.394826 0.502751 0.387283
O O10 0.767321 0.247041 0.974719
O O11 0.817954 0.424019 0.030913
O O12 0.043634 0.030988 0.106883
O O13 0.964278 0.478192 0.234357
O O14 0.000000 0.500000 0.000000
O O15 0.919109 0.298258 0.204159
O O16 0.243490 0.087436 0.789600
#
# Coordination Sequence:
#
# PCOD9022200 Si02
#       8
#     2   2   2   2   2   2   2   1
#     4  10  23  48  69  87 114 160 222 270 306 356
#     4  11  23  38  64  93 126 162 206 250 312 373
#     4  12  23  35  56  90 132 166 195 247 304 384
#     4  11  24  38  60  94 121 163 213 253 311 362
#     4  11  21  34  53  86 128 168 194 232 300 376
#     4  11  21  37  55  91 131 174 196 246 297 377
#     4  10  22  39  59  89 121 166 210 240 315 365
#     4  12  18  36  62  92 132 156 204 244 304 370
#
# _framework density 18.975642000000001
#
# number of rings (size 3 to 8) (size 9 to 14) (size 15 to 20)
#    0.000    1.067    6.667    2.400    1.867    2.667 
#    0.000    0.667    0.000    4.000    0.000    0.000 
#    0.000    0.000    0.000    0.000    0.000    0.000 
#
# Total GULP energy -83545.845467 kJ/mol
# GULP energy per Si atom -5569.723031 kJ/mol
# Density = 1.893245 g / cm^3
# Si number density = 18.975642 Si / 1000 Ang^3
#
#
#
# Elastic Constant Matrix: (Units=GPa)
#
#
# Indices 1 2 3 4 5 6 
#
# 1 122.6347 35.8681 24.4256 8.3657 -16.7044 19.9000
# 2 35.8681 50.8855 28.4446 -1.0892 -3.6349 31.6635
# 3 24.4256 28.4446 101.8082 -3.3597 -23.0252 19.2028
# 4 8.3657 -1.0892 -3.3597 10.3471 2.0463 -5.4555
# 5 -16.7044 -3.6349 -23.0252 2.0463 23.4504 -1.3674
# 6 19.9000 31.6635 19.2028 -5.4555 -1.3674 28.6463
#
#
#
# Elastic Compliance Matrix: (Units=1/GPa)
#
#
# Indices 1 2 3 4 5 6 
#
# 1 0.013202 -0.005672 0.001653 -0.016430 0.011196 -0.006604
# 2 -0.005672 0.081767 -0.005530 -0.036036 0.001128 -0.089541
# 3 0.001653 -0.005530 0.015292 -0.002642 0.015270 -0.005061
# 4 -0.016430 -0.036036 -0.002642 0.153582 -0.028567 0.080901
# 5 0.011196 0.001128 0.015270 -0.028567 0.067026 -0.021502
# 6 -0.006604 -0.089541 -0.005061 0.080901 -0.021502 0.156242
#
#
# Mechanical properties :
#
#
# Convention : Reuss Voigt Hill
#
# Bulk Modulus (GPa) = 10.96933 50.31166 30.64050
# Shear Modulus (GPa) = 9.31801 24.92813 17.12307
#
# Velocity S-wave (km/s) = 2.21837 3.62842 3.00721
# Velocity P-wave (km/s) = 3.51495 6.64269 5.31414
#
# Compressibility (1/GPa) = 0.09116330
#
# Stress axis : x y z
#
# Youngs Moduli (GPa) = 75.74885 12.22985 65.39484
#
# Poissons Ratio (x) = 0.06937 -0.10810
# Poissons Ratio (y) = 0.42966 0.36160
# Poissons Ratio (z) = -0.12522 0.06763
#
# Static dielectric constant tensor:
#      x y z
#    x 1.660980 0.026590 -0.023750 
#    y 0.026590 1.712110 0.003510 
#    z -0.023750 0.003510 1.670450 
# 
# From -- ./inp_files/312650.got.cif
#   From: 2010.05.17/outbox.cif.g08.bks.cpg/sg2_157_cif.got.tgz:312650.got - 2010.06.03 11:33:40.
