data_PCOD9022923
_publ_section_title
;
Structure prediction by ZEFSAII (Michael W. Deem and Ramdas Pophale) SiO2 
 PCOD9022923
Probable space group: P -1
;
_chemical_formula_sum "Si O2"
_cell_formula_units_Z 16
_cell_length_a 23.592759
_cell_length_b 16.553139
_cell_length_c 8.523364
_cell_angle_alpha 126.404414
_cell_angle_beta 135.708479
_cell_angle_gamma 20.432466
_cell_volume 769.615807
_symmetry_space_group_name_H-M "P -1"
_symmetry_group_IT_number 2
_symmetry_cell_setting 'triclinic'
loop_
_space_group_symop_operation_xyz
x,y,z
-x,-y,-z
loop_
_atom_site_type_symbol
_atom_site_label
_atom_site_fract_x
_atom_site_fract_y
_atom_site_fract_z
Si Si1 0.087226 0.894096 0.792217
Si Si2 0.109321 0.459653 0.275686
Si Si3 0.094140 0.553976 0.815624
Si Si4 0.273518 0.169368 0.578669
Si Si5 0.028083 0.195629 0.420339
Si Si6 0.642084 0.284609 0.655361
Si Si7 0.700502 0.394370 0.426240
Si Si8 0.308156 0.366907 0.317396
O O1 0.231377 0.741495 0.750744
O O2 0.043801 0.826093 0.666047
O O3 0.808157 0.169250 0.928234
O O4 0.879251 0.176979 0.653904
O O5 0.201307 0.300058 0.422938
O O6 0.273297 0.329334 0.345191
O O7 0.976191 0.702710 0.356513
O O8 0.000000 0.500000 0.000000
O O9 0.240341 0.295118 0.782717
O O10 0.879209 0.747285 0.593159
O O11 0.114370 0.612203 0.785214
O O12 0.128895 0.558020 0.059980
O O13 0.492091 0.883853 0.666283
O O14 0.238831 0.933226 0.457558
O O15 0.500000 0.500000 0.500000
O O16 0.501328 0.406248 0.657070
O O17 0.684641 0.527045 0.494513
#
# Coordination Sequence:
#
# PCOD9022923 Si02
#       8
#     2   2   2   2   2   2   2   2
#     4  11  24  47  70  95 142 178 218 280 337 403
#     4  11  23  45  67  94 138 176 220 276 334 393
#     4  10  22  39  65  90 132 170 217 274 327 385
#     4  10  22  41  62  92 127 171 222 274 322 388
#     4  11  23  45  68  99 136 181 218 271 340 393
#     4  12  25  43  68 101 136 174 227 278 330 398
#     4  11  25  44  70  99 135 176 223 275 338 403
#     4  12  22  40  67  97 125 174 223 266 330 398
#
# _framework density 20.789594999999998
#
# number of rings (size 3 to 8) (size 9 to 14) (size 15 to 20)
#    0.000    1.000    3.750    3.000    1.750    0.000 
#    4.500    0.000    0.000    0.000    0.000    0.000 
#    0.000    0.000    0.000    0.000    0.000    0.000 
#
# Total GULP energy -89403.169267 kJ/mol
# GULP energy per Si atom -5587.698079 kJ/mol
# Density = 2.074228 g / cm^3
# Si number density = 20.789595 Si / 1000 Ang^3
#
#
#
# Elastic Constant Matrix: (Units=GPa)
#
#
# Indices 1 2 3 4 5 6 
#
# 1 90.2572 6.9491 4.0621 -0.8796 11.9698 -2.6606
# 2 6.9491 106.6847 22.3329 -0.2518 20.0067 -14.2410
# 3 4.0621 22.3329 72.6277 9.8596 1.0787 4.0319
# 4 -0.8796 -0.2518 9.8596 20.3699 -1.8479 -2.0578
# 5 11.9698 20.0067 1.0787 -1.8479 23.8857 0.2337
# 6 -2.6606 -14.2410 4.0319 -2.0578 0.2337 35.0172
#
#
#
# Elastic Compliance Matrix: (Units=1/GPa)
#
#
# Indices 1 2 3 4 5 6 
#
# 1 0.011989 0.000874 -0.000996 0.000553 -0.006667 0.001458
# 2 0.000874 0.013193 -0.004554 0.002011 -0.011188 0.006149
# 3 -0.000996 -0.004554 0.016545 -0.008277 0.002969 -0.004339
# 4 0.000553 0.002011 -0.008277 0.053878 0.002531 0.004962
# 5 -0.006667 -0.011188 0.002969 0.002531 0.054694 -0.005614
# 6 0.001458 0.006149 -0.004339 0.004962 -0.005614 0.031998
#
#
# Mechanical properties :
#
#
# Convention : Reuss Voigt Hill
#
# Bulk Modulus (GPa) = 30.88805 37.36199 34.12502
# Shear Modulus (GPa) = 24.69828 31.60291 28.15060
#
# Velocity S-wave (km/s) = 3.45049 3.90312 3.68376
# Velocity P-wave (km/s) = 5.54655 6.19055 5.87738
#
# Compressibility (1/GPa) = 0.03237498
#
# Stress axis : x y z
#
# Youngs Moduli (GPa) = 83.40632 75.79517 60.43995
#
# Poissons Ratio (x) = -0.06622 0.06021
# Poissons Ratio (y) = -0.07287 0.27525
# Poissons Ratio (z) = 0.08310 0.34518
#
# Static dielectric constant tensor:
#      x y z
#    x 1.744850 -0.010370 0.008820 
#    y -0.010370 1.756450 0.023420 
#    z 0.008820 0.023420 1.713030 
# 
# From -- ./inp_files/354842.got.cif
#   From: 2010.05.17/outbox.cif.g08.bks.cpg/sg2_178_cif.got.tgz:354842.got - 2010.06.03 11:33:40.
