data_PCOD9022819
_publ_section_title
;
Structure prediction by ZEFSAII (Michael W. Deem and Ramdas Pophale) SiO2 
 PCOD9022819
Probable space group: P -1
;
_chemical_formula_sum "Si O2"
_cell_formula_units_Z 16
_cell_length_a 21.015534
_cell_length_b 11.385885
_cell_length_c 14.695867
_cell_angle_alpha 42.983766
_cell_angle_beta 151.126168
_cell_angle_gamma 156.943805
_cell_volume 611.694421
_symmetry_space_group_name_H-M "P -1"
_symmetry_group_IT_number 2
_symmetry_cell_setting 'triclinic'
loop_
_space_group_symop_operation_xyz
x,y,z
-x,-y,-z
loop_
_atom_site_type_symbol
_atom_site_label
_atom_site_fract_x
_atom_site_fract_y
_atom_site_fract_z
Si Si1 0.506625 0.708557 0.862303
Si Si2 0.943031 0.493108 0.166233
Si Si3 0.139441 0.788477 0.427077
Si Si4 0.612815 0.502071 0.524959
Si Si5 0.442254 0.151683 0.767034
Si Si6 0.714261 0.386991 0.539330
Si Si7 0.123557 0.964385 0.991518
Si Si8 0.372582 0.594095 0.957192
O O1 0.325311 0.559330 0.637130
O O2 0.443330 0.727927 0.867799
O O3 0.500000 0.500000 0.000000
O O4 0.774240 0.034235 0.965923
O O5 0.018135 0.412495 0.244836
O O6 0.059383 0.580615 0.360763
O O7 0.103717 0.826291 0.132977
O O8 0.682795 0.307071 0.952159
O O9 0.383041 0.155732 0.483714
O O10 0.227250 0.838525 0.610332
O O11 0.899047 0.641526 0.220958
O O12 0.552578 0.637329 0.362622
O O13 0.680871 0.480712 0.528071
O O14 0.860399 0.752791 0.754085
O O15 0.434476 0.134434 0.877061
O O16 0.500000 0.000000 0.500000
O O17 0.326570 0.338596 0.048485
#
# Coordination Sequence:
#
# PCOD9022819 Si02
#       8
#     2   2   2   2   2   2   2   2
#     4  10  22  44  67  95 136 186 226 272 339 409
#     4  11  23  40  68  98 139 174 217 286 350 392
#     4  11  20  38  63  99 131 179 226 278 335 405
#     4  12  22  37  68 106 133 174 235 289 334 397
#     4  11  22  40  65  99 136 173 232 279 330 399
#     4  12  24  45  68 101 139 178 226 285 347 403
#     4  11  20  38  64 102 136 171 227 286 340 389
#     4  10  22  39  64  93 134 178 222 278 331 395
#
# _framework density 26.156849999999999
#
# number of rings (size 3 to 8) (size 9 to 14) (size 15 to 20)
#    0.000    1.000    5.000    3.375    0.000    2.500 
#    4.500    4.375    0.000    1.500    0.000    0.000 
#    0.000    0.000    0.000    0.000    0.000    0.000 
#
# Total GULP energy -89534.629048 kJ/mol
# GULP energy per Si atom -5595.914315 kJ/mol
# Density = 2.609732 g / cm^3
# Si number density = 26.156850 Si / 1000 Ang^3
#
#
#
# Elastic Constant Matrix: (Units=GPa)
#
#
# Indices 1 2 3 4 5 6 
#
# 1 203.1333 41.4277 71.7844 -5.4988 -17.9158 -9.3914
# 2 41.4277 66.7924 39.3592 -12.6530 -16.1257 -10.2275
# 3 71.7844 39.3592 155.7654 2.4868 -5.2540 -12.7593
# 4 -5.4988 -12.6530 2.4868 47.4869 -4.3850 -9.2264
# 5 -17.9158 -16.1257 -5.2540 -4.3850 66.5736 -7.7432
# 6 -9.3914 -10.2275 -12.7593 -9.2264 -7.7432 43.7730
#
#
#
# Elastic Compliance Matrix: (Units=1/GPa)
#
#
# Indices 1 2 3 4 5 6 
#
# 1 0.006299 -0.002128 -0.002297 0.000475 0.001085 0.000477
# 2 -0.002128 0.022551 -0.004132 0.007731 0.005801 0.006264
# 3 -0.002297 -0.004132 0.008557 -0.001816 -0.001008 0.000475
# 4 0.000475 0.007731 -0.001816 0.025120 0.004378 0.007448
# 5 0.001085 0.005801 -0.001008 0.004378 0.017546 0.005321
# 6 0.000477 0.006264 0.000475 0.007448 0.005321 0.027061
#
#
# Mechanical properties :
#
#
# Convention : Reuss Voigt Hill
#
# Bulk Modulus (GPa) = 49.28103 81.20374 65.24238
# Shear Modulus (GPa) = 38.16415 49.77470 43.96943
#
# Velocity S-wave (km/s) = 3.82390 4.36699 4.10444
# Velocity P-wave (km/s) = 6.19498 7.51930 6.88903
#
# Compressibility (1/GPa) = 0.02029178
#
# Stress axis : x y z
#
# Youngs Moduli (GPa) = 158.74626 44.34349 116.86971
#
# Poissons Ratio (x) = 0.09438 0.26847
# Poissons Ratio (y) = 0.33788 0.48292
# Poissons Ratio (z) = 0.36467 0.18323
#
# Static dielectric constant tensor:
#      x y z
#    x 2.119950 0.005200 -0.014790 
#    y 0.005200 2.079340 0.000530 
#    z -0.014790 0.000530 2.038780 
# 
# From -- ./inp_files/541104.got.cif
#   From: 2010.05.17/outbox.cif.g08.bks.cpg/sg2_271_cif.got.tgz:541104.got - 2010.06.03 11:33:40.
