data_PCOD9022323
_publ_section_title
;
Structure prediction by ZEFSAII (Michael W. Deem and Ramdas Pophale) SiO2 
 PCOD9022323
Probable space group: P -1
;
_chemical_formula_sum "Si O2"
_cell_formula_units_Z 16
_cell_length_a 11.082762
_cell_length_b 13.132223
_cell_length_c 8.799811
_cell_angle_alpha 109.870926
_cell_angle_beta 68.820729
_cell_angle_gamma 53.109968
_cell_volume 635.442036
_symmetry_space_group_name_H-M "P -1"
_symmetry_group_IT_number 2
_symmetry_cell_setting 'triclinic'
loop_
_space_group_symop_operation_xyz
x,y,z
-x,-y,-z
loop_
_atom_site_type_symbol
_atom_site_label
_atom_site_fract_x
_atom_site_fract_y
_atom_site_fract_z
Si Si1 0.863807 0.212245 0.509710
Si Si2 0.691907 0.109277 0.662218
Si Si3 0.209113 0.198031 0.607167
Si Si4 0.040872 0.639848 0.894243
Si Si5 0.170460 0.780900 0.818285
Si Si6 0.554502 0.682084 0.648133
Si Si7 0.607794 0.975572 0.091679
Si Si8 0.766349 0.510444 0.785472
O O1 0.746131 0.179334 0.579443
O O2 0.834781 0.258923 0.371157
O O3 0.755065 0.386845 0.740946
O O4 0.127901 0.016602 0.342546
O O5 0.752326 0.957795 0.472602
O O6 0.431721 0.295910 0.929685
O O7 0.448099 0.067037 0.358413
O O8 0.020837 0.358761 0.647329
O O9 0.088039 0.315847 0.877448
O O10 0.100873 0.727211 0.926515
O O11 0.280168 0.422209 0.625970
O O12 0.855988 0.757997 0.903580
O O13 0.408703 0.672871 0.699578
O O14 0.000000 0.000000 0.000000
O O15 0.385941 0.899288 0.854486
O O16 0.712312 0.575878 0.670673
O O17 0.500000 0.000000 0.000000
#
# Coordination Sequence:
#
# PCOD9022323 Si02
#       8
#     2   2   2   2   2   2   2   2
#     4  10  22  39  61 105 142 186 234 282 354 432
#     4  10  22  40  67 100 146 189 230 289 357 414
#     4  11  27  46  71 106 142 188 245 293 350 421
#     4  12  27  48  73 108 147 184 239 300 360 431
#     4  12  23  43  73 104 150 184 230 293 364 429
#     4  12  27  45  75 109 143 193 234 292 366 422
#     4  12  28  51  77 101 141 191 249 299 349 424
#     4  11  23  41  69 102 145 183 237 286 354 427
#
# _framework density 25.179321000000002
#
# number of rings (size 3 to 8) (size 9 to 14) (size 15 to 20)
#    0.000    0.750    2.500    4.125    3.500    5.500 
#    0.000    0.000    0.000    0.000    0.000    0.000 
#    0.000    0.000    0.000    0.000    0.000    0.000 
#
# Total GULP energy -89636.332946 kJ/mol
# GULP energy per Si atom -5602.270809 kJ/mol
# Density = 2.512201 g / cm^3
# Si number density = 25.179321 Si / 1000 Ang^3
#
#
#
# Elastic Constant Matrix: (Units=GPa)
#
#
# Indices 1 2 3 4 5 6 
#
# 1 73.2231 5.4934 13.9744 -4.9147 -3.7853 -0.0207
# 2 5.4934 57.2211 19.4406 0.0410 1.4105 0.4465
# 3 13.9744 19.4406 126.3973 6.6807 -8.2697 1.5404
# 4 -4.9147 0.0410 6.6807 46.5221 7.8574 -2.6040
# 5 -3.7853 1.4105 -8.2697 7.8574 33.8265 10.9423
# 6 -0.0207 0.4465 1.5404 -2.6040 10.9423 35.7059
#
#
#
# Elastic Compliance Matrix: (Units=1/GPa)
#
#
# Indices 1 2 3 4 5 6 
#
# 1 0.014152 -0.000891 -0.001446 0.001539 0.000940 -0.000094
# 2 -0.000891 0.018599 -0.002929 0.000663 -0.001917 0.000529
# 3 -0.001446 -0.002929 0.008846 -0.002016 0.003053 -0.001429
# 4 0.001539 0.000663 -0.002016 0.023358 -0.007050 0.003943
# 5 0.000940 -0.001917 0.003053 -0.007050 0.035891 -0.011620
# 6 -0.000094 0.000529 -0.001429 0.003943 -0.011620 0.031910
#
#
# Mechanical properties :
#
#
# Convention : Reuss Voigt Hill
#
# Bulk Modulus (GPa) = 32.19124 37.18426 34.68775
# Shear Modulus (GPa) = 32.54296 37.73976 35.14136
#
# Velocity S-wave (km/s) = 3.59896 3.87568 3.73988
# Velocity P-wave (km/s) = 5.48476 5.90150 5.69694
#
# Compressibility (1/GPa) = 0.03106436
#
# Stress axis : x y z
#
# Youngs Moduli (GPa) = 70.66319 53.76519 113.04912
#
# Poissons Ratio (x) = 0.04789 0.16350
# Poissons Ratio (y) = 0.06295 0.33113
# Poissons Ratio (z) = 0.10220 0.15748
#
# Static dielectric constant tensor:
#      x y z
#    x 1.998110 0.025960 0.008270 
#    y 0.025960 1.987070 0.013900 
#    z 0.008270 0.013900 1.982710 
# 
# From -- ./inp_files/273645.got.cif
#   From: 2010.05.17/outbox.cif.g08.bks.cpg/sg2_137_cif.got.tgz:273645.got - 2010.06.03 11:33:40.
