data_PCOD9022526
_publ_section_title
;
Structure prediction by ZEFSAII (Michael W. Deem and Ramdas Pophale) SiO2 
 PCOD9022526
Probable space group: P -1
;
_chemical_formula_sum "Si O2"
_cell_formula_units_Z 16
_cell_length_a 25.226416
_cell_length_b 5.009186
_cell_length_c 8.119764
_cell_angle_alpha 117.647247
_cell_angle_beta 44.591030
_cell_angle_gamma 102.057566
_cell_volume 625.771875
_symmetry_space_group_name_H-M "P -1"
_symmetry_group_IT_number 2
_symmetry_cell_setting 'triclinic'
loop_
_space_group_symop_operation_xyz
x,y,z
-x,-y,-z
loop_
_atom_site_type_symbol
_atom_site_label
_atom_site_fract_x
_atom_site_fract_y
_atom_site_fract_z
Si Si1 0.831531 0.078214 0.736119
Si Si2 0.956631 0.350449 0.692544
Si Si3 0.773886 0.381782 0.411512
Si Si4 0.576300 0.034266 0.938399
Si Si5 0.263700 0.401077 0.088819
Si Si6 0.645365 0.106321 0.473154
Si Si7 0.520028 0.713077 0.253109
Si Si8 0.123859 0.150783 0.771518
O O1 0.871462 0.298820 0.821579
O O2 0.756410 0.293821 0.888485
O O3 0.808065 0.783945 0.790590
O O4 0.885780 0.982455 0.427360
O O5 0.000000 0.500000 0.500000
O O6 0.946351 0.590913 0.934713
O O7 0.000000 0.000000 0.500000
O O8 0.729606 0.485127 0.709197
O O9 0.717138 0.275328 0.376290
O O10 0.806518 0.671243 0.360761
O O11 0.845517 0.113094 0.236625
O O12 0.557576 0.383000 0.147485
O O13 0.579241 0.801710 0.013859
O O14 0.638039 0.992350 0.644508
O O15 0.500000 0.000000 0.000000
O O16 0.331692 0.168994 0.785436
O O17 0.562350 0.297855 0.655861
O O18 0.500000 0.000000 0.500000
#
# Coordination Sequence:
#
# PCOD9022526 Si02
#       8
#     2   2   2   2   2   2   2   2
#     4  10  22  42  61  86 132 158 200 255 308 362
#     4  12  24  37  62  94 119 163 211 244 295 368
#     4  10  22  39  63  91 120 161 207 256 311 373
#     4  10  23  43  62  89 125 166 208 257 326 378
#     4  10  22  39  62  94 116 164 205 255 316 364
#     4  11  23  40  68  91 126 159 214 264 311 380
#     4  11  25  44  64  91 129 174 207 263 328 384
#     4  10  22  42  61  87 128 163 196 257 314 351
#
# _framework density 25.568421000000001
#
# number of rings (size 3 to 8) (size 9 to 14) (size 15 to 20)
#    0.000    1.500    0.000    4.875    1.750    7.000 
#    4.500    0.000    0.000    0.000    0.000    0.000 
#    0.000    0.000    0.000    0.000    0.000    0.000 
#
# Total GULP energy -89573.255736 kJ/mol
# GULP energy per Si atom -5598.328483 kJ/mol
# Density = 2.551023 g / cm^3
# Si number density = 25.568421 Si / 1000 Ang^3
#
#
#
# Elastic Constant Matrix: (Units=GPa)
#
#
# Indices 1 2 3 4 5 6 
#
# 1 40.1660 -0.0740 1.0216 8.5532 10.6141 5.9653
# 2 -0.0740 103.4900 -0.2595 13.5335 -2.0647 -0.1971
# 3 1.0216 -0.2595 129.3611 30.2110 18.8074 -7.1921
# 4 8.5532 13.5335 30.2110 44.4604 7.4416 -2.2668
# 5 10.6141 -2.0647 18.8074 7.4416 33.9897 11.2600
# 6 5.9653 -0.1971 -7.1921 -2.2668 11.2600 26.3400
#
#
#
# Elastic Compliance Matrix: (Units=1/GPa)
#
#
# Indices 1 2 3 4 5 6 
#
# 1 0.028631 0.000653 0.002133 -0.006020 -0.007733 -0.003109
# 2 0.000653 0.010203 0.000742 -0.003953 0.001095 -0.000678
# 3 0.002133 0.000742 0.010407 -0.006385 -0.006504 0.004595
# 4 -0.006020 -0.003953 -0.006385 0.029754 -0.002393 0.003174
# 5 -0.007733 0.001095 -0.006504 -0.002393 0.042054 -0.018200
# 6 -0.003109 -0.000678 0.004595 0.003174 -0.018200 0.047972
#
#
# Mechanical properties :
#
#
# Convention : Reuss Voigt Hill
#
# Bulk Modulus (GPa) = 17.76376 30.48814 24.12595
# Shear Modulus (GPa) = 27.66532 39.11329 33.38930
#
# Velocity S-wave (km/s) = 3.29296 3.91544 3.61762
# Velocity P-wave (km/s) = 4.62826 5.69131 5.18709
#
# Compressibility (1/GPa) = 0.05629439
#
# Stress axis : x y z
#
# Youngs Moduli (GPa) = 34.92738 98.01431 96.08841
#
# Poissons Ratio (x) = -0.06399 -0.20491
# Poissons Ratio (y) = -0.02280 -0.07126
# Poissons Ratio (z) = -0.07448 -0.07268
#
# Static dielectric constant tensor:
#      x y z
#    x 2.009860 -0.023560 -0.012900 
#    y -0.023560 1.982460 -0.019100 
#    z -0.012900 -0.019100 2.062420 
# 
# From -- ./inp_files/358171.got.cif
#   From: 2010.05.17/outbox.cif.g08.bks.cpg/sg2_180_cif.got.tgz:358171.got - 2010.06.03 11:33:40.
