data_PCOD9022751
_publ_section_title
;
Structure prediction by ZEFSAII (Michael W. Deem and Ramdas Pophale) SiO2 
 PCOD9022751
Probable space group: P -1
;
_chemical_formula_sum "Si O2"
_cell_formula_units_Z 13
_cell_length_a 10.181655
_cell_length_b 10.474820
_cell_length_c 7.670331
_cell_angle_alpha 62.052002
_cell_angle_beta 103.511641
_cell_angle_gamma 141.189973
_cell_volume 439.936642
_symmetry_space_group_name_H-M "P -1"
_symmetry_group_IT_number 2
_symmetry_cell_setting 'triclinic'
loop_
_space_group_symop_operation_xyz
x,y,z
-x,-y,-z
loop_
_atom_site_type_symbol
_atom_site_label
_atom_site_fract_x
_atom_site_fract_y
_atom_site_fract_z
Si Si1 0.603143 0.111467 0.768846
Si Si2 0.776107 0.534940 0.121123
Si Si3 0.028576 0.584147 0.761066
Si Si4 0.551592 0.730590 0.504763
Si Si5 0.160539 0.974242 0.154707
Si Si6 0.500000 0.500000 0.000000
Si Si7 0.157937 0.280791 0.455753
O O1 0.834240 0.379161 0.702353
O O2 0.451592 0.099257 0.630155
O O3 0.670583 0.015817 0.765149
O O4 0.500000 0.000000 0.000000
O O5 0.707516 0.770269 0.974123
O O6 0.679059 0.535969 0.926477
O O7 0.783138 0.369890 0.264369
O O8 0.014928 0.791811 0.068258
O O9 0.994975 0.725237 0.674466
O O10 0.000000 0.500000 0.000000
O O11 0.388156 0.541751 0.424700
O O12 0.769024 0.820005 0.509363
O O13 0.434926 0.589067 0.744566
O O14 0.978361 0.843562 0.326088
#
# Coordination Sequence:
#
# PCOD9022751 Si02
#       7
#     2   2   2   2   2   1   2
#     4  10  22  40  68  98 132 181 226 278 343 409
#     4  10  23  42  67  98 139 181 221 286 341 408
#     4  10  22  39  64 102 139 179 220 279 343 412
#     4   9  19  39  69 100 131 181 231 274 341 414
#     4  10  23  45  67  97 136 182 230 283 347 406
#     4  12  26  40  70 102 132 180 236 286 342 406
#     4   9  19  39  70  97 136 181 225 281 340 410
#
# _framework density 29.549709
#
# number of rings (size 3 to 8) (size 9 to 14) (size 15 to 20)
#    0.000    2.154    0.000    1.385    4.308    9.846 
#    2.769    2.308    0.000    0.000    0.000    0.000 
#    0.000    0.000    0.000    0.000    0.000    0.000 
#
# Total GULP energy -72581.126774 kJ/mol
# GULP energy per Si atom -5583.163598 kJ/mol
# Density = 2.948245 g / cm^3
# Si number density = 29.549709 Si / 1000 Ang^3
#
#
#
# Elastic Constant Matrix: (Units=GPa)
#
#
# Indices 1 2 3 4 5 6 
#
# 1 318.8061 61.9201 84.8451 -16.0240 74.4969 24.1205
# 2 61.9201 133.5648 35.4410 -3.8789 31.3022 -1.7723
# 3 84.8451 35.4410 132.7760 -2.6202 64.9347 -6.3182
# 4 -16.0240 -3.8789 -2.6202 47.1910 -8.8138 18.0516
# 5 74.4969 31.3022 64.9347 -8.8138 70.9700 5.6757
# 6 24.1205 -1.7723 -6.3182 18.0516 5.6757 56.2820
#
#
#
# Elastic Compliance Matrix: (Units=1/GPa)
#
#
# Indices 1 2 3 4 5 6 
#
# 1 0.004641 -0.001132 -0.001489 0.001891 -0.002572 -0.002539
# 2 -0.001132 0.008685 -0.000319 -0.000607 -0.002519 0.001172
# 3 -0.001489 -0.000319 0.015066 -0.003995 -0.012970 0.004909
# 4 0.001891 -0.000607 -0.003995 0.026698 0.006090 -0.010455
# 5 -0.002572 -0.002519 -0.012970 0.006090 0.030965 -0.005509
# 6 -0.002539 0.001172 0.004909 -0.010455 -0.005509 0.023353
#
#
# Mechanical properties :
#
#
# Convention : Reuss Voigt Hill
#
# Bulk Modulus (GPa) = 44.42243 105.50660 74.96451
# Shear Modulus (GPa) = 40.71963 61.75132 51.23548
#
# Velocity S-wave (km/s) = 3.71618 4.57633 4.16850
# Velocity P-wave (km/s) = 5.78611 7.98161 6.97083
#
# Compressibility (1/GPa) = 0.02251115
#
# Stress axis : x y z
#
# Youngs Moduli (GPa) = 215.46657 115.14194 66.37611
#
# Poissons Ratio (x) = 0.13040 0.09884
# Poissons Ratio (y) = 0.24401 0.02115
# Poissons Ratio (z) = 0.32087 0.03669
#
# Static dielectric constant tensor:
#      x y z
#    x 2.188800 0.175430 -0.037230 
#    y 0.175430 2.067420 0.043120 
#    z -0.037230 0.043120 2.556310 
# 
# From -- ./inp_files/153435.got.cif
#   From: 2010.05.17/outbox.cif.g08.bks.cpg/sg2_77_cif.got.tgz:153435.got - 2010.06.03 11:33:40.
