data_PCOD9022824
_publ_section_title
;
Structure prediction by ZEFSAII (Michael W. Deem and Ramdas Pophale) SiO2 
 PCOD9022824
Probable space group: P -1
;
_chemical_formula_sum "Si O2"
_cell_formula_units_Z 16
_cell_length_a 13.712883
_cell_length_b 12.222949
_cell_length_c 11.314851
_cell_angle_alpha 76.741208
_cell_angle_beta 156.922882
_cell_angle_gamma 97.006995
_cell_volume 703.591202
_symmetry_space_group_name_H-M "P -1"
_symmetry_group_IT_number 2
_symmetry_cell_setting 'triclinic'
loop_
_space_group_symop_operation_xyz
x,y,z
-x,-y,-z
loop_
_atom_site_type_symbol
_atom_site_label
_atom_site_fract_x
_atom_site_fract_y
_atom_site_fract_z
Si Si1 0.059156 0.265235 0.929957
Si Si2 0.092386 0.904310 0.729703
Si Si3 0.485092 0.790920 0.725627
Si Si4 0.349287 0.398602 0.851993
Si Si5 0.105384 0.515631 0.834264
Si Si6 0.106140 0.368900 0.199184
Si Si7 0.430735 0.010811 0.778740
Si Si8 0.586682 0.332002 0.893957
O O1 0.049252 0.396664 0.843167
O O2 0.801096 0.223158 0.622564
O O3 0.320440 0.198790 0.168850
O O4 0.066617 0.280309 0.076490
O O5 0.165004 0.773324 0.799229
O O6 0.000000 0.000000 0.500000
O O7 0.865872 0.923187 0.566769
O O8 0.364860 0.926409 0.066005
O O9 0.459650 0.893982 0.766221
O O10 0.618923 0.676597 0.976723
O O11 0.463730 0.319114 0.886949
O O12 0.062576 0.445425 0.476993
O O13 0.500000 0.500000 0.000000
O O14 0.033816 0.610786 0.835927
O O15 0.381666 0.535742 0.108235
O O16 0.401232 0.331583 0.576688
O O17 0.000000 0.500000 0.000000
O O18 0.500000 0.000000 0.000000
#
# Coordination Sequence:
#
# PCOD9022824 Si02
#       8
#     2   2   2   2   2   2   2   2
#     4  11  25  42  64  96 133 178 220 268 328 400
#     4  10  22  39  64  94 127 163 221 272 326 385
#     4  12  25  40  67  94 135 176 214 270 347 394
#     4  11  22  37  55  95 142 170 209 261 337 416
#     4  10  23  38  63  95 134 178 218 268 324 402
#     4   9  23  43  65  94 133 176 235 269 317 388
#     4  10  22  41  62  91 125 166 217 271 320 394
#     4  11  24  38  69  96 130 182 221 278 331 386
#
# _framework density 22.740478
#
# number of rings (size 3 to 8) (size 9 to 14) (size 15 to 20)
#    0.000    1.500    1.250    3.000   14.000    2.000 
#    0.000    0.000    0.000    4.500    0.000    0.000 
#    0.000    0.000    0.000    0.000    0.000    0.000 
#
# Total GULP energy -89156.279957 kJ/mol
# GULP energy per Si atom -5572.267497 kJ/mol
# Density = 2.268872 g / cm^3
# Si number density = 22.740478 Si / 1000 Ang^3
#
#
#
# Elastic Constant Matrix: (Units=GPa)
#
#
# Indices 1 2 3 4 5 6 
#
# 1 111.2924 38.6288 46.4610 14.1707 0.2309 -35.5171
# 2 38.6288 85.6332 28.9459 5.8821 -5.3122 -22.9194
# 3 46.4610 28.9459 98.2434 19.4996 4.4162 -7.6070
# 4 14.1707 5.8821 19.4996 40.0055 -4.5228 -0.5828
# 5 0.2309 -5.3122 4.4162 -4.5228 37.9658 4.0299
# 6 -35.5171 -22.9194 -7.6070 -0.5828 4.0299 42.9180
#
#
#
# Elastic Compliance Matrix: (Units=1/GPa)
#
#
# Indices 1 2 3 4 5 6 
#
# 1 0.015910 -0.002281 -0.005412 -0.002645 -0.001277 0.011072
# 2 -0.002281 0.015372 -0.003189 0.000409 0.001993 0.005574
# 3 -0.005412 -0.003189 0.014507 -0.004999 -0.002329 -0.003460
# 4 -0.002645 0.000409 -0.004999 0.028764 0.004387 -0.002878
# 5 -0.001277 0.001993 -0.002329 0.004387 0.027733 -0.002950
# 6 0.011072 0.005574 -0.003460 -0.002878 -0.002950 0.035065
#
#
# Mechanical properties :
#
#
# Convention : Reuss Voigt Hill
#
# Bulk Modulus (GPa) = 41.62632 58.13780 49.88206
# Shear Modulus (GPa) = 29.91793 36.25343 33.08568
#
# Velocity S-wave (km/s) = 3.63109 3.99711 3.81849
# Velocity P-wave (km/s) = 5.99370 6.85009 6.43616
#
# Compressibility (1/GPa) = 0.02402326
#
# Stress axis : x y z
#
# Youngs Moduli (GPa) = 62.85523 65.05144 68.93269
#
# Poissons Ratio (x) = 0.14841 0.37306
# Poissons Ratio (y) = 0.14340 0.21986
# Poissons Ratio (z) = 0.34017 0.20748
#
# Static dielectric constant tensor:
#      x y z
#    x 1.909760 -0.074700 0.078130 
#    y -0.074700 1.852430 -0.004080 
#    z 0.078130 -0.004080 1.890640 
# 
# From -- ./inp_files/75451.got.cif
#   From: 2010.05.17/outbox.cif.g08.bks.cpg/sg2_38_cif.got.tgz:75451.got - 2010.06.03 11:33:40.
