data_PCOD9022035
_publ_section_title
;
Structure prediction by ZEFSAII (Michael W. Deem and Ramdas Pophale) SiO2 
 PCOD9022035
Probable space group: P -1
;
_chemical_formula_sum "Si O2"
_cell_formula_units_Z 14
_cell_length_a 11.838918
_cell_length_b 5.233531
_cell_length_c 22.782756
_cell_angle_alpha 80.838693
_cell_angle_beta 31.143297
_cell_angle_gamma 100.151043
_cell_volume 569.965926
_symmetry_space_group_name_H-M "P -1"
_symmetry_group_IT_number 2
_symmetry_cell_setting 'triclinic'
loop_
_space_group_symop_operation_xyz
x,y,z
-x,-y,-z
loop_
_atom_site_type_symbol
_atom_site_label
_atom_site_fract_x
_atom_site_fract_y
_atom_site_fract_z
Si Si1 0.313241 0.560686 0.768886
Si Si2 0.089065 0.649271 0.655218
Si Si3 0.299845 0.485527 0.329138
Si Si4 0.494716 0.515521 0.071801
Si Si5 0.769841 0.287919 0.528497
Si Si6 0.587399 0.413236 0.405106
Si Si7 0.324207 0.912485 0.945601
O O1 0.474020 0.566763 0.753851
O O2 0.364216 0.449691 0.687332
O O3 0.467647 0.943563 0.674943
O O4 0.987241 0.337534 0.930574
O O5 0.132874 0.509429 0.582465
O O6 0.129890 0.522932 0.701575
O O7 0.813842 0.610012 0.774635
O O8 0.344769 0.028429 0.522569
O O9 0.215828 0.519569 0.429587
O O10 0.005974 0.236548 0.436575
O O11 0.466835 0.821759 0.205745
O O12 0.571717 0.291827 0.071632
O O13 0.671484 0.869731 0.011866
O O14 0.500000 0.500000 0.000000
O O15 0.500000 0.500000 0.500000
#
# Coordination Sequence:
#
# PCOD9022035 Si02
#       7
#     2   2   2   2   2   2   2
#     4  11  25  43  68 102 147 188 245 299 359 434
#     4  10  22  42  67 103 139 183 240 300 355 431
#     4  11  24  44  72 103 143 191 244 299 363 430
#     4  12  28  49  76 105 149 192 245 296 363 435
#     4  10  23  43  70 102 141 190 246 296 367 418
#     4  10  22  38  69 101 139 182 236 295 368 417
#     4  12  29  47  76 108 145 195 243 296 366 429
#
# _framework density 24.562871000000001
#
# number of rings (size 3 to 8) (size 9 to 14) (size 15 to 20)
#    0.000    1.143    1.429    3.000    8.000    5.143 
#    0.000    0.000    0.000    0.000    0.000    0.000 
#    0.000    0.000    0.000    0.000    0.000    0.000 
#
# Total GULP energy -78215.185198 kJ/mol
# GULP energy per Si atom -5586.798943 kJ/mol
# Density = 2.450697 g / cm^3
# Si number density = 24.562871 Si / 1000 Ang^3
#
#
#
# Elastic Constant Matrix: (Units=GPa)
#
#
# Indices 1 2 3 4 5 6 
#
# 1 99.9252 21.2224 27.2735 -12.2945 -3.8487 -8.8953
# 2 21.2224 72.4669 14.4797 -3.8399 -1.7056 -7.9552
# 3 27.2735 14.4797 105.3952 -13.8354 -11.2328 -1.5173
# 4 -12.2945 -3.8399 -13.8354 25.1333 10.5346 3.8895
# 5 -3.8487 -1.7056 -11.2328 10.5346 40.4591 7.4154
# 6 -8.8953 -7.9552 -1.5173 3.8895 7.4154 44.3036
#
#
#
# Elastic Compliance Matrix: (Units=1/GPa)
#
#
# Indices 1 2 3 4 5 6 
#
# 1 0.011808 -0.002634 -0.002211 0.004338 -0.001027 0.001613
# 2 -0.002634 0.015085 -0.001393 0.000089 -0.000427 0.002196
# 3 -0.002211 -0.001393 0.010978 0.004111 0.001891 -0.000995
# 4 0.004338 0.000089 0.004111 0.048993 -0.010934 -0.001443
# 5 -0.001027 -0.000427 0.001891 -0.010934 0.028718 -0.004065
# 6 0.001613 0.002196 -0.000995 -0.001443 -0.004065 0.024063
#
#
# Mechanical properties :
#
#
# Convention : Reuss Voigt Hill
#
# Bulk Modulus (GPa) = 39.37565 44.85984 42.11775
# Shear Modulus (GPa) = 31.13635 36.29998 33.71816
#
# Velocity S-wave (km/s) = 3.56423 3.84844 3.70906
# Velocity P-wave (km/s) = 5.74488 6.16849 5.96045
#
# Compressibility (1/GPa) = 0.02539640
#
# Stress axis : x y z
#
# Youngs Moduli (GPa) = 84.68904 66.29221 91.08833
#
# Poissons Ratio (x) = 0.17458 0.20136
# Poissons Ratio (y) = 0.22303 0.12690
# Poissons Ratio (z) = 0.18721 0.09236
#
# Static dielectric constant tensor:
#      x y z
#    x 2.101480 0.029750 -0.011630 
#    y 0.029750 2.047970 0.098110 
#    z -0.011630 0.098110 1.949450 
# 
# From -- ./inp_files/55452.got.cif
#   From: 2010.05.17/outbox.cif.g08.bks.cpg/sg2_28_cif.got.tgz:55452.got - 2010.06.03 11:33:40.
