data_PCOD9022315
_publ_section_title
;
Structure prediction by ZEFSAII (Michael W. Deem and Ramdas Pophale) SiO2 
 PCOD9022315
Probable space group: P -1
;
_chemical_formula_sum "Si O2"
_cell_formula_units_Z 16
_cell_length_a 19.974314
_cell_length_b 8.327436
_cell_length_c 17.106935
_cell_angle_alpha 138.516379
_cell_angle_beta 156.581985
_cell_angle_gamma 39.319310
_cell_volume 707.829914
_symmetry_space_group_name_H-M "P -1"
_symmetry_group_IT_number 2
_symmetry_cell_setting 'triclinic'
loop_
_space_group_symop_operation_xyz
x,y,z
-x,-y,-z
loop_
_atom_site_type_symbol
_atom_site_label
_atom_site_fract_x
_atom_site_fract_y
_atom_site_fract_z
Si Si1 0.223255 0.233338 0.928656
Si Si2 0.228105 0.272051 0.764740
Si Si3 0.883276 0.195133 0.381868
Si Si4 0.384604 0.261153 0.427686
Si Si5 0.377536 0.997056 0.541920
Si Si6 0.386509 0.808687 0.644232
Si Si7 0.080234 0.227663 0.176561
Si Si8 0.497833 0.548568 0.108066
O O1 0.268470 0.201448 0.872935
O O2 0.070271 0.502157 0.872426
O O3 0.157766 0.995200 0.794827
O O4 0.406022 0.227673 0.160523
O O5 0.013113 0.352352 0.552905
O O6 0.308675 0.027878 0.705262
O O7 0.330707 0.473484 0.931528
O O8 0.694224 0.360455 0.274173
O O9 0.000000 0.000000 0.500000
O O10 0.485175 0.235236 0.443895
O O11 0.377584 0.531305 0.556416
O O12 0.187174 0.249812 0.220792
O O13 0.500000 0.000000 0.500000
O O14 0.300216 0.906593 0.503359
O O15 0.219709 0.152715 0.370882
O O16 0.490679 0.180009 0.755217
O O17 0.000000 0.000000 0.000000
O O18 0.500000 0.500000 0.000000
#
# Coordination Sequence:
#
# PCOD9022315 Si02
#       8
#     2   2   2   2   2   2   2   2
#     4  11  22  40  67  97 137 178 232 280 337 414
#     4  11  24  39  69 100 140 190 223 278 344 411
#     4  10  22  39  60  97 130 178 230 273 326 403
#     4  10  24  43  70  94 124 179 230 278 340 405
#     4  11  24  45  68  99 138 177 225 291 341 409
#     4  12  23  44  69 101 135 179 229 282 349 402
#     4  11  25  46  67  98 132 177 235 288 338 407
#     4  12  24  44  64 102 145 181 228 277 350 410
#
# _framework density 22.604298
#
# number of rings (size 3 to 8) (size 9 to 14) (size 15 to 20)
#    0.000    1.000    2.500    4.500    7.000    0.500 
#    2.250    3.750    0.000    0.000    0.000    0.000 
#    0.000    0.000    0.000    0.000    0.000    0.000 
#
# Total GULP energy -89388.081505 kJ/mol
# GULP energy per Si atom -5586.755094 kJ/mol
# Density = 2.255285 g / cm^3
# Si number density = 22.604298 Si / 1000 Ang^3
#
#
#
# Elastic Constant Matrix: (Units=GPa)
#
#
# Indices 1 2 3 4 5 6 
#
# 1 60.4385 9.2316 -5.7720 -3.5335 3.9656 -6.1078
# 2 9.2316 68.5166 -4.8006 27.5326 8.1024 -11.0043
# 3 -5.7720 -4.8006 92.3270 33.2391 28.7122 10.7384
# 4 -3.5335 27.5326 33.2391 37.5624 2.9854 5.4687
# 5 3.9656 8.1024 28.7122 2.9854 39.6052 6.0516
# 6 -6.1078 -11.0043 10.7384 5.4687 6.0516 34.5407
#
#
#
# Elastic Compliance Matrix: (Units=1/GPa)
#
#
# Indices 1 2 3 4 5 6 
#
# 1 0.017646 -0.004749 -0.001386 0.006237 -0.000433 0.001126
# 2 -0.004749 0.059191 0.041139 -0.080745 -0.039172 0.024875
# 3 -0.001386 0.041139 0.050780 -0.074241 -0.041968 0.016181
# 4 0.006237 -0.080745 -0.074241 0.152380 0.063861 -0.036855
# 5 -0.000433 -0.039172 -0.041968 0.063861 0.062048 -0.020491
# 6 0.001126 0.024875 0.016181 -0.036855 -0.020491 0.041470
#
#
# Mechanical properties :
#
#
# Convention : Reuss Voigt Hill
#
# Bulk Modulus (GPa) = 5.06006 24.28891 14.67448
# Shear Modulus (GPa) = 13.17933 37.18319 25.18126
#
# Velocity S-wave (km/s) = 2.41725 4.06021 3.34129
# Velocity P-wave (km/s) = 3.16768 5.72268 4.62511
#
# Compressibility (1/GPa) = 0.19762604
#
# Stress axis : x y z
#
# Youngs Moduli (GPa) = 56.67109 16.89445 19.69262
#
# Poissons Ratio (x) = 0.08023 0.02729
# Poissons Ratio (y) = 0.26912 -0.81013
# Poissons Ratio (z) = 0.07853 -0.69502
#
# Static dielectric constant tensor:
#      x y z
#    x 1.889280 0.035720 0.014900 
#    y 0.035720 2.013590 -0.026020 
#    z 0.014900 -0.026020 1.912040 
# 
# From -- ./inp_files/577653.got.cif
#   From: 2010.05.17/outbox.cif.g08.bks.cpg/sg2_289_cif.got.tgz:577653.got - 2010.06.03 11:33:40.
