data_PCOD9022251
_publ_section_title
;
Structure prediction by ZEFSAII (Michael W. Deem and Ramdas Pophale) SiO2 
 PCOD9022251
Probable space group: P -1
;
_chemical_formula_sum "Si O2"
_cell_formula_units_Z 16
_cell_length_a 7.791710
_cell_length_b 8.304833
_cell_length_c 19.076867
_cell_angle_alpha 98.206906
_cell_angle_beta 144.372811
_cell_angle_gamma 80.716245
_cell_volume 709.509572
_symmetry_space_group_name_H-M "P -1"
_symmetry_group_IT_number 2
_symmetry_cell_setting 'triclinic'
loop_
_space_group_symop_operation_xyz
x,y,z
-x,-y,-z
loop_
_atom_site_type_symbol
_atom_site_label
_atom_site_fract_x
_atom_site_fract_y
_atom_site_fract_z
Si Si1 0.267929 0.094081 0.126313
Si Si2 0.210525 0.915974 0.376206
Si Si3 0.313645 0.542124 0.371930
Si Si4 0.161055 0.463772 0.123775
Si Si5 0.234060 0.405304 0.876562
Si Si6 0.786876 0.912051 0.371137
Si Si7 0.316102 0.445099 0.632200
Si Si8 0.339905 0.025383 0.874806
O O1 0.143769 0.272352 0.120895
O O2 0.478592 0.008000 0.250686
O O3 0.485486 0.089073 0.130964
O O4 0.000000 0.000000 0.000000
O O5 0.315070 0.736094 0.374820
O O6 0.990166 0.892883 0.367274
O O7 0.005554 0.003221 0.253154
O O8 0.500000 0.000000 0.500000
O O9 0.500000 0.500000 0.500000
O O10 0.489230 0.475412 0.358852
O O11 0.970570 0.509666 0.247909
O O12 0.509364 0.491802 0.239107
O O13 0.993497 0.586086 0.132258
O O14 0.000000 0.500000 0.000000
O O15 0.339730 0.222516 0.876076
O O16 0.500000 0.500000 0.000000
O O17 0.705074 0.744615 0.368957
O O18 0.000000 0.000000 0.500000
O O19 0.000000 0.500000 0.500000
O O20 0.500000 0.000000 0.000000
#
# Coordination Sequence:
#
# PCOD9022251 Si02
#       8
#     2   2   2   2   2   2   2   2
#     4  11  23  39  62  93 125 163 209 261 316 373
#     4  10  22  39  60  88 120 157 204 252 305 366
#     4  10  22  39  60  88 120 157 204 252 305 366
#     4  11  23  39  62  93 125 163 209 261 316 373
#     4  10  22  40  60  87 120 158 202 250 305 365
#     4  11  23  40  62  90 125 166 210 261 316 378
#     4  11  23  40  62  90 125 166 210 261 316 378
#     4  10  22  40  60  87 120 158 202 250 305 365
#
# _framework density 22.550787
#
# number of rings (size 3 to 8) (size 9 to 14) (size 15 to 20)
#    0.000    1.500    0.000    4.500    0.000    9.000 
#    0.000    0.000    0.000    0.000    0.000    0.000 
#    0.000    0.000    0.000    0.000    0.000    0.000 
#
# Total GULP energy -89194.288135 kJ/mol
# GULP energy per Si atom -5574.643008 kJ/mol
# Density = 2.249946 g / cm^3
# Si number density = 22.550787 Si / 1000 Ang^3
#
#
#
# Elastic Constant Matrix: (Units=GPa)
#
#
# Indices 1 2 3 4 5 6 
#
# 1 49.2915 -3.2332 13.7804 -8.4327 -7.4336 -0.7245
# 2 -3.2332 71.0043 41.4307 3.1727 -2.3217 2.6402
# 3 13.7804 41.4307 264.4402 -5.8905 -1.3222 21.6950
# 4 -8.4327 3.1727 -5.8905 53.5586 5.5227 -6.0263
# 5 -7.4336 -2.3217 -1.3222 5.5227 39.5140 2.4034
# 6 -0.7245 2.6402 21.6950 -6.0263 2.4034 24.6998
#
#
#
# Elastic Compliance Matrix: (Units=1/GPa)
#
#
# Indices 1 2 3 4 5 6 
#
# 1 0.021928 0.001783 -0.001514 0.003052 0.003620 0.002175
# 2 0.001783 0.015762 -0.002601 -0.001043 0.001304 0.000271
# 3 -0.001514 -0.002601 0.004578 -0.000001 -0.000054 -0.003782
# 4 0.003052 -0.001043 -0.000001 0.020086 -0.002620 0.005357
# 5 0.003620 0.001304 -0.000054 -0.002620 0.026625 -0.003215
# 6 0.002175 0.000271 -0.003782 0.005357 -0.003215 0.045463
#
#
# Mechanical properties :
#
#
# Convention : Reuss Voigt Hill
#
# Bulk Modulus (GPa) = 26.59369 54.29909 40.44639
# Shear Modulus (GPa) = 32.97243 45.73838 39.35540
#
# Velocity S-wave (km/s) = 3.82794 4.50848 4.18208
# Velocity P-wave (km/s) = 5.59964 7.15770 6.42607
#
# Compressibility (1/GPa) = 0.03760291
#
# Stress axis : x y z
#
# Youngs Moduli (GPa) = 45.60397 63.44416 218.43208
#
# Poissons Ratio (x) = -0.11314 0.33081
# Poissons Ratio (y) = -0.08133 0.56822
# Poissons Ratio (z) = 0.06907 0.16504
#
# Static dielectric constant tensor:
#      x y z
#    x 1.976200 -0.014860 -0.016360 
#    y -0.014860 1.796910 -0.010800 
#    z -0.016360 -0.010800 2.093620 
# 
# From -- ./inp_files/587406.got.cif
#   From: 2010.05.17/outbox.cif.g08.bks.cpg/sg2_294_cif.got.tgz:587406.got - 2010.06.03 11:33:40.
