data_PCOD9022512
_publ_section_title
;
Structure prediction by ZEFSAII (Michael W. Deem and Ramdas Pophale) SiO2 
 PCOD9022512
Probable space group: P -1
;
_chemical_formula_sum "Si O2"
_cell_formula_units_Z 16
_cell_length_a 14.142274
_cell_length_b 23.376996
_cell_length_c 5.181653
_cell_angle_alpha 104.587977
_cell_angle_beta 87.916583
_cell_angle_gamma 145.632297
_cell_volume 888.522919
_symmetry_space_group_name_H-M "P -1"
_symmetry_group_IT_number 2
_symmetry_cell_setting 'triclinic'
loop_
_space_group_symop_operation_xyz
x,y,z
-x,-y,-z
loop_
_atom_site_type_symbol
_atom_site_label
_atom_site_fract_x
_atom_site_fract_y
_atom_site_fract_z
Si Si1 0.916022 0.163120 0.886519
Si Si2 0.665557 0.036877 0.264629
Si Si3 0.000570 0.078723 0.815645
Si Si4 0.794413 0.926408 0.160188
Si Si5 0.692560 0.180591 0.430996
Si Si6 0.941545 0.305818 0.050910
Si Si7 0.949911 0.436564 0.183350
Si Si8 0.553866 0.189924 0.825062
O O1 0.796748 0.097169 0.564256
O O2 0.030664 0.164538 0.903476
O O3 0.782452 0.092812 0.061242
O O4 0.017025 0.279299 0.017949
O O5 0.590780 0.064423 0.309946
O O6 0.519952 0.908983 0.144464
O O7 0.916656 0.017263 0.478927
O O8 0.860715 0.988653 0.953526
O O9 0.165052 0.122140 0.900859
O O10 0.597867 0.842355 0.154074
O O11 0.818220 0.247335 0.248564
O O12 0.582142 0.180594 0.517292
O O13 0.823259 0.244512 0.735760
O O14 0.044495 0.421974 0.162498
O O15 0.000000 0.500000 0.500000
O O16 0.740181 0.312368 0.045472
O O17 0.000000 0.500000 0.000000
#
# Coordination Sequence:
#
# PCOD9022512 Si02
#       8
#     2   2   2   2   2   2   2   2
#     4  10  17  31  51  74 106 132 162 194 241 301
#     4  10  19  29  47  76 103 135 162 191 239 303
#     4  10  18  34  46  76 107 136 160 200 233 294
#     4  10  21  30  51  71 105 139 169 190 241 297
#     4   9  19  30  47  74 106 127 162 197 234 306
#     4   9  19  34  51  72  95 134 167 200 252 299
#     4  11  24  39  52  69  98 131 175 223 253 284
#     4  11  20  35  52  73  99 141 171 202 248 300
#
# _framework density 18.007414000000001
#
# number of rings (size 3 to 8) (size 9 to 14) (size 15 to 20)
#    0.000    2.000    2.500    1.875    0.000    6.000 
#    0.000    7.500    0.000    0.000    0.000    1.750 
#    0.000    0.000    0.000    1.125    0.000    0.000 
#
# Total GULP energy -89237.118863 kJ/mol
# GULP energy per Si atom -5577.319929 kJ/mol
# Density = 1.796643 g / cm^3
# Si number density = 18.007414 Si / 1000 Ang^3
#
#
#
# Elastic Constant Matrix: (Units=GPa)
#
#
# Indices 1 2 3 4 5 6 
#
# 1 152.2517 34.0564 20.6002 11.9873 -34.0722 -19.8521
# 2 34.0564 64.1571 31.4539 2.1268 -7.5663 -24.2384
# 3 20.6002 31.4539 106.6189 -10.7684 -13.7815 -13.2170
# 4 11.9873 2.1268 -10.7684 36.3714 -7.8394 -3.7671
# 5 -34.0722 -7.5663 -13.7815 -7.8394 22.1290 3.7381
# 6 -19.8521 -24.2384 -13.2170 -3.7671 3.7381 33.2681
#
#
#
# Elastic Compliance Matrix: (Units=1/GPa)
#
#
# Indices 1 2 3 4 5 6 
#
# 1 0.011263 -0.003699 0.001538 0.000890 0.016871 0.002842
# 2 -0.003699 0.025297 -0.005518 -0.001125 -0.003292 0.014274
# 3 0.001538 -0.005518 0.012843 0.006006 0.010351 0.001517
# 4 0.000890 -0.001125 0.006006 0.032844 0.015677 0.004055
# 5 0.016871 -0.003292 0.010351 0.015677 0.081293 0.004422
# 6 0.002842 0.014274 0.001517 0.004055 0.004422 0.042720
#
#
# Mechanical properties :
#
#
# Convention : Reuss Voigt Hill
#
# Bulk Modulus (GPa) = 29.37274 55.02763 42.20018
# Shear Modulus (GPa) = 21.46239 34.14818 27.80528
#
# Velocity S-wave (km/s) = 3.45608 4.35942 3.93377
# Velocity P-wave (km/s) = 5.68092 7.48091 6.64218
#
# Compressibility (1/GPa) = 0.03404518
#
# Stress axis : x y z
#
# Youngs Moduli (GPa) = 88.78344 39.52988 77.86641
#
# Poissons Ratio (x) = 0.14622 -0.11975
# Poissons Ratio (y) = 0.32841 0.42967
# Poissons Ratio (z) = -0.13654 0.21813
#
# Static dielectric constant tensor:
#      x y z
#    x 1.695710 -0.045400 -0.015230 
#    y -0.045400 1.617720 -0.029130 
#    z -0.015230 -0.029130 1.663780 
# 
# From -- ./inp_files/100929.got.cif
#   From: 2010.05.17/outbox.cif.g08.bks.cpg/sg2_51_cif.got.tgz:100929.got - 2010.06.03 11:33:40.
