data_PCOD9022874
_publ_section_title
;
Structure prediction by ZEFSAII (Michael W. Deem and Ramdas Pophale) SiO2 
 PCOD9022874
Probable space group: P -1
;
_chemical_formula_sum "Si O2"
_cell_formula_units_Z 14
_cell_length_a 19.373232
_cell_length_b 14.502494
_cell_length_c 8.832619
_cell_angle_alpha 122.731121
_cell_angle_beta 144.213987
_cell_angle_gamma 32.780196
_cell_volume 703.052882
_symmetry_space_group_name_H-M "P -1"
_symmetry_group_IT_number 2
_symmetry_cell_setting 'triclinic'
loop_
_space_group_symop_operation_xyz
x,y,z
-x,-y,-z
loop_
_atom_site_type_symbol
_atom_site_label
_atom_site_fract_x
_atom_site_fract_y
_atom_site_fract_z
Si Si1 0.694170 0.618498 0.230909
Si Si2 0.379876 0.986594 0.204684
Si Si3 0.388772 0.562809 0.114711
Si Si4 0.348706 0.352396 0.177727
Si Si5 0.806187 0.294530 0.771243
Si Si6 0.732342 0.112651 0.839880
Si Si7 0.089608 0.371955 0.897884
O O1 0.526226 0.816108 0.194910
O O2 0.913458 0.491647 0.567104
O O3 0.669419 0.508146 0.124810
O O4 0.667127 0.652561 0.033596
O O5 0.319305 0.943575 0.183722
O O6 0.500000 0.000000 0.500000
O O7 0.181159 0.187114 0.948449
O O8 0.628431 0.379735 0.424397
O O9 0.267216 0.663906 0.148876
O O10 0.328227 0.720036 0.060772
O O11 0.205913 0.565239 0.153293
O O12 0.578259 0.209302 0.510196
O O13 0.268786 0.309588 0.089974
O O14 0.030070 0.076880 0.949264
O O15 0.000000 0.500000 0.000000
#
# Coordination Sequence:
#
# PCOD9022874 Si02
#       7
#     2   2   2   2   2   2   2
#     4  11  25  42  63  92 131 160 213 270 307 371
#     4  12  25  43  61  91 126 170 215 254 314 380
#     4   9  21  40  61  97 127 161 206 260 314 371
#     4  10  22  39  64  99 124 163 213 261 313 367
#     4   9  19  37  67  94 128 162 203 257 317 379
#     4  11  21  40  70  92 128 168 205 254 316 383
#     4  12  23  42  65  87 129 173 209 256 318 373
#
# _framework density 19.913153999999999
#
# number of rings (size 3 to 8) (size 9 to 14) (size 15 to 20)
#    0.000    1.429    2.857    2.571    0.000    5.714 
#    0.000    1.429    0.000    0.000    0.000    0.000 
#    0.000    0.000    0.000    0.000    0.000    0.000 
#
# Total GULP energy -78251.922684 kJ/mol
# GULP energy per Si atom -5589.423049 kJ/mol
# Density = 1.986783 g / cm^3
# Si number density = 19.913154 Si / 1000 Ang^3
#
#
#
# Elastic Constant Matrix: (Units=GPa)
#
#
# Indices 1 2 3 4 5 6 
#
# 1 71.6272 35.6392 18.8482 1.7057 4.3439 18.4248
# 2 35.6392 114.4962 45.8121 -14.1849 14.0420 4.2452
# 3 18.8482 45.8121 73.8696 -11.4292 10.8884 -13.1147
# 4 1.7057 -14.1849 -11.4292 40.5781 6.1777 4.2248
# 5 4.3439 14.0420 10.8884 6.1777 20.2342 -2.5898
# 6 18.4248 4.2452 -13.1147 4.2248 -2.5898 35.8092
#
#
#
# Elastic Compliance Matrix: (Units=1/GPa)
#
#
# Indices 1 2 3 4 5 6 
#
# 1 0.020430 -0.004315 -0.005103 -0.002716 0.000712 -0.011497
# 2 -0.004315 0.014251 -0.006437 0.004770 -0.007329 -0.002920
# 3 -0.005103 -0.006437 0.022280 0.004098 -0.006320 0.010608
# 4 -0.002716 0.004770 0.004098 0.030003 -0.014380 -0.002247
# 5 0.000712 -0.007329 -0.006320 -0.014380 0.062711 0.004420
# 6 -0.011497 -0.002920 0.010608 -0.002247 0.004420 0.038658
#
#
# Mechanical properties :
#
#
# Convention : Reuss Voigt Hill
#
# Bulk Modulus (GPa) = 39.60251 51.17690 45.38970
# Shear Modulus (GPa) = 21.88571 29.97054 25.92813
#
# Velocity S-wave (km/s) = 3.31880 3.88372 3.61232
# Velocity P-wave (km/s) = 5.88360 6.77251 6.34364
#
# Compressibility (1/GPa) = 0.02525093
#
# Stress axis : x y z
#
# Youngs Moduli (GPa) = 48.94774 70.17257 44.88240
#
# Poissons Ratio (x) = 0.30278 0.22905
# Poissons Ratio (y) = 0.21120 0.28890
# Poissons Ratio (z) = 0.24979 0.45170
#
# Static dielectric constant tensor:
#      x y z
#    x 1.719660 0.033730 0.014200 
#    y 0.033730 1.681040 -0.002500 
#    z 0.014200 -0.002500 1.711870 
# 
# From -- ./inp_files/268373.got.cif
#   From: 2010.05.17/outbox.cif.g08.bks.cpg/sg2_135_cif.got.tgz:268373.got - 2010.06.03 11:33:40.
