data_PCOD9022438
_publ_section_title
;
Structure prediction by ZEFSAII (Michael W. Deem and Ramdas Pophale) SiO2 
 PCOD9022438
Probable space group: P -1
;
_chemical_formula_sum "Si O2"
_cell_formula_units_Z 16
_cell_length_a 12.124273
_cell_length_b 13.268310
_cell_length_c 11.928164
_cell_angle_alpha 41.603000
_cell_angle_beta 144.246688
_cell_angle_gamma 142.693203
_cell_volume 650.583202
_symmetry_space_group_name_H-M "P -1"
_symmetry_group_IT_number 2
_symmetry_cell_setting 'triclinic'
loop_
_space_group_symop_operation_xyz
x,y,z
-x,-y,-z
loop_
_atom_site_type_symbol
_atom_site_label
_atom_site_fract_x
_atom_site_fract_y
_atom_site_fract_z
Si Si1 0.826786 0.463234 0.790292
Si Si2 0.584626 0.894133 0.266798
Si Si3 0.180854 0.225676 0.577701
Si Si4 0.434448 0.150862 0.011605
Si Si5 0.888606 0.415320 0.616189
Si Si6 0.601760 0.829385 0.596848
Si Si7 0.202208 0.788908 0.580713
Si Si8 0.994694 0.124824 0.986808
O O1 0.617916 0.283003 0.795406
O O2 0.776538 0.622108 0.600614
O O3 0.892132 0.441244 0.735096
O O4 0.000000 0.500000 0.000000
O O5 0.787503 0.922006 0.336594
O O6 0.607309 0.845496 0.453693
O O7 0.531984 0.051103 0.100687
O O8 0.956923 0.181013 0.489880
O O9 0.356557 0.271856 0.784007
O O10 0.617897 0.239846 0.182416
O O11 0.217242 0.994103 0.015480
O O12 0.639659 0.318501 0.451896
O O13 0.041382 0.609634 0.538039
O O14 0.974522 0.280369 0.787226
O O15 0.667915 0.026204 0.527110
O O16 0.789979 0.799599 0.824734
O O17 0.000000 0.000000 0.000000
#
# Coordination Sequence:
#
# PCOD9022438 Si02
#       8
#     2   2   2   2   2   2   2   2
#     4  10  22  39  61  99 143 183 229 271 325 414
#     4  10  22  40  62  98 138 185 224 271 340 404
#     4  11  23  36  65  98 134 188 222 262 343 402
#     4  11  23  45  64  99 143 170 236 292 331 411
#     4  10  23  45  66 101 134 181 223 283 349 393
#     4  10  22  45  67  93 141 175 224 289 333 412
#     4  10  22  42  69  97 140 178 221 282 336 407
#     4  12  25  47  76  96 127 184 232 290 359 404
#
# _framework density 24.593316999999999
#
# number of rings (size 3 to 8) (size 9 to 14) (size 15 to 20)
#    0.000    1.500    5.000    0.750    5.250    5.500 
#    0.000    1.250    0.000    0.000    0.000    0.000 
#    0.000    0.000    0.000    0.000    0.000    0.000 
#
# Total GULP energy -89511.785416 kJ/mol
# GULP energy per Si atom -5594.486589 kJ/mol
# Density = 2.453734 g / cm^3
# Si number density = 24.593317 Si / 1000 Ang^3
#
#
#
# Elastic Constant Matrix: (Units=GPa)
#
#
# Indices 1 2 3 4 5 6 
#
# 1 82.2846 33.4935 40.3884 -6.6256 10.7579 -0.6246
# 2 33.4935 155.8108 62.2131 24.7914 9.5378 7.7850
# 3 40.3884 62.2131 209.7129 20.8494 7.5741 16.3935
# 4 -6.6256 24.7914 20.8494 47.0864 4.4593 5.9743
# 5 10.7579 9.5378 7.5741 4.4593 31.2592 -7.2624
# 6 -0.6246 7.7850 16.3935 5.9743 -7.2624 29.1367
#
#
#
# Elastic Compliance Matrix: (Units=1/GPa)
#
#
# Indices 1 2 3 4 5 6 
#
# 1 0.015594 -0.002918 -0.002520 0.005234 -0.004537 0.000328
# 2 -0.002918 0.008340 -0.001417 -0.003983 -0.000835 -0.000885
# 3 -0.002520 -0.001417 0.006107 -0.001895 -0.000576 -0.002867
# 4 0.005234 -0.003983 -0.001895 0.025908 -0.004815 -0.004270
# 5 -0.004537 -0.000835 -0.000576 -0.004815 0.037116 0.010688
# 6 0.000328 -0.000885 -0.002867 -0.004270 0.010688 0.039717
#
#
# Mechanical properties :
#
#
# Convention : Reuss Voigt Hill
#
# Bulk Modulus (GPa) = 61.22601 79.99981 70.61291
# Shear Modulus (GPa) = 32.90855 42.27734 37.59294
#
# Velocity S-wave (km/s) = 3.66199 4.15065 3.91395
# Velocity P-wave (km/s) = 6.54443 7.45454 7.01427
#
# Compressibility (1/GPa) = 0.01633293
#
# Stress axis : x y z
#
# Youngs Moduli (GPa) = 64.12529 119.90392 163.73734
#
# Poissons Ratio (x) = 0.34983 0.41261
# Poissons Ratio (y) = 0.18709 0.23201
# Poissons Ratio (z) = 0.16159 0.16990
#
# Static dielectric constant tensor:
#      x y z
#    x 2.043070 -0.029700 -0.056570 
#    y -0.029700 1.980290 0.035400 
#    z -0.056570 0.035400 1.957160 
# 
# From -- ./inp_files/534290.got.cif
#   From: 2010.05.17/outbox.cif.g08.bks.cpg/sg2_268_cif.got.tgz:534290.got - 2010.06.03 11:33:40.
