data_PCOD9022250
_publ_section_title
;
Structure prediction by ZEFSAII (Michael W. Deem and Ramdas Pophale) SiO2 
 PCOD9022250
Probable space group: P -1
;
_chemical_formula_sum "Si O2"
_cell_formula_units_Z 10
_cell_length_a 17.427147
_cell_length_b 5.135365
_cell_length_c 5.480028
_cell_angle_alpha 82.154164
_cell_angle_beta 122.613389
_cell_angle_gamma 100.395503
_cell_volume 405.868146
_symmetry_space_group_name_H-M "P -1"
_symmetry_group_IT_number 2
_symmetry_cell_setting 'triclinic'
loop_
_space_group_symop_operation_xyz
x,y,z
-x,-y,-z
loop_
_atom_site_type_symbol
_atom_site_label
_atom_site_fract_x
_atom_site_fract_y
_atom_site_fract_z
Si Si1 0.079356 0.816125 0.195136
Si Si2 0.228338 0.104005 0.123248
Si Si3 0.607434 0.459026 0.670173
Si Si4 0.434680 0.730113 0.877944
Si Si5 0.130402 0.603680 0.812094
O O1 0.177948 0.002095 0.301541
O O2 0.078040 0.681828 0.473230
O O3 0.080050 0.624620 0.984358
O O4 0.000000 0.000000 0.000000
O O5 0.328114 0.266047 0.292988
O O6 0.166612 0.322766 0.886310
O O7 0.212854 0.844696 0.962684
O O8 0.500000 0.500000 0.500000
O O9 0.616405 0.284375 0.466529
O O10 0.626720 0.336820 0.980855
O O11 0.500000 0.500000 0.000000
O O12 0.500000 0.000000 0.000000
#
# Coordination Sequence:
#
# PCOD9022250 Si02
#       5
#     2   2   2   2   2
#     4  10  24  45  70  98 133 172 216 270 329 396
#     4  10  26  42  67  97 137 170 222 270 325 387
#     4  10  23  42  65  92 129 174 216 265 320 378
#     4  10  22  39  60  88 118 161 214 260 309 371
#     4  10  25  41  67  98 134 169 218 269 329 387
#
# _framework density 24.638544
#
# number of rings (size 3 to 8) (size 9 to 14) (size 15 to 20)
#    1.200    0.800    0.000    1.200    5.600    8.000 
#    3.600    0.000    0.000    0.000    0.000    0.000 
#    0.000    0.000    0.000    0.000    0.000    0.000 
#
# Total GULP energy -55899.094942 kJ/mol
# GULP energy per Si atom -5589.909494 kJ/mol
# Density = 2.458247 g / cm^3
# Si number density = 24.638544 Si / 1000 Ang^3
#
#
#
# Elastic Constant Matrix: (Units=GPa)
#
#
# Indices 1 2 3 4 5 6 
#
# 1 123.9042 29.6120 51.7824 -3.2251 -20.1509 19.6736
# 2 29.6120 129.6047 28.5652 10.3126 -16.8599 13.5688
# 3 51.7824 28.5652 157.3299 -2.0496 -47.1214 7.8357
# 4 -3.2251 10.3126 -2.0496 48.9596 5.1647 13.5236
# 5 -20.1509 -16.8599 -47.1214 5.1647 50.8713 -2.8412
# 6 19.6736 13.5688 7.8357 13.5236 -2.8412 50.2816
#
#
#
# Elastic Compliance Matrix: (Units=1/GPa)
#
#
# Indices 1 2 3 4 5 6 
#
# 1 0.010286 -0.001421 -0.002710 0.001801 0.000706 -0.003663
# 2 -0.001421 0.008667 -0.000479 -0.001846 0.001992 -0.001099
# 3 -0.002710 -0.000479 0.009641 -0.000571 0.007772 0.000280
# 4 0.001801 -0.001846 -0.000571 0.023031 -0.003128 -0.006489
# 5 0.000706 0.001992 0.007772 -0.003128 0.028137 0.000406
# 6 -0.003663 -0.001099 0.000280 -0.006489 0.000406 0.023342
#
#
# Mechanical properties :
#
#
# Convention : Reuss Voigt Hill
#
# Bulk Modulus (GPa) = 51.61161 70.08421 60.84791
# Shear Modulus (GPa) = 42.09369 50.08112 46.08741
#
# Velocity S-wave (km/s) = 4.13782 4.51336 4.32967
# Velocity P-wave (km/s) = 6.61980 7.46105 7.05298
#
# Compressibility (1/GPa) = 0.01937548
#
# Stress axis : x y z
#
# Youngs Moduli (GPa) = 97.21632 115.38009 103.71892
#
# Poissons Ratio (x) = 0.16393 0.28111
# Poissons Ratio (y) = 0.13813 0.04963
# Poissons Ratio (z) = 0.26349 0.05521
#
# Static dielectric constant tensor:
#      x y z
#    x 1.988560 0.050450 0.021210 
#    y 0.050450 1.927860 0.020000 
#    z 0.021210 0.020000 1.980960 
# 
# From -- ./inp_files/2513.got.cif
#   From: 2010.05.17/outbox.cif.g08.bks.cpg/sg2_2_cif.got.tgz:2513.got - 2010.06.03 11:33:40.
