data_PCOD9022555
_publ_section_title
;
Structure prediction by ZEFSAII (Michael W. Deem and Ramdas Pophale) SiO2 
 PCOD9022555
Probable space group: P -1
;
_chemical_formula_sum "Si O2"
_cell_formula_units_Z 16
_cell_length_a 12.066475
_cell_length_b 15.255305
_cell_length_c 15.170276
_cell_angle_alpha 26.536799
_cell_angle_beta 33.663340
_cell_angle_gamma 42.367269
_cell_volume 691.380427
_symmetry_space_group_name_H-M "P -1"
_symmetry_group_IT_number 2
_symmetry_cell_setting 'triclinic'
loop_
_space_group_symop_operation_xyz
x,y,z
-x,-y,-z
loop_
_atom_site_type_symbol
_atom_site_label
_atom_site_fract_x
_atom_site_fract_y
_atom_site_fract_z
Si Si1 0.309375 0.043527 0.205064
Si Si2 0.077988 0.404237 0.313882
Si Si3 0.835278 0.565745 0.976985
Si Si4 0.532567 0.228066 0.502848
Si Si5 0.213210 0.741080 0.052790
Si Si6 0.386105 0.075269 0.421598
Si Si7 0.733050 0.152172 0.763290
Si Si8 0.132673 0.018937 0.999255
O O1 0.391269 0.881415 0.362362
O O2 0.200878 0.927508 0.303219
O O3 0.194079 0.205090 0.189993
O O4 0.496066 0.153838 0.932847
O O5 0.154011 0.549981 0.208946
O O6 0.189316 0.200816 0.443403
O O7 0.842427 0.359833 0.518391
O O8 0.116327 0.464197 0.132275
O O9 0.626669 0.445084 0.241437
O O10 0.000000 0.500000 0.000000
O O11 0.294726 0.170995 0.709626
O O12 0.631658 0.111327 0.461652
O O13 0.088328 0.906812 0.935035
O O14 0.449786 0.773475 0.865359
O O15 0.152955 0.803047 0.135933
O O16 0.500000 0.000000 0.500000
O O17 0.807173 0.999604 0.923826
#
# Coordination Sequence:
#
# PCOD9022555 Si02
#       8
#     2   2   2   2   2   2   2   2
#     4  10  23  47  65  95 135 170 226 272 322 394
#     4  12  25  40  67 104 134 168 226 270 329 403
#     4  12  27  41  69 101 134 176 215 271 334 397
#     4  10  22  43  67  93 134 180 215 265 333 388
#     4  10  22  39  62  96 130 169 220 270 325 392
#     4  11  22  41  63  91 137 177 211 275 330 385
#     4  10  23  42  68  91 129 178 212 282 323 379
#     4   9  21  43  65  91 132 175 221 270 327 392
#
# _framework density 23.142106999999999
#
# number of rings (size 3 to 8) (size 9 to 14) (size 15 to 20)
#    0.000    1.500    1.250    2.625    5.250    1.500 
#    0.000    2.500    0.000    0.000    0.000    0.000 
#    0.000    0.000    0.000    0.000    0.000    0.000 
#
# Total GULP energy -89336.007851 kJ/mol
# GULP energy per Si atom -5583.500491 kJ/mol
# Density = 2.308943 g / cm^3
# Si number density = 23.142107 Si / 1000 Ang^3
#
#
#
# Elastic Constant Matrix: (Units=GPa)
#
#
# Indices 1 2 3 4 5 6 
#
# 1 92.1331 8.8100 0.1562 -1.9648 7.2848 15.1836
# 2 8.8100 54.6929 7.2304 0.0845 -5.4472 11.8190
# 3 0.1562 7.2304 58.8996 3.4015 -5.3775 -0.9220
# 4 -1.9648 0.0845 3.4015 20.6523 3.9867 -11.3826
# 5 7.2848 -5.4472 -5.3775 3.9867 35.5840 1.3595
# 6 15.1836 11.8190 -0.9220 -11.3826 1.3595 32.2055
#
#
#
# Elastic Compliance Matrix: (Units=1/GPa)
#
#
# Indices 1 2 3 4 5 6 
#
# 1 0.012041 -0.000880 -0.000124 -0.001620 -0.002214 -0.005836
# 2 -0.000880 0.021220 -0.002028 -0.006002 0.004166 -0.009728
# 3 -0.000124 -0.002028 0.017681 -0.003471 0.002777 -0.000035
# 4 -0.001620 -0.006002 -0.003471 0.065177 -0.009419 0.026301
# 5 -0.002214 0.004166 0.002777 -0.009419 0.030861 -0.005037
# 6 -0.005836 -0.009728 -0.000035 0.026301 -0.005037 0.046880
#
#
# Mechanical properties :
#
#
# Convention : Reuss Voigt Hill
#
# Bulk Modulus (GPa) = 22.28251 26.45762 24.37006
# Shear Modulus (GPa) = 23.26864 30.32361 26.79613
#
# Velocity S-wave (km/s) = 3.17435 3.62376 3.40648
# Velocity P-wave (km/s) = 4.80466 5.38204 5.10153
#
# Compressibility (1/GPa) = 0.04487826
#
# Stress axis : x y z
#
# Youngs Moduli (GPa) = 83.05274 47.12499 56.55863
#
# Poissons Ratio (x) = 0.04147 0.00700
# Poissons Ratio (y) = 0.07308 0.11469
# Poissons Ratio (z) = 0.01029 0.09556
#
# Static dielectric constant tensor:
#      x y z
#    x 1.853190 0.001020 -0.002570 
#    y 0.001020 1.925640 0.044950 
#    z -0.002570 0.044950 1.920350 
# 
# From -- ./inp_files/515213.got.cif
#   From: 2010.05.17/outbox.cif.g08.bks.cpg/sg2_258_cif.got.tgz:515213.got - 2010.06.03 11:33:40.
