data_PCOD9022740
_publ_section_title
;
Structure prediction by ZEFSAII (Michael W. Deem and Ramdas Pophale) SiO2 
 PCOD9022740
Probable space group: P -1
;
_chemical_formula_sum "Si O2"
_cell_formula_units_Z 13
_cell_length_a 24.270417
_cell_length_b 14.334530
_cell_length_c 5.184434
_cell_angle_alpha 120.911411
_cell_angle_beta 56.198457
_cell_angle_gamma 155.603301
_cell_volume 618.955863
_symmetry_space_group_name_H-M "P -1"
_symmetry_group_IT_number 2
_symmetry_cell_setting 'triclinic'
loop_
_space_group_symop_operation_xyz
x,y,z
-x,-y,-z
loop_
_atom_site_type_symbol
_atom_site_label
_atom_site_fract_x
_atom_site_fract_y
_atom_site_fract_z
Si Si1 0.588379 0.157720 0.245885
Si Si2 0.292609 0.890333 0.174639
Si Si3 0.420447 0.623748 0.633394
Si Si4 0.860909 0.868001 0.158725
Si Si5 0.139227 0.748243 0.878472
Si Si6 0.500000 0.500000 0.000000
Si Si7 0.181173 0.050027 0.109003
O O1 0.612534 0.321193 0.390202
O O2 0.500000 0.000000 0.500000
O O3 0.709704 0.243187 0.054301
O O4 0.500000 0.000000 0.000000
O O5 0.196743 0.777715 0.509356
O O6 0.446333 0.150991 0.223897
O O7 0.248213 0.888336 0.027287
O O8 0.282186 0.405519 0.850430
O O9 0.457136 0.563901 0.308921
O O10 0.849529 0.928458 0.522239
O O11 0.865111 0.947092 0.007633
O O12 0.000000 0.000000 0.000000
O O13 0.000000 0.500000 0.000000
O O14 0.113254 0.835591 0.003882
O O15 0.344062 0.261121 0.958973
#
# Coordination Sequence:
#
# PCOD9022740 Si02
#       7
#     2   2   2   2   2   1   2
#     4  10  22  39  64 100 135 177 226 282 347 403
#     4  11  23  43  69 100 141 180 239 289 348 426
#     4  10  23  42  72 103 140 182 235 291 352 412
#     4  11  26  45  67  99 139 184 234 285 353 417
#     4  12  26  44  68 102 140 184 232 292 361 421
#     4  10  22  40  72 102 140 174 234 290 344 404
#     4  11  25  43  69 100 137 181 233 290 354 410
#
# _framework density 21.003112000000002
#
# number of rings (size 3 to 8) (size 9 to 14) (size 15 to 20)
#    0.000    1.231    1.538    3.692    2.154    7.385 
#    0.000    0.000    0.000    0.000    0.000    0.000 
#    0.000    0.000    0.000    0.000    0.000    0.000 
#
# Total GULP energy -72401.390435 kJ/mol
# GULP energy per Si atom -5569.337726 kJ/mol
# Density = 2.095531 g / cm^3
# Si number density = 21.003112 Si / 1000 Ang^3
#
#
#
# Elastic Constant Matrix: (Units=GPa)
#
#
# Indices 1 2 3 4 5 6 
#
# 1 190.6997 74.1346 94.2126 -21.7658 -2.3224 -37.1458
# 2 74.1346 80.0631 27.5247 -1.5009 -27.8212 -12.0304
# 3 94.2126 27.5247 144.6292 -9.4570 -11.6113 -9.1375
# 4 -21.7658 -1.5009 -9.4570 24.4691 1.5100 -9.1176
# 5 -2.3224 -27.8212 -11.6113 1.5100 46.2641 -0.9193
# 6 -37.1458 -12.0304 -9.1375 -9.1176 -0.9193 26.9233
#
#
#
# Elastic Compliance Matrix: (Units=1/GPa)
#
#
# Indices 1 2 3 4 5 6 
#
# 1 0.040380 -0.030372 -0.015660 0.048912 -0.020717 0.052682
# 2 -0.030372 0.041031 0.009927 -0.033726 0.026131 -0.030730
# 3 -0.015660 0.009927 0.013870 -0.014918 0.008810 -0.017214
# 4 0.048912 -0.033726 -0.014918 0.109102 -0.023472 0.083496
# 5 -0.020717 0.026131 0.008810 -0.023472 0.038858 -0.020539
# 6 0.052682 -0.030730 -0.017214 0.083496 -0.020539 0.117828
#
#
# Mechanical properties :
#
#
# Convention : Reuss Voigt Hill
#
# Bulk Modulus (GPa) = 43.34477 89.68173 66.51325
# Shear Modulus (GPa) = 11.33865 34.16598 22.75231
#
# Velocity S-wave (km/s) = 2.32600 4.03763 3.29490
# Velocity P-wave (km/s) = 5.28165 8.03296 6.79795
#
# Compressibility (1/GPa) = 0.02307083
#
# Stress axis : x y z
#
# Youngs Moduli (GPa) = 24.76494 24.37176 72.09638
#
# Poissons Ratio (x) = 0.74022 1.12904
# Poissons Ratio (y) = 0.75216 -0.71570
# Poissons Ratio (z) = 0.38782 -0.24194
#
# Static dielectric constant tensor:
#      x y z
#    x 1.751240 -0.007360 -0.019330 
#    y -0.007360 1.783770 0.012610 
#    z -0.019330 0.012610 1.758340 
# 
# From -- ./inp_files/118360.got.cif
#   From: 2010.05.17/outbox.cif.g08.bks.cpg/sg2_60_cif.got.tgz:118360.got - 2010.06.03 11:33:40.
