data_PCOD9022159
_publ_section_title
;
Structure prediction by ZEFSAII (Michael W. Deem and Ramdas Pophale) SiO2 
 PCOD9022159
Probable space group: P -1
;
_chemical_formula_sum "Si O2"
_cell_formula_units_Z 14
_cell_length_a 12.127037
_cell_length_b 8.423355
_cell_length_c 8.599432
_cell_angle_alpha 132.524037
_cell_angle_beta 114.615856
_cell_angle_gamma 82.324270
_cell_volume 574.033960
_symmetry_space_group_name_H-M "P -1"
_symmetry_group_IT_number 2
_symmetry_cell_setting 'triclinic'
loop_
_space_group_symop_operation_xyz
x,y,z
-x,-y,-z
loop_
_atom_site_type_symbol
_atom_site_label
_atom_site_fract_x
_atom_site_fract_y
_atom_site_fract_z
Si Si1 0.130073 0.177995 0.120391
Si Si2 0.306416 0.024411 0.684218
Si Si3 0.116427 0.614724 0.345921
Si Si4 0.606334 0.614512 0.525854
Si Si5 0.435186 0.669133 0.980042
Si Si6 0.110011 0.268853 0.852362
Si Si7 0.288518 0.949128 0.259370
O O1 0.081781 0.394591 0.287228
O O2 0.271932 0.303271 0.245137
O O3 0.162171 0.002071 0.143182
O O4 0.072008 0.105538 0.871661
O O5 0.450843 0.127994 0.866294
O O6 0.227161 0.205869 0.799054
O O7 0.286061 0.961977 0.450017
O O8 0.238249 0.799344 0.581583
O O9 0.002257 0.731125 0.330189
O O10 0.132374 0.505134 0.111885
O O11 0.500000 0.500000 0.500000
O O12 0.600108 0.842315 0.588142
O O13 0.622364 0.454846 0.290098
O O14 0.331072 0.744615 0.072347
O O15 0.500000 0.500000 0.000000
#
# Coordination Sequence:
#
# PCOD9022159 Si02
#       7
#     2   2   2   2   2   2   2
#     4   8  19  42  59  86 124 152 190 255 298 351
#     4  12  23  37  65  89 120 163 203 248 299 352
#     4   9  21  39  69  88 121 151 211 249 294 368
#     4  10  22  39  58  86 123 156 202 242 297 357
#     4  12  25  39  59  87 127 166 196 242 300 358
#     4   9  20  42  67  89 118 158 205 245 309 353
#     4  10  25  39  57  91 128 151 206 246 297 361
#
# _framework density 24.388801000000001
#
# number of rings (size 3 to 8) (size 9 to 14) (size 15 to 20)
#    1.714    0.286    1.429    1.714    4.000    1.714 
#    0.000    1.429    0.000    0.000    0.000    0.000 
#    0.000    0.000    0.000    0.000    0.000    0.000 
#
# Total GULP energy -78029.844153 kJ/mol
# GULP energy per Si atom -5573.560297 kJ/mol
# Density = 2.433329 g / cm^3
# Si number density = 24.388801 Si / 1000 Ang^3
#
#
#
# Elastic Constant Matrix: (Units=GPa)
#
#
# Indices 1 2 3 4 5 6 
#
# 1 71.0331 28.7499 20.1154 9.6204 -17.5285 -0.8197
# 2 28.7499 88.7194 23.4904 3.6300 -5.3497 -21.8211
# 3 20.1154 23.4904 80.9130 23.5329 -25.7116 -7.2962
# 4 9.6204 3.6300 23.5329 24.8326 1.0521 4.0459
# 5 -17.5285 -5.3497 -25.7116 1.0521 44.9320 12.8591
# 6 -0.8197 -21.8211 -7.2962 4.0459 12.8591 32.5317
#
#
#
# Elastic Compliance Matrix: (Units=1/GPa)
#
#
# Indices 1 2 3 4 5 6 
#
# 1 0.020350 -0.008121 0.002395 -0.008180 0.010713 -0.007615
# 2 -0.008121 0.018076 -0.005917 0.004289 -0.008323 0.013349
# 3 0.002395 -0.005917 0.025601 -0.024775 0.015846 -0.001349
# 4 -0.008180 0.004289 -0.024775 0.067756 -0.017146 -0.004535
# 5 0.010713 -0.008323 0.015846 -0.017146 0.039246 -0.015140
# 6 -0.007615 0.013349 -0.001349 -0.004535 -0.015140 0.045747
#
#
# Mechanical properties :
#
#
# Convention : Reuss Voigt Hill
#
# Bulk Modulus (GPa) = 24.54540 42.81965 33.68253
# Shear Modulus (GPa) = 19.71286 31.67992 25.69639
#
# Velocity S-wave (km/s) = 2.84610 3.60801 3.24946
# Velocity P-wave (km/s) = 4.57017 5.91204 5.28387
#
# Compressibility (1/GPa) = 0.04074083
#
# Stress axis : x y z
#
# Youngs Moduli (GPa) = 49.13966 55.32249 39.06158
#
# Poissons Ratio (x) = 0.44927 -0.09356
# Poissons Ratio (y) = 0.39906 0.23113
# Poissons Ratio (z) = -0.11770 0.32735
#
# Static dielectric constant tensor:
#      x y z
#    x 1.961460 -0.007290 0.041600 
#    y -0.007290 2.168460 0.057640 
#    z 0.041600 0.057640 1.897550 
# 
# From -- ./inp_files/241497.got.cif
#   From: 2010.05.17/outbox.cif.g08.bks.cpg/sg2_121_cif.got.tgz:241497.got - 2010.06.03 11:33:40.
