data_PCOD9022346
_publ_section_title
;
Structure prediction by ZEFSAII (Michael W. Deem and Ramdas Pophale) SiO2 
 PCOD9022346
Probable space group: P -1
;
_chemical_formula_sum "Si O2"
_cell_formula_units_Z 14
_cell_length_a 11.253082
_cell_length_b 9.043006
_cell_length_c 16.002778
_cell_angle_alpha 56.969486
_cell_angle_beta 131.657651
_cell_angle_gamma 144.870193
_cell_volume 700.109875
_symmetry_space_group_name_H-M "P -1"
_symmetry_group_IT_number 2
_symmetry_cell_setting 'triclinic'
loop_
_space_group_symop_operation_xyz
x,y,z
-x,-y,-z
loop_
_atom_site_type_symbol
_atom_site_label
_atom_site_fract_x
_atom_site_fract_y
_atom_site_fract_z
Si Si1 0.724444 0.306598 0.414930
Si Si2 0.346046 0.432791 0.815869
Si Si3 0.239079 0.793727 0.032380
Si Si4 0.486662 0.241848 0.494993
Si Si5 0.885788 0.803478 0.586297
Si Si6 0.210524 0.138561 0.997329
Si Si7 0.674015 0.928014 0.184925
O O1 0.708191 0.423854 0.292887
O O2 0.586784 0.287318 0.434324
O O3 0.000000 0.500000 0.500000
O O4 0.597231 0.016853 0.431862
O O5 0.169269 0.212204 0.869337
O O6 0.367626 0.305451 0.792652
O O7 0.574192 0.624766 0.919652
O O8 0.440696 0.822553 0.145191
O O9 0.000000 0.500000 0.000000
O O10 0.234764 0.953682 0.043574
O O11 0.284925 0.922069 0.924664
O O12 0.700087 0.509030 0.559317
O O13 0.262164 0.186158 0.424484
O O14 0.000000 0.000000 0.500000
O O15 0.101605 0.891216 0.708019
O O16 0.000000 0.000000 0.000000
#
# Coordination Sequence:
#
# PCOD9022346 Si02
#       7
#     2   2   2   2   2   2   2
#     4  11  23  42  64  91 128 166 211 265 315 376
#     4  10  22  40  61  85 119 160 202 251 310 367
#     4  10  22  39  61  88 119 157 203 253 307 370
#     4  10  24  40  62  96 124 167 218 255 319 385
#     4  11  23  42  64  91 129 166 209 266 319 376
#     4  10  22  39  61  89 120 157 201 251 309 374
#     4  10  22  40  61  86 118 160 204 251 309 368
#
# _framework density 19.996860000000002
#
# number of rings (size 3 to 8) (size 9 to 14) (size 15 to 20)
#    0.000    1.714    0.000    3.429    0.000   12.571 
#    0.000    0.000    0.000    0.000    0.000    0.000 
#    0.000    0.000    0.000    0.000    0.000    0.000 
#
# Total GULP energy -78125.379144 kJ/mol
# GULP energy per Si atom -5580.384225 kJ/mol
# Density = 1.995135 g / cm^3
# Si number density = 19.996860 Si / 1000 Ang^3
#
#
#
# Elastic Constant Matrix: (Units=GPa)
#
#
# Indices 1 2 3 4 5 6 
#
# 1 91.6981 31.0617 29.8029 -2.6290 6.9794 29.0289
# 2 31.0617 118.2724 32.8729 -2.7790 11.3683 0.6224
# 3 29.8029 32.8729 111.3723 2.5686 19.2634 12.2273
# 4 -2.6290 -2.7790 2.5686 32.2601 1.2307 6.3552
# 5 6.9794 11.3683 19.2634 1.2307 11.1975 14.8388
# 6 29.0289 0.6224 12.2273 6.3552 14.8388 18.3938
#
#
#
# Elastic Compliance Matrix: (Units=1/GPa)
#
#
# Indices 1 2 3 4 5 6 
#
# 1 0.005067 0.001609 0.002575 -0.002746 -0.039983 0.023441
# 2 0.001609 0.007895 -0.003879 0.003076 0.014089 -0.012657
# 3 0.002575 -0.003879 0.010207 0.001925 0.005129 -0.015520
# 4 -0.002746 0.003076 0.001925 0.029473 -0.023501 0.011726
# 5 -0.039983 0.014089 0.005129 -0.023501 -0.064447 0.119325
# 6 0.023441 -0.012657 -0.015520 0.011726 0.119325 -0.072198
#
#
# Mechanical properties :
#
#
# Convention : Reuss Voigt Hill
#
# Bulk Modulus (GPa) = 42.05532 56.53530 49.29531
# Shear Modulus (GPa) = -65.20298 27.54396 -18.82951
#
# Velocity S-wave (km/s) = -5.71641 3.71538 -3.07192
# Velocity P-wave (km/s) = 4.74270 6.83658 3.48178
#
# Compressibility (1/GPa) = 0.02377820
#
# Stress axis : x y z
#
# Youngs Moduli (GPa) = 197.34146 126.65673 97.96865
#
# Poissons Ratio (x) = -0.20377 -0.25222
# Poissons Ratio (y) = -0.31750 0.38005
# Poissons Ratio (z) = -0.50806 0.49134
#
# Static dielectric constant tensor:
#      x y z
#    x 1.744520 0.019870 0.029360 
#    y 0.019870 1.705580 0.000400 
#    z 0.029360 0.000400 1.735220 
# 
# From -- ./inp_files/27670.got.cif
#   From: 2010.05.17/outbox.cif.g08.bks.cpg/sg2_14_cif.got.tgz:27670.got - 2010.06.03 11:33:40.
