data_PCOD9022147
_publ_section_title
;
Structure prediction by ZEFSAII (Michael W. Deem and Ramdas Pophale) SiO2 
 PCOD9022147
Probable space group: P -1
;
_chemical_formula_sum "Si O2"
_cell_formula_units_Z 16
_cell_length_a 13.455965
_cell_length_b 8.561731
_cell_length_c 14.102226
_cell_angle_alpha 44.505838
_cell_angle_beta 118.056777
_cell_angle_gamma 86.057509
_cell_volume 760.815951
_symmetry_space_group_name_H-M "P -1"
_symmetry_group_IT_number 2
_symmetry_cell_setting 'triclinic'
loop_
_space_group_symop_operation_xyz
x,y,z
-x,-y,-z
loop_
_atom_site_type_symbol
_atom_site_label
_atom_site_fract_x
_atom_site_fract_y
_atom_site_fract_z
Si Si1 0.626361 0.995789 0.096262
Si Si2 0.217794 0.068265 0.628186
Si Si3 0.201207 0.126134 0.381980
Si Si4 0.410945 0.521140 0.042157
Si Si5 0.017431 0.026654 0.225295
Si Si6 0.720965 0.707883 0.829759
Si Si7 0.079160 0.294103 0.752393
Si Si8 0.904534 0.806929 0.986139
O O1 0.684520 0.896156 0.274561
O O2 0.771816 0.796426 0.183387
O O3 0.567514 0.327212 0.930165
O O4 0.500000 0.000000 0.000000
O O5 0.266638 0.007504 0.567072
O O6 0.048693 0.363308 0.431767
O O7 0.245399 0.792615 0.807665
O O8 0.132990 0.986189 0.368777
O O9 0.301576 0.121081 0.350749
O O10 0.057645 0.471764 0.183278
O O11 0.500000 0.500000 0.000000
O O12 0.405045 0.284376 0.184561
O O13 0.084821 0.999517 0.163553
O O14 0.984191 0.808851 0.303593
O O15 0.862488 0.362930 0.020608
O O16 0.775976 0.812741 0.886981
O O17 0.114365 0.127483 0.940038
#
# Coordination Sequence:
#
# PCOD9022147 Si02
#       8
#     2   2   2   2   2   2   2   2
#     4  10  23  39  56  78 119 156 189 225 282 343
#     4   9  21  39  56  88 114 147 185 245 288 324
#     4   8  16  33  55  83 118 139 181 245 287 321
#     4  10  22  39  58  77 111 154 202 223 275 341
#     4   9  15  30  51  89 117 144 181 230 290 346
#     4   9  16  33  55  82 109 153 190 227 276 343
#     4  11  18  34  57  88 117 148 186 236 288 332
#     4   8  17  26  53  84 121 143 178 232 291 333
#
# _framework density 21.030052999999999
#
# number of rings (size 3 to 8) (size 9 to 14) (size 15 to 20)
#    0.750    2.000    1.250    2.250    1.750    0.000 
#    2.250   10.625    0.000    0.750    0.000    0.000 
#    0.000    0.000    0.000    0.000    0.000    0.000 
#
# Total GULP energy -89114.885530 kJ/mol
# GULP energy per Si atom -5569.680346 kJ/mol
# Density = 2.098219 g / cm^3
# Si number density = 21.030053 Si / 1000 Ang^3
#
#
#
# Elastic Constant Matrix: (Units=GPa)
#
#
# Indices 1 2 3 4 5 6 
#
# 1 147.5367 54.1445 40.8258 30.0433 2.7860 1.0496
# 2 54.1445 58.2846 23.1498 26.1945 -1.3034 -11.2026
# 3 40.8258 23.1498 42.7194 30.2186 -4.6091 -2.8207
# 4 30.0433 26.1945 30.2186 37.4920 -10.5224 -5.3279
# 5 2.7860 -1.3034 -4.6091 -10.5224 21.7535 4.9087
# 6 1.0496 -11.2026 -2.8207 -5.3279 4.9087 30.0026
#
#
#
# Elastic Compliance Matrix: (Units=1/GPa)
#
#
# Indices 1 2 3 4 5 6 
#
# 1 0.012505 -0.010490 -0.009519 0.003989 -0.001342 -0.004321
# 2 -0.010490 0.037042 0.006339 -0.023432 -0.009166 0.012133
# 3 -0.009519 0.006339 0.064338 -0.051240 -0.009839 0.001259
# 4 0.003989 -0.023432 -0.051240 0.089480 0.031169 -0.002916
# 5 -0.001342 -0.009166 -0.009839 0.031169 0.060541 -0.008671
# 6 -0.004321 0.012133 0.001259 -0.002916 -0.008671 0.039031
#
#
# Mechanical properties :
#
#
# Convention : Reuss Voigt Hill
#
# Bulk Modulus (GPa) = 11.55455 53.86453 32.70954
# Shear Modulus (GPa) = 13.92276 26.54434 20.23355
#
# Velocity S-wave (km/s) = 2.57581 3.55661 3.10518
# Velocity P-wave (km/s) = 3.78848 6.52187 5.33326
#
# Compressibility (1/GPa) = 0.08654598
#
# Stress axis : x y z
#
# Youngs Moduli (GPa) = 79.96595 26.99637 15.54298
#
# Poissons Ratio (x) = 0.28319 0.14795
# Poissons Ratio (y) = 0.83883 -0.09853
# Poissons Ratio (z) = 0.76117 -0.17113
#
# Static dielectric constant tensor:
#      x y z
#    x 1.792910 -0.033860 0.016690 
#    y -0.033860 1.778140 -0.036140 
#    z 0.016690 -0.036140 1.841310 
# 
# From -- ./inp_files/512798.got.cif
#   From: 2010.05.17/outbox.cif.g08.bks.cpg/sg2_257_cif.got.tgz:512798.got - 2010.06.03 11:33:40.
