data_PCOD9022009
_publ_section_title
;
Structure prediction by ZEFSAII (Michael W. Deem and Ramdas Pophale) SiO2 
 PCOD9022009
Probable space group: P -1
;
_chemical_formula_sum "Si O2"
_cell_formula_units_Z 16
_cell_length_a 11.265691
_cell_length_b 13.172184
_cell_length_c 7.002708
_cell_angle_alpha 83.435779
_cell_angle_beta 74.624645
_cell_angle_gamma 128.809796
_cell_volume 724.315904
_symmetry_space_group_name_H-M "P -1"
_symmetry_group_IT_number 2
_symmetry_cell_setting 'triclinic'
loop_
_space_group_symop_operation_xyz
x,y,z
-x,-y,-z
loop_
_atom_site_type_symbol
_atom_site_label
_atom_site_fract_x
_atom_site_fract_y
_atom_site_fract_z
Si Si1 0.811793 0.405320 0.019538
Si Si2 0.726711 0.212009 0.787301
Si Si3 0.356108 0.016046 0.883664
Si Si4 0.851881 0.933405 0.228079
Si Si5 0.336171 0.464060 0.822839
Si Si6 0.740954 0.181156 0.340757
Si Si7 0.278811 0.349730 0.469465
Si Si8 0.944496 0.773171 0.764937
O O1 0.723956 0.464588 0.069806
O O2 0.707860 0.266526 0.224868
O O3 0.815428 0.358772 0.816105
O O4 0.000000 0.500000 0.000000
O O5 0.747893 0.203153 0.557870
O O6 0.526678 0.122236 0.906891
O O7 0.760603 0.127258 0.910633
O O8 0.376623 0.968671 0.683138
O O9 0.284176 0.082349 0.835698
O O10 0.774183 0.789897 0.389468
O O11 0.938255 0.059520 0.317757
O O12 0.000000 0.000000 0.000000
O O13 0.294530 0.436749 0.620515
O O14 0.536259 0.555791 0.727806
O O15 0.216055 0.311655 0.007097
O O16 0.929463 0.242410 0.209428
O O17 0.135776 0.296810 0.389915
#
# Coordination Sequence:
#
# PCOD9022009 Si02
#       8
#     2   2   2   2   2   2   2   2
#     4  11  24  41  63  96 132 164 217 273 315 383
#     4  10  22  41  66  92 127 175 205 261 340 385
#     4   9  22  42  61  96 131 161 212 272 323 386
#     4  11  23  42  68  97 130 163 217 279 319 377
#     4  11  25  47  64  93 135 173 219 273 314 387
#     4  10  22  38  68  95 126 167 212 268 327 391
#     4  11  26  44  69  92 128 183 216 263 329 381
#     4  11  23  43  68  96 130 169 219 269 323 391
#
# _framework density 22.089808999999999
#
# number of rings (size 3 to 8) (size 9 to 14) (size 15 to 20)
#    0.000    1.500    2.500    1.125    5.250    2.500 
#    6.750    0.000    0.000    0.000    0.000    0.000 
#    0.000    0.000    0.000    0.000    0.000    0.000 
#
# Total GULP energy -89302.702245 kJ/mol
# GULP energy per Si atom -5581.418890 kJ/mol
# Density = 2.203953 g / cm^3
# Si number density = 22.089809 Si / 1000 Ang^3
#
#
#
# Elastic Constant Matrix: (Units=GPa)
#
#
# Indices 1 2 3 4 5 6 
#
# 1 43.6261 16.9854 -4.3735 -1.5267 17.1840 7.7104
# 2 16.9854 87.4543 5.9474 14.7379 0.9274 13.7542
# 3 -4.3735 5.9474 67.6713 11.9601 2.8111 0.4260
# 4 -1.5267 14.7379 11.9601 42.1337 7.7173 11.1824
# 5 17.1840 0.9274 2.8111 7.7173 28.6525 4.8729
# 6 7.7104 13.7542 0.4260 11.1824 4.8729 34.3172
#
#
#
# Elastic Compliance Matrix: (Units=1/GPa)
#
#
# Indices 1 2 3 4 5 6 
#
# 1 0.036629 -0.007797 0.002486 0.008910 -0.023561 -0.004694
# 2 -0.007797 0.014345 -0.001067 -0.005313 0.006282 -0.003145
# 3 0.002486 -0.001067 0.015815 -0.003969 -0.002155 0.001272
# 4 0.008910 -0.005313 -0.003969 0.031433 -0.011822 -0.008387
# 5 -0.023561 0.006282 -0.002155 -0.011822 0.052356 -0.000780
# 6 -0.004694 -0.003145 0.001272 -0.008387 -0.000780 0.034283
#
#
# Mechanical properties :
#
#
# Convention : Reuss Voigt Hill
#
# Bulk Modulus (GPa) = 18.50699 26.20779 22.35739
# Shear Modulus (GPa) = 23.18834 33.03351 28.11093
#
# Velocity S-wave (km/s) = 3.24347 3.87126 3.57119
# Velocity P-wave (km/s) = 4.73530 5.64554 5.21034
#
# Compressibility (1/GPa) = 0.05403364
#
# Stress axis : x y z
#
# Youngs Moduli (GPa) = 27.30113 69.71205 63.23238
#
# Poissons Ratio (x) = 0.54351 -0.15720
# Poissons Ratio (y) = 0.21285 0.06745
# Poissons Ratio (z) = -0.06787 0.07436
#
# Static dielectric constant tensor:
#      x y z
#    x 1.840330 -0.005150 -0.061820 
#    y -0.005150 1.897490 -0.030250 
#    z -0.061820 -0.030250 1.879320 
# 
# From -- ./inp_files/77607.got.cif
#   From: 2010.05.17/outbox.cif.g08.bks.cpg/sg2_39_cif.got.tgz:77607.got - 2010.06.03 11:33:40.
