data_PCOD9022931
_publ_section_title
;
Structure prediction by ZEFSAII (Michael W. Deem and Ramdas Pophale) SiO2 
 PCOD9022931
Probable space group: P -1
;
_chemical_formula_sum "Si O2"
_cell_formula_units_Z 14
_cell_length_a 7.424348
_cell_length_b 18.354918
_cell_length_c 7.100946
_cell_angle_alpha 51.224312
_cell_angle_beta 128.253932
_cell_angle_gamma 130.740514
_cell_volume 534.090089
_symmetry_space_group_name_H-M "P -1"
_symmetry_group_IT_number 2
_symmetry_cell_setting 'triclinic'
loop_
_space_group_symop_operation_xyz
x,y,z
-x,-y,-z
loop_
_atom_site_type_symbol
_atom_site_label
_atom_site_fract_x
_atom_site_fract_y
_atom_site_fract_z
Si Si1 0.058788 0.018686 0.228143
Si Si2 0.789592 0.142378 0.343422
Si Si3 0.269018 0.336737 0.221553
Si Si4 0.478914 0.106278 0.867843
Si Si5 0.757058 0.601311 0.504428
Si Si6 0.056208 0.795499 0.219480
Si Si7 0.835925 0.464776 0.257771
O O1 0.810655 0.926576 0.310594
O O2 0.052412 0.128153 0.063528
O O3 0.259632 0.978906 0.491176
O O4 0.000000 0.000000 0.000000
O O5 0.851433 0.176820 0.545969
O O6 0.018974 0.226891 0.227438
O O7 0.544570 0.136546 0.080446
O O8 0.305530 0.337791 0.468671
O O9 0.547904 0.375639 0.246655
O O10 0.192742 0.432680 0.990965
O O11 0.689956 0.191918 0.741272
O O12 0.500000 0.000000 0.000000
O O13 0.500000 0.500000 0.500000
O O14 0.836286 0.679822 0.253534
O O15 0.997920 0.572855 0.710711
O O16 0.000000 0.500000 0.500000
#
# Coordination Sequence:
#
# PCOD9022931 Si02
#       7
#     2   2   2   2   2   2   2
#     4   9  20  40  64  91 129 167 208 267 327 388
#     4  10  22  41  65  92 134 168 212 275 326 389
#     4  10  24  42  62 102 130 174 227 267 337 402
#     4  10  22  39  65  91 128 164 219 261 322 394
#     4  11  22  42  68  94 138 173 220 280 329 392
#     4   9  22  39  61  98 125 170 221 259 330 394
#     4  11  23  40  69  92 133 176 221 278 333 386
#
# _framework density 26.212807999999999
#
# number of rings (size 3 to 8) (size 9 to 14) (size 15 to 20)
#    0.000    2.000    1.429    0.429    4.000    7.429 
#    2.571    1.429    6.286    0.000    0.000    0.000 
#    0.000    0.000    0.000    0.000    0.000    0.000 
#
# Total GULP energy -78094.616259 kJ/mol
# GULP energy per Si atom -5578.186876 kJ/mol
# Density = 2.615315 g / cm^3
# Si number density = 26.212808 Si / 1000 Ang^3
#
#
#
# Elastic Constant Matrix: (Units=GPa)
#
#
# Indices 1 2 3 4 5 6 
#
# 1 123.4132 34.8097 25.3652 -3.5101 3.8235 33.3797
# 2 34.8097 106.8393 30.2041 -10.7938 1.2093 31.8208
# 3 25.3652 30.2041 94.1668 -25.7095 7.6853 22.1747
# 4 -3.5101 -10.7938 -25.7095 51.8957 -5.5918 -15.1582
# 5 3.8235 1.2093 7.6853 -5.5918 36.2075 6.4640
# 6 33.3797 31.8208 22.1747 -15.1582 6.4640 58.3838
#
#
#
# Elastic Compliance Matrix: (Units=1/GPa)
#
#
# Indices 1 2 3 4 5 6 
#
# 1 0.010125 -0.001615 -0.001578 -0.001840 -0.000112 -0.004774
# 2 -0.001615 0.011983 -0.002383 -0.000093 0.001128 -0.004851
# 3 -0.001578 -0.002383 0.013813 0.005663 -0.001561 -0.001402
# 4 -0.001840 -0.000093 0.005663 0.023543 0.001762 0.004869
# 5 -0.000112 0.001128 -0.001561 0.001762 0.028674 -0.002675
# 6 -0.004774 -0.004851 -0.001402 0.004869 -0.002675 0.024594
#
#
# Mechanical properties :
#
#
# Convention : Reuss Voigt Hill
#
# Bulk Modulus (GPa) = 40.37694 56.13081 48.25387
# Shear Modulus (GPa) = 37.83832 44.90009 41.36920
#
# Velocity S-wave (km/s) = 3.80347 4.14322 3.97697
# Velocity P-wave (km/s) = 5.89283 6.65945 6.28784
#
# Compressibility (1/GPa) = 0.02476661
#
# Stress axis : x y z
#
# Youngs Moduli (GPa) = 98.76244 83.45387 72.39788
#
# Poissons Ratio (x) = 0.13481 0.11425
# Poissons Ratio (y) = 0.15954 0.17256
# Poissons Ratio (z) = 0.15585 0.19891
#
# Static dielectric constant tensor:
#      x y z
#    x 2.187260 0.014980 -0.038340 
#    y 0.014980 2.158170 -0.001890 
#    z -0.038340 -0.001890 2.070860 
# 
# From -- ./inp_files/223089.got.cif
#   From: 2010.05.17/outbox.cif.g08.bks.cpg/sg2_112_cif.got.tgz:223089.got - 2010.06.03 11:33:40.
