data_PCOD9022126
_publ_section_title
;
Structure prediction by ZEFSAII (Michael W. Deem and Ramdas Pophale) SiO2 
 PCOD9022126
Probable space group: P -1
;
_chemical_formula_sum "Si O2"
_cell_formula_units_Z 14
_cell_length_a 12.190354
_cell_length_b 17.429270
_cell_length_c 11.074798
_cell_angle_alpha 136.684106
_cell_angle_beta 65.755286
_cell_angle_gamma 147.044215
_cell_volume 741.569764
_symmetry_space_group_name_H-M "P -1"
_symmetry_group_IT_number 2
_symmetry_cell_setting 'triclinic'
loop_
_space_group_symop_operation_xyz
x,y,z
-x,-y,-z
loop_
_atom_site_type_symbol
_atom_site_label
_atom_site_fract_x
_atom_site_fract_y
_atom_site_fract_z
Si Si1 0.925163 0.424385 0.808666
Si Si2 0.539571 0.288651 0.851289
Si Si3 0.164763 0.462492 0.401290
Si Si4 0.776679 0.250328 0.169703
Si Si5 0.045295 0.802212 0.570615
Si Si6 0.875737 0.739965 0.328112
Si Si7 0.368288 0.226457 0.602847
O O1 0.672253 0.282430 0.742079
O O2 0.918561 0.291321 0.614136
O O3 0.112686 0.639310 0.885238
O O4 0.000000 0.500000 0.000000
O O5 0.459935 0.294194 0.776404
O O6 0.304008 0.064906 0.774242
O O7 0.727993 0.513111 0.096546
O O8 0.199784 0.613979 0.614192
O O9 0.408610 0.625296 0.411609
O O10 0.943532 0.295725 0.216954
O O11 0.094373 0.327029 0.389920
O O12 0.500000 0.000000 0.000000
O O13 0.913513 0.767428 0.486676
O O14 0.733916 0.735420 0.344301
O O15 0.139623 0.959170 0.399754
#
# Coordination Sequence:
#
# PCOD9022126 Si02
#       7
#     2   2   2   2   2   2   2
#     4  11  21  36  59  87 113 153 189 233 295 337
#     4  11  21  38  60  84 116 150 195 240 286 338
#     4  10  22  39  56  84 120 153 186 232 295 339
#     4  10  23  37  56  86 119 151 189 231 285 354
#     4  10  23  37  56  88 119 149 188 241 286 345
#     4  10  22  40  60  87 112 151 203 240 277 334
#     4  10  22  40  62  83 115 154 196 241 282 337
#
# _framework density 18.878871
#
# number of rings (size 3 to 8) (size 9 to 14) (size 15 to 20)
#    0.000    1.714    2.857    0.857    4.000    0.571 
#    0.000    0.714    0.000    0.000    0.000    0.000 
#    0.000    0.000    0.000    0.000    0.000    0.000 
#
# Total GULP energy -78159.431521 kJ/mol
# GULP energy per Si atom -5582.816537 kJ/mol
# Density = 1.883590 g / cm^3
# Si number density = 18.878871 Si / 1000 Ang^3
#
#
#
# Elastic Constant Matrix: (Units=GPa)
#
#
# Indices 1 2 3 4 5 6 
#
# 1 101.8408 44.4019 13.0528 11.5954 20.9016 -6.8404
# 2 44.4019 159.1023 43.2187 21.3336 21.1244 -12.2303
# 3 13.0528 43.2187 74.5478 20.2078 17.2821 -7.8290
# 4 11.5954 21.3336 20.2078 23.4152 4.4282 1.1427
# 5 20.9016 21.1244 17.2821 4.4282 22.2332 5.2811
# 6 -6.8404 -12.2303 -7.8290 1.1427 5.2811 27.4941
#
#
#
# Elastic Compliance Matrix: (Units=1/GPa)
#
#
# Indices 1 2 3 4 5 6 
#
# 1 0.014649 -0.001687 0.005040 -0.007331 -0.016479 0.007799
# 2 -0.001687 0.008988 -0.001831 -0.004931 -0.005579 0.004334
# 3 0.005040 -0.001831 0.025086 -0.018987 -0.021695 0.012539
# 4 -0.007331 -0.004931 -0.018987 0.064733 0.017100 -0.015399
# 5 -0.016479 -0.005579 -0.021695 0.017100 0.086369 -0.030060
# 6 0.007799 0.004334 0.012539 -0.015399 -0.030060 0.050224
#
#
# Mechanical properties :
#
#
# Convention : Reuss Voigt Hill
#
# Bulk Modulus (GPa) = 19.31684 59.64863 39.48274
# Shear Modulus (GPa) = 18.92062 30.28301 24.60182
#
# Velocity S-wave (km/s) = 3.16921 4.00943 3.61382
# Velocity P-wave (km/s) = 4.86272 7.28684 6.19452
#
# Compressibility (1/GPa) = 0.05176829
#
# Stress axis : x y z
#
# Youngs Moduli (GPa) = 68.26183 111.25672 39.86257
#
# Poissons Ratio (x) = 0.18766 -0.20089
# Poissons Ratio (y) = 0.11514 0.07297
# Poissons Ratio (z) = -0.34401 0.20366
#
# Static dielectric constant tensor:
#      x y z
#    x 1.667810 -0.004980 0.001650 
#    y -0.004980 1.632600 0.006230 
#    z 0.001650 0.006230 1.647060 
# 
# From -- ./inp_files/28277.got.cif
#   From: 2010.05.17/outbox.cif.g08.bks.cpg/sg2_15_cif.got.tgz:28277.got - 2010.06.03 11:33:40.
