data_PCOD9022094
_publ_section_title
;
Structure prediction by ZEFSAII (Michael W. Deem and Ramdas Pophale) SiO2 
 PCOD9022094
Probable space group: P -1
;
_chemical_formula_sum "Si O2"
_cell_formula_units_Z 14
_cell_length_a 17.118306
_cell_length_b 8.764187
_cell_length_c 11.727388
_cell_angle_alpha 125.932752
_cell_angle_beta 141.173702
_cell_angle_gamma 35.030951
_cell_volume 626.788387
_symmetry_space_group_name_H-M "P -1"
_symmetry_group_IT_number 2
_symmetry_cell_setting 'triclinic'
loop_
_space_group_symop_operation_xyz
x,y,z
-x,-y,-z
loop_
_atom_site_type_symbol
_atom_site_label
_atom_site_fract_x
_atom_site_fract_y
_atom_site_fract_z
Si Si1 0.223958 0.864519 0.766618
Si Si2 0.876741 0.061506 0.559963
Si Si3 0.360907 0.320818 0.989875
Si Si4 0.457278 0.273101 0.829935
Si Si5 0.634575 0.932286 0.526776
Si Si6 0.975410 0.633862 0.652515
Si Si7 0.504066 0.466414 0.623405
O O1 0.165962 0.001801 0.636208
O O2 0.352490 0.541546 0.753710
O O3 0.345515 0.873811 0.980551
O O4 0.050672 0.990226 0.693978
O O5 0.698407 0.372275 0.508833
O O6 0.899398 0.910682 0.632307
O O7 0.352016 0.399406 0.883873
O O8 0.162070 0.469636 0.854626
O O9 0.436064 0.409215 0.190034
O O10 0.500000 0.000000 0.000000
O O11 0.454629 0.067125 0.686366
O O12 0.839191 0.682641 0.607596
O O13 0.500000 0.000000 0.500000
O O14 0.632012 0.154490 0.652181
O O15 0.000000 0.500000 0.500000
O O16 0.500000 0.500000 0.500000
#
# Coordination Sequence:
#
# PCOD9022094 Si02
#       7
#     2   2   2   2   2   2   2
#     4  10  22  38  72 103 133 180 246 300 339 418
#     4  11  21  41  67 102 137 183 234 297 356 416
#     4  12  25  45  78 104 137 190 251 297 351 436
#     4  11  22  44  69 100 140 189 244 290 355 429
#     4  12  27  45  69 105 154 188 231 303 371 419
#     4  12  24  45  74 104 138 189 250 295 350 438
#     4  12  25  46  69 101 148 187 231 301 370 422
#
# _framework density 22.336088
#
# number of rings (size 3 to 8) (size 9 to 14) (size 15 to 20)
#    0.000    0.571    5.714    2.571    2.000    1.714 
#    2.571    0.714    0.000    0.000    0.000    0.000 
#    0.000    0.000    0.000    0.000    0.000    0.000 
#
# Total GULP energy -78069.002922 kJ/mol
# GULP energy per Si atom -5576.357352 kJ/mol
# Density = 2.228525 g / cm^3
# Si number density = 22.336088 Si / 1000 Ang^3
#
#
#
# Elastic Constant Matrix: (Units=GPa)
#
#
# Indices 1 2 3 4 5 6 
#
# 1 120.4981 13.0727 41.6361 -13.6805 9.3766 -32.1596
# 2 13.0727 80.5297 45.7210 6.4532 9.7609 -15.3773
# 3 41.6361 45.7210 129.3075 4.8971 30.8312 -20.5595
# 4 -13.6805 6.4532 4.8971 45.1101 -7.7896 6.1649
# 5 9.3766 9.7609 30.8312 -7.7896 40.7982 -12.3392
# 6 -32.1596 -15.3773 -20.5595 6.1649 -12.3392 44.1984
#
#
#
# Elastic Compliance Matrix: (Units=1/GPa)
#
#
# Indices 1 2 3 4 5 6 
#
# 1 0.011590 0.001039 -0.003699 0.003230 0.002734 0.007386
# 2 0.001039 0.016266 -0.005574 -0.001822 0.001056 0.004371
# 3 -0.003699 -0.005574 0.012915 -0.003093 -0.008323 -0.000515
# 4 0.003230 -0.001822 -0.003093 0.025042 0.006378 -0.001434
# 5 0.002734 0.001056 -0.008323 0.006378 0.033214 0.006868
# 6 0.007386 0.004371 -0.000515 -0.001434 0.006868 0.031399
#
#
# Mechanical properties :
#
#
# Convention : Reuss Voigt Hill
#
# Bulk Modulus (GPa) = 41.14641 59.02164 50.08403
# Shear Modulus (GPa) = 32.25930 41.34836 36.80383
#
# Velocity S-wave (km/s) = 3.80448 4.30721 4.06363
# Velocity P-wave (km/s) = 6.14493 7.15666 6.67001
#
# Compressibility (1/GPa) = 0.02430346
#
# Stress axis : x y z
#
# Youngs Moduli (GPa) = 86.28419 61.47637 77.42974
#
# Poissons Ratio (x) = -0.06387 0.28640
# Poissons Ratio (y) = -0.08964 0.43157
# Poissons Ratio (z) = 0.31915 0.34265
#
# Static dielectric constant tensor:
#      x y z
#    x 1.927950 0.052200 -0.004960 
#    y 0.052200 1.910610 -0.016120 
#    z -0.004960 -0.016120 1.793830 
# 
# From -- ./inp_files/462473.got.cif
#   From: 2010.05.17/outbox.cif.g08.bks.cpg/sg2_232_cif.got.tgz:462473.got - 2010.06.03 11:33:40.
