data_PCOD9022639
_publ_section_title
;
Structure prediction by ZEFSAII (Michael W. Deem and Ramdas Pophale) SiO2 
 PCOD9022639
Probable space group: P -1
;
_chemical_formula_sum "Si O2"
_cell_formula_units_Z 16
_cell_length_a 12.197674
_cell_length_b 12.901208
_cell_length_c 9.790993
_cell_angle_alpha 70.213975
_cell_angle_beta 36.235296
_cell_angle_gamma 49.199233
_cell_volume 625.227867
_symmetry_space_group_name_H-M "P -1"
_symmetry_group_IT_number 2
_symmetry_cell_setting 'triclinic'
loop_
_space_group_symop_operation_xyz
x,y,z
-x,-y,-z
loop_
_atom_site_type_symbol
_atom_site_label
_atom_site_fract_x
_atom_site_fract_y
_atom_site_fract_z
Si Si1 0.502248 0.358933 0.973519
Si Si2 0.982961 0.849694 0.940464
Si Si3 0.677156 0.390207 0.523440
Si Si4 0.502865 0.121929 0.794476
Si Si5 0.431529 0.691907 0.767885
Si Si6 0.812443 0.538032 0.992620
Si Si7 0.696574 0.046929 0.908507
Si Si8 0.657913 0.787379 0.367568
O O1 0.563072 0.367201 0.062788
O O2 0.235945 0.486805 0.104066
O O3 0.709596 0.314714 0.671995
O O4 0.510796 0.223900 0.035879
O O5 0.118130 0.717630 0.748140
O O6 0.171693 0.798430 0.896775
O O7 0.892628 0.979485 0.867012
O O8 0.758541 0.870772 0.227642
O O9 0.617690 0.537704 0.561420
O O10 0.418032 0.434333 0.715162
O O11 0.538074 0.140483 0.593901
O O12 0.729670 0.041932 0.711928
O O13 0.271496 0.300209 0.988206
O O14 0.415664 0.030346 0.926473
O O15 0.535888 0.773671 0.622048
O O16 0.082832 0.388995 0.838368
#
# Coordination Sequence:
#
# PCOD9022639 Si02
#       8
#     2   2   2   2   2   2   2   2
#     4   9  22  43  60  89 129 169 208 243 306 382
#     4  11  23  40  64  95 124 159 210 262 304 361
#     4  10  22  39  63  93 123 160 205 260 307 359
#     4   9  18  35  59  92 119 156 200 261 305 346
#     4  12  24  39  66  91 130 167 197 259 314 364
#     4   9  19  37  61  88 128 156 200 256 308 369
#     4   9  20  38  64  84 129 163 206 257 301 366
#     4  11  23  35  64  97 123 155 208 253 317 367
#
# _framework density 25.590669999999999
#
# number of rings (size 3 to 8) (size 9 to 14) (size 15 to 20)
#    0.750    1.250    1.250    1.875    5.250    1.500 
#    0.000    2.500    0.000    0.000    0.000    0.000 
#    0.000    0.000    0.000    0.000    0.000    0.000 
#
# Total GULP energy -89135.618619 kJ/mol
# GULP energy per Si atom -5570.976164 kJ/mol
# Density = 2.553242 g / cm^3
# Si number density = 25.590670 Si / 1000 Ang^3
#
#
#
# Elastic Constant Matrix: (Units=GPa)
#
#
# Indices 1 2 3 4 5 6 
#
# 1 96.7793 19.9977 50.8002 -16.7756 19.0397 -34.0584
# 2 19.9977 94.5998 18.7617 -19.9249 -0.4627 -21.5962
# 3 50.8002 18.7617 97.0386 -28.5154 9.4002 -19.1011
# 4 -16.7756 -19.9249 -28.5154 35.9889 -5.5321 8.7656
# 5 19.0397 -0.4627 9.4002 -5.5321 36.6009 -16.0292
# 6 -34.0584 -21.5962 -19.1011 8.7656 -16.0292 58.5091
#
#
#
# Elastic Compliance Matrix: (Units=1/GPa)
#
#
# Indices 1 2 3 4 5 6 
#
# 1 0.017404 -0.000913 -0.007414 -0.000474 -0.004514 0.006208
# 2 -0.000913 0.013095 0.000422 0.006619 0.003458 0.004395
# 3 -0.007414 0.000422 0.017103 0.010461 0.001123 0.000163
# 4 -0.000474 0.006619 0.010461 0.039964 0.003985 0.000687
# 5 -0.004514 0.003458 0.001123 0.003985 0.033334 0.007550
# 6 0.006208 0.004395 0.000163 0.000687 0.007550 0.024346
#
#
# Mechanical properties :
#
#
# Convention : Reuss Voigt Hill
#
# Bulk Modulus (GPa) = 31.45756 51.94854 41.70305
# Shear Modulus (GPa) = 29.12836 39.47700 34.30268
#
# Velocity S-wave (km/s) = 3.37744 3.93190 3.66517
# Velocity P-wave (km/s) = 5.24679 6.39976 5.85174
#
# Compressibility (1/GPa) = 0.03178887
#
# Stress axis : x y z
#
# Youngs Moduli (GPa) = 57.45841 76.36691 58.47045
#
# Poissons Ratio (x) = 0.06974 0.43353
# Poissons Ratio (y) = 0.05248 -0.02465
# Poissons Ratio (z) = 0.42602 -0.03220
#
# Static dielectric constant tensor:
#      x y z
#    x 2.121150 0.011910 0.037790 
#    y 0.011910 2.092040 0.026790 
#    z 0.037790 0.026790 2.005170 
# 
# From -- ./inp_files/272315.got.cif
#   From: 2010.05.17/outbox.cif.g08.bks.cpg/sg2_137_cif.got.tgz:272315.got - 2010.06.03 11:33:40.
