data_PCOD9022746
_publ_section_title
;
Structure prediction by ZEFSAII (Michael W. Deem and Ramdas Pophale) SiO2 
 PCOD9022746
Probable space group: P -1
;
_chemical_formula_sum "Si O2"
_cell_formula_units_Z 16
_cell_length_a 8.373763
_cell_length_b 15.224650
_cell_length_c 12.279329
_cell_angle_alpha 28.885451
_cell_angle_beta 68.470509
_cell_angle_gamma 66.836918
_cell_volume 694.355051
_symmetry_space_group_name_H-M "P -1"
_symmetry_group_IT_number 2
_symmetry_cell_setting 'triclinic'
loop_
_space_group_symop_operation_xyz
x,y,z
-x,-y,-z
loop_
_atom_site_type_symbol
_atom_site_label
_atom_site_fract_x
_atom_site_fract_y
_atom_site_fract_z
Si Si1 0.106799 0.372045 0.523023
Si Si2 0.507126 0.415887 0.388232
Si Si3 0.169159 0.868015 0.412505
Si Si4 0.207467 0.051938 0.992780
Si Si5 0.000033 0.518913 0.813479
Si Si6 0.277843 0.162999 0.196547
Si Si7 0.641150 0.568192 0.966479
Si Si8 0.514133 0.775210 0.123480
O O1 0.309132 0.394878 0.442386
O O2 0.028134 0.434488 0.357606
O O3 0.000000 0.500000 0.500000
O O4 0.106362 0.169090 0.793525
O O5 0.639265 0.227235 0.573724
O O6 0.520428 0.562472 0.320967
O O7 0.585914 0.494336 0.175758
O O8 0.062381 0.704908 0.638635
O O9 0.103465 0.994325 0.186882
O O10 0.190259 0.984704 0.388527
O O11 0.328304 0.877091 0.098764
O O12 0.340085 0.179891 0.875918
O O13 0.824906 0.494301 0.945680
O O14 0.140034 0.338411 0.997939
O O15 0.343419 0.219659 0.236019
O O16 0.435975 0.139223 0.096662
O O17 0.500000 0.500000 0.000000
#
# Coordination Sequence:
#
# PCOD9022746 Si02
#       8
#     2   2   2   2   2   2   2   2
#     4  12  26  41  64 102 142 183 225 283 346 408
#     4  11  23  43  74  96 135 183 231 279 356 402
#     4  11  24  43  72 104 135 185 232 282 342 413
#     4  10  22  39  64 100 142 175 233 278 335 416
#     4  12  25  45  70 101 143 182 230 281 346 409
#     4  10  22  44  72 101 134 176 235 283 340 409
#     4  11  23  48  73 100 139 180 227 290 343 410
#     4   9  18  39  66  96 128 179 227 282 331 408
#
# _framework density 23.042964000000001
#
# number of rings (size 3 to 8) (size 9 to 14) (size 15 to 20)
#    0.000    1.250    3.750    4.125    1.750    2.000 
#    2.250    1.875    0.000    0.000    0.000    0.000 
#    0.000    0.000    0.000    0.000    0.000    0.000 
#
# Total GULP energy -89371.245630 kJ/mol
# GULP energy per Si atom -5585.702852 kJ/mol
# Density = 2.299052 g / cm^3
# Si number density = 23.042964 Si / 1000 Ang^3
#
#
#
# Elastic Constant Matrix: (Units=GPa)
#
#
# Indices 1 2 3 4 5 6 
#
# 1 97.7600 45.5602 36.2159 -6.0553 -17.7154 6.6133
# 2 45.5602 138.5692 43.5452 -5.7192 1.1054 21.6685
# 3 36.2159 43.5452 80.2977 -12.6440 -6.8172 6.9953
# 4 -6.0553 -5.7192 -12.6440 41.0768 2.8048 -10.3589
# 5 -17.7154 1.1054 -6.8172 2.8048 28.4999 3.5975
# 6 6.6133 21.6685 6.9953 -10.3589 3.5975 41.3013
#
#
#
# Elastic Compliance Matrix: (Units=1/GPa)
#
#
# Indices 1 2 3 4 5 6 
#
# 1 0.015015 -0.003645 -0.004055 -0.000289 0.008613 -0.000628
# 2 -0.003645 0.010308 -0.004022 -0.001191 -0.002983 -0.004182
# 3 -0.004055 -0.004022 0.017166 0.004247 0.001221 0.000811
# 4 -0.000289 -0.001191 0.004247 0.027409 -0.002706 0.007062
# 5 0.008613 -0.002983 0.001221 -0.002706 0.041662 -0.004329
# 6 -0.000628 -0.004182 0.000811 0.007062 -0.004329 0.028518
#
#
# Mechanical properties :
#
#
# Convention : Reuss Voigt Hill
#
# Bulk Modulus (GPa) = 52.51058 63.02994 57.77026
# Shear Modulus (GPa) = 29.43417 34.92930 32.18173
#
# Velocity S-wave (km/s) = 3.57790 3.89759 3.74116
# Velocity P-wave (km/s) = 6.31712 6.90417 6.61716
#
# Compressibility (1/GPa) = 0.01904378
#
# Stress axis : x y z
#
# Youngs Moduli (GPa) = 66.59816 97.01547 58.25580
#
# Poissons Ratio (x) = 0.35363 0.23623
# Poissons Ratio (y) = 0.24275 0.23432
# Poissons Ratio (z) = 0.27006 0.39022
#
# Static dielectric constant tensor:
#      x y z
#    x 1.903000 0.071490 0.009790 
#    y 0.071490 1.868550 -0.000230 
#    z 0.009790 -0.000230 1.961270 
# 
# From -- ./inp_files/398072.got.cif
#   From: 2010.05.17/outbox.cif.g08.bks.cpg/sg2_200_cif.got.tgz:398072.got - 2010.06.03 11:33:40.
