data_PCOD9022359
_publ_section_title
;
Structure prediction by ZEFSAII (Michael W. Deem and Ramdas Pophale) SiO2 
 PCOD9022359
Probable space group: P -1
;
_chemical_formula_sum "Si O2"
_cell_formula_units_Z 15
_cell_length_a 11.862229
_cell_length_b 14.704513
_cell_length_c 8.936464
_cell_angle_alpha 140.191162
_cell_angle_beta 61.982490
_cell_angle_gamma 142.778912
_cell_volume 561.638223
_symmetry_space_group_name_H-M "P -1"
_symmetry_group_IT_number 2
_symmetry_cell_setting 'triclinic'
loop_
_space_group_symop_operation_xyz
x,y,z
-x,-y,-z
loop_
_atom_site_type_symbol
_atom_site_label
_atom_site_fract_x
_atom_site_fract_y
_atom_site_fract_z
Si Si1 0.182631 0.381738 0.116673
Si Si2 0.478037 0.097456 0.907054
Si Si3 0.262369 0.121536 0.283094
Si Si4 0.000000 0.500000 0.000000
Si Si5 0.221589 0.255031 0.210355
Si Si6 0.299233 0.994799 0.379825
Si Si7 0.896694 0.377433 0.568818
Si Si8 0.534038 0.334442 0.928381
O O1 0.228633 0.401451 0.288845
O O2 0.217079 0.570895 0.280279
O O3 0.326287 0.442365 0.975642
O O4 0.957437 0.135829 0.928095
O O5 0.264259 0.882460 0.689666
O O6 0.567125 0.020291 0.790447
O O7 0.624543 0.295630 0.942696
O O8 0.425339 0.159680 0.149555
O O9 0.296052 0.127400 0.442622
O O10 0.260749 0.268790 0.380278
O O11 0.909266 0.264026 0.796235
O O12 0.013202 0.465689 0.762857
O O13 0.386780 0.300813 0.082141
O O14 0.000000 0.000000 0.000000
O O15 0.389740 0.124294 0.641567
O O16 0.000000 0.500000 0.500000
#
# Coordination Sequence:
#
# PCOD9022359 Si02
#       8
#     2   2   2   1   2   2   2   2
#     4  11  20  39  65  88 119 166 210 255 313 380
#     4  11  21  38  60  90 125 166 201 247 325 380
#     4  10  22  39  61  89 125 162 210 257 307 376
#     4  12  24  36  58  96 134 158 212 258 312 388
#     4   9  22  42  64  83 115 166 218 254 311 376
#     4  12  22  36  59  93 129 158 204 260 318 370
#     4  12  22  39  65  94 130 169 206 258 325 385
#     4  11  22  37  64  88 119 160 207 255 315 381
#
# _framework density 26.707585000000002
#
# number of rings (size 3 to 8) (size 9 to 14) (size 15 to 20)
#    0.000    1.067    5.333    2.000    0.000    0.000 
#    0.000    3.333    2.933    0.000    0.000    0.000 
#    0.000    0.000    0.000    0.000    0.000    0.000 
#
# Total GULP energy -83570.985827 kJ/mol
# GULP energy per Si atom -5571.399055 kJ/mol
# Density = 2.664680 g / cm^3
# Si number density = 26.707585 Si / 1000 Ang^3
#
#
#
# Elastic Constant Matrix: (Units=GPa)
#
#
# Indices 1 2 3 4 5 6 
#
# 1 90.8752 30.5167 9.4610 -18.5954 18.8999 -41.5018
# 2 30.5167 182.8679 33.6911 -10.6257 23.9607 -37.0234
# 3 9.4610 33.6911 76.3952 5.9837 16.5769 -11.2218
# 4 -18.5954 -10.6257 5.9837 35.2992 -5.8619 18.1574
# 5 18.8999 23.9607 16.5769 -5.8619 27.5909 -16.6098
# 6 -41.5018 -37.0234 -11.2218 18.1574 -16.6098 40.6059
#
#
#
# Elastic Compliance Matrix: (Units=1/GPa)
#
#
# Indices 1 2 3 4 5 6 
#
# 1 0.020943 0.001092 0.000734 -0.000345 -0.002797 0.021614
# 2 0.001092 0.007197 -0.001833 -0.000709 -0.002042 0.006654
# 3 0.000734 -0.001833 0.016487 -0.005791 -0.008357 0.002805
# 4 -0.000345 -0.000709 -0.005791 0.039249 0.000716 -0.019858
# 5 -0.002797 -0.002042 -0.008357 0.000716 0.053972 0.014727
# 6 0.021614 0.006654 0.002805 -0.019858 0.014727 0.068463
#
#
# Mechanical properties :
#
#
# Convention : Reuss Voigt Hill
#
# Bulk Modulus (GPa) = 22.41554 55.27509 38.84531
# Shear Modulus (GPa) = 22.60429 39.13050 30.86740
#
# Velocity S-wave (km/s) = 2.91239 3.83187 3.40333
# Velocity P-wave (km/s) = 4.44078 6.34973 5.47903
#
# Compressibility (1/GPa) = 0.04461191
#
# Stress axis : x y z
#
# Youngs Moduli (GPa) = 47.74904 138.93815 60.65528
#
# Poissons Ratio (x) = -0.15176 -0.04449
# Poissons Ratio (y) = -0.05216 0.11120
# Poissons Ratio (z) = -0.03503 0.25472
#
# Static dielectric constant tensor:
#      x y z
#    x 2.009400 0.528100 -0.723160 
#    y 0.528100 2.076720 0.262990 
#    z -0.723160 0.262990 1.329610 
# 
# From -- ./inp_files/180699.got.cif
#   From: 2010.05.17/outbox.cif.g08.bks.cpg/sg2_91_cif.got.tgz:180699.got - 2010.06.03 11:33:40.
