data_PCOD9022629
_publ_section_title
;
Structure prediction by ZEFSAII (Michael W. Deem and Ramdas Pophale) SiO2 
 PCOD9022629
Probable space group: P -1
;
_chemical_formula_sum "Si O2"
_cell_formula_units_Z 14
_cell_length_a 7.783055
_cell_length_b 7.657386
_cell_length_c 20.952352
_cell_angle_alpha 137.993665
_cell_angle_beta 42.938155
_cell_angle_gamma 124.027107
_cell_volume 568.923136
_symmetry_space_group_name_H-M "P -1"
_symmetry_group_IT_number 2
_symmetry_cell_setting 'triclinic'
loop_
_space_group_symop_operation_xyz
x,y,z
-x,-y,-z
loop_
_atom_site_type_symbol
_atom_site_label
_atom_site_fract_x
_atom_site_fract_y
_atom_site_fract_z
Si Si1 0.569282 0.853271 0.850631
Si Si2 0.293388 0.713429 0.622017
Si Si3 0.132967 0.612837 0.379066
Si Si4 0.936599 0.801976 0.220485
Si Si5 0.590448 0.060000 0.227900
Si Si6 0.013965 0.943388 0.383058
Si Si7 0.959015 0.204918 0.009369
O O1 0.651126 0.555914 0.755737
O O2 0.477070 0.859299 0.803337
O O3 0.313386 0.893662 0.970754
O O4 0.809281 0.055788 0.840760
O O5 0.500000 0.500000 0.500000
O O6 0.257127 0.731263 0.713253
O O7 0.070000 0.615014 0.609137
O O8 0.301401 0.022858 0.686926
O O9 0.992676 0.753918 0.397824
O O10 0.155745 0.813038 0.485130
O O11 0.933784 0.502177 0.118809
O O12 0.957120 0.822259 0.297068
O O13 0.313422 0.022692 0.323716
O O14 0.782893 0.822380 0.107899
O O15 0.000000 0.000000 0.000000
#
# Coordination Sequence:
#
# PCOD9022629 Si02
#       7
#     2   2   2   2   2   2   2
#     4   9  22  41  65  92 126 168 208 264 315 378
#     4  11  23  40  64  97 128 164 211 262 316 386
#     4  10  22  40  60  94 131 158 215 258 323 377
#     4  10  24  42  65  96 126 170 214 256 323 372
#     4  10  22  40  64  90 124 169 206 261 316 367
#     4  10  22  39  63  92 126 170 204 267 315 379
#     4  10  23  43  67  92 128 167 220 260 311 377
#
# _framework density 24.607890999999999
#
# number of rings (size 3 to 8) (size 9 to 14) (size 15 to 20)
#    0.000    2.000    1.429    0.000    8.000    7.429 
#    0.000    2.857    0.000    0.000    0.000    0.000 
#    0.000    0.000    0.000    0.000    0.000    0.000 
#
# Total GULP energy -78021.689914 kJ/mol
# GULP energy per Si atom -5572.977851 kJ/mol
# Density = 2.455188 g / cm^3
# Si number density = 24.607891 Si / 1000 Ang^3
#
#
#
# Elastic Constant Matrix: (Units=GPa)
#
#
# Indices 1 2 3 4 5 6 
#
# 1 67.4118 6.9429 16.5459 5.3251 -4.5248 -3.1916
# 2 6.9429 80.8739 30.9390 9.6173 -2.4148 0.8341
# 3 16.5459 30.9390 93.1287 13.9067 -22.7401 -6.6565
# 4 5.3251 9.6173 13.9067 41.0580 -3.7812 -3.0228
# 5 -4.5248 -2.4148 -22.7401 -3.7812 48.3898 -7.3157
# 6 -3.1916 0.8341 -6.6565 -3.0228 -7.3157 30.0078
#
#
#
# Elastic Compliance Matrix: (Units=1/GPa)
#
#
# Indices 1 2 3 4 5 6 
#
# 1 0.015603 -0.000329 -0.002316 -0.001036 0.000449 0.001160
# 2 -0.000329 0.014579 -0.005208 -0.001989 -0.002261 -0.002347
# 3 -0.002316 -0.005208 0.015401 -0.002671 0.007281 0.004821
# 4 -0.001036 -0.001989 -0.002671 0.026108 0.000923 0.002208
# 5 0.000449 -0.002261 0.007281 0.000923 0.025296 0.007986
# 6 0.001160 -0.002347 0.004821 0.002208 0.007986 0.036752
#
#
# Mechanical properties :
#
#
# Convention : Reuss Voigt Hill
#
# Bulk Modulus (GPa) = 33.46957 38.91888 36.19423
# Shear Modulus (GPa) = 31.36724 36.35688 33.86206
#
# Velocity S-wave (km/s) = 3.57414 3.84793 3.71356
# Velocity P-wave (km/s) = 5.53745 5.96590 5.75566
#
# Compressibility (1/GPa) = 0.02987788
#
# Stress axis : x y z
#
# Youngs Moduli (GPa) = 64.08888 68.59364 64.93292
#
# Poissons Ratio (x) = 0.02257 0.15037
# Poissons Ratio (y) = 0.02109 0.33814
# Poissons Ratio (z) = 0.14841 0.35720
#
# Static dielectric constant tensor:
#      x y z
#    x 1.962180 0.043040 -0.023310 
#    y 0.043040 2.104480 -0.044390 
#    z -0.023310 -0.044390 1.998670 
# 
# From -- ./inp_files/174734.got.cif
#   From: 2010.05.17/outbox.cif.g08.bks.cpg/sg2_88_cif.got.tgz:174734.got - 2010.06.03 11:33:40.
