data_PCOD9022079
_publ_section_title
;
Structure prediction by ZEFSAII (Michael W. Deem and Ramdas Pophale) SiO2 
 PCOD9022079
Probable space group: P -1
;
_chemical_formula_sum "Si O2"
_cell_formula_units_Z 16
_cell_length_a 8.415922
_cell_length_b 10.351221
_cell_length_c 15.209632
_cell_angle_alpha 51.897415
_cell_angle_beta 73.615189
_cell_angle_gamma 114.311951
_cell_volume 631.034064
_symmetry_space_group_name_H-M "P -1"
_symmetry_group_IT_number 2
_symmetry_cell_setting 'triclinic'
loop_
_space_group_symop_operation_xyz
x,y,z
-x,-y,-z
loop_
_atom_site_type_symbol
_atom_site_label
_atom_site_fract_x
_atom_site_fract_y
_atom_site_fract_z
Si Si1 0.253748 0.603388 0.294986
Si Si2 0.033336 0.258496 0.916320
Si Si3 0.587715 0.593077 0.335178
Si Si4 0.642563 0.953340 0.940629
Si Si5 0.263199 0.677147 0.823305
Si Si6 0.181054 0.980681 0.444728
Si Si7 0.725578 0.981371 0.391765
Si Si8 0.977592 0.946607 0.818714
O O1 0.422830 0.628781 0.327878
O O2 0.291860 0.827588 0.213872
O O3 0.993817 0.290410 0.463389
O O4 0.368082 0.695490 0.137828
O O5 0.234731 0.285088 0.831614
O O6 0.150152 0.523885 0.812381
O O7 0.818383 0.107388 0.937676
O O8 0.983275 0.150349 0.066814
O O9 0.776308 0.744310 0.326576
O O10 0.449925 0.313127 0.467548
O O11 0.729076 0.867338 0.905160
O O12 0.533521 0.775986 0.751260
O O13 0.368130 0.941543 0.684668
O O14 0.000000 0.500000 0.000000
O O15 0.256662 0.962129 0.534289
O O16 0.000000 0.000000 0.500000
O O17 0.998654 0.127333 0.245112
#
# Coordination Sequence:
#
# PCOD9022079 Si02
#       8
#     2   2   2   2   2   2   2   2
#     4  11  21  41  67  99 135 179 232 268 357 410
#     4  11  19  42  69  95 132 176 231 280 335 394
#     4  11  21  41  69  95 135 176 228 287 333 404
#     4  10  22  38  71 100 132 185 224 284 334 417
#     4  12  26  45  72 101 135 180 238 287 326 413
#     4  12  26  46  72  99 143 187 219 282 354 414
#     4  12  25  42  68  99 135 177 228 287 339 403
#     4  11  22  40  66 101 131 178 229 285 334 392
#
# _framework density 25.35521
#
# number of rings (size 3 to 8) (size 9 to 14) (size 15 to 20)
#    0.000    0.750    6.250    2.250    3.500    0.000 
#    0.000    6.875    0.000    0.000    0.000    0.000 
#    0.000    0.000    0.000    0.000    0.000    0.000 
#
# Total GULP energy -89151.740860 kJ/mol
# GULP energy per Si atom -5571.983804 kJ/mol
# Density = 2.529750 g / cm^3
# Si number density = 25.355210 Si / 1000 Ang^3
#
#
#
# Elastic Constant Matrix: (Units=GPa)
#
#
# Indices 1 2 3 4 5 6 
#
# 1 100.1257 3.8860 43.0854 -0.6914 7.4194 -25.6839
# 2 3.8860 58.5638 18.4773 22.0923 -7.9477 -9.4363
# 3 43.0854 18.4773 89.4993 -3.2338 -8.0992 -4.8211
# 4 -0.6914 22.0923 -3.2338 36.2804 -15.7917 -1.6172
# 5 7.4194 -7.9477 -8.0992 -15.7917 48.9995 0.2437
# 6 -25.6839 -9.4363 -4.8211 -1.6172 0.2437 29.4553
#
#
#
# Elastic Compliance Matrix: (Units=1/GPa)
#
#
# Indices 1 2 3 4 5 6 
#
# 1 0.018593 0.006009 -0.010024 -0.005854 -0.005465 0.016221
# 2 0.006009 0.028071 -0.009111 -0.019033 -0.004055 0.011730
# 3 -0.010024 -0.009111 0.018325 0.009280 0.006101 -0.008200
# 4 -0.005854 -0.019033 0.009280 0.045676 0.014090 -0.007292
# 5 -0.005465 -0.004055 0.006101 0.014090 0.026150 -0.004508
# 6 0.016221 0.011730 -0.008200 -0.007292 -0.004508 0.050146
#
#
# Mechanical properties :
#
#
# Convention : Reuss Voigt Hill
#
# Bulk Modulus (GPa) = 25.81436 42.12069 33.96752
# Shear Modulus (GPa) = 22.11171 35.12971 28.62071
#
# Velocity S-wave (km/s) = 2.95630 3.72627 3.36339
# Velocity P-wave (km/s) = 4.67505 5.92974 5.33938
#
# Compressibility (1/GPa) = 0.03873813
#
# Stress axis : x y z
#
# Youngs Moduli (GPa) = 53.78415 35.62423 54.56961
#
# Poissons Ratio (x) = -0.21407 0.54698
# Poissons Ratio (y) = -0.32319 0.49717
# Poissons Ratio (z) = 0.53911 0.32457
#
# Static dielectric constant tensor:
#      x y z
#    x 2.085560 -0.050850 -0.036850 
#    y -0.050850 1.986310 -0.054990 
#    z -0.036850 -0.054990 2.404240 
# 
# From -- ./inp_files/559763.got.cif
#   From: 2010.05.17/outbox.cif.g08.bks.cpg/sg2_280_cif.got.tgz:559763.got - 2010.06.03 11:33:40.
