data_PCOD9022097
_publ_section_title
;
Structure prediction by ZEFSAII (Michael W. Deem and Ramdas Pophale) SiO2 
 PCOD9022097
Probable space group: P -1
;
_chemical_formula_sum "Si O2"
_cell_formula_units_Z 14
_cell_length_a 8.999463
_cell_length_b 7.727845
_cell_length_c 10.797527
_cell_angle_alpha 57.034659
_cell_angle_beta 62.765140
_cell_angle_gamma 73.143951
_cell_volume 559.338891
_symmetry_space_group_name_H-M "P -1"
_symmetry_group_IT_number 2
_symmetry_cell_setting 'triclinic'
loop_
_space_group_symop_operation_xyz
x,y,z
-x,-y,-z
loop_
_atom_site_type_symbol
_atom_site_label
_atom_site_fract_x
_atom_site_fract_y
_atom_site_fract_z
Si Si1 0.096854 0.656660 0.316448
Si Si2 0.683305 0.342403 0.260652
Si Si3 0.539967 0.355087 0.926931
Si Si4 0.797331 0.697764 0.226896
Si Si5 0.956876 0.740363 0.901913
Si Si6 0.522802 0.030453 0.270930
Si Si7 0.841207 0.990993 0.649021
O O1 0.280593 0.597433 0.216657
O O2 0.132569 0.852939 0.310083
O O3 0.000000 0.500000 0.500000
O O4 0.966280 0.698382 0.240809
O O5 0.602889 0.560593 0.146837
O O6 0.745360 0.459492 0.315887
O O7 0.552321 0.185479 0.314261
O O8 0.851068 0.203627 0.208908
O O9 0.500000 0.500000 0.000000
O O10 0.542518 0.135545 0.084224
O O11 0.648324 0.829699 0.299092
O O12 0.854905 0.809566 0.034628
O O13 0.854398 0.775048 0.801602
O O14 0.000000 0.500000 0.000000
O O15 0.331141 0.971992 0.370088
O O16 0.000000 0.000000 0.500000
#
# Coordination Sequence:
#
# PCOD9022097 Si02
#       7
#     2   2   2   2   2   2   2
#     4  12  29  48  74 111 159 203 247 317 393 450
#     4  10  22  38  72 108 140 186 242 302 366 434
#     4  10  22  43  77 112 146 197 253 310 373 454
#     4  11  23  45  74 107 144 190 255 312 369 457
#     4  10  22  43  77 112 146 197 253 310 373 454
#     4  11  23  45  74 107 144 190 255 312 369 457
#     4  12  29  48  74 111 159 203 247 317 393 450
#
# _framework density 25.02955
#
# number of rings (size 3 to 8) (size 9 to 14) (size 15 to 20)
#    0.000    1.143    0.000    6.000    8.000    3.429 
#    2.571    2.857    0.000    0.000    0.000    0.000 
#    0.000    0.000    0.000    0.000    0.000    0.000 
#
# Total GULP energy -78102.915940 kJ/mol
# GULP energy per Si atom -5578.779710 kJ/mol
# Density = 2.497258 g / cm^3
# Si number density = 25.029550 Si / 1000 Ang^3
#
#
#
# Elastic Constant Matrix: (Units=GPa)
#
#
# Indices 1 2 3 4 5 6 
#
# 1 169.6569 59.1582 9.1750 24.9701 -26.5851 9.8779
# 2 59.1582 124.7126 27.0758 23.3760 -14.9417 4.5737
# 3 9.1750 27.0758 75.1700 18.4482 -28.9076 -3.6204
# 4 24.9701 23.3760 18.4482 34.8211 -4.8087 -9.5588
# 5 -26.5851 -14.9417 -28.9076 -4.8087 29.8295 8.3781
# 6 9.8779 4.5737 -3.6204 -9.5588 8.3781 52.0000
#
#
#
# Elastic Compliance Matrix: (Units=1/GPa)
#
#
# Indices 1 2 3 4 5 6 
#
# 1 0.010548 -0.002940 0.007630 -0.008976 0.015375 -0.005341
# 2 -0.002940 0.010797 -0.002581 -0.004139 -0.000006 -0.001331
# 3 0.007630 -0.002581 0.030361 -0.017224 0.034346 -0.007808
# 4 -0.008976 -0.004139 -0.017224 0.047554 -0.022831 0.013290
# 5 0.015375 -0.000006 0.034346 -0.022831 0.081859 -0.017915
# 6 -0.005341 -0.001331 -0.007808 0.013290 -0.017915 0.025148
#
#
# Mechanical properties :
#
#
# Convention : Reuss Voigt Hill
#
# Bulk Modulus (GPa) = 17.88129 62.26193 40.07161
# Shear Modulus (GPa) = 22.65621 41.60550 32.13085
#
# Velocity S-wave (km/s) = 3.01188 4.08150 3.58679
# Velocity P-wave (km/s) = 4.38803 6.86592 5.76176
#
# Compressibility (1/GPa) = 0.05592438
#
# Stress axis : x y z
#
# Youngs Moduli (GPa) = 94.80526 92.61778 32.93719
#
# Poissons Ratio (x) = 0.27226 -0.25130
# Poissons Ratio (y) = 0.27869 0.08501
# Poissons Ratio (z) = -0.72333 0.23903
#
# Static dielectric constant tensor:
#      x y z
#    x 1.696430 0.264820 0.054970 
#    y 0.264820 1.780720 -0.135710 
#    z 0.054970 -0.135710 2.244970 
# 
# From -- ./inp_files/377862.got.cif
#   From: 2010.05.17/outbox.cif.g08.bks.cpg/sg2_189_cif.got.tgz:377862.got - 2010.06.03 11:33:40.
