data_PCOD9022728
_publ_section_title
;
Structure prediction by ZEFSAII (Michael W. Deem and Ramdas Pophale) SiO2 
 PCOD9022728
Probable space group: P -1
;
_chemical_formula_sum "Si O2"
_cell_formula_units_Z 16
_cell_length_a 10.647045
_cell_length_b 6.242169
_cell_length_c 18.767068
_cell_angle_alpha 85.832629
_cell_angle_beta 144.723837
_cell_angle_gamma 104.823535
_cell_volume 675.310912
_symmetry_space_group_name_H-M "P -1"
_symmetry_group_IT_number 2
_symmetry_cell_setting 'triclinic'
loop_
_space_group_symop_operation_xyz
x,y,z
-x,-y,-z
loop_
_atom_site_type_symbol
_atom_site_label
_atom_site_fract_x
_atom_site_fract_y
_atom_site_fract_z
Si Si1 0.897775 0.769620 0.003057
Si Si2 0.715949 0.420078 0.804105
Si Si3 0.569530 0.162811 0.190183
Si Si4 0.825596 0.524878 0.183029
Si Si5 0.747178 0.992882 0.408620
Si Si6 0.756237 0.573500 0.674928
Si Si7 0.529720 0.808366 0.070525
Si Si8 0.650706 0.889731 0.525074
O O1 0.787967 0.546173 0.908654
O O2 0.674675 0.800363 0.935364
O O3 0.124290 0.730279 0.140820
O O4 0.000000 0.000000 0.000000
O O5 0.451729 0.254833 0.687824
O O6 0.783416 0.616067 0.770608
O O7 0.746132 0.352429 0.217403
O O8 0.659393 0.158689 0.312710
O O9 0.536923 0.913704 0.148731
O O10 0.754647 0.741292 0.163078
O O11 0.083229 0.551619 0.283400
O O12 0.681946 0.411140 0.047912
O O13 0.745984 0.026579 0.493303
O O14 0.000000 0.000000 0.500000
O O15 0.814446 0.814506 0.656550
O O16 0.507375 0.371104 0.563101
O O17 0.500000 0.000000 0.000000
O O18 0.500000 0.000000 0.500000
#
# Coordination Sequence:
#
# PCOD9022728 Si02
#       8
#     2   2   2   2   2   2   2   2
#     4  11  24  42  67 101 141 178 227 279 351 421
#     4  10  25  42  68 102 136 183 224 285 344 422
#     4  11  24  40  66 100 138 176 230 277 349 415
#     4  10  22  39  63  98 138 175 217 274 348 414
#     4  11  24  46  70  98 138 181 237 289 344 414
#     4  10  23  41  68  92 129 173 230 274 340 411
#     4   9  22  39  59  96 137 174 217 269 335 417
#     4  10  24  46  66  95 129 176 235 287 342 401
#
# _framework density 23.692792000000001
#
# number of rings (size 3 to 8) (size 9 to 14) (size 15 to 20)
#    0.000    1.750    1.250    0.750   10.500    3.000 
#    0.000    0.625    0.000    0.000    0.000    0.000 
#    0.000    0.000    0.000    0.000    0.000    0.000 
#
# Total GULP energy -89286.711792 kJ/mol
# GULP energy per Si atom -5580.419487 kJ/mol
# Density = 2.363887 g / cm^3
# Si number density = 23.692792 Si / 1000 Ang^3
#
#
#
# Elastic Constant Matrix: (Units=GPa)
#
#
# Indices 1 2 3 4 5 6 
#
# 1 133.1378 34.0266 47.0396 -17.6160 -1.2822 13.7280
# 2 34.0266 78.1048 33.8891 -20.7678 -1.1629 2.2634
# 3 47.0396 33.8891 71.2415 -16.3121 7.3018 17.1471
# 4 -17.6160 -20.7678 -16.3121 33.0725 10.9759 4.3035
# 5 -1.2822 -1.1629 7.3018 10.9759 43.6393 -8.9497
# 6 13.7280 2.2634 17.1471 4.3035 -8.9497 48.7192
#
#
#
# Elastic Compliance Matrix: (Units=1/GPa)
#
#
# Indices 1 2 3 4 5 6 
#
# 1 0.010147 -0.001602 -0.005379 0.001690 0.000537 -0.000942
# 2 -0.001602 0.018080 -0.006074 0.007434 -0.000202 0.001055
# 3 -0.005379 -0.006074 0.026395 0.010838 -0.009555 -0.010205
# 4 0.001690 0.007434 0.010838 0.048023 -0.016070 -0.011830
# 5 0.000537 -0.000202 -0.009555 -0.016070 0.030673 0.010275
# 6 -0.000942 0.001055 -0.010205 -0.011830 0.010275 0.027266
#
#
# Mechanical properties :
#
#
# Convention : Reuss Voigt Hill
#
# Bulk Modulus (GPa) = 35.07324 56.93273 46.00298
# Shear Modulus (GPa) = 25.48443 36.25479 30.86961
#
# Velocity S-wave (km/s) = 3.28322 3.91603 3.61350
# Velocity P-wave (km/s) = 5.40446 6.67298 6.07194
#
# Compressibility (1/GPa) = 0.02851177
#
# Stress axis : x y z
#
# Youngs Moduli (GPa) = 98.55252 55.31092 37.88606
#
# Poissons Ratio (x) = 0.08860 0.20380
# Poissons Ratio (y) = 0.15787 0.23011
# Poissons Ratio (z) = 0.53013 0.33595
#
# Static dielectric constant tensor:
#      x y z
#    x 1.959210 0.012970 -0.090520 
#    y 0.012970 1.892970 -0.015540 
#    z -0.090520 -0.015540 2.147420 
# 
# From -- ./inp_files/592760.got.cif
#   From: 2010.05.17/outbox.cif.g08.bks.cpg/sg2_297_cif.got.tgz:592760.got - 2010.06.03 11:33:40.
