data_PCOD9022023
_publ_section_title
;
Structure prediction by ZEFSAII (Michael W. Deem and Ramdas Pophale) SiO2 
 PCOD9022023
Probable space group: P -1
;
_chemical_formula_sum "Si O2"
_cell_formula_units_Z 16
_cell_length_a 16.072852
_cell_length_b 8.785652
_cell_length_c 9.036921
_cell_angle_alpha 98.957987
_cell_angle_beta 56.026009
_cell_angle_gamma 60.375890
_cell_volume 736.520547
_symmetry_space_group_name_H-M "P -1"
_symmetry_group_IT_number 2
_symmetry_cell_setting 'triclinic'
loop_
_space_group_symop_operation_xyz
x,y,z
-x,-y,-z
loop_
_atom_site_type_symbol
_atom_site_label
_atom_site_fract_x
_atom_site_fract_y
_atom_site_fract_z
Si Si1 0.361713 0.569246 0.580007
Si Si2 0.220124 0.943592 0.541679
Si Si3 0.579044 0.759022 0.752951
Si Si4 0.240249 0.560442 0.974110
Si Si5 0.509269 0.175020 0.835220
Si Si6 0.030007 0.228195 0.543803
Si Si7 0.096801 0.518206 0.581633
Si Si8 0.948586 0.384365 0.032629
O O1 0.500000 0.500000 0.500000
O O2 0.291446 0.735780 0.538055
O O3 0.406771 0.361055 0.424228
O O4 0.257714 0.664999 0.840313
O O5 0.340175 0.943329 0.403423
O O6 0.161939 0.985611 0.438243
O O7 0.075675 0.147186 0.800995
O O8 0.734978 0.643857 0.639963
O O9 0.496791 0.004270 0.829173
O O10 0.505288 0.758713 0.968003
O O11 0.385362 0.382092 0.890587
O O12 0.192302 0.469473 0.904736
O O13 0.110769 0.700330 0.239650
O O14 0.056101 0.379132 0.598149
O O15 0.000877 0.289035 0.410997
O O16 0.077838 0.622470 0.772493
O O17 0.000000 0.500000 0.000000
#
# Coordination Sequence:
#
# PCOD9022023 Si02
#       8
#     2   2   2   2   2   2   2   2
#     4  12  27  46  62  96 142 182 223 269 337 402
#     4  11  24  44  64  95 136 179 216 276 332 398
#     4  11  24  42  71 101 133 176 221 283 326 403
#     4  11  22  40  67  93 134 174 218 280 327 399
#     4  11  23  44  71 101 130 170 233 274 338 388
#     4  10  22  38  68  97 135 164 220 280 334 392
#     4  11  19  40  66 102 131 166 219 281 336 380
#     4  11  21  39  69  99 128 170 220 280 330 387
#
# _framework density 21.723768
#
# number of rings (size 3 to 8) (size 9 to 14) (size 15 to 20)
#    0.000    1.000    7.500    0.000    0.000    4.000 
#    2.250    0.625    0.000    0.000    0.000    0.000 
#    0.000    0.000    0.000    0.000    0.000    0.000 
#
# Total GULP energy -89198.557687 kJ/mol
# GULP energy per Si atom -5574.909855 kJ/mol
# Density = 2.167432 g / cm^3
# Si number density = 21.723768 Si / 1000 Ang^3
#
#
#
# Elastic Constant Matrix: (Units=GPa)
#
#
# Indices 1 2 3 4 5 6 
#
# 1 54.7669 6.5570 6.1352 0.1016 -4.2765 -15.2199
# 2 6.5570 90.8944 13.6954 -18.7288 -8.5354 -28.8177
# 3 6.1352 13.6954 73.4391 -15.7322 -1.2993 -1.4712
# 4 0.1016 -18.7288 -15.7322 32.4503 -3.9249 -1.0956
# 5 -4.2765 -8.5354 -1.2993 -3.9249 23.7630 -2.5264
# 6 -15.2199 -28.8177 -1.4712 -1.0956 -2.5264 33.7851
#
#
#
# Elastic Compliance Matrix: (Units=1/GPa)
#
#
# Indices 1 2 3 4 5 6 
#
# 1 0.022603 0.004738 -0.001625 0.003322 0.007808 0.014845
# 2 0.004738 0.022310 -0.000654 0.014967 0.013710 0.022646
# 3 -0.001625 -0.000654 0.015458 0.007294 0.001494 -0.000268
# 4 0.003322 0.014967 0.007294 0.045463 0.015714 0.017230
# 5 0.007808 0.013710 0.001494 0.015714 0.053190 0.019764
# 6 0.014845 0.022646 -0.000268 0.017230 0.019764 0.057628
#
#
# Mechanical properties :
#
#
# Convention : Reuss Voigt Hill
#
# Bulk Modulus (GPa) = 15.31618 30.20841 22.76229
# Shear Modulus (GPa) = 21.41371 30.84722 26.13046
#
# Velocity S-wave (km/s) = 3.14304 3.77234 3.47198
# Velocity P-wave (km/s) = 4.49859 5.73672 5.15496
#
# Compressibility (1/GPa) = 0.06529044
#
# Stress axis : x y z
#
# Youngs Moduli (GPa) = 44.24205 44.82320 64.69193
#
# Poissons Ratio (x) = -0.21239 0.10511
# Poissons Ratio (y) = -0.20964 0.04230
# Poissons Ratio (z) = 0.07189 0.02931
#
# Static dielectric constant tensor:
#      x y z
#    x 1.812710 0.013730 -0.018950 
#    y 0.013730 1.814750 -0.029410 
#    z -0.018950 -0.029410 1.938440 
# 
# From -- ./inp_files/298740.got.cif
#   From: 2010.05.17/outbox.cif.g08.bks.cpg/sg2_150_cif.got.tgz:298740.got - 2010.06.03 11:33:40.
