data_PCOD9022265
_publ_section_title
;
Structure prediction by ZEFSAII (Michael W. Deem and Ramdas Pophale) SiO2 
 PCOD9022265
Probable space group: P -1
;
_chemical_formula_sum "Si O2"
_cell_formula_units_Z 12
_cell_length_a 16.259570
_cell_length_b 10.081256
_cell_length_c 17.565604
_cell_angle_alpha 40.705579
_cell_angle_beta 16.774132
_cell_angle_gamma 36.979901
_cell_volume 499.472175
_symmetry_space_group_name_H-M "P -1"
_symmetry_group_IT_number 2
_symmetry_cell_setting 'triclinic'
loop_
_space_group_symop_operation_xyz
x,y,z
-x,-y,-z
loop_
_atom_site_type_symbol
_atom_site_label
_atom_site_fract_x
_atom_site_fract_y
_atom_site_fract_z
Si Si1 0.550145 0.349593 0.749477
Si Si2 0.549839 0.779021 0.798410
Si Si3 0.906481 0.345941 0.290633
Si Si4 0.397138 0.821415 0.502927
Si Si5 0.730574 0.126357 0.241796
Si Si6 0.255706 0.684634 0.242694
O O1 0.819910 0.279815 0.478491
O O2 0.431517 0.615780 0.747380
O O3 0.646792 0.254797 0.788981
O O4 0.264114 0.302622 0.989687
O O5 0.548660 0.571287 0.841528
O O6 0.900028 0.713001 0.548366
O O7 0.507903 0.982164 0.693106
O O8 0.326352 0.813066 0.053562
O O9 0.701556 0.607398 0.347913
O O10 0.777134 0.238353 0.386084
O O11 0.188528 0.879566 0.737933
O O12 0.500000 0.000000 0.500000
O O13 0.000000 0.000000 0.000000
#
# Coordination Sequence:
#
# PCOD9022265 Si02
#       6
#     2   2   2   2   2   2
#     4  11  22  41  60  88 127 159 203 253 299 357
#     4  10  22  39  63  88 120 163 198 250 305 355
#     4  10  24  40  65  89 120 167 200 251 304 352
#     4  10  23  43  63  91 125 157 208 248 301 371
#     4  11  23  36  61  92 117 153 195 253 312 353
#     4  10  22  39  60  89 122 159 203 247 301 360
#
# _framework density 24.025362999999999
#
# number of rings (size 3 to 8) (size 9 to 14) (size 15 to 20)
#    0.000    1.667    0.000    4.000    0.000   16.667 
#    0.000    5.000    0.000    0.000    0.000    0.000 
#    0.000    0.000    0.000    0.000    0.000    0.000 
#
# Total GULP energy -67271.106513 kJ/mol
# GULP energy per Si atom -5605.925543 kJ/mol
# Density = 2.397068 g / cm^3
# Si number density = 24.025363 Si / 1000 Ang^3
#
#
#
# Elastic Constant Matrix: (Units=GPa)
#
#
# Indices 1 2 3 4 5 6 
#
# 1 105.3519 8.7661 2.6447 1.9392 30.6689 5.0282
# 2 8.7661 78.9578 18.9076 0.6683 21.7089 -2.3153
# 3 2.6447 18.9076 103.3594 -7.0392 15.6860 -1.3898
# 4 1.9392 0.6683 -7.0392 12.6249 -0.5730 7.8982
# 5 30.6689 21.7089 15.6860 -0.5730 45.9990 -1.3600
# 6 5.0282 -2.3153 -1.3898 7.8982 -1.3600 18.4126
#
#
#
# Elastic Compliance Matrix: (Units=1/GPa)
#
#
# Indices 1 2 3 4 5 6 
#
# 1 0.012180 0.000749 0.000899 0.000789 -0.008894 -0.004160
# 2 0.000749 0.015068 -0.001966 -0.004056 -0.006909 0.002771
# 3 0.000899 -0.001966 0.011038 0.008078 -0.003435 -0.003378
# 4 0.000789 -0.004056 0.008078 0.114646 -0.001399 -0.049397
# 5 -0.008894 -0.006909 -0.003435 -0.001399 0.032211 0.004280
# 6 -0.004160 0.002771 -0.003378 -0.049397 0.004280 0.077045
#
#
# Mechanical properties :
#
#
# Convention : Reuss Voigt Hill
#
# Bulk Modulus (GPa) = 26.56054 38.70066 32.63060
# Shear Modulus (GPa) = 18.15718 32.56401 25.36060
#
# Velocity S-wave (km/s) = 2.75207 3.68557 3.25249
# Velocity P-wave (km/s) = 4.60193 5.85273 5.26461
#
# Compressibility (1/GPa) = 0.03764983
#
# Stress axis : x y z
#
# Youngs Moduli (GPa) = 82.09985 66.36694 90.59955
#
# Poissons Ratio (x) = -0.04972 -0.08144
# Poissons Ratio (y) = -0.06151 0.17812
# Poissons Ratio (z) = -0.07380 0.13048
#
# Static dielectric constant tensor:
#      x y z
#    x 1.913250 -0.000110 -0.020030 
#    y -0.000110 1.960150 0.007920 
#    z -0.020030 0.007920 1.841240 
# 
# From -- ./inp_files/366596.got.cif
#   From: 2010.05.17/outbox.cif.g08.bks.cpg/sg2_184_cif.got.tgz:366596.got - 2010.06.03 11:33:40.
