data_PCOD9022387
_publ_section_title
;
Structure prediction by ZEFSAII (Michael W. Deem and Ramdas Pophale) SiO2 
 PCOD9022387
Probable space group: P -1
;
_chemical_formula_sum "Si O2"
_cell_formula_units_Z 16
_cell_length_a 17.185426
_cell_length_b 5.203387
_cell_length_c 11.252304
_cell_angle_alpha 101.671396
_cell_angle_beta 134.921824
_cell_angle_gamma 75.612593
_cell_volume 689.593721
_symmetry_space_group_name_H-M "P -1"
_symmetry_group_IT_number 2
_symmetry_cell_setting 'triclinic'
loop_
_space_group_symop_operation_xyz
x,y,z
-x,-y,-z
loop_
_atom_site_type_symbol
_atom_site_label
_atom_site_fract_x
_atom_site_fract_y
_atom_site_fract_z
Si Si1 0.829885 0.459309 0.741003
Si Si2 0.444897 0.498800 0.069443
Si Si3 0.118190 0.114192 0.870980
Si Si4 0.451767 0.773570 0.542663
Si Si5 0.325181 0.739725 0.619125
Si Si6 0.023979 0.713511 0.895385
Si Si7 0.302197 0.010633 0.878160
Si Si8 0.329616 0.154409 0.251218
O O1 0.785769 0.354362 0.560508
O O2 0.719200 0.581176 0.703895
O O3 0.900646 0.690832 0.805074
O O4 0.904230 0.278421 0.903388
O O5 0.558188 0.470775 0.267234
O O6 0.500000 0.500000 0.000000
O O7 0.362481 0.774061 0.005244
O O8 0.370522 0.260135 0.972317
O O9 0.040382 0.921015 0.828843
O O10 0.176539 0.074825 0.801021
O O11 0.064838 0.419224 0.858840
O O12 0.224325 0.070600 0.068077
O O13 0.500000 0.500000 0.500000
O O14 0.364475 0.887577 0.561716
O O15 0.571987 0.811413 0.728500
O O16 0.392644 0.942744 0.387181
O O17 0.305900 0.893952 0.736404
#
# Coordination Sequence:
#
# PCOD9022387 Si02
#       8
#     2   2   2   2   2   2   2   2
#     4  10  22  42  65  97 122 165 215 264 333 372
#     4  10  22  39  61  91 130 166 210 250 299 374
#     4  11  23  42  66  88 125 169 217 260 322 371
#     4  11  22  36  55  94 131 154 202 252 315 375
#     4  11  22  38  64  90 128 165 208 255 309 383
#     4  10  24  44  67  93 125 161 215 281 320 373
#     4  11  24  42  63  94 128 174 211 253 310 379
#     4  10  23  36  62  89 125 169 199 259 313 392
#
# _framework density 23.202069000000002
#
# number of rings (size 3 to 8) (size 9 to 14) (size 15 to 20)
#    0.000    1.500    1.250    3.750    3.500    8.500 
#    0.000    1.250    0.000    0.000    0.000    0.000 
#    0.000    0.000    0.000    0.000    0.000    0.000 
#
# Total GULP energy -89097.817249 kJ/mol
# GULP energy per Si atom -5568.613578 kJ/mol
# Density = 2.314926 g / cm^3
# Si number density = 23.202069 Si / 1000 Ang^3
#
#
#
# Elastic Constant Matrix: (Units=GPa)
#
#
# Indices 1 2 3 4 5 6 
#
# 1 141.1932 43.7889 20.2306 19.4518 -9.8629 -2.6266
# 2 43.7889 95.4972 35.5339 19.4657 -2.9797 5.3030
# 3 20.2306 35.5339 89.5280 17.5591 -7.1294 0.2355
# 4 19.4518 19.4657 17.5591 19.5152 -5.3378 3.3623
# 5 -9.8629 -2.9797 -7.1294 -5.3378 37.7005 5.7496
# 6 -2.6266 5.3030 0.2355 3.3623 5.7496 32.6615
#
#
#
# Elastic Compliance Matrix: (Units=1/GPa)
#
#
# Indices 1 2 3 4 5 6 
#
# 1 0.008932 -0.003060 0.000514 -0.006318 0.001042 0.001678
# 2 -0.003060 0.015074 -0.003670 -0.008778 -0.001312 -0.001532
# 3 0.000514 -0.003670 0.014524 -0.009889 0.000981 0.001378
# 4 -0.006318 -0.008778 -0.009889 0.078935 0.008270 -0.008593
# 5 0.001042 -0.001312 0.000981 0.008270 0.028912 -0.005651
# 6 0.001678 -0.001532 0.001378 -0.008593 -0.005651 0.032870
#
#
# Mechanical properties :
#
#
# Convention : Reuss Voigt Hill
#
# Bulk Modulus (GPa) = 38.31791 58.36945 48.34368
# Shear Modulus (GPa) = 24.95270 33.08646 29.01958
#
# Velocity S-wave (km/s) = 3.28297 3.78036 3.54041
# Velocity P-wave (km/s) = 5.56068 6.65330 6.13138
#
# Compressibility (1/GPa) = 0.02609745
#
# Stress axis : x y z
#
# Youngs Moduli (GPa) = 111.95471 66.34102 68.85037
#
# Poissons Ratio (x) = 0.20299 -0.03536
# Poissons Ratio (y) = 0.34256 0.25269
# Poissons Ratio (z) = -0.05750 0.24348
#
# Static dielectric constant tensor:
#      x y z
#    x 2.172130 0.155100 -0.068860 
#    y 0.155100 2.123320 0.011780 
#    z -0.068860 0.011780 1.910600 
# 
# From -- ./inp_files/459235.got.cif
#   From: 2010.05.17/outbox.cif.g08.bks.cpg/sg2_230_cif.got.tgz:459235.got - 2010.06.03 11:33:40.
