data_PCOD9022969
_publ_section_title
;
Structure prediction by ZEFSAII (Michael W. Deem and Ramdas Pophale) SiO2 
 PCOD9022969
Probable space group: P -1
;
_chemical_formula_sum "Si O2"
_cell_formula_units_Z 16
_cell_length_a 12.596034
_cell_length_b 8.915028
_cell_length_c 14.410193
_cell_angle_alpha 38.620526
_cell_angle_beta 127.252678
_cell_angle_gamma 111.211224
_cell_volume 783.561684
_symmetry_space_group_name_H-M "P -1"
_symmetry_group_IT_number 2
_symmetry_cell_setting 'triclinic'
loop_
_space_group_symop_operation_xyz
x,y,z
-x,-y,-z
loop_
_atom_site_type_symbol
_atom_site_label
_atom_site_fract_x
_atom_site_fract_y
_atom_site_fract_z
Si Si1 0.905422 0.271759 0.824488
Si Si2 0.978563 0.374241 0.146894
Si Si3 0.528120 0.784821 0.926979
Si Si4 0.833157 0.544681 0.465641
Si Si5 0.400392 0.683086 0.288532
Si Si6 0.063622 0.803439 0.485382
Si Si7 0.530844 0.706019 0.171191
Si Si8 0.257542 0.642622 0.841465
O O1 0.885636 0.364158 0.664508
O O2 0.756224 0.282622 0.782498
O O3 0.971061 0.457963 0.829740
O O4 0.000000 0.000000 0.000000
O O5 0.824675 0.364492 0.103155
O O6 0.061025 0.088808 0.327946
O O7 0.000000 0.500000 0.000000
O O8 0.366650 0.815711 0.808100
O O9 0.562551 0.050235 0.818182
O O10 0.547135 0.630684 0.108903
O O11 0.639676 0.619794 0.998339
O O12 0.869613 0.393289 0.462765
O O13 0.671982 0.632780 0.336079
O O14 0.907838 0.768580 0.413654
O O15 0.500000 0.500000 0.500000
O O16 0.424894 0.611999 0.226848
O O17 0.142092 0.721473 0.662720
O O18 0.500000 0.000000 0.000000
#
# Coordination Sequence:
#
# PCOD9022969 Si02
#       8
#     2   2   2   2   2   2   2   2
#     4  12  26  45  71 100 144 183 227 286 352 414
#     4  12  28  43  66 102 139 178 223 281 349 409
#     4  10  24  42  68  95 132 175 228 278 342 406
#     4  11  23  44  70 101 135 182 235 282 342 410
#     4  11  24  39  67  98 134 176 226 280 338 412
#     4  11  25  42  71  97 137 177 231 285 338 409
#     4  10  22  39  65  94 129 173 230 277 331 399
#     4  11  23  45  68  96 133 178 224 284 344 409
#
# _framework density 20.419581000000001
#
# number of rings (size 3 to 8) (size 9 to 14) (size 15 to 20)
#    0.000    1.000    3.750    1.875    7.000    2.000 
#    0.000    0.000    0.000    4.500    0.000    0.000 
#    0.000    0.000    0.000    0.000    0.000    0.000 
#
# Total GULP energy -89284.043833 kJ/mol
# GULP energy per Si atom -5580.252740 kJ/mol
# Density = 2.037310 g / cm^3
# Si number density = 20.419581 Si / 1000 Ang^3
#
#
#
# Elastic Constant Matrix: (Units=GPa)
#
#
# Indices 1 2 3 4 5 6 
#
# 1 102.9960 5.8208 30.0594 -3.0703 -3.1642 7.4393
# 2 5.8208 70.9670 30.7613 -3.3948 -1.4652 19.8368
# 3 30.0594 30.7613 101.0779 -2.9140 -12.0637 0.0804
# 4 -3.0703 -3.3948 -2.9140 29.6626 -1.6692 -7.1462
# 5 -3.1642 -1.4652 -12.0637 -1.6692 38.4088 5.6304
# 6 7.4393 19.8368 0.0804 -7.1462 5.6304 25.3728
#
#
#
# Elastic Compliance Matrix: (Units=1/GPa)
#
#
# Indices 1 2 3 4 5 6 
#
# 1 0.011111 0.002233 -0.003924 -0.000194 0.000516 -0.005160
# 2 0.002233 0.022348 -0.007351 -0.002458 0.001422 -0.019111
# 3 -0.003924 -0.007351 0.013678 0.001883 0.002782 0.006767
# 4 -0.000194 -0.002458 0.001883 0.036552 0.000281 0.012205
# 5 0.000516 0.001422 0.002782 0.000281 0.028108 -0.007430
# 6 -0.005160 -0.019111 0.006767 0.012205 -0.007430 0.060932
#
#
# Mechanical properties :
#
#
# Convention : Reuss Voigt Hill
#
# Bulk Modulus (GPa) = 34.41872 45.36931 39.89402
# Shear Modulus (GPa) = 24.93794 32.58214 28.76004
#
# Velocity S-wave (km/s) = 3.49847 3.99887 3.75701
# Velocity P-wave (km/s) = 5.76293 6.60212 6.19675
#
# Compressibility (1/GPa) = 0.02905396
#
# Stress axis : x y z
#
# Youngs Moduli (GPa) = 90.00197 44.74623 73.10758
#
# Poissons Ratio (x) = -0.09993 0.28686
# Poissons Ratio (y) = -0.20100 0.53744
# Poissons Ratio (z) = 0.35315 0.32894
#
# Static dielectric constant tensor:
#      x y z
#    x 1.804190 -0.049500 0.012830 
#    y -0.049500 1.800360 0.020600 
#    z 0.012830 0.020600 1.685100 
# 
# From -- ./inp_files/514956.got.cif
#   From: 2010.05.17/outbox.cif.g08.bks.cpg/sg2_258_cif.got.tgz:514956.got - 2010.06.03 11:33:40.
