data_PCOD9022207
_publ_section_title
;
Structure prediction by ZEFSAII (Michael W. Deem and Ramdas Pophale) SiO2 
 PCOD9022207
Probable space group: P -1
;
_chemical_formula_sum "Si O2"
_cell_formula_units_Z 14
_cell_length_a 5.050780
_cell_length_b 12.288477
_cell_length_c 15.199994
_cell_angle_alpha 40.663564
_cell_angle_beta 80.913326
_cell_angle_gamma 72.711062
_cell_volume 583.500248
_symmetry_space_group_name_H-M "P -1"
_symmetry_group_IT_number 2
_symmetry_cell_setting 'triclinic'
loop_
_space_group_symop_operation_xyz
x,y,z
-x,-y,-z
loop_
_atom_site_type_symbol
_atom_site_label
_atom_site_fract_x
_atom_site_fract_y
_atom_site_fract_z
Si Si1 0.356663 0.946612 0.126458
Si Si2 0.192698 0.645836 0.244502
Si Si3 0.667139 0.586637 0.370564
Si Si4 0.001666 0.342617 0.214873
Si Si5 0.385814 0.818171 0.778563
Si Si6 0.048582 0.712759 0.008329
Si Si7 0.811142 0.912952 0.503127
O O1 0.568324 0.795005 0.262901
O O2 0.143805 0.839756 0.169018
O O3 0.210099 0.117094 0.082043
O O4 0.500000 0.000000 0.000000
O O5 0.996025 0.545256 0.365312
O O6 0.517870 0.564019 0.299621
O O7 0.133965 0.670785 0.130412
O O8 0.500000 0.500000 0.500000
O O9 0.282059 0.228714 0.220556
O O10 0.073597 0.284019 0.349219
O O11 0.734612 0.293657 0.219392
O O12 0.980393 0.542285 0.080303
O O13 0.288811 0.759375 0.911163
O O14 0.218480 0.016618 0.638088
O O15 0.500000 0.000000 0.500000
O O16 0.000000 0.000000 0.500000
#
# Coordination Sequence:
#
# PCOD9022207 Si02
#       7
#     2   2   2   2   2   2   2
#     4  10  23  41  65  90 130 162 204 248 315 365
#     4  10  23  40  64  90 126 160 203 254 314 360
#     4  10  22  43  66  85 123 164 205 258 307 359
#     4  10  22  39  60  86 124 157 202 250 300 356
#     4  10  22  39  59  90 118 159 203 250 297 362
#     4  12  22  39  63  94 122 162 200 250 310 366
#     4   8  16  36  59  76 115 157 192 245 299 342
#
# _framework density 23.993133
#
# number of rings (size 3 to 8) (size 9 to 14) (size 15 to 20)
#    0.857    1.143    1.429    1.714    0.000    4.571 
#    2.571    0.000    6.286    0.000    0.000    0.000 
#    0.000    0.000    0.000    0.000    0.000    0.000 
#
# Total GULP energy -78130.884160 kJ/mol
# GULP energy per Si atom -5580.777440 kJ/mol
# Density = 2.393852 g / cm^3
# Si number density = 23.993133 Si / 1000 Ang^3
#
#
#
# Elastic Constant Matrix: (Units=GPa)
#
#
# Indices 1 2 3 4 5 6 
#
# 1 125.7402 6.4741 14.2122 -2.1829 -14.1179 0.5928
# 2 6.4741 49.5995 21.1346 -5.5796 -0.4303 -3.0754
# 3 14.2122 21.1346 116.1495 3.4275 -29.0420 -6.8427
# 4 -2.1829 -5.5796 3.4275 20.2207 -2.4841 7.0158
# 5 -14.1179 -0.4303 -29.0420 -2.4841 36.9015 4.5732
# 6 0.5928 -3.0754 -6.8427 7.0158 4.5732 12.0165
#
#
#
# Elastic Compliance Matrix: (Units=1/GPa)
#
#
# Indices 1 2 3 4 5 6 
#
# 1 0.008497 -0.000929 -0.000238 0.002393 0.003658 -0.003582
# 2 -0.000929 0.023251 -0.005230 0.006488 -0.003850 0.000696
# 3 -0.000238 -0.005230 0.012122 -0.004120 0.008524 0.004738
# 4 0.002393 0.006488 -0.004120 0.068290 0.007752 -0.043625
# 5 0.003658 -0.003850 0.008524 0.007752 0.037559 -0.015132
# 6 -0.003582 0.000696 0.004738 -0.043625 -0.015132 0.117501
#
#
# Mechanical properties :
#
#
# Convention : Reuss Voigt Hill
#
# Bulk Modulus (GPa) = 32.17865 41.68123 36.92994
# Shear Modulus (GPa) = 17.21924 30.47228 23.84576
#
# Velocity S-wave (km/s) = 2.68185 3.56763 3.15597
# Velocity P-wave (km/s) = 4.79901 5.86349 5.35775
#
# Compressibility (1/GPa) = 0.03107651
#
# Stress axis : x y z
#
# Youngs Moduli (GPa) = 117.69243 43.00904 82.49171
#
# Poissons Ratio (x) = 0.03995 0.01961
# Poissons Ratio (y) = 0.10933 0.43145
# Poissons Ratio (z) = 0.02797 0.22495
#
# Static dielectric constant tensor:
#      x y z
#    x 1.917850 -0.017310 0.027950 
#    y -0.017310 1.928030 -0.000100 
#    z 0.027950 -0.000100 2.048140 
# 
# From -- ./inp_files/549801.got.cif
#   From: 2010.05.17/outbox.cif.g08.bks.cpg/sg2_275_cif.got.tgz:549801.got - 2010.06.03 11:33:40.
