data_PCOD9022662
_publ_section_title
;
Structure prediction by ZEFSAII (Michael W. Deem and Ramdas Pophale) SiO2 
 PCOD9022662
Probable space group: P -1
;
_chemical_formula_sum "Si O2"
_cell_formula_units_Z 16
_cell_length_a 12.212290
_cell_length_b 10.001736
_cell_length_c 12.525200
_cell_angle_alpha 55.744944
_cell_angle_beta 89.288137
_cell_angle_gamma 129.778707
_cell_volume 787.093339
_symmetry_space_group_name_H-M "P -1"
_symmetry_group_IT_number 2
_symmetry_cell_setting 'triclinic'
loop_
_space_group_symop_operation_xyz
x,y,z
-x,-y,-z
loop_
_atom_site_type_symbol
_atom_site_label
_atom_site_fract_x
_atom_site_fract_y
_atom_site_fract_z
Si Si1 0.830243 0.222947 0.008459
Si Si2 0.834533 0.188010 0.781075
Si Si3 0.293385 0.290601 0.087315
Si Si4 0.203439 0.548836 0.930975
Si Si5 0.815240 0.439290 0.515761
Si Si6 0.530404 0.925363 0.430422
Si Si7 0.321580 0.189805 0.622907
Si Si8 0.017573 0.069886 0.591019
O O1 0.830442 0.404080 0.975799
O O2 0.720590 0.973996 0.199522
O O3 0.783312 0.175479 0.906599
O O4 0.028800 0.385468 0.939881
O O5 0.748115 0.204907 0.686142
O O6 0.038941 0.438597 0.629636
O O7 0.783315 0.943197 0.876725
O O8 0.500000 0.500000 0.000000
O O9 0.250096 0.416603 0.986911
O O10 0.178779 0.154164 0.257991
O O11 0.364682 0.833792 0.755190
O O12 0.655110 0.334117 0.503161
O O13 0.900732 0.660268 0.501400
O O14 0.642250 0.889504 0.442048
O O15 0.500000 0.000000 0.500000
O O16 0.500000 0.500000 0.500000
O O17 0.150095 0.099261 0.637947
O O18 0.000000 0.000000 0.500000
#
# Coordination Sequence:
#
# PCOD9022662 Si02
#       8
#     2   2   2   2   2   2   2   2
#     4  10  22  41  66  96 126 181 219 279 340 394
#     4  10  23  40  68  92 134 177 214 278 344 390
#     4  11  24  44  62  97 136 173 225 279 332 411
#     4  10  22  39  63  93 135 164 231 272 322 411
#     4  10  22  43  61 100 138 168 231 275 329 419
#     4  11  23  39  67  98 133 180 220 279 343 394
#     4  11  23  44  68  99 135 172 242 284 328 416
#     4  11  25  43  71  99 136 185 222 287 348 400
#
# _framework density 20.327957999999999
#
# number of rings (size 3 to 8) (size 9 to 14) (size 15 to 20)
#    0.000    1.500    2.500    1.500    1.750    6.500 
#    0.000    3.125    0.000    0.000    0.000    0.000 
#    0.000    0.000    0.000    0.000    0.000    0.000 
#
# Total GULP energy -89249.061958 kJ/mol
# GULP energy per Si atom -5578.066372 kJ/mol
# Density = 2.028169 g / cm^3
# Si number density = 20.327958 Si / 1000 Ang^3
#
#
#
# Elastic Constant Matrix: (Units=GPa)
#
#
# Indices 1 2 3 4 5 6 
#
# 1 115.9467 19.8439 21.0848 -3.9484 -1.3609 -11.4159
# 2 19.8439 57.9282 26.0512 1.8907 -3.3521 -7.3423
# 3 21.0848 26.0512 45.4498 -2.9680 -3.2663 7.2374
# 4 -3.9484 1.8907 -2.9680 28.9116 -5.7709 -3.8506
# 5 -1.3609 -3.3521 -3.2663 -5.7709 33.1229 -14.8879
# 6 -11.4159 -7.3423 7.2374 -3.8506 -14.8879 28.9180
#
#
#
# Elastic Compliance Matrix: (Units=1/GPa)
#
#
# Indices 1 2 3 4 5 6 
#
# 1 0.010594 0.000164 -0.005834 0.002712 0.003989 0.008099
# 2 0.000164 0.027723 -0.017889 0.000108 0.008169 0.015801
# 3 -0.005834 -0.017889 0.037631 0.000110 -0.007317 -0.020015
# 4 0.002712 0.000108 0.000110 0.039218 0.012744 0.012854
# 5 0.003989 0.008169 -0.007317 0.012744 0.046716 0.031228
# 6 0.008099 0.015801 -0.020015 0.012854 0.031228 0.064588
#
#
# Mechanical properties :
#
#
# Convention : Reuss Voigt Hill
#
# Bulk Modulus (GPa) = 34.68623 39.25382 36.97003
# Shear Modulus (GPa) = 17.65538 28.34684 23.00111
#
# Velocity S-wave (km/s) = 2.95028 3.73832 3.36743
# Velocity P-wave (km/s) = 5.35778 6.16324 5.77457
#
# Compressibility (1/GPa) = 0.02882988
#
# Stress axis : x y z
#
# Youngs Moduli (GPa) = 94.39097 36.07055 26.57380
#
# Poissons Ratio (x) = -0.00590 0.15504
# Poissons Ratio (y) = -0.01544 0.47537
# Poissons Ratio (z) = 0.55072 0.64525
#
# Static dielectric constant tensor:
#      x y z
#    x 1.790610 0.000850 -0.008630 
#    y 0.000850 1.753550 0.005250 
#    z -0.008630 0.005250 1.737750 
# 
# From -- ./inp_files/278694.got.cif
#   From: 2010.05.17/outbox.cif.g08.bks.cpg/sg2_140_cif.got.tgz:278694.got - 2010.06.03 11:33:40.
