data_PCOD9022896
_publ_section_title
;
Structure prediction by ZEFSAII (Michael W. Deem and Ramdas Pophale) SiO2 
 PCOD9022896
Probable space group: P -1
;
_chemical_formula_sum "Si O2"
_cell_formula_units_Z 16
_cell_length_a 19.699537
_cell_length_b 13.317848
_cell_length_c 5.820291
_cell_angle_alpha 90.750347
_cell_angle_beta 112.655084
_cell_angle_gamma 143.711599
_cell_volume 671.903684
_symmetry_space_group_name_H-M "P -1"
_symmetry_group_IT_number 2
_symmetry_cell_setting 'triclinic'
loop_
_space_group_symop_operation_xyz
x,y,z
-x,-y,-z
loop_
_atom_site_type_symbol
_atom_site_label
_atom_site_fract_x
_atom_site_fract_y
_atom_site_fract_z
Si Si1 0.883470 0.597732 0.596778
Si Si2 0.673823 0.157737 0.233985
Si Si3 0.817008 0.978473 0.761631
Si Si4 0.994926 0.105398 0.609693
Si Si5 0.492129 0.378222 0.878680
Si Si6 0.402390 0.986757 0.370852
Si Si7 0.412118 0.632273 0.621283
Si Si8 0.755341 0.704935 0.890325
O O1 0.810263 0.402868 0.436595
O O2 0.939110 0.727377 0.452819
O O3 0.733004 0.477986 0.484306
O O4 0.035859 0.777534 0.966542
O O5 0.676980 0.104244 0.484414
O O6 0.687949 0.124996 0.996724
O O7 0.500000 0.000000 0.000000
O O8 0.639873 0.795463 0.492051
O O9 0.814316 0.887520 0.946799
O O10 0.848803 0.967674 0.552712
O O11 0.113459 0.219977 0.971114
O O12 0.000000 0.000000 0.500000
O O13 0.661417 0.570901 0.992547
O O14 0.500000 0.500000 0.000000
O O15 0.472525 0.261572 0.024102
O O16 0.500000 0.000000 0.500000
O O17 0.516618 0.216598 0.484324
O O18 0.360102 0.459929 0.467229
#
# Coordination Sequence:
#
# PCOD9022896 Si02
#       8
#     2   2   2   2   2   2   2   2
#     4  12  24  39  67  99 132 181 219 292 352 401
#     4  10  22  39  65 101 140 170 227 294 353 406
#     4  12  26  41  61  97 139 177 225 277 347 414
#     4  12  23  37  63  96 135 170 226 282 340 408
#     4  12  27  44  63  94 140 186 230 271 337 424
#     4  10  22  39  66 102 137 169 234 295 346 400
#     4  12  24  40  69  97 129 183 225 283 344 407
#     4  12  24  40  66  92 135 179 231 278 330 416
#
# _framework density 23.812937000000002
#
# number of rings (size 3 to 8) (size 9 to 14) (size 15 to 20)
#    0.000    0.500    7.500    2.250    7.000    0.000 
#    0.000    0.000    0.000    1.500    0.000    0.000 
#    0.000    0.000    0.000    0.000    0.000    0.000 
#
# Total GULP energy -89217.370815 kJ/mol
# GULP energy per Si atom -5576.085676 kJ/mol
# Density = 2.375874 g / cm^3
# Si number density = 23.812937 Si / 1000 Ang^3
#
#
#
# Elastic Constant Matrix: (Units=GPa)
#
#
# Indices 1 2 3 4 5 6 
#
# 1 36.6648 13.4141 3.6305 7.8592 -7.6585 6.4034
# 2 13.4141 159.8023 35.1303 -6.1092 -4.9599 -8.6671
# 3 3.6305 35.1303 102.2763 11.7715 -11.9438 -7.7782
# 4 7.8592 -6.1092 11.7715 47.7416 1.4469 -5.5998
# 5 -7.6585 -4.9599 -11.9438 1.4469 31.4775 0.3797
# 6 6.4034 -8.6671 -7.7782 -5.5998 0.3797 20.2788
#
#
#
# Elastic Compliance Matrix: (Units=1/GPa)
#
#
# Indices 1 2 3 4 5 6 
#
# 1 0.034906 -0.004012 0.001019 -0.008522 0.008818 -0.014864
# 2 -0.004012 0.007457 -0.002522 0.002766 -0.000937 0.004268
# 3 0.001019 -0.002522 0.011654 -0.003252 0.004397 0.002090
# 4 -0.008522 0.002766 -0.003252 0.024748 -0.004124 0.009537
# 5 0.008818 -0.000937 0.004397 -0.004124 0.035664 -0.003305
# 6 -0.014864 0.004268 0.002090 0.009537 -0.003305 0.059328
#
#
# Mechanical properties :
#
#
# Convention : Reuss Voigt Hill
#
# Bulk Modulus (GPa) = 23.26301 44.78814 34.02558
# Shear Modulus (GPa) = 25.11088 36.33748 30.72418
#
# Velocity S-wave (km/s) = 3.25084 3.91059 3.59587
# Velocity P-wave (km/s) = 4.88681 6.26414 5.61784
#
# Compressibility (1/GPa) = 0.04298669
#
# Stress axis : x y z
#
# Youngs Moduli (GPa) = 28.64855 134.09995 85.80538
#
# Poissons Ratio (x) = 0.53806 -0.08746
# Poissons Ratio (y) = 0.11495 0.21641
# Poissons Ratio (z) = -0.02920 0.33821
#
# Static dielectric constant tensor:
#      x y z
#    x 1.877860 0.013220 -0.076880 
#    y 0.013220 1.827500 0.028740 
#    z -0.076880 0.028740 2.123340 
# 
# From -- ./inp_files/98197.got.cif
#   From: 2010.05.17/outbox.cif.g08.bks.cpg/sg2_50_cif.got.tgz:98197.got - 2010.06.03 11:33:40.
