data_PCOD9022046
_publ_section_title
;
Structure prediction by ZEFSAII (Michael W. Deem and Ramdas Pophale) SiO2 
 PCOD9022046
Probable space group: P -1
;
_chemical_formula_sum "Si O2"
_cell_formula_units_Z 13
_cell_length_a 5.292061
_cell_length_b 9.416269
_cell_length_c 11.767699
_cell_angle_alpha 69.106897
_cell_angle_beta 81.767410
_cell_angle_gamma 74.245059
_cell_volume 526.561495
_symmetry_space_group_name_H-M "P -1"
_symmetry_group_IT_number 2
_symmetry_cell_setting 'triclinic'
loop_
_space_group_symop_operation_xyz
x,y,z
-x,-y,-z
loop_
_atom_site_type_symbol
_atom_site_label
_atom_site_fract_x
_atom_site_fract_y
_atom_site_fract_z
Si Si1 0.914506 0.604136 0.086627
Si Si2 0.703646 0.608347 0.482657
Si Si3 0.679121 0.110173 0.661528
Si Si4 0.787805 0.959820 0.940853
Si Si5 0.000000 0.000000 0.500000
Si Si6 0.543051 0.525318 0.857335
Si Si7 0.495229 0.179633 0.348515
O O1 0.668705 0.549686 0.170225
O O2 0.162782 0.567333 0.164233
O O3 0.858077 0.773872 0.988620
O O4 0.000000 0.500000 0.000000
O O5 0.500000 0.500000 0.500000
O O6 0.593387 0.759437 0.362041
O O7 0.636294 0.697744 0.582200
O O8 0.000000 0.500000 0.500000
O O9 0.899800 0.151868 0.556049
O O10 0.769154 0.047127 0.796945
O O11 0.666577 0.953601 0.627651
O O12 0.500000 0.000000 0.000000
O O13 0.000000 0.000000 0.000000
O O14 0.783928 0.092462 0.392090
O O15 0.500003 0.709810 0.790024
O O16 0.500000 0.500000 0.000000
#
# Coordination Sequence:
#
# PCOD9022046 Si02
#       7
#     2   2   2   2   1   2   2
#     4  10  22  43  68 103 143 191 247 292 367 441
#     4  11  28  48  72 111 154 195 249 323 395 441
#     4  11  27  49  80 108 150 209 269 313 380 473
#     4  12  29  49  76 112 160 203 250 316 395 463
#     4  10  24  42  80 106 140 190 274 316 364 422
#     4  10  22  38  69 107 141 180 238 309 362 425
#     4  11  26  45  80 108 148 204 264 313 373 464
#
# _framework density 24.688472000000001
#
# number of rings (size 3 to 8) (size 9 to 14) (size 15 to 20)
#    0.000    1.231    0.000    4.615   17.231    3.692 
#    0.000    0.000    0.000    0.000    0.000    0.000 
#    0.000    0.000    0.000    0.000    0.000    0.000 
#
# Total GULP energy -72483.863441 kJ/mol
# GULP energy per Si atom -5575.681803 kJ/mol
# Density = 2.463228 g / cm^3
# Si number density = 24.688472 Si / 1000 Ang^3
#
#
#
# Elastic Constant Matrix: (Units=GPa)
#
#
# Indices 1 2 3 4 5 6 
#
# 1 190.5528 62.1206 22.8219 -5.1482 34.1498 -21.7257
# 2 62.1206 164.7465 39.6589 -16.0143 22.2797 -11.0090
# 3 22.8219 39.6589 117.5106 -28.2122 23.9403 -5.2950
# 4 -5.1482 -16.0143 -28.2122 48.1289 -8.0941 5.1067
# 5 34.1498 22.2797 23.9403 -8.0941 30.0825 -15.5180
# 6 -21.7257 -11.0090 -5.2950 5.1067 -15.5180 50.5084
#
#
#
# Elastic Compliance Matrix: (Units=1/GPa)
#
#
# Indices 1 2 3 4 5 6 
#
# 1 0.007102 -0.001897 0.000512 -0.000809 -0.006952 0.000641
# 2 -0.001897 0.007514 -0.001514 0.001089 -0.001936 -0.000042
# 3 0.000512 -0.001514 0.011825 0.005268 -0.008491 -0.002011
# 4 -0.000809 0.001089 0.005268 0.024597 0.001761 -0.001504
# 5 -0.006952 -0.001936 -0.008491 0.001761 0.056431 0.012857
# 6 0.000641 -0.000042 -0.002011 -0.001504 0.012857 0.023957
#
#
# Mechanical properties :
#
#
# Convention : Reuss Voigt Hill
#
# Bulk Modulus (GPa) = 48.43881 80.22365 64.33123
# Shear Modulus (GPa) = 34.69677 48.95786 41.82732
#
# Velocity S-wave (km/s) = 3.75291 4.45795 4.12054
# Velocity P-wave (km/s) = 6.20014 7.68522 6.98228
#
# Compressibility (1/GPa) = 0.02064460
#
# Stress axis : x y z
#
# Youngs Moduli (GPa) = 140.80481 133.07738 84.56384
#
# Poissons Ratio (x) = 0.25242 -0.04329
# Poissons Ratio (y) = 0.26708 0.12800
# Poissons Ratio (z) = -0.07208 0.20144
#
# Static dielectric constant tensor:
#      x y z
#    x 1.647330 -0.017420 0.145130 
#    y -0.017420 1.947330 0.048880 
#    z 0.145130 0.048880 1.896030 
# 
# From -- ./inp_files/58980.got.cif
#   From: 2010.05.17/outbox.cif.g08.bks.cpg/sg2_30_cif.got.tgz:58980.got - 2010.06.03 11:33:40.
