data_PCOD9022203
_publ_section_title
;
Structure prediction by ZEFSAII (Michael W. Deem and Ramdas Pophale) SiO2 
 PCOD9022203
Probable space group: P -1
;
_chemical_formula_sum "Si O2"
_cell_formula_units_Z 14
_cell_length_a 13.904308
_cell_length_b 25.842255
_cell_length_c 14.365916
_cell_angle_alpha 18.616779
_cell_angle_beta 150.698398
_cell_angle_gamma 158.214956
_cell_volume 610.196400
_symmetry_space_group_name_H-M "P -1"
_symmetry_group_IT_number 2
_symmetry_cell_setting 'triclinic'
loop_
_space_group_symop_operation_xyz
x,y,z
-x,-y,-z
loop_
_atom_site_type_symbol
_atom_site_label
_atom_site_fract_x
_atom_site_fract_y
_atom_site_fract_z
Si Si1 0.652820 0.875820 0.844296
Si Si2 0.216730 0.272663 0.942661
Si Si3 0.532474 0.343633 0.745810
Si Si4 0.752599 0.969844 0.460487
Si Si5 0.911332 0.346104 0.275826
Si Si6 0.336077 0.250062 0.425535
Si Si7 0.347687 0.028640 0.976473
O O1 0.762629 0.770965 0.072623
O O2 0.375797 0.753661 0.767045
O O3 0.858389 0.130758 0.571423
O O4 0.570134 0.826038 0.967500
O O5 0.241282 0.119424 0.284240
O O6 0.441539 0.511938 0.757418
O O7 0.936054 0.194282 0.862205
O O8 0.500000 0.500000 0.500000
O O9 0.371976 0.207061 0.753442
O O10 0.837325 0.493723 0.721853
O O11 0.653803 0.788720 0.608146
O O12 0.051054 0.167171 0.349075
O O13 0.569244 0.026535 0.201291
O O14 0.000000 0.500000 0.000000
O O15 0.361510 0.095537 0.768179
#
# Coordination Sequence:
#
# PCOD9022203 Si02
#       7
#     2   2   2   2   2   2   2
#     4  10  22  39  59  89 125 162 211 254 306 375
#     4  11  24  40  66  95 130 165 210 268 316 380
#     4  11  23  39  59  90 130 169 206 257 315 372
#     4  10  24  43  68  94 125 164 218 265 319 388
#     4   9  21  37  59  81 120 164 208 251 301 361
#     4  10  23  46  66  92 128 168 206 271 329 371
#     4  11  25  40  65  97 128 165 218 261 313 386
#
# _framework density 22.943432999999999
#
# number of rings (size 3 to 8) (size 9 to 14) (size 15 to 20)
#    0.000    1.714    0.000    2.571    8.000    7.429 
#    0.000    0.000    0.000    0.000    0.000    0.000 
#    0.000    0.000    0.000    0.000    0.000    0.000 
#
# Total GULP energy -78255.256079 kJ/mol
# GULP energy per Si atom -5589.661148 kJ/mol
# Density = 2.289121 g / cm^3
# Si number density = 22.943433 Si / 1000 Ang^3
#
#
#
# Elastic Constant Matrix: (Units=GPa)
#
#
# Indices 1 2 3 4 5 6 
#
# 1 63.5918 19.2342 14.9260 -1.6933 -7.3860 -1.6809
# 2 19.2342 119.4141 41.4473 -19.5157 1.2640 12.5509
# 3 14.9260 41.4473 69.9564 -8.6000 1.4748 13.6295
# 4 -1.6933 -19.5157 -8.6000 53.8656 -0.5329 5.3845
# 5 -7.3860 1.2640 1.4748 -0.5329 20.6559 7.8530
# 6 -1.6809 12.5509 13.6295 5.3845 7.8530 25.6034
#
#
#
# Elastic Compliance Matrix: (Units=1/GPa)
#
#
# Indices 1 2 3 4 5 6 
#
# 1 0.017864 -0.002235 -0.003188 -0.000937 0.005825 0.002376
# 2 -0.002235 0.011535 -0.005136 0.003692 0.000473 -0.003989
# 3 -0.003188 -0.005136 0.020055 0.002176 0.001306 -0.009226
# 4 -0.000937 0.003692 0.002176 0.021089 0.003018 -0.008390
# 5 0.005825 0.000473 0.001306 0.003018 0.057618 -0.018852
# 6 0.002376 -0.003989 -0.009226 -0.008390 -0.018852 0.053626
#
#
# Mechanical properties :
#
#
# Convention : Reuss Voigt Hill
#
# Bulk Modulus (GPa) = 35.29214 44.90857 40.10035
# Shear Modulus (GPa) = 23.54596 31.84864 27.69730
#
# Velocity S-wave (km/s) = 3.20701 3.72981 3.47825
# Velocity P-wave (km/s) = 5.39711 6.17776 5.80059
#
# Compressibility (1/GPa) = 0.02833492
#
# Stress axis : x y z
#
# Youngs Moduli (GPa) = 55.97821 86.69635 49.86250
#
# Poissons Ratio (x) = 0.19380 0.15896
# Poissons Ratio (y) = 0.12514 0.25609
# Poissons Ratio (z) = 0.17846 0.44527
#
# Static dielectric constant tensor:
#      x y z
#    x 1.832620 0.029260 -0.000200 
#    y 0.029260 1.865190 0.051280 
#    z -0.000200 0.051280 1.894870 
# 
# From -- ./inp_files/535620.got.cif
#   From: 2010.05.17/outbox.cif.g08.bks.cpg/sg2_268_cif.got.tgz:535620.got - 2010.06.03 11:33:40.
