data_PCOD9022002
_publ_section_title
;
Structure prediction by ZEFSAII (Michael W. Deem and Ramdas Pophale) SiO2 
 PCOD9022002
Probable space group: P -1
;
_chemical_formula_sum "Si O2"
_cell_formula_units_Z 16
_cell_length_a 10.013874
_cell_length_b 8.100680
_cell_length_c 14.128340
_cell_angle_alpha 60.408693
_cell_angle_beta 97.245705
_cell_angle_gamma 135.437340
_cell_volume 649.697489
_symmetry_space_group_name_H-M "P -1"
_symmetry_group_IT_number 2
_symmetry_cell_setting 'triclinic'
loop_
_space_group_symop_operation_xyz
x,y,z
-x,-y,-z
loop_
_atom_site_type_symbol
_atom_site_label
_atom_site_fract_x
_atom_site_fract_y
_atom_site_fract_z
Si Si1 0.656374 0.616626 0.822438
Si Si2 0.948433 0.663794 0.036415
Si Si3 0.490001 0.848807 0.950882
Si Si4 0.952149 0.857979 0.187894
Si Si5 0.910225 0.627112 0.565337
Si Si6 0.672140 0.732998 0.593620
Si Si7 0.646163 0.322451 0.458763
Si Si8 0.860214 0.454838 0.801291
O O1 0.563958 0.603681 0.723264
O O2 0.789144 0.580175 0.801683
O O3 0.487332 0.338485 0.952377
O O4 0.817784 0.908334 0.813706
O O5 0.721097 0.383297 0.057525
O O6 0.936574 0.745628 0.115893
O O7 0.053314 0.576476 0.096243
O O8 0.062974 0.931322 0.899647
O O9 0.672557 0.135996 0.829193
O O10 0.500000 0.000000 0.000000
O O11 0.802985 0.592118 0.323044
O O12 0.749837 0.619063 0.588345
O O13 0.784916 0.393777 0.537393
O O14 0.993172 0.623839 0.671452
O O15 0.113438 0.938276 0.454848
O O16 0.519373 0.689533 0.527731
O O17 0.500000 0.000000 0.500000
#
# Coordination Sequence:
#
# PCOD9022002 Si02
#       8
#     2   2   2   2   2   2   2   2
#     4   9  19  42  62  93 125 159 211 260 316 375
#     4  10  23  43  64  90 132 169 203 259 317 375
#     4   9  20  37  61  95 125 154 210 258 303 375
#     4  10  23  44  61  91 132 167 210 257 316 381
#     4  10  23  44  64  96 128 162 217 263 320 372
#     4  10  22  43  68  89 124 170 212 268 317 370
#     4  12  27  41  65  95 126 171 217 263 315 380
#     4  10  22  38  68  94 122 167 205 262 314 372
#
# _framework density 24.626844999999999
#
# number of rings (size 3 to 8) (size 9 to 14) (size 15 to 20)
#    0.000    2.000    1.250    0.375    5.250    6.000 
#    4.500    1.875    0.000    0.000    0.000    0.000 
#    0.000    0.000    0.000    0.000    0.000    0.000 
#
# Total GULP energy -89304.952271 kJ/mol
# GULP energy per Si atom -5581.559517 kJ/mol
# Density = 2.457079 g / cm^3
# Si number density = 24.626845 Si / 1000 Ang^3
#
#
#
# Elastic Constant Matrix: (Units=GPa)
#
#
# Indices 1 2 3 4 5 6 
#
# 1 47.9835 3.5872 -1.5280 7.4130 11.4090 -5.0818
# 2 3.5872 149.8971 18.8034 1.2765 -3.5037 -2.5079
# 3 -1.5280 18.8034 67.5664 0.4841 -0.9260 -6.1202
# 4 7.4130 1.2765 0.4841 37.7164 9.1109 7.1209
# 5 11.4090 -3.5037 -0.9260 9.1109 23.8133 5.1885
# 6 -5.0818 -2.5079 -6.1202 7.1209 5.1885 27.4170
#
#
#
# Elastic Compliance Matrix: (Units=1/GPa)
#
#
# Indices 1 2 3 4 5 6 
#
# 1 0.025385 -0.000916 0.001426 -0.003462 -0.012713 0.008245
# 2 -0.000916 0.006975 -0.001953 -0.000379 0.001571 -0.000166
# 3 0.001426 -0.001953 0.015734 -0.000965 -0.000864 0.004012
# 4 -0.003462 -0.000379 -0.000965 0.030659 -0.008589 -0.007229
# 5 -0.012713 0.001571 -0.000864 -0.008589 0.053825 -0.010361
# 6 0.008245 -0.000166 0.004012 -0.007229 -0.010361 0.042721
#
#
# Mechanical properties :
#
#
# Convention : Reuss Voigt Hill
#
# Bulk Modulus (GPa) = 22.11895 34.13023 28.12459
# Shear Modulus (GPa) = 25.87254 34.09499 29.98377
#
# Velocity S-wave (km/s) = 3.24479 3.72488 3.49309
# Velocity P-wave (km/s) = 4.79993 5.69110 5.26441
#
# Compressibility (1/GPa) = 0.04521010
#
# Stress axis : x y z
#
# Youngs Moduli (GPa) = 39.39289 143.36357 63.55478
#
# Poissons Ratio (x) = 0.13134 -0.09066
# Poissons Ratio (y) = 0.03609 0.12411
# Poissons Ratio (z) = -0.05619 0.27995
#
# Static dielectric constant tensor:
#      x y z
#    x 2.041910 -0.036880 0.020000 
#    y -0.036880 1.904540 0.007330 
#    z 0.020000 0.007330 2.023530 
# 
# From -- ./inp_files/431808.got.cif
#   From: 2010.05.17/outbox.cif.g08.bks.cpg/sg2_216_cif.got.tgz:431808.got - 2010.06.03 11:33:40.
