data_PCOD9022596
_publ_section_title
;
Structure prediction by ZEFSAII (Michael W. Deem and Ramdas Pophale) SiO2 
 PCOD9022596
Probable space group: P -1
;
_chemical_formula_sum "Si O2"
_cell_formula_units_Z 16
_cell_length_a 26.814092
_cell_length_b 5.162010
_cell_length_c 5.456216
_cell_angle_alpha 86.629086
_cell_angle_beta 127.409162
_cell_angle_gamma 84.884977
_cell_volume 591.373801
_symmetry_space_group_name_H-M "P -1"
_symmetry_group_IT_number 2
_symmetry_cell_setting 'triclinic'
loop_
_space_group_symop_operation_xyz
x,y,z
-x,-y,-z
loop_
_atom_site_type_symbol
_atom_site_label
_atom_site_fract_x
_atom_site_fract_y
_atom_site_fract_z
Si Si1 0.425652 0.475777 0.269530
Si Si2 0.545407 0.722966 0.133008
Si Si3 0.311834 0.895840 0.900431
Si Si4 0.219241 0.052942 0.236645
Si Si5 0.869133 0.596912 0.718568
Si Si6 0.250496 0.433532 0.936386
Si Si7 0.104551 0.841178 0.763067
Si Si8 0.012163 0.281470 0.763836
O O1 0.500000 0.500000 0.500000
O O2 0.413794 0.331452 0.495514
O O3 0.415794 0.317839 0.001432
O O4 0.384852 0.764435 0.119213
O O5 0.500000 0.500000 0.000000
O O6 0.500000 0.000000 0.000000
O O7 0.278973 0.868305 0.539681
O O8 0.281805 0.692337 0.994925
O O9 0.290567 0.193439 0.911471
O O10 0.173178 0.136367 0.324705
O O11 0.169241 0.956869 0.905219
O O12 0.245298 0.302398 0.190382
O O13 0.822150 0.506845 0.384634
O O14 0.875885 0.408057 0.987334
O O15 0.941407 0.644341 0.886604
O O16 0.057769 0.794274 0.402078
O O17 0.057313 0.043143 0.778619
O O18 0.000000 0.500000 0.500000
#
# Coordination Sequence:
#
# PCOD9022596 Si02
#       8
#     2   2   2   2   2   2   2   2
#     4  10  24  47  74 106 145 187 238 295 362 428
#     4  10  22  42  71 103 142 184 229 282 350 424
#     4  11  26  44  66  99 132 174 226 281 341 413
#     4  10  22  39  63  88 129 170 221 275 335 408
#     4   9  18  36  56  88 123 166 216 272 333 399
#     4  11  25  42  66  95 131 175 225 275 341 406
#     4   9  15  31  58  82 123 164 213 266 339 392
#     4   8  15  27  54  88 117 165 206 270 336 394
#
# _framework density 27.055644999999998
#
# number of rings (size 3 to 8) (size 9 to 14) (size 15 to 20)
#    0.000    2.250    1.250    0.375    3.500    4.000 
#    2.250    0.625    0.000   25.500    0.000    0.000 
#    0.000    0.000    0.000    0.000    0.000    0.000 
#
# Total GULP energy -89530.460914 kJ/mol
# GULP energy per Si atom -5595.653807 kJ/mol
# Density = 2.699406 g / cm^3
# Si number density = 27.055645 Si / 1000 Ang^3
#
#
#
# Elastic Constant Matrix: (Units=GPa)
#
#
# Indices 1 2 3 4 5 6 
#
# 1 90.7781 19.3576 51.4419 -8.7186 13.7311 -5.3960
# 2 19.3576 104.6740 24.0874 -8.9424 2.5031 -15.9044
# 3 51.4419 24.0874 141.6734 -13.2443 11.9491 -12.5278
# 4 -8.7186 -8.9424 -13.2443 43.7315 -8.3887 2.6438
# 5 13.7311 2.5031 11.9491 -8.3887 64.6699 -5.0262
# 6 -5.3960 -15.9044 -12.5278 2.6438 -5.0262 52.8187
#
#
#
# Elastic Compliance Matrix: (Units=1/GPa)
#
#
# Indices 1 2 3 4 5 6 
#
# 1 0.014395 -0.001506 -0.004758 0.000749 -0.002049 -0.000344
# 2 -0.001506 0.010582 -0.000905 0.001515 0.000491 0.002789
# 3 -0.004758 -0.000905 0.009229 0.001512 -0.000361 0.001320
# 4 0.000749 0.001515 0.001512 0.024296 0.002649 -0.000073
# 5 -0.002049 0.000491 -0.000361 0.002649 0.016389 0.001280
# 6 -0.000344 0.002789 0.001320 -0.000073 0.001280 0.020176
#
#
# Mechanical properties :
#
#
# Convention : Reuss Voigt Hill
#
# Bulk Modulus (GPa) = 50.33939 58.54435 54.44187
# Shear Modulus (GPa) = 43.09296 48.39326 45.74311
#
# Velocity S-wave (km/s) = 3.99526 4.23384 4.11628
# Velocity P-wave (km/s) = 6.31895 6.75174 6.53892
#
# Compressibility (1/GPa) = 0.01986516
#
# Stress axis : x y z
#
# Youngs Moduli (GPa) = 69.46930 94.50219 108.35729
#
# Poissons Ratio (x) = 0.14236 0.51560
# Poissons Ratio (y) = 0.10465 0.09810
# Poissons Ratio (z) = 0.33056 0.08556
#
# Static dielectric constant tensor:
#      x y z
#    x 2.125340 -0.031210 -0.020270 
#    y -0.031210 2.202180 0.109610 
#    z -0.020270 0.109610 2.111530 
# 
# From -- ./inp_files/114581.got.cif
#   From: 2010.05.17/outbox.cif.g08.bks.cpg/sg2_58_cif.got.tgz:114581.got - 2010.06.03 11:33:40.
