data_PCOD9022525
_publ_section_title
;
Structure prediction by ZEFSAII (Michael W. Deem and Ramdas Pophale) SiO2 
 PCOD9022525
Probable space group: P -1
;
_chemical_formula_sum "Si O2"
_cell_formula_units_Z 16
_cell_length_a 14.596011
_cell_length_b 15.007296
_cell_length_c 14.896017
_cell_angle_alpha 150.495679
_cell_angle_beta 149.992336
_cell_angle_gamma 48.823035
_cell_volume 741.104388
_symmetry_space_group_name_H-M "P -1"
_symmetry_group_IT_number 2
_symmetry_cell_setting 'triclinic'
loop_
_space_group_symop_operation_xyz
x,y,z
-x,-y,-z
loop_
_atom_site_type_symbol
_atom_site_label
_atom_site_fract_x
_atom_site_fract_y
_atom_site_fract_z
Si Si1 0.297858 0.425415 0.702034
Si Si2 0.543443 0.310664 0.390807
Si Si3 0.184406 0.950514 0.801771
Si Si4 0.963685 0.120377 0.658810
Si Si5 0.329967 0.788540 0.413256
Si Si6 0.381532 0.061319 0.376438
Si Si7 0.977050 0.396987 0.768887
Si Si8 0.849865 0.264105 0.231988
O O1 0.311981 0.235505 0.498503
O O2 0.265822 0.588080 0.751034
O O3 0.090647 0.366032 0.530157
O O4 0.500000 0.500000 0.000000
O O5 0.500000 0.500000 0.500000
O O6 0.560091 0.302337 0.505124
O O7 0.747515 0.351318 0.549307
O O8 0.382989 0.091677 0.042632
O O9 0.037878 0.756808 0.456705
O O10 0.220202 0.876013 0.863175
O O11 0.067810 0.094857 0.815790
O O12 0.739721 0.073234 0.459907
O O13 0.041968 0.331682 0.861988
O O14 0.000000 0.000000 0.500000
O O15 0.462222 0.874839 0.516575
O O16 0.125469 0.611479 0.057692
O O17 0.500000 0.000000 0.500000
O O18 0.201602 0.872106 0.019790
#
# Coordination Sequence:
#
# PCOD9022525 Si02
#       8
#     2   2   2   2   2   2   2   2
#     4  11  26  49  77 104 147 187 247 314 371 433
#     4  11  21  39  62  94 137 174 224 290 350 428
#     4  11  22  39  65  98 133 179 233 292 363 426
#     4   9  20  40  64  95 134 183 229 289 357 433
#     4  11  23  41  65 100 134 184 247 282 364 441
#     4  12  26  48  75 105 147 200 245 310 374 435
#     4  10  22  39  62  93 138 179 227 287 356 436
#     4  11  26  49  73 110 142 191 252 304 373 446
#
# _framework density 21.589400000000001
#
# number of rings (size 3 to 8) (size 9 to 14) (size 15 to 20)
#    0.000    1.250    2.500    3.750    3.500    1.000 
#    4.500    0.000    0.000    0.000    0.000    0.000 
#    0.000    0.000    0.000    0.000    0.000    0.000 
#
# Total GULP energy -89089.285611 kJ/mol
# GULP energy per Si atom -5568.080351 kJ/mol
# Density = 2.154026 g / cm^3
# Si number density = 21.589400 Si / 1000 Ang^3
#
#
#
# Elastic Constant Matrix: (Units=GPa)
#
#
# Indices 1 2 3 4 5 6 
#
# 1 75.7212 58.2097 6.5534 3.3840 9.1814 3.8475
# 2 58.2097 186.1685 29.4700 -3.7746 -2.0566 4.9422
# 3 6.5534 29.4700 86.8976 -1.4118 4.4965 -8.2256
# 4 3.3840 -3.7746 -1.4118 32.2547 -3.8820 -6.8471
# 5 9.1814 -2.0566 4.4965 -3.8820 38.3114 3.4615
# 6 3.8475 4.9422 -8.2256 -6.8471 3.4615 33.1853
#
#
#
# Elastic Compliance Matrix: (Units=1/GPa)
#
#
# Indices 1 2 3 4 5 6 
#
# 1 0.018622 -0.006032 0.000728 -0.003513 -0.005113 -0.001272
# 2 -0.006032 0.007712 -0.002351 0.001513 0.002376 -0.000968
# 3 0.000728 -0.002351 0.012728 0.000763 -0.002060 0.003793
# 4 -0.003513 0.001513 0.000763 0.033481 0.003602 0.006903
# 5 -0.005113 0.002376 -0.002060 0.003602 0.028286 -0.002479
# 6 -0.001272 -0.000968 0.003793 0.006903 -0.002479 0.033048
#
#
# Mechanical properties :
#
#
# Convention : Reuss Voigt Hill
#
# Bulk Modulus (GPa) = 42.09813 59.69483 50.89648
# Shear Modulus (GPa) = 31.82627 37.72056 34.77342
#
# Velocity S-wave (km/s) = 3.84365 4.18446 4.01767
# Velocity P-wave (km/s) = 6.26418 7.14538 6.71924
#
# Compressibility (1/GPa) = 0.02375403
#
# Stress axis : x y z
#
# Youngs Moduli (GPa) = 53.70080 129.66600 78.56682
#
# Poissons Ratio (x) = 0.78211 -0.05722
# Poissons Ratio (y) = 0.32391 0.18467
# Poissons Ratio (z) = -0.03911 0.30478
#
# Static dielectric constant tensor:
#      x y z
#    x 1.801360 -0.053460 -0.043170 
#    y -0.053460 1.887710 -0.005770 
#    z -0.043170 -0.005770 1.946910 
# 
# From -- ./inp_files/534659.got.cif
#   From: 2010.05.17/outbox.cif.g08.bks.cpg/sg2_268_cif.got.tgz:534659.got - 2010.06.03 11:33:40.
