data_PCOD9022734
_publ_section_title
;
Structure prediction by ZEFSAII (Michael W. Deem and Ramdas Pophale) SiO2 
 PCOD9022734
Probable space group: P -1
;
_chemical_formula_sum "Si O2"
_cell_formula_units_Z 15
_cell_length_a 6.775093
_cell_length_b 15.553767
_cell_length_c 11.574150
_cell_angle_alpha 36.833418
_cell_angle_beta 57.059123
_cell_angle_gamma 58.424269
_cell_volume 604.080713
_symmetry_space_group_name_H-M "P -1"
_symmetry_group_IT_number 2
_symmetry_cell_setting 'triclinic'
loop_
_space_group_symop_operation_xyz
x,y,z
-x,-y,-z
loop_
_atom_site_type_symbol
_atom_site_label
_atom_site_fract_x
_atom_site_fract_y
_atom_site_fract_z
Si Si1 0.596774 0.557775 0.522067
Si Si2 0.736928 0.672701 0.689570
Si Si3 0.285316 0.953786 0.944177
Si Si4 0.000000 0.500000 0.000000
Si Si5 0.094207 0.578050 0.248758
Si Si6 0.370501 0.851021 0.271328
Si Si7 0.161398 0.003299 0.677641
Si Si8 0.191445 0.734828 0.816969
O O1 0.500000 0.500000 0.500000
O O2 0.686233 0.434415 0.719298
O O3 0.392107 0.688275 0.488252
O O4 0.838433 0.618728 0.346661
O O5 0.884247 0.588027 0.627314
O O6 0.770600 0.836968 0.520401
O O7 0.459766 0.672018 0.760890
O O8 0.825455 0.568195 0.879575
O O9 0.423327 0.082702 0.801142
O O10 0.301389 0.928465 0.828032
O O11 0.384910 0.840013 0.137664
O O12 0.000000 0.000000 0.000000
O O13 0.982053 0.330040 0.143280
O O14 0.126554 0.681199 0.022610
O O15 0.124354 0.959263 0.253215
O O16 0.194393 0.905147 0.658256
#
# Coordination Sequence:
#
# PCOD9022734 Si02
#       8
#     2   2   2   1   2   2   2   2
#     4  11  24  39  67 100 132 176 220 272 335 407
#     4  11  24  47  68  96 136 181 227 291 339 396
#     4   9  21  38  62  91 138 175 210 270 336 399
#     4  10  24  46  68  92 130 172 234 284 334 398
#     4  10  24  42  66  96 137 174 228 272 335 411
#     4  10  22  39  63  99 138 176 219 270 336 405
#     4  11  24  41  69 102 135 177 228 282 343 406
#     4  11  26  44  71  98 134 182 231 283 344 402
#
# _framework density 24.831119000000001
#
# number of rings (size 3 to 8) (size 9 to 14) (size 15 to 20)
#    0.000    1.600    0.000    3.600    7.467   11.200 
#    0.000    0.000    0.000    0.000    0.000    0.000 
#    0.000    0.000    0.000    0.000    0.000    0.000 
#
# Total GULP energy -83578.059928 kJ/mol
# GULP energy per Si atom -5571.870662 kJ/mol
# Density = 2.477460 g / cm^3
# Si number density = 24.831119 Si / 1000 Ang^3
#
#
#
# Elastic Constant Matrix: (Units=GPa)
#
#
# Indices 1 2 3 4 5 6 
#
# 1 138.5295 42.9581 11.9434 -3.2039 10.5730 33.7221
# 2 42.9581 93.9675 9.8641 -20.6275 -3.4831 17.9354
# 3 11.9434 9.8641 40.2375 -8.2029 -6.5450 5.0715
# 4 -3.2039 -20.6275 -8.2029 24.3160 1.5707 -13.9360
# 5 10.5730 -3.4831 -6.5450 1.5707 29.7917 -10.0932
# 6 33.7221 17.9354 5.0715 -13.9360 -10.0932 38.4648
#
#
#
# Elastic Compliance Matrix: (Units=1/GPa)
#
#
# Indices 1 2 3 4 5 6 
#
# 1 0.014565 -0.006394 -0.005531 -0.014665 -0.012323 -0.017606
# 2 -0.006394 0.016135 0.001409 0.015867 0.005338 0.005046
# 3 -0.005531 0.001409 0.029825 0.014639 0.010749 0.008384
# 4 -0.014665 0.015867 0.014639 0.077242 0.018527 0.036374
# 5 -0.012323 0.005338 0.010749 0.018527 0.048907 0.026443
# 6 -0.017606 0.005046 0.008384 0.036374 0.026443 0.058092
#
#
# Mechanical properties :
#
#
# Convention : Reuss Voigt Hill
#
# Bulk Modulus (GPa) = 25.32005 44.69618 35.00812
# Shear Modulus (GPa) = 17.92364 32.37911 25.15137
#
# Velocity S-wave (km/s) = 2.68959 3.61497 3.18606
# Velocity P-wave (km/s) = 4.45693 5.95510 5.25963
#
# Compressibility (1/GPa) = 0.03949439
#
# Stress axis : x y z
#
# Youngs Moduli (GPa) = 68.65616 61.97737 33.52936
#
# Poissons Ratio (x) = 0.39626 0.18545
# Poissons Ratio (y) = 0.43896 -0.04726
# Poissons Ratio (z) = 0.37974 -0.08735
#
# Static dielectric constant tensor:
#      x y z
#    x 1.921290 0.019410 -0.046500 
#    y 0.019410 2.003610 0.000130 
#    z -0.046500 0.000130 2.104350 
# 
# From -- ./inp_files/80854.got.cif
#   From: 2010.05.17/outbox.cif.g08.bks.cpg/sg2_41_cif.got.tgz:80854.got - 2010.06.03 11:33:40.
