data_PCOD9022204
_publ_section_title
;
Structure prediction by ZEFSAII (Michael W. Deem and Ramdas Pophale) SiO2 
 PCOD9022204
Probable space group: P -1
;
_chemical_formula_sum "Si O2"
_cell_formula_units_Z 12
_cell_length_a 10.022848
_cell_length_b 4.995643
_cell_length_c 10.601756
_cell_angle_alpha 91.648379
_cell_angle_beta 82.468648
_cell_angle_gamma 101.823594
_cell_volume 515.090069
_symmetry_space_group_name_H-M "P -1"
_symmetry_group_IT_number 2
_symmetry_cell_setting 'triclinic'
loop_
_space_group_symop_operation_xyz
x,y,z
-x,-y,-z
loop_
_atom_site_type_symbol
_atom_site_label
_atom_site_fract_x
_atom_site_fract_y
_atom_site_fract_z
Si Si1 0.910287 0.709467 0.470512
Si Si2 0.261320 0.158134 0.712297
Si Si3 0.383555 0.254155 0.456019
Si Si4 0.837328 0.952615 0.016250
Si Si5 0.498718 0.621903 0.800968
Si Si6 0.320098 0.642570 0.053165
O O1 0.867033 0.730984 0.329768
O O2 0.759442 0.648692 0.551812
O O3 0.000000 0.500000 0.500000
O O4 0.000000 0.000000 0.500000
O O5 0.331517 0.050045 0.577791
O O6 0.213287 0.975181 0.836596
O O7 0.372892 0.410835 0.752481
O O8 0.500000 0.500000 0.500000
O O9 0.437182 0.171542 0.314597
O O10 0.774497 0.637382 0.990377
O O11 0.772513 0.132328 0.927042
O O12 0.000000 0.000000 0.000000
O O13 0.440195 0.736466 0.934927
O O14 0.606967 0.445222 0.834113
#
# Coordination Sequence:
#
# PCOD9022204 Si02
#       6
#     2   2   2   2   2   2
#     4  10  22  39  59  89 126 161 203 255 312 372
#     4   8  20  38  62  88 126 160 208 257 313 369
#     4   8  17  40  64  90 123 166 208 255 314 372
#     4  11  23  42  61  89 127 167 206 252 319 379
#     4   9  18  39  65  92 126 158 215 260 317 366
#     4  10  23  38  65  93 121 161 211 265 300 372
#
# _framework density 23.296894999999999
#
# number of rings (size 3 to 8) (size 9 to 14) (size 15 to 20)
#    1.000    1.667    0.000    0.500    0.000   11.333 
#    0.000    6.667    0.000    0.000    0.000    0.000 
#    0.000    0.000    0.000    0.000    0.000    0.000 
#
# Total GULP energy -66925.645543 kJ/mol
# GULP energy per Si atom -5577.137129 kJ/mol
# Density = 2.324387 g / cm^3
# Si number density = 23.296895 Si / 1000 Ang^3
#
#
#
# Elastic Constant Matrix: (Units=GPa)
#
#
# Indices 1 2 3 4 5 6 
#
# 1 159.1284 49.9768 34.3010 -15.6745 26.3083 10.1184
# 2 49.9768 79.0424 22.7092 -3.2771 -1.8140 -0.1128
# 3 34.3010 22.7092 92.4543 -6.0802 12.6801 9.4320
# 4 -15.6745 -3.2771 -6.0802 16.0992 -2.2200 15.9414
# 5 26.3083 -1.8140 12.6801 -2.2200 38.7744 -5.8271
# 6 10.1184 -0.1128 9.4320 15.9414 -5.8271 31.9588
#
#
#
# Elastic Compliance Matrix: (Units=1/GPa)
#
#
# Indices 1 2 3 4 5 6 
#
# 1 0.019961 -0.012499 0.005841 0.055137 -0.018744 -0.039008
# 2 -0.012499 0.021634 -0.007473 -0.034296 0.013861 0.025874
# 3 0.005841 -0.007473 0.017221 0.035703 -0.011949 -0.026946
# 4 0.055137 -0.034296 0.035703 0.301894 -0.061959 -0.190000
# 5 -0.018744 0.013861 -0.011949 -0.061959 0.046874 0.048962
# 6 -0.039008 0.025874 -0.026946 -0.190000 0.048962 0.155386
#
#
# Mechanical properties :
#
#
# Convention : Reuss Voigt Hill
#
# Bulk Modulus (GPa) = 32.72909 60.51101 46.62005
# Shear Modulus (GPa) = 8.31370 32.27567 20.29469
#
# Velocity S-wave (km/s) = 1.89112 3.72614 2.95470
# Velocity P-wave (km/s) = 4.34139 6.67401 5.62983
#
# Compressibility (1/GPa) = 0.03055386
#
# Stress axis : x y z
#
# Youngs Moduli (GPa) = 50.09758 46.22304 58.07026
#
# Poissons Ratio (x) = 0.57773 -0.33917
# Poissons Ratio (y) = 0.62616 0.43395
# Poissons Ratio (z) = -0.29261 0.34542
#
# Static dielectric constant tensor:
#      x y z
#    x 1.864240 -0.038350 -0.030610 
#    y -0.038350 1.856400 -0.006600 
#    z -0.030610 -0.006600 1.962820 
# 
# From -- ./inp_files/123873.got.cif
#   From: 2010.05.17/outbox.cif.g08.bks.cpg/sg2_62_cif.got.tgz:123873.got - 2010.06.03 11:33:40.
