data_PCOD9022407
_publ_section_title
;
Structure prediction by ZEFSAII (Michael W. Deem and Ramdas Pophale) SiO2 
 PCOD9022407
Probable space group: P -1
;
_chemical_formula_sum "Si O2"
_cell_formula_units_Z 12
_cell_length_a 10.900169
_cell_length_b 9.071939
_cell_length_c 9.035733
_cell_angle_alpha 99.623694
_cell_angle_beta 54.054667
_cell_angle_gamma 65.005772
_cell_volume 540.558737
_symmetry_space_group_name_H-M "P -1"
_symmetry_group_IT_number 2
_symmetry_cell_setting 'triclinic'
loop_
_space_group_symop_operation_xyz
x,y,z
-x,-y,-z
loop_
_atom_site_type_symbol
_atom_site_label
_atom_site_fract_x
_atom_site_fract_y
_atom_site_fract_z
Si Si1 0.850597 0.659264 0.008356
Si Si2 0.847188 0.989319 0.191669
Si Si3 0.947874 0.012777 0.708120
Si Si4 0.483489 0.611570 0.882422
Si Si5 0.423021 0.386347 0.657632
Si Si6 0.153459 0.571550 0.584027
O O1 0.816408 0.854102 0.107504
O O2 0.655427 0.686848 0.181609
O O3 0.000000 0.500000 0.000000
O O4 0.968528 0.581502 0.756316
O O5 0.961108 0.904131 0.253503
O O6 0.633522 0.198877 0.410748
O O7 0.000000 0.000000 0.000000
O O8 0.711080 0.160521 0.925795
O O9 0.000000 0.000000 0.500000
O O10 0.059458 0.792346 0.647116
O O11 0.443936 0.522780 0.760051
O O12 0.685493 0.565459 0.681030
O O13 0.500000 0.500000 0.000000
O O14 0.273287 0.501449 0.644259
#
# Coordination Sequence:
#
# PCOD9022407 Si02
#       6
#     2   2   2   2   2   2
#     4  10  22  39  61  94 131 161 208 263 316 364
#     4  12  21  39  67  95 123 168 214 261 305 376
#     4  12  23  38  63  93 126 161 213 263 310 363
#     4  12  23  41  65  93 127 165 213 260 313 376
#     4  11  23  39  65  93 127 165 210 261 316 371
#     4  11  22  41  62  94 123 165 214 254 308 372
#
# _framework density 22.199252000000001
#
# number of rings (size 3 to 8) (size 9 to 14) (size 15 to 20)
#    0.000    0.667    5.000    4.000    0.000    0.000 
#    0.000    0.833    3.667    2.000    0.000    0.000 
#    0.000    0.000    0.000    0.000    0.000    0.000 
#
# Total GULP energy -67075.279973 kJ/mol
# GULP energy per Si atom -5589.606664 kJ/mol
# Density = 2.214873 g / cm^3
# Si number density = 22.199252 Si / 1000 Ang^3
#
#
#
# Elastic Constant Matrix: (Units=GPa)
#
#
# Indices 1 2 3 4 5 6 
#
# 1 37.4069 12.5407 33.7436 -13.4261 -9.0587 -0.7684
# 2 12.5407 86.2602 68.9869 -4.7965 -21.9253 -10.4734
# 3 33.7436 68.9869 223.0940 -6.5926 -35.3545 1.3471
# 4 -13.4261 -4.7965 -6.5926 54.3633 -3.9042 -8.2901
# 5 -9.0587 -21.9253 -35.3545 -3.9042 36.6991 -8.8441
# 6 -0.7684 -10.4734 1.3471 -8.2901 -8.8441 35.9785
#
#
#
# Elastic Compliance Matrix: (Units=1/GPa)
#
#
# Indices 1 2 3 4 5 6 
#
# 1 0.035726 0.001540 -0.004366 0.009852 0.007929 0.005594
# 2 0.001540 0.018645 -0.004395 0.003546 0.009796 0.008850
# 3 -0.004366 -0.004395 0.006904 -0.000614 0.002610 -0.001131
# 4 0.009852 0.003546 -0.000614 0.022995 0.008490 0.008651
# 5 0.007929 0.009796 0.002610 0.008490 0.042148 0.015240
# 6 0.005594 0.008850 -0.001131 0.008651 0.015240 0.036272
#
#
# Mechanical properties :
#
#
# Convention : Reuss Voigt Hill
#
# Bulk Modulus (GPa) = 21.35195 64.14483 42.74839
# Shear Modulus (GPa) = 25.94109 40.84085 33.39097
#
# Velocity S-wave (km/s) = 3.42212 4.29387 3.88254
# Velocity P-wave (km/s) = 5.02531 7.31716 6.27673
#
# Compressibility (1/GPa) = 0.04683412
#
# Stress axis : x y z
#
# Youngs Moduli (GPa) = 27.99052 53.63287 144.84089
#
# Poissons Ratio (x) = -0.08261 0.63239
# Poissons Ratio (y) = -0.04311 0.63657
# Poissons Ratio (z) = 0.12221 0.23571
#
# Static dielectric constant tensor:
#      x y z
#    x 1.869570 -0.005460 -0.024460 
#    y -0.005460 1.823160 -0.035590 
#    z -0.024460 -0.035590 1.931290 
# 
# From -- ./inp_files/238824.got.cif
#   From: 2010.05.17/outbox.cif.g08.bks.cpg/sg2_120_cif.got.tgz:238824.got - 2010.06.03 11:33:40.
