data_PCOD9022849
_publ_section_title
;
Structure prediction by ZEFSAII (Michael W. Deem and Ramdas Pophale) SiO2 
 PCOD9022849
Probable space group: P -1
;
_chemical_formula_sum "Si O2"
_cell_formula_units_Z 16
_cell_length_a 11.528312
_cell_length_b 12.017657
_cell_length_c 16.668515
_cell_angle_alpha 152.376916
_cell_angle_beta 49.507502
_cell_angle_gamma 142.525272
_cell_volume 639.474328
_symmetry_space_group_name_H-M "P -1"
_symmetry_group_IT_number 2
_symmetry_cell_setting 'triclinic'
loop_
_space_group_symop_operation_xyz
x,y,z
-x,-y,-z
loop_
_atom_site_type_symbol
_atom_site_label
_atom_site_fract_x
_atom_site_fract_y
_atom_site_fract_z
Si Si1 0.808459 0.474914 0.169502
Si Si2 0.693611 0.564792 0.990746
Si Si3 0.246959 0.890065 0.282903
Si Si4 0.182616 0.827314 0.661888
Si Si5 0.085001 0.407105 0.245402
Si Si6 0.384222 0.170543 0.235544
Si Si7 0.654387 0.474134 0.653302
Si Si8 0.760118 0.918324 0.414789
O O1 0.614014 0.343271 0.225342
O O2 0.858759 0.757443 0.273420
O O3 0.012595 0.627630 0.218541
O O4 0.739693 0.181195 0.962084
O O5 0.659720 0.285041 0.874311
O O6 0.837232 0.618199 0.888589
O O7 0.500000 0.500000 0.000000
O O8 0.795458 0.883612 0.195217
O O9 0.330803 0.133088 0.328813
O O10 0.286668 0.057775 0.456038
O O11 0.352988 0.810461 0.554776
O O12 0.000000 0.500000 0.500000
O O13 0.138505 0.815650 0.769112
O O14 0.193969 0.364381 0.239285
O O15 0.141492 0.742944 0.441594
O O16 0.316499 0.322128 0.304830
O O17 0.446471 0.326168 0.688962
#
# Coordination Sequence:
#
# PCOD9022849 Si02
#       8
#     2   2   2   2   2   2   2   2
#     4  10  23  42  66  93 133 172 225 265 331 399
#     4  11  25  45  65  99 132 173 223 270 340 397
#     4  11  24  43  67  94 134 171 219 276 329 397
#     4  10  22  39  64  96 129 169 216 274 327 389
#     4  10  22  40  66  95 130 171 216 274 326 393
#     4  10  24  43  65  99 128 177 219 274 329 394
#     4  10  22  41  65  94 133 168 221 268 330 398
#     4  10  22  42  62  98 126 171 218 265 336 388
#
# _framework density 25.020551999999999
#
# number of rings (size 3 to 8) (size 9 to 14) (size 15 to 20)
#    0.000    1.750    0.000    3.000    5.250    8.000 
#    9.000    0.000    0.000    0.000    0.000    0.000 
#    0.000    0.000    0.000    0.000    0.000    0.000 
#
# Total GULP energy -89405.569132 kJ/mol
# GULP energy per Si atom -5587.848071 kJ/mol
# Density = 2.496360 g / cm^3
# Si number density = 25.020552 Si / 1000 Ang^3
#
#
#
# Elastic Constant Matrix: (Units=GPa)
#
#
# Indices 1 2 3 4 5 6 
#
# 1 98.4346 27.5567 23.9147 10.6029 -21.0094 -1.3755
# 2 27.5567 94.7621 9.1473 -1.1183 2.6875 -33.3561
# 3 23.9147 9.1473 121.3381 29.6523 -27.4335 -9.4496
# 4 10.6029 -1.1183 29.6523 41.0740 -6.7973 -1.8045
# 5 -21.0094 2.6875 -27.4335 -6.7973 38.4586 12.0361
# 6 -1.3755 -33.3561 -9.4496 -1.8045 12.0361 53.0330
#
#
#
# Elastic Compliance Matrix: (Units=1/GPa)
#
#
# Indices 1 2 3 4 5 6 
#
# 1 0.014260 -0.006589 0.000033 -0.002542 0.009722 -0.006062
# 2 -0.006589 0.017433 -0.001803 0.002438 -0.009663 0.012749
# 3 0.000033 -0.001803 0.011808 -0.007372 0.007577 -0.001000
# 4 -0.002542 0.002438 -0.007372 0.030131 -0.002004 0.001634
# 5 0.009722 -0.009663 0.007577 -0.002004 0.041402 -0.013940
# 6 -0.006062 0.012749 -0.001000 0.001634 -0.013940 0.029759
#
#
# Mechanical properties :
#
#
# Convention : Reuss Voigt Hill
#
# Bulk Modulus (GPa) = 37.33824 48.41917 42.87871
# Shear Modulus (GPa) = 29.33616 43.44085 36.38851
#
# Velocity S-wave (km/s) = 3.42787 4.17130 3.81772
# Velocity P-wave (km/s) = 5.53376 6.52637 6.05045
#
# Compressibility (1/GPa) = 0.02678219
#
# Stress axis : x y z
#
# Youngs Moduli (GPa) = 70.12776 57.36110 84.69178
#
# Poissons Ratio (x) = 0.37797 -0.00284
# Poissons Ratio (y) = 0.46209 0.15273
# Poissons Ratio (z) = -0.00235 0.10344
#
# Static dielectric constant tensor:
#      x y z
#    x 2.045090 -0.007540 0.005300 
#    y -0.007540 2.059210 -0.031050 
#    z 0.005300 -0.031050 2.037750 
# 
# From -- ./inp_files/568988.got.cif
#   From: 2010.05.17/outbox.cif.g08.bks.cpg/sg2_285_cif.got.tgz:568988.got - 2010.06.03 11:33:40.
