data_PCOD9022240
_publ_section_title
;
Structure prediction by ZEFSAII (Michael W. Deem and Ramdas Pophale) SiO2 
 PCOD9022240
Probable space group: P -1
;
_chemical_formula_sum "Si O2"
_cell_formula_units_Z 14
_cell_length_a 5.404837
_cell_length_b 23.316971
_cell_length_c 5.195086
_cell_angle_alpha 96.907667
_cell_angle_beta 59.941050
_cell_angle_gamma 81.297509
_cell_volume 545.226961
_symmetry_space_group_name_H-M "P -1"
_symmetry_group_IT_number 2
_symmetry_cell_setting 'triclinic'
loop_
_space_group_symop_operation_xyz
x,y,z
-x,-y,-z
loop_
_atom_site_type_symbol
_atom_site_label
_atom_site_fract_x
_atom_site_fract_y
_atom_site_fract_z
Si Si1 0.357978 0.325103 0.436474
Si Si2 0.133259 0.227363 0.373959
Si Si3 0.474708 0.745814 0.179325
Si Si4 0.894245 0.541167 0.824834
Si Si5 0.548193 0.114488 0.273322
Si Si6 0.561594 0.432850 0.542019
Si Si7 0.944145 0.071115 0.545315
O O1 0.452196 0.300978 0.656398
O O2 0.378318 0.392577 0.468726
O O3 0.079180 0.297623 0.511810
O O4 0.560209 0.288547 0.086969
O O5 0.258763 0.224656 0.018782
O O6 0.763590 0.098935 0.908088
O O7 0.394153 0.185378 0.377299
O O8 0.166857 0.790071 0.431437
O O9 0.089064 0.589664 0.714691
O O10 0.000000 0.500000 0.500000
O O11 0.448083 0.435365 0.899022
O O12 0.000000 0.500000 0.000000
O O13 0.264451 0.086318 0.375213
O O14 0.738500 0.091766 0.413811
O O15 0.500000 0.500000 0.500000
O O16 0.000000 0.000000 0.500000
#
# Coordination Sequence:
#
# PCOD9022240 Si02
#       7
#     2   2   2   2   2   2   2
#     4  10  26  42  67  94 133 169 218 282 345 400
#     4  10  26  43  69  98 138 173 237 277 345 404
#     4  10  25  41  67  92 136 167 225 279 349 395
#     4  10  22  39  60  85 117 152 201 256 309 392
#     4  12  26  43  78 104 147 199 243 297 356 426
#     4  10  23  42  65  91 124 165 213 264 336 414
#     4  12  26  48  72 112 151 193 242 297 356 421
#
# _framework density 25.677381
#
# number of rings (size 3 to 8) (size 9 to 14) (size 15 to 20)
#    0.857    0.571    0.000    3.429    8.000    4.571 
#    2.571    0.000    0.000    0.000    0.000    0.000 
#    0.000    0.000    0.000    0.000    0.000    0.000 
#
# Total GULP energy -78171.628130 kJ/mol
# GULP energy per Si atom -5583.687724 kJ/mol
# Density = 2.561894 g / cm^3
# Si number density = 25.677381 Si / 1000 Ang^3
#
#
#
# Elastic Constant Matrix: (Units=GPa)
#
#
# Indices 1 2 3 4 5 6 
#
# 1 127.5888 24.7197 61.1356 -26.5820 -20.3833 27.0548
# 2 24.7197 128.7902 25.4655 -9.0252 2.7870 10.4095
# 3 61.1356 25.4655 173.2373 -43.9448 -24.4425 8.2737
# 4 -26.5820 -9.0252 -43.9448 38.5617 4.2437 3.6375
# 5 -20.3833 2.7870 -24.4425 4.2437 57.8951 -14.5960
# 6 27.0548 10.4095 8.2737 3.6375 -14.5960 42.0016
#
#
#
# Elastic Compliance Matrix: (Units=1/GPa)
#
#
# Indices 1 2 3 4 5 6 
#
# 1 0.012017 -0.000903 -0.001983 0.006375 0.001133 -0.007284
# 2 -0.000903 0.008351 -0.000866 0.000707 -0.001628 -0.001944
# 3 -0.001983 -0.000866 0.009143 0.008588 0.002530 -0.000173
# 4 0.006375 0.000707 0.008588 0.041113 0.000459 -0.009374
# 5 0.001133 -0.001628 0.002530 0.000459 0.020350 0.006207
# 6 -0.007284 -0.001944 -0.000173 -0.009374 0.006207 0.031985
#
#
# Mechanical properties :
#
#
# Convention : Reuss Voigt Hill
#
# Bulk Modulus (GPa) = 45.44260 72.47308 58.95784
# Shear Modulus (GPa) = 36.28465 48.91137 42.59801
#
# Velocity S-wave (km/s) = 3.76320 4.36919 4.07746
# Velocity P-wave (km/s) = 6.05129 7.33067 6.72149
#
# Compressibility (1/GPa) = 0.02200578
#
# Stress axis : x y z
#
# Youngs Moduli (GPa) = 83.21799 119.74395 109.36876
#
# Poissons Ratio (x) = 0.10818 0.21689
# Poissons Ratio (y) = 0.07518 0.09474
# Poissons Ratio (z) = 0.16503 0.10372
#
# Static dielectric constant tensor:
#      x y z
#    x 2.334780 0.013010 0.067830 
#    y 0.013010 2.053310 0.010870 
#    z 0.067830 0.010870 2.044770 
# 
# From -- ./inp_files/9962.got.cif
#   From: 2010.05.17/outbox.cif.g08.bks.cpg/sg2_5_cif.got.tgz:9962.got - 2010.06.03 11:33:40.
