data_PCOD9022659
_publ_section_title
;
Structure prediction by ZEFSAII (Michael W. Deem and Ramdas Pophale) SiO2 
 PCOD9022659
Probable space group: P -1
;
_chemical_formula_sum "Si O2"
_cell_formula_units_Z 14
_cell_length_a 14.709766
_cell_length_b 14.723658
_cell_length_c 8.575826
_cell_angle_alpha 77.785928
_cell_angle_beta 45.902880
_cell_angle_gamma 39.643616
_cell_volume 601.238289
_symmetry_space_group_name_H-M "P -1"
_symmetry_group_IT_number 2
_symmetry_cell_setting 'triclinic'
loop_
_space_group_symop_operation_xyz
x,y,z
-x,-y,-z
loop_
_atom_site_type_symbol
_atom_site_label
_atom_site_fract_x
_atom_site_fract_y
_atom_site_fract_z
Si Si1 0.967575 0.286443 0.229970
Si Si2 0.327500 0.701847 0.312503
Si Si3 0.758372 0.362470 0.132109
Si Si4 0.585440 0.901414 0.598292
Si Si5 0.978754 0.094561 0.701570
Si Si6 0.424090 0.954893 0.199932
Si Si7 0.003696 0.524915 0.803771
O O1 0.783077 0.329244 0.512927
O O2 0.928635 0.304923 0.082439
O O3 0.896522 0.433807 0.327274
O O4 0.289709 0.061230 0.957970
O O5 0.631399 0.507392 0.091181
O O6 0.270442 0.755072 0.178845
O O7 0.140703 0.892306 0.570314
O O8 0.500000 0.500000 0.500000
O O9 0.888822 0.190307 0.944299
O O10 0.790619 0.682445 0.440121
O O11 0.500000 0.000000 0.500000
O O12 0.702500 0.913037 0.545651
O O13 0.199267 0.025830 0.395001
O O14 0.706193 0.721522 0.004228
O O15 0.500000 0.000000 0.000000
O O16 0.000000 0.500000 0.000000
#
# Coordination Sequence:
#
# PCOD9022659 Si02
#       7
#     2   2   2   2   2   2   2
#     4  10  22  39  63  93 132 160 218 271 317 386
#     4  10  24  43  61  94 125 173 218 264 326 385
#     4  10  23  39  63  95 126 166 218 266 315 383
#     4  11  21  39  65  95 129 171 212 266 329 385
#     4  11  23  41  68  87 132 174 212 266 330 385
#     4  11  25  43  65 100 134 167 219 272 323 394
#     4  11  23  39  66  96 129 172 216 262 334 390
#
# _framework density 23.285278999999999
#
# number of rings (size 3 to 8) (size 9 to 14) (size 15 to 20)
#    0.000    1.429    2.857    3.000    2.000    5.143 
#    0.000    4.286    0.000    0.000    0.000    0.000 
#    0.000    0.000    0.000    0.000    0.000    0.000 
#
# Total GULP energy -78133.436943 kJ/mol
# GULP energy per Si atom -5580.959782 kJ/mol
# Density = 2.323228 g / cm^3
# Si number density = 23.285279 Si / 1000 Ang^3
#
#
#
# Elastic Constant Matrix: (Units=GPa)
#
#
# Indices 1 2 3 4 5 6 
#
# 1 116.3266 30.4992 13.2231 35.0681 4.4252 -0.5140
# 2 30.4992 102.3536 31.1828 39.8028 0.5311 12.1023
# 3 13.2231 31.1828 51.7928 18.0683 -1.5014 12.0779
# 4 35.0681 39.8028 18.0683 47.0250 3.8450 4.3991
# 5 4.4252 0.5311 -1.5014 3.8450 32.4279 12.0058
# 6 -0.5140 12.1023 12.0779 4.3991 12.0058 51.3897
#
#
#
# Elastic Compliance Matrix: (Units=1/GPa)
#
#
# Indices 1 2 3 4 5 6 
#
# 1 0.011156 -0.000271 -0.000171 -0.008050 -0.000992 0.001136
# 2 -0.000271 0.016059 -0.005123 -0.011369 0.001620 -0.001986
# 3 -0.000171 -0.005123 0.025586 -0.005190 0.003857 -0.005265
# 4 -0.008050 -0.011369 -0.005190 0.039088 -0.004121 0.001433
# 5 -0.000992 0.001620 0.003857 -0.004121 0.034990 -0.009120
# 6 0.001136 -0.001986 -0.005265 0.001433 -0.009120 0.023183
#
#
# Mechanical properties :
#
#
# Convention : Reuss Voigt Hill
#
# Bulk Modulus (GPa) = 23.99739 46.69812 35.34775
# Shear Modulus (GPa) = 28.55778 39.20639 33.88208
#
# Velocity S-wave (km/s) = 3.50584 4.10779 3.81870
# Velocity P-wave (km/s) = 5.16876 6.52663 5.88698
#
# Compressibility (1/GPa) = 0.04167120
#
# Stress axis : x y z
#
# Youngs Moduli (GPa) = 89.63401 62.26998 39.08385
#
# Poissons Ratio (x) = 0.01689 0.00667
# Poissons Ratio (y) = 0.02432 0.20024
# Poissons Ratio (z) = 0.01529 0.31903
#
# Static dielectric constant tensor:
#      x y z
#    x 1.907990 -0.054870 0.027930 
#    y -0.054870 1.875030 -0.011050 
#    z 0.027930 -0.011050 1.963530 
# 
# From -- ./inp_files/315030.got.cif
#   From: 2010.05.17/outbox.cif.g08.bks.cpg/sg2_158_cif.got.tgz:315030.got - 2010.06.03 11:33:40.
