data_PCOD9022825
_publ_section_title
;
Structure prediction by ZEFSAII (Michael W. Deem and Ramdas Pophale) SiO2 
 PCOD9022825
Probable space group: P -1
;
_chemical_formula_sum "Si O2"
_cell_formula_units_Z 16
_cell_length_a 8.516851
_cell_length_b 11.924945
_cell_length_c 16.734453
_cell_angle_alpha 42.050902
_cell_angle_beta 135.987032
_cell_angle_gamma 135.713436
_cell_volume 728.099312
_symmetry_space_group_name_H-M "P -1"
_symmetry_group_IT_number 2
_symmetry_cell_setting 'triclinic'
loop_
_space_group_symop_operation_xyz
x,y,z
-x,-y,-z
loop_
_atom_site_type_symbol
_atom_site_label
_atom_site_fract_x
_atom_site_fract_y
_atom_site_fract_z
Si Si1 0.948091 0.660969 0.352980
Si Si2 0.228398 0.065633 0.794381
Si Si3 0.754734 0.144290 0.929677
Si Si4 0.865356 0.520228 0.860323
Si Si5 0.293250 0.179387 0.338005
Si Si6 0.779055 0.645383 0.118835
Si Si7 0.351525 0.711860 0.849912
Si Si8 0.475010 0.991036 0.371904
O O1 0.782507 0.737151 0.305864
O O2 0.845009 0.622162 0.246001
O O3 0.000000 0.500000 0.500000
O O4 0.207820 0.832651 0.351678
O O5 0.471298 0.064275 0.841798
O O6 0.982842 0.933583 0.731901
O O7 0.217443 0.989267 0.921523
O O8 0.772961 0.327240 0.885932
O O9 0.976704 0.210566 0.912655
O O10 0.083331 0.661992 0.812965
O O11 0.673429 0.612235 0.756996
O O12 0.000000 0.500000 0.000000
O O13 0.347584 0.101882 0.481443
O O14 0.461814 0.134062 0.358551
O O15 0.691231 0.454924 0.139483
O O16 0.553679 0.708916 0.989811
O O17 0.448345 0.898105 0.739232
#
# Coordination Sequence:
#
# PCOD9022825 Si02
#       8
#     2   2   2   2   2   2   2   2
#     4  11  26  41  64  97 126 171 213 259 319 380
#     4  10  22  39  64  94 127 167 213 258 326 368
#     4  10  22  41  62  97 126 165 213 264 318 372
#     4  11  23  38  64  97 126 165 212 259 319 377
#     4  10  22  40  66  89 128 169 208 267 309 384
#     4  10  23  42  64  93 133 161 215 262 314 376
#     4  10  24  40  66  96 124 170 210 265 317 369
#     4  10  24  42  64  94 125 168 216 257 319 375
#
# _framework density 21.975021999999999
#
# number of rings (size 3 to 8) (size 9 to 14) (size 15 to 20)
#    0.000    1.750    1.250    1.500   12.250    3.500 
#    0.000    0.625    0.000    0.000    0.000    0.000 
#    0.000    0.000    0.000    0.000    0.000    0.000 
#
# Total GULP energy -89508.673424 kJ/mol
# GULP energy per Si atom -5594.292089 kJ/mol
# Density = 2.192501 g / cm^3
# Si number density = 21.975022 Si / 1000 Ang^3
#
#
#
# Elastic Constant Matrix: (Units=GPa)
#
#
# Indices 1 2 3 4 5 6 
#
# 1 42.6945 20.6900 26.8086 -11.1891 0.0304 1.6718
# 2 20.6900 44.3589 26.0834 -9.0340 -1.5471 5.5539
# 3 26.8086 26.0834 148.6312 -11.4101 0.1967 -7.4279
# 4 -11.1891 -9.0340 -11.4101 45.0431 -1.2253 4.4377
# 5 0.0304 -1.5471 0.1967 -1.2253 35.0731 -4.9285
# 6 1.6718 5.5539 -7.4279 4.4377 -4.9285 43.9173
#
#
#
# Elastic Compliance Matrix: (Units=1/GPa)
#
#
# Indices 1 2 3 4 5 6 
#
# 1 0.032811 -0.012193 -0.003443 0.004902 -0.000494 -0.000840
# 2 -0.012193 0.031309 -0.003289 0.002860 0.000915 -0.004238
# 3 -0.003443 -0.003289 0.008046 0.000340 0.000089 0.001884
# 4 0.004902 0.002860 0.000340 0.024379 0.000566 -0.002891
# 5 -0.000494 0.000915 0.000089 0.000566 0.029010 0.003117
# 6 -0.000840 -0.004238 0.001884 -0.002891 0.003117 0.024298
#
#
# Mechanical properties :
#
#
# Convention : Reuss Voigt Hill
#
# Bulk Modulus (GPa) = 29.14016 42.53872 35.83944
# Shear Modulus (GPa) = 25.10770 35.61355 30.36062
#
# Velocity S-wave (km/s) = 3.38384 4.03008 3.72102
# Velocity P-wave (km/s) = 5.34383 6.40743 5.89965
#
# Compressibility (1/GPa) = 0.03431690
#
# Stress axis : x y z
#
# Youngs Moduli (GPa) = 30.47755 31.93961 124.27888
#
# Poissons Ratio (x) = 0.38943 0.42795
# Poissons Ratio (y) = 0.37160 0.40872
# Poissons Ratio (z) = 0.10495 0.10504
#
# Static dielectric constant tensor:
#      x y z
#    x 1.855640 -0.023280 0.029380 
#    y -0.023280 1.848060 -0.002150 
#    z 0.029380 -0.002150 1.768740 
# 
# From -- ./inp_files/206962.got.cif
#   From: 2010.05.17/outbox.cif.g08.bks.cpg/sg2_104_cif.got.tgz:206962.got - 2010.06.03 11:33:40.
