data_PCOD9022448
_publ_section_title
;
Structure prediction by ZEFSAII (Michael W. Deem and Ramdas Pophale) SiO2 
 PCOD9022448
Probable space group: P -1
;
_chemical_formula_sum "Si O2"
_cell_formula_units_Z 14
_cell_length_a 9.379934
_cell_length_b 15.169102
_cell_length_c 12.074689
_cell_angle_alpha 56.463715
_cell_angle_beta 50.641322
_cell_angle_gamma 98.763137
_cell_volume 692.870921
_symmetry_space_group_name_H-M "P -1"
_symmetry_group_IT_number 2
_symmetry_cell_setting 'triclinic'
loop_
_space_group_symop_operation_xyz
x,y,z
-x,-y,-z
loop_
_atom_site_type_symbol
_atom_site_label
_atom_site_fract_x
_atom_site_fract_y
_atom_site_fract_z
Si Si1 0.295437 0.595726 0.350475
Si Si2 0.253714 0.513240 0.676379
Si Si3 0.056265 0.149061 0.851352
Si Si4 0.163183 0.287797 0.049461
Si Si5 0.697946 0.003869 0.337121
Si Si6 0.574878 0.931038 0.079881
Si Si7 0.789807 0.282124 0.370419
O O1 0.218473 0.500843 0.569671
O O2 0.513765 0.616351 0.160502
O O3 0.485805 0.784461 0.160665
O O4 0.000000 0.500000 0.500000
O O5 0.604096 0.678953 0.412953
O O6 0.165848 0.373183 0.887917
O O7 0.099293 0.550763 0.772583
O O8 0.860840 0.114448 0.067963
O O9 0.000000 0.000000 0.000000
O O10 0.910982 0.099777 0.837960
O O11 0.952065 0.099367 0.236606
O O12 0.018484 0.293541 0.213445
O O13 0.500000 0.000000 0.500000
O O14 0.455714 0.815185 0.538777
O O15 0.380664 0.832868 0.355774
O O16 0.500000 0.000000 0.000000
#
# Coordination Sequence:
#
# PCOD9022448 Si02
#       7
#     2   2   2   2   2   2   2
#     4  11  24  38  55  87 123 152 190 239 289 340
#     4  11  21  36  61  89 115 154 197 233 287 351
#     4  11  17  35  61  83 111 148 198 240 276 338
#     4  11  21  36  60  88 119 150 189 243 295 336
#     4   9  17  30  53  84 110 142 181 238 282 320
#     4  10  22  39  62  81 114 155 199 235 283 348
#     4   9  20  38  60  86 117 148 195 241 286 343
#
# _framework density 20.205784999999999
#
# number of rings (size 3 to 8) (size 9 to 14) (size 15 to 20)
#    0.000    1.714    5.714    0.857    2.000    1.143 
#    0.000    3.571    3.143    0.000    0.000    0.000 
#    0.000    0.000    0.000    0.000    0.000    0.000 
#
# Total GULP energy -77967.092630 kJ/mol
# GULP energy per Si atom -5569.078045 kJ/mol
# Density = 2.015980 g / cm^3
# Si number density = 20.205785 Si / 1000 Ang^3
#
#
#
# Elastic Constant Matrix: (Units=GPa)
#
#
# Indices 1 2 3 4 5 6 
#
# 1 108.6829 21.7474 26.6941 6.4894 -23.1195 1.3329
# 2 21.7474 89.4258 36.5506 23.1461 -16.8211 -4.1045
# 3 26.6941 36.5506 69.0083 12.7534 -20.5522 -3.0442
# 4 6.4894 23.1461 12.7534 17.4232 -9.6835 -10.0525
# 5 -23.1195 -16.8211 -20.5522 -9.6835 38.1410 -7.7570
# 6 1.3329 -4.1045 -3.0442 -10.0525 -7.7570 24.9333
#
#
#
# Elastic Compliance Matrix: (Units=1/GPa)
#
#
# Indices 1 2 3 4 5 6 
#
# 1 0.011192 -0.001803 -0.002211 0.005465 0.006828 0.003162
# 2 -0.001803 0.021337 -0.006901 -0.033698 -0.006573 -0.012865
# 3 -0.002211 -0.006901 0.021445 0.002189 0.008788 0.005217
# 4 0.005465 -0.033698 0.002189 0.171277 0.049135 0.078769
# 5 0.006828 -0.006573 0.008788 0.049135 0.051906 0.035584
# 6 0.003162 -0.012865 0.005217 0.078769 0.035584 0.081285
#
#
# Mechanical properties :
#
#
# Convention : Reuss Voigt Hill
#
# Bulk Modulus (GPa) = 31.11134 48.56681 39.83907
# Shear Modulus (GPa) = 12.78816 28.24117 20.51466
#
# Velocity S-wave (km/s) = 2.51847 3.74261 3.18981
# Velocity P-wave (km/s) = 4.88749 6.53945 5.77287
#
# Compressibility (1/GPa) = 0.03214262
#
# Stress axis : x y z
#
# Youngs Moduli (GPa) = 89.34598 46.86778 46.63175
#
# Poissons Ratio (x) = 0.08450 0.10312
# Poissons Ratio (y) = 0.16108 0.32182
# Poissons Ratio (z) = 0.19758 0.32345
#
# Static dielectric constant tensor:
#      x y z
#    x 1.638520 -0.027880 -0.018610 
#    y -0.027880 1.789980 -0.021770 
#    z -0.018610 -0.021770 1.781850 
# 
# From -- ./inp_files/155402.got.cif
#   From: 2010.05.17/outbox.cif.g08.bks.cpg/sg2_78_cif.got.tgz:155402.got - 2010.06.03 11:33:40.
