data_PCOD9022245
_publ_section_title
;
Structure prediction by ZEFSAII (Michael W. Deem and Ramdas Pophale) SiO2 
 PCOD9022245
Probable space group: P -1
;
_chemical_formula_sum "Si O2"
_cell_formula_units_Z 16
_cell_length_a 10.565668
_cell_length_b 20.766235
_cell_length_c 6.912679
_cell_angle_alpha 118.830152
_cell_angle_beta 50.257631
_cell_angle_gamma 142.947079
_cell_volume 701.431115
_symmetry_space_group_name_H-M "P -1"
_symmetry_group_IT_number 2
_symmetry_cell_setting 'triclinic'
loop_
_space_group_symop_operation_xyz
x,y,z
-x,-y,-z
loop_
_atom_site_type_symbol
_atom_site_label
_atom_site_fract_x
_atom_site_fract_y
_atom_site_fract_z
Si Si1 0.582968 0.730880 0.070053
Si Si2 0.850988 0.618633 0.975458
Si Si3 0.252844 0.131525 0.256125
Si Si4 0.999541 0.104406 0.819812
Si Si5 0.762011 0.473018 0.161452
Si Si6 0.398147 0.577061 0.320348
Si Si7 0.487550 0.995862 0.276427
Si Si8 0.633913 0.160742 0.122624
O O1 0.644320 0.813400 0.973538
O O2 0.449378 0.628918 0.914484
O O3 0.835139 0.809804 0.049185
O O4 0.414382 0.662049 0.324322
O O5 0.821908 0.570641 0.145171
O O6 0.650024 0.614022 0.113244
O O7 0.802190 0.536309 0.756118
O O8 0.115420 0.736857 0.881286
O O9 0.121398 0.147052 0.549821
O O10 0.485843 0.180893 0.216539
O O11 0.069931 0.003573 0.231000
O O12 0.748579 0.062846 0.030131
O O13 0.656394 0.441326 0.430313
O O14 0.000000 0.500000 0.000000
O O15 0.454553 0.065205 0.317142
O O16 0.500000 0.000000 0.500000
O O17 0.332076 0.882350 0.160076
#
# Coordination Sequence:
#
# PCOD9022245 Si02
#       8
#     2   2   2   2   2   2   2   2
#     4  11  22  37  62  88 117 156 194 240 299 348
#     4  10  22  41  63  86 116 156 198 245 293 345
#     4  10  22  39  60  89 121 153 195 245 293 348
#     4  10  22  39  60  87 119 156 198 240 289 351
#     4  11  24  40  60  88 121 155 194 246 298 347
#     4  10  23  41  61  89 117 152 203 244 289 353
#     4  10  23  40  60  89 122 156 196 241 290 347
#     4  10  22  40  61  88 119 155 198 242 293 349
#
# _framework density 22.810506
#
# number of rings (size 3 to 8) (size 9 to 14) (size 15 to 20)
#    0.000    1.750    0.000    3.000    0.000   11.000 
#    0.000    0.000    0.000    0.000    0.000    0.000 
#    0.000    0.000    0.000    0.000    0.000    0.000 
#
# Total GULP energy -89173.075457 kJ/mol
# GULP energy per Si atom -5573.317216 kJ/mol
# Density = 2.275859 g / cm^3
# Si number density = 22.810506 Si / 1000 Ang^3
#
#
#
# Elastic Constant Matrix: (Units=GPa)
#
#
# Indices 1 2 3 4 5 6 
#
# 1 74.7587 31.8763 28.8403 1.9242 15.7108 6.5026
# 2 31.8763 123.5586 25.5552 -1.7236 7.6500 23.8274
# 3 28.8403 25.5552 76.3886 11.9016 34.3794 -2.3151
# 4 1.9242 -1.7236 11.9016 15.2845 4.2385 14.0260
# 5 15.7108 7.6500 34.3794 4.2385 44.8825 -12.7214
# 6 6.5026 23.8274 -2.3151 14.0260 -12.7214 45.9028
#
#
#
# Elastic Compliance Matrix: (Units=1/GPa)
#
#
# Indices 1 2 3 4 5 6 
#
# 1 0.017395 -0.002053 -0.005588 0.007459 -0.003565 -0.004948
# 2 -0.002053 0.012734 -0.005632 0.018805 -0.002619 -0.013075
# 3 -0.005588 -0.005632 0.027213 -0.026462 -0.012693 0.009656
# 4 0.007459 0.018805 -0.026462 0.149577 -0.017441 -0.062690
# 5 -0.003565 -0.002619 -0.012693 -0.017441 0.040374 0.017743
# 6 -0.004948 -0.013075 0.009656 -0.062690 0.017743 0.053833
#
#
# Mechanical properties :
#
#
# Convention : Reuss Voigt Hill
#
# Bulk Modulus (GPa) = 32.47205 49.69437 41.08321
# Shear Modulus (GPa) = 14.79569 33.77626 24.28597
#
# Velocity S-wave (km/s) = 2.54959 3.85220 3.26649
# Velocity P-wave (km/s) = 4.78892 6.45128 5.68123
#
# Compressibility (1/GPa) = 0.03079572
#
# Stress axis : x y z
#
# Youngs Moduli (GPa) = 57.48717 78.53166 36.74716
#
# Poissons Ratio (x) = 0.16123 0.20535
# Poissons Ratio (y) = 0.11802 0.20696
# Poissons Ratio (z) = 0.32124 0.44229
#
# Static dielectric constant tensor:
#      x y z
#    x 1.979560 -0.071050 -0.082010 
#    y -0.071050 1.906600 0.010540 
#    z -0.082010 0.010540 1.918230 
# 
# From -- ./inp_files/84422.got.cif
#   From: 2010.05.17/outbox.cif.g08.bks.cpg/sg2_43_cif.got.tgz:84422.got - 2010.06.03 11:33:40.
