data_PCOD9022519
_publ_section_title
;
Structure prediction by ZEFSAII (Michael W. Deem and Ramdas Pophale) SiO2 
 PCOD9022519
Probable space group: P -1
;
_chemical_formula_sum "Si O2"
_cell_formula_units_Z 14
_cell_length_a 15.465815
_cell_length_b 6.959205
_cell_length_c 8.770021
_cell_angle_alpha 70.344790
_cell_angle_beta 130.749812
_cell_angle_gamma 112.196693
_cell_volume 656.643511
_symmetry_space_group_name_H-M "P -1"
_symmetry_group_IT_number 2
_symmetry_cell_setting 'triclinic'
loop_
_space_group_symop_operation_xyz
x,y,z
-x,-y,-z
loop_
_atom_site_type_symbol
_atom_site_label
_atom_site_fract_x
_atom_site_fract_y
_atom_site_fract_z
Si Si1 0.350785 0.880817 0.497106
Si Si2 0.464120 0.719821 0.386571
Si Si3 0.978877 0.175500 0.758968
Si Si4 0.866874 0.108181 0.959156
Si Si5 0.232793 0.731825 0.926391
Si Si6 0.180131 0.548768 0.599213
Si Si7 0.131887 0.080054 0.562123
O O1 0.429769 0.775462 0.503760
O O2 0.255196 0.938918 0.256883
O O3 0.281053 0.716265 0.582116
O O4 0.430481 0.092588 0.597073
O O5 0.500000 0.500000 0.500000
O O6 0.353804 0.720405 0.149274
O O7 0.960163 0.193175 0.912433
O O8 0.939622 0.372307 0.589521
O O9 0.886706 0.983946 0.620172
O O10 0.099398 0.104566 0.889296
O O11 0.859204 0.271080 0.040345
O O12 0.204831 0.566396 0.802654
O O13 0.219645 0.948582 0.771320
O O14 0.170729 0.322876 0.576882
O O15 0.000000 0.000000 0.500000
#
# Coordination Sequence:
#
# PCOD9022519 Si02
#       7
#     2   2   2   2   2   2   2
#     4   9  21  41  61  90 125 153 209 252 301 368
#     4  10  22  42  66  90 116 160 202 259 309 355
#     4   9  19  37  60  87 122 162 206 248 298 365
#     4   9  17  38  60  87 124 158 199 261 292 356
#     4  10  22  39  62  93 124 158 206 251 305 368
#     4  10  23  39  62  91 125 168 198 250 307 364
#     4  11  22  41  59  88 129 165 202 249 299 364
#
# _framework density 21.320549
#
# number of rings (size 3 to 8) (size 9 to 14) (size 15 to 20)
#    0.000    2.286    1.429    0.000    0.000    9.714 
#    2.571   10.714    0.000    0.000    0.000    0.000 
#    0.000    0.000    0.000    0.000    0.000    0.000 
#
# Total GULP energy -78103.229798 kJ/mol
# GULP energy per Si atom -5578.802128 kJ/mol
# Density = 2.127202 g / cm^3
# Si number density = 21.320549 Si / 1000 Ang^3
#
#
#
# Elastic Constant Matrix: (Units=GPa)
#
#
# Indices 1 2 3 4 5 6 
#
# 1 85.3329 52.7355 28.0112 2.5659 -9.7117 6.3267
# 2 52.7355 166.3164 57.3709 -5.6858 0.2791 -4.9279
# 3 28.0112 57.3709 109.9381 -3.8494 -9.7260 -6.6955
# 4 2.5659 -5.6858 -3.8494 24.7040 -15.7768 0.6091
# 5 -9.7117 0.2791 -9.7260 -15.7768 35.3184 -0.9912
# 6 6.3267 -4.9279 -6.6955 0.6091 -0.9912 32.2447
#
#
#
# Elastic Compliance Matrix: (Units=1/GPa)
#
#
# Indices 1 2 3 4 5 6 
#
# 1 0.015808 -0.004617 -0.001565 -0.000556 0.003592 -0.004011
# 2 -0.004617 0.008733 -0.003441 0.000677 -0.001943 0.001454
# 3 -0.001565 -0.003441 0.012017 0.004314 0.004899 0.002346
# 4 -0.000556 0.000677 0.004314 0.058788 0.027314 0.000838
# 5 0.003592 -0.001943 0.004899 0.027314 0.042890 0.000818
# 6 -0.004011 0.001454 0.002346 0.000838 0.000818 0.032518
#
#
# Mechanical properties :
#
#
# Convention : Reuss Voigt Hill
#
# Bulk Modulus (GPa) = 57.75362 70.86920 64.31141
# Shear Modulus (GPa) = 25.54006 33.35142 29.44574
#
# Velocity S-wave (km/s) = 3.46484 3.95940 3.72034
# Velocity P-wave (km/s) = 6.56916 7.36305 6.97740
#
# Compressibility (1/GPa) = 0.01731493
#
# Stress axis : x y z
#
# Youngs Moduli (GPa) = 63.25755 114.51112 83.21217
#
# Poissons Ratio (x) = 0.52866 0.13020
# Poissons Ratio (y) = 0.29204 0.28630
# Poissons Ratio (z) = 0.09897 0.39398
#
# Static dielectric constant tensor:
#      x y z
#    x 1.836580 0.010330 -0.029910 
#    y 0.010330 1.780010 -0.008440 
#    z -0.029910 -0.008440 1.789840 
# 
# From -- ./inp_files/322552.got.cif
#   From: 2010.05.17/outbox.cif.g08.bks.cpg/sg2_162_cif.got.tgz:322552.got - 2010.06.03 11:33:40.
