data_PCOD9022990
_publ_section_title
;
Structure prediction by ZEFSAII (Michael W. Deem and Ramdas Pophale) SiO2 
 PCOD9022990
Probable space group: P -1
;
_chemical_formula_sum "Si O2"
_cell_formula_units_Z 14
_cell_length_a 13.614803
_cell_length_b 7.152061
_cell_length_c 7.037719
_cell_angle_alpha 120.446604
_cell_angle_beta 106.228293
_cell_angle_gamma 86.568704
_cell_volume 564.476204
_symmetry_space_group_name_H-M "P -1"
_symmetry_group_IT_number 2
_symmetry_cell_setting 'triclinic'
loop_
_space_group_symop_operation_xyz
x,y,z
-x,-y,-z
loop_
_atom_site_type_symbol
_atom_site_label
_atom_site_fract_x
_atom_site_fract_y
_atom_site_fract_z
Si Si1 0.550073 0.516387 0.828935
Si Si2 0.050685 0.782279 0.362292
Si Si3 0.323441 0.774810 0.085008
Si Si4 0.496832 0.854837 0.681584
Si Si5 0.270420 0.869715 0.701231
Si Si6 0.168483 0.051703 0.052018
Si Si7 0.002727 0.683278 0.842187
O O1 0.505060 0.668299 0.433398
O O2 0.500000 0.500000 0.000000
O O3 0.661608 0.431614 0.884782
O O4 0.463005 0.256208 0.162751
O O5 0.170853 0.793378 0.486192
O O6 0.992343 0.569190 0.322151
O O7 0.033781 0.734576 0.105037
O O8 0.000000 0.000000 0.500000
O O9 0.429467 0.931814 0.217022
O O10 0.292221 0.717694 0.819093
O O11 0.240875 0.940506 0.181380
O O12 0.377545 0.895624 0.661517
O O13 0.235585 0.077132 0.909467
O O14 0.077811 0.858342 0.859579
O O15 0.113509 0.251891 0.199932
#
# Coordination Sequence:
#
# PCOD9022990 Si02
#       7
#     2   2   2   2   2   2   2
#     4  11  23  41  65  96 132 181 236 271 339 408
#     4  11  22  43  65  99 130 178 228 282 352 407
#     4  10  22  45  64  96 139 175 225 284 340 416
#     4  11  24  43  67  94 142 182 219 290 337 404
#     4  10  22  39  65  95 133 176 226 282 344 416
#     4   9  21  42  61  97 126 177 226 277 344 412
#     4  10  22  42  68  89 140 174 220 297 340 406
#
# _framework density 24.801755
#
# number of rings (size 3 to 8) (size 9 to 14) (size 15 to 20)
#    0.857    0.857    2.857    0.857    2.000    2.857 
#    5.143    1.429    0.000    0.000    0.000    0.000 
#    0.000    0.000    0.000    0.000    0.000    0.000 
#
# Total GULP energy -78190.236528 kJ/mol
# GULP energy per Si atom -5585.016895 kJ/mol
# Density = 2.474530 g / cm^3
# Si number density = 24.801755 Si / 1000 Ang^3
#
#
#
# Elastic Constant Matrix: (Units=GPa)
#
#
# Indices 1 2 3 4 5 6 
#
# 1 129.5085 40.8703 32.8499 14.2112 5.2914 -19.9798
# 2 40.8703 126.1303 31.0929 11.7645 11.4053 -15.6228
# 3 32.8499 31.0929 85.8208 13.7013 -5.3240 -0.1104
# 4 14.2112 11.7645 13.7013 48.9043 -7.7820 -1.7454
# 5 5.2914 11.4053 -5.3240 -7.7820 31.7172 -11.4664
# 6 -19.9798 -15.6228 -0.1104 -1.7454 -11.4664 41.1657
#
#
#
# Elastic Compliance Matrix: (Units=1/GPa)
#
#
# Indices 1 2 3 4 5 6 
#
# 1 0.009806 -0.001804 -0.002876 -0.001542 -0.000447 0.003877
# 2 -0.001804 0.009903 -0.002863 -0.001539 -0.003450 0.001849
# 3 -0.002876 -0.002863 0.014295 -0.002105 0.002754 -0.001767
# 4 -0.001542 -0.001539 -0.002105 0.022964 0.006627 0.001481
# 5 -0.000447 -0.003450 0.002754 0.006627 0.038346 0.009443
# 6 0.003877 0.001849 -0.001767 0.001481 0.009443 0.029564
#
#
# Mechanical properties :
#
#
# Convention : Reuss Voigt Hill
#
# Bulk Modulus (GPa) = 52.86222 61.23176 57.04699
# Shear Modulus (GPa) = 34.18304 40.13388 37.15846
#
# Velocity S-wave (km/s) = 3.71651 4.02703 3.87488
# Velocity P-wave (km/s) = 6.30688 6.80917 6.56283
#
# Compressibility (1/GPa) = 0.01891710
#
# Stress axis : x y z
#
# Youngs Moduli (GPa) = 101.97788 100.97723 69.95302
#
# Poissons Ratio (x) = 0.18215 0.20122
# Poissons Ratio (y) = 0.18395 0.20031
# Poissons Ratio (z) = 0.29333 0.28914
#
# Static dielectric constant tensor:
#      x y z
#    x 2.042340 -0.027810 -0.047940 
#    y -0.027810 2.017030 -0.055000 
#    z -0.047940 -0.055000 2.018750 
# 
# From -- ./inp_files/291356.got.cif
#   From: 2010.05.17/outbox.cif.g08.bks.cpg/sg2_146_cif.got.tgz:291356.got - 2010.06.03 11:33:40.
