data_PCOD9022143
_publ_section_title
;
Structure prediction by ZEFSAII (Michael W. Deem and Ramdas Pophale) SiO2 
 PCOD9022143
Probable space group: P -1
;
_chemical_formula_sum "Si O2"
_cell_formula_units_Z 16
_cell_length_a 8.912050
_cell_length_b 6.591278
_cell_length_c 18.097098
_cell_angle_alpha 126.124988
_cell_angle_beta 74.575855
_cell_angle_gamma 119.356715
_cell_volume 747.997689
_symmetry_space_group_name_H-M "P -1"
_symmetry_group_IT_number 2
_symmetry_cell_setting 'triclinic'
loop_
_space_group_symop_operation_xyz
x,y,z
-x,-y,-z
loop_
_atom_site_type_symbol
_atom_site_label
_atom_site_fract_x
_atom_site_fract_y
_atom_site_fract_z
Si Si1 0.146225 0.787918 0.126773
Si Si2 0.899341 0.189688 0.036763
Si Si3 0.629302 0.628200 0.780444
Si Si4 0.669501 0.191196 0.189281
Si Si5 0.439896 0.614235 0.104040
Si Si6 0.102920 0.316296 0.463827
Si Si7 0.168934 0.303054 0.625560
Si Si8 0.545825 0.309970 0.585688
O O1 0.298494 0.704120 0.109401
O O2 0.986856 0.517247 0.117621
O O3 0.201457 0.103220 0.211384
O O4 0.127935 0.804282 0.044945
O O5 0.732784 0.088496 0.086556
O O6 0.000000 0.000000 0.000000
O O7 0.469796 0.701758 0.797431
O O8 0.631028 0.584523 0.858536
O O9 0.603435 0.369137 0.676740
O O10 0.811008 0.432616 0.271058
O O11 0.582389 0.900517 0.181775
O O12 0.500000 0.500000 0.000000
O O13 0.126628 0.325833 0.551004
O O14 0.292472 0.462666 0.432441
O O15 0.000000 0.500000 0.500000
O O16 0.977360 0.993774 0.390942
O O17 0.363562 0.326568 0.605236
O O18 0.500000 0.000000 0.500000
#
# Coordination Sequence:
#
# PCOD9022143 Si02
#       8
#     2   2   2   2   2   2   2   2
#     4  10  22  39  57  88 124 157 208 250 309 379
#     4  11  22  39  60  88 126 166 203 255 319 374
#     4  10  23  41  62  94 121 162 217 256 320 383
#     4  10  23  39  63  90 121 162 208 262 310 385
#     4  11  21  39  65  88 122 163 208 264 313 377
#     4  11  23  44  67  97 132 171 216 271 330 392
#     4  10  24  44  65  99 130 170 222 265 328 395
#     4  11  23  43  70  94 134 175 213 274 329 390
#
# _framework density 21.390440999999999
#
# number of rings (size 3 to 8) (size 9 to 14) (size 15 to 20)
#    0.000    1.500    1.250    3.375    3.500    3.000 
#    6.750    0.000    0.000    0.000    0.000    0.000 
#    0.000    0.000    0.000    0.000    0.000    0.000 
#
# Total GULP energy -89181.099038 kJ/mol
# GULP energy per Si atom -5573.818690 kJ/mol
# Density = 2.134176 g / cm^3
# Si number density = 21.390441 Si / 1000 Ang^3
#
#
#
# Elastic Constant Matrix: (Units=GPa)
#
#
# Indices 1 2 3 4 5 6 
#
# 1 33.0011 31.1264 18.8959 4.5374 16.1080 9.1469
# 2 31.1264 149.9672 53.6033 14.7716 11.3600 13.8724
# 3 18.8959 53.6033 109.2724 11.9360 13.0551 -1.1112
# 4 4.5374 14.7716 11.9360 36.9646 5.7266 5.1352
# 5 16.1080 11.3600 13.0551 5.7266 26.1188 -3.3799
# 6 9.1469 13.8724 -1.1112 5.1352 -3.3799 31.0986
#
#
#
# Elastic Compliance Matrix: (Units=1/GPa)
#
#
# Indices 1 2 3 4 5 6 
#
# 1 0.062344 -0.007564 -0.003380 0.004986 -0.037143 -0.019944
# 2 -0.007564 0.009654 -0.003524 -0.001945 0.002444 -0.001621
# 3 -0.003380 -0.003524 0.011913 -0.002248 -0.001430 0.003207
# 4 0.004986 -0.001945 -0.002248 0.030189 -0.008578 -0.006597
# 5 -0.037143 0.002444 -0.001430 -0.008578 0.065091 0.018274
# 6 -0.019944 -0.001621 0.003207 -0.006597 0.018274 0.041935
#
#
# Mechanical properties :
#
#
# Convention : Reuss Voigt Hill
#
# Bulk Modulus (GPa) = 18.18999 55.49909 36.84454
# Shear Modulus (GPa) = 18.62977 31.41072 25.02025
#
# Velocity S-wave (km/s) = 2.95437 3.83619 3.42379
# Velocity P-wave (km/s) = 4.48999 6.75454 5.73515
#
# Compressibility (1/GPa) = 0.05497530
#
# Stress axis : x y z
#
# Youngs Moduli (GPa) = 16.04003 103.58406 83.93875
#
# Poissons Ratio (x) = 0.78355 0.28371
# Poissons Ratio (y) = 0.12133 0.29578
# Poissons Ratio (z) = 0.05421 0.36500
#
# Static dielectric constant tensor:
#      x y z
#    x 1.696470 -0.089830 -0.023800 
#    y -0.089830 1.831210 0.133450 
#    z -0.023800 0.133450 1.831000 
# 
# From -- ./inp_files/38220.got.cif
#   From: 2010.05.17/outbox.cif.g08.bks.cpg/sg2_20_cif.got.tgz:38220.got - 2010.06.03 11:33:40.
