data_PCOD9022688
_publ_section_title
;
Structure prediction by ZEFSAII (Michael W. Deem and Ramdas Pophale) SiO2 
 PCOD9022688
Probable space group: P -1
;
_chemical_formula_sum "Si O2"
_cell_formula_units_Z 16
_cell_length_a 9.461682
_cell_length_b 6.363960
_cell_length_c 27.277903
_cell_angle_alpha 139.983534
_cell_angle_beta 40.114191
_cell_angle_gamma 130.096854
_cell_volume 673.696883
_symmetry_space_group_name_H-M "P -1"
_symmetry_group_IT_number 2
_symmetry_cell_setting 'triclinic'
loop_
_space_group_symop_operation_xyz
x,y,z
-x,-y,-z
loop_
_atom_site_type_symbol
_atom_site_label
_atom_site_fract_x
_atom_site_fract_y
_atom_site_fract_z
Si Si1 0.036400 0.669688 0.249119
Si Si2 0.563653 0.120381 0.750929
Si Si3 0.095359 0.924986 0.104642
Si Si4 0.466093 0.338047 0.620672
Si Si5 0.386132 0.821481 0.097665
Si Si6 0.130930 0.483220 0.513420
Si Si7 0.731753 0.224337 0.623695
Si Si8 0.273672 0.618105 0.907859
O O1 0.196895 0.815404 0.276344
O O2 0.181736 0.758803 0.177925
O O3 0.794711 0.780078 0.335625
O O4 0.006623 0.273124 0.191412
O O5 0.585645 0.274572 0.718137
O O6 0.398804 0.355777 0.858969
O O7 0.487713 0.730848 0.699000
O O8 0.297714 0.942871 0.091427
O O9 0.912695 0.620171 0.114277
O O10 0.165139 0.834998 0.015591
O O11 0.624176 0.327062 0.528953
O O12 0.582895 0.178569 0.606381
O O13 0.572344 0.116054 0.117849
O O14 0.500000 0.500000 0.000000
O O15 0.000000 0.500000 0.500000
O O16 0.940867 0.508421 0.609093
O O17 0.181014 0.114368 0.445037
#
# Coordination Sequence:
#
# PCOD9022688 Si02
#       8
#     2   2   2   2   2   2   2   2
#     4  12  25  40  62  93 127 168 212 260 317 372
#     4  11  23  38  62  90 128 164 208 260 315 367
#     4  11  24  44  63  85 122 169 217 261 321 369
#     4  10  22  39  63  95 126 161 207 256 309 376
#     4  12  25  40  62  88 123 167 217 264 319 371
#     4   8  16  37  67  93 122 164 203 245 308 375
#     4   9  19  37  65  94 124 162 203 252 311 370
#     4  11  23  43  63  86 122 166 212 270 310 370
#
# _framework density 23.749552000000001
#
# number of rings (size 3 to 8) (size 9 to 14) (size 15 to 20)
#    0.000    1.500    3.750    1.125    3.500    0.500 
#    0.000    0.625    0.000   25.500    0.000    0.000 
#    0.000    0.000    0.000    0.000    0.000    0.000 
#
# Total GULP energy -89406.300202 kJ/mol
# GULP energy per Si atom -5587.893763 kJ/mol
# Density = 2.369550 g / cm^3
# Si number density = 23.749552 Si / 1000 Ang^3
#
#
#
# Elastic Constant Matrix: (Units=GPa)
#
#
# Indices 1 2 3 4 5 6 
#
# 1 53.4027 11.1055 12.6431 -10.8151 -15.5020 -4.4472
# 2 11.1055 98.4162 15.5036 -5.0477 -9.3445 5.7143
# 3 12.6431 15.5036 85.1291 2.8614 -25.0106 -7.9413
# 4 -10.8151 -5.0477 2.8614 46.4038 1.3935 -9.0946
# 5 -15.5020 -9.3445 -25.0106 1.3935 34.5930 -4.6277
# 6 -4.4472 5.7143 -7.9413 -9.0946 -4.6277 40.2123
#
#
#
# Elastic Compliance Matrix: (Units=1/GPa)
#
#
# Indices 1 2 3 4 5 6 
#
# 1 0.023903 -0.001713 0.000300 0.006133 0.010967 0.005595
# 2 -0.001713 0.010821 -0.001720 0.000496 0.000640 -0.001881
# 3 0.000300 -0.001720 0.015950 -0.000542 0.011848 0.004669
# 4 0.006133 0.000496 -0.000542 0.024221 0.002351 0.006249
# 5 0.010967 0.000640 0.011848 0.002351 0.043673 0.009019
# 6 0.005595 -0.001881 0.004669 0.006249 0.009019 0.029128
#
#
# Mechanical properties :
#
#
# Convention : Reuss Voigt Hill
#
# Bulk Modulus (GPa) = 22.51968 35.05026 28.78497
# Shear Modulus (GPa) = 29.62709 37.42153 33.52431
#
# Velocity S-wave (km/s) = 3.53580 3.97378 3.76117
# Velocity P-wave (km/s) = 5.11585 5.98706 5.56852
#
# Compressibility (1/GPa) = 0.04440560
#
# Stress axis : x y z
#
# Youngs Moduli (GPa) = 41.83658 92.41560 62.69488
#
# Poissons Ratio (x) = 0.15835 -0.01881
# Poissons Ratio (y) = 0.07169 0.10786
# Poissons Ratio (z) = -0.01255 0.15899
#
# Static dielectric constant tensor:
#      x y z
#    x 1.855590 0.036730 -0.020050 
#    y 0.036730 1.926280 -0.056080 
#    z -0.020050 -0.056080 2.008060 
# 
# From -- ./inp_files/112261.got.cif
#   From: 2010.05.17/outbox.cif.g08.bks.cpg/sg2_57_cif.got.tgz:112261.got - 2010.06.03 11:33:40.
