data_PCOD9022749
_publ_section_title
;
Structure prediction by ZEFSAII (Michael W. Deem and Ramdas Pophale) SiO2 
 PCOD9022749
Probable space group: P -1
;
_chemical_formula_sum "Si O2"
_cell_formula_units_Z 15
_cell_length_a 10.844390
_cell_length_b 17.044101
_cell_length_c 7.904910
_cell_angle_alpha 43.097112
_cell_angle_beta 136.203832
_cell_angle_gamma 135.000411
_cell_volume 638.852350
_symmetry_space_group_name_H-M "P -1"
_symmetry_group_IT_number 2
_symmetry_cell_setting 'triclinic'
loop_
_space_group_symop_operation_xyz
x,y,z
-x,-y,-z
loop_
_atom_site_type_symbol
_atom_site_label
_atom_site_fract_x
_atom_site_fract_y
_atom_site_fract_z
Si Si1 0.000000 0.500000 0.500000
Si Si2 0.368068 0.550113 0.536754
Si Si3 0.098113 0.195757 0.680075
Si Si4 0.469346 0.163918 0.702926
Si Si5 0.759903 0.075932 0.977454
Si Si6 0.210586 0.740251 0.557901
Si Si7 0.134048 0.071622 0.264184
Si Si8 0.516370 0.366252 0.837503
O O1 0.821326 0.490696 0.472441
O O2 0.867239 0.365823 0.494481
O O3 0.493375 0.692849 0.480012
O O4 0.482203 0.456877 0.802260
O O5 0.345566 0.558361 0.296922
O O6 0.304556 0.288485 0.676303
O O7 0.959338 0.268365 0.468262
O O8 0.146277 0.142361 0.988815
O O9 0.974816 0.074648 0.643372
O O10 0.667772 0.143219 0.910010
O O11 0.335799 0.106527 0.498896
O O12 0.355546 0.070877 0.885602
O O13 0.736988 0.127537 0.690242
O O14 0.985836 0.108954 0.173380
O O15 0.387263 0.721999 0.850659
#
# Coordination Sequence:
#
# PCOD9022749 Si02
#       8
#     1   2   2   2   2   2   2   2
#     4  12  24  48  72 106 142 180 248 294 348 424
#     4  11  26  47  72 107 142 185 243 297 341 436
#     4  10  22  42  65 103 144 181 240 283 342 442
#     4  11  22  42  67 101 143 183 232 292 355 408
#     4  10  22  39  64 101 137 177 233 286 338 426
#     4  11  24  44  73 102 144 191 231 295 359 413
#     4  10  22  39  66  98 141 190 227 287 351 411
#     4  11  25  47  72 104 143 189 235 290 361 416
#
# _framework density 23.479602
#
# number of rings (size 3 to 8) (size 9 to 14) (size 15 to 20)
#    0.000    1.333    2.667    2.000    0.000    6.400 
#    0.000    6.000    0.000    0.000    0.000    0.000 
#    0.000    0.000    0.000    0.000    0.000    0.000 
#
# Total GULP energy -83590.689966 kJ/mol
# GULP energy per Si atom -5572.712664 kJ/mol
# Density = 2.342616 g / cm^3
# Si number density = 23.479602 Si / 1000 Ang^3
#
#
#
# Elastic Constant Matrix: (Units=GPa)
#
#
# Indices 1 2 3 4 5 6 
#
# 1 141.8994 17.0823 22.6190 8.6256 17.4345 9.1539
# 2 17.0823 94.6936 11.4834 0.0657 6.4735 -8.1706
# 3 22.6190 11.4834 76.7434 -3.2900 9.6842 2.8356
# 4 8.6256 0.0657 -3.2900 12.9823 -0.0084 1.6577
# 5 17.4345 6.4735 9.6842 -0.0084 28.5690 -13.0562
# 6 9.1539 -8.1706 2.8356 1.6577 -13.0562 36.2798
#
#
#
# Elastic Compliance Matrix: (Units=1/GPa)
#
#
# Indices 1 2 3 4 5 6 
#
# 1 0.008941 -0.001344 -0.001671 -0.005779 -0.006674 -0.004566
# 2 -0.001344 0.011225 -0.001408 0.000094 0.000135 0.003021
# 3 -0.001671 -0.001408 0.014713 0.005240 -0.005067 -0.003108
# 4 -0.005779 0.000094 0.005240 0.082512 0.000621 -0.002477
# 5 -0.006674 0.000135 -0.005067 0.000621 0.049925 0.020049
# 6 -0.004566 0.003021 -0.003108 -0.002477 0.020049 0.036967
#
#
# Mechanical properties :
#
#
# Convention : Reuss Voigt Hill
#
# Bulk Modulus (GPa) = 38.41378 46.18953 42.30166
# Shear Modulus (GPa) = 22.54215 33.04300 27.79257
#
# Velocity S-wave (km/s) = 3.10187 3.75548 3.44421
# Velocity P-wave (km/s) = 5.40599 6.20643 5.81999
#
# Compressibility (1/GPa) = 0.02603233
#
# Stress axis : x y z
#
# Youngs Moduli (GPa) = 111.84200 89.08681 67.96905
#
# Poissons Ratio (x) = 0.11973 0.11358
# Poissons Ratio (y) = 0.15032 0.09571
# Poissons Ratio (z) = 0.18690 0.12545
#
# Static dielectric constant tensor:
#      x y z
#    x 1.949170 -0.013360 -0.025270 
#    y -0.013360 1.855960 -0.041430 
#    z -0.025270 -0.041430 1.873770 
# 
# From -- ./inp_files/278876.got.cif
#   From: 2010.05.17/outbox.cif.g08.bks.cpg/sg2_140_cif.got.tgz:278876.got - 2010.06.03 11:33:40.
