data_PCOD9022198
_publ_section_title
;
Structure prediction by ZEFSAII (Michael W. Deem and Ramdas Pophale) SiO2 
 PCOD9022198
Probable space group: P -1
;
_chemical_formula_sum "Si O2"
_cell_formula_units_Z 12
_cell_length_a 5.320926
_cell_length_b 9.549253
_cell_length_c 18.114779
_cell_angle_alpha 51.465453
_cell_angle_beta 59.975234
_cell_angle_gamma 44.403077
_cell_volume 501.200140
_symmetry_space_group_name_H-M "P -1"
_symmetry_group_IT_number 2
_symmetry_cell_setting 'triclinic'
loop_
_space_group_symop_operation_xyz
x,y,z
-x,-y,-z
loop_
_atom_site_type_symbol
_atom_site_label
_atom_site_fract_x
_atom_site_fract_y
_atom_site_fract_z
Si Si1 0.402280 0.514280 0.923363
Si Si2 0.936895 0.233595 0.244619
Si Si3 0.451618 0.220375 0.633827
Si Si4 0.874348 0.611456 0.220818
Si Si5 0.396194 0.947113 0.957611
Si Si6 0.207174 0.093530 0.576153
O O1 0.087206 0.723252 0.853553
O O2 0.741203 0.464667 0.842105
O O3 0.500000 0.500000 0.000000
O O4 0.362192 0.317928 0.988879
O O5 0.794822 0.458637 0.236886
O O6 0.726361 0.127178 0.325962
O O7 0.330619 0.037106 0.283730
O O8 0.257082 0.227684 0.586126
O O9 0.788691 0.231474 0.567138
O O10 0.191229 0.385960 0.682827
O O11 0.628660 0.873694 0.151228
O O12 0.500000 0.000000 0.000000
O O13 0.000000 0.000000 0.000000
O O14 0.500000 0.000000 0.500000
#
# Coordination Sequence:
#
# PCOD9022198 Si02
#       6
#     2   2   2   2   2   2
#     4  11  25  41  66  97 139 188 230 279 330 392
#     4  10  24  42  70  96 140 175 230 281 338 396
#     4  10  25  42  76  97 137 178 219 283 343 401
#     4  11  24  43  63 100 136 180 232 274 337 397
#     4  10  22  39  59  87 129 174 221 270 315 380
#     4  10  23  47  74 103 133 173 222 280 348 413
#
# _framework density 23.942532
#
# number of rings (size 3 to 8) (size 9 to 14) (size 15 to 20)
#    1.000    0.667    1.667    1.500    7.000    3.333 
#    0.000    1.667    0.000    0.000    0.000    0.000 
#    0.000    0.000    0.000    0.000    0.000    0.000 
#
# Total GULP energy -66911.719548 kJ/mol
# GULP energy per Si atom -5575.976629 kJ/mol
# Density = 2.388804 g / cm^3
# Si number density = 23.942532 Si / 1000 Ang^3
#
#
#
# Elastic Constant Matrix: (Units=GPa)
#
#
# Indices 1 2 3 4 5 6 
#
# 1 133.8999 50.3599 38.8325 11.7350 -15.2352 43.0537
# 2 50.3599 78.8674 18.1096 16.6076 1.0631 7.1938
# 3 38.8325 18.1096 103.1568 28.6831 -16.6625 12.3724
# 4 11.7350 16.6076 28.6831 44.8805 -12.4882 16.3031
# 5 -15.2352 1.0631 -16.6625 -12.4882 26.9916 6.3720
# 6 43.0537 7.1938 12.3724 16.3031 6.3720 52.0159
#
#
#
# Elastic Compliance Matrix: (Units=1/GPa)
#
#
# Indices 1 2 3 4 5 6 
#
# 1 0.025810 -0.017680 -0.004389 0.020722 0.028726 -0.027887
# 2 -0.017680 0.026375 0.001274 -0.019880 -0.024120 0.019868
# 3 -0.004389 0.001274 0.013341 -0.008587 0.001063 0.002845
# 4 0.020722 -0.019880 -0.008587 0.053058 0.039719 -0.033855
# 5 0.028726 -0.024120 0.001063 0.039719 0.083484 -0.043369
# 6 -0.027887 0.019868 0.002845 -0.033855 -0.043369 0.054807
#
#
# Mechanical properties :
#
#
# Convention : Reuss Voigt Hill
#
# Bulk Modulus (GPa) = 41.77860 58.94758 50.36309
# Shear Modulus (GPa) = 16.31625 38.68576 27.50100
#
# Velocity S-wave (km/s) = 2.61334 4.02403 3.39281
# Velocity P-wave (km/s) = 5.15689 6.80179 6.03564
#
# Compressibility (1/GPa) = 0.02393570
#
# Stress axis : x y z
#
# Youngs Moduli (GPa) = 38.74503 37.91420 74.95714
#
# Poissons Ratio (x) = 0.67031 0.32901
# Poissons Ratio (y) = 0.68500 -0.09548
# Poissons Ratio (z) = 0.17006 -0.04830
#
# Static dielectric constant tensor:
#      x y z
#    x 2.011630 -0.153000 -0.007840 
#    y -0.153000 2.000340 0.053830 
#    z -0.007840 0.053830 1.970280 
# 
# From -- ./inp_files/42737.got.cif
#   From: 2010.05.17/outbox.cif.g08.bks.cpg/sg2_22_cif.got.tgz:42737.got - 2010.06.03 11:33:40.
