data_PCOD9022032
_publ_section_title
;
Structure prediction by ZEFSAII (Michael W. Deem and Ramdas Pophale) SiO2 
 PCOD9022032
Probable space group: P -1
;
_chemical_formula_sum "Si O2"
_cell_formula_units_Z 16
_cell_length_a 10.674888
_cell_length_b 12.090610
_cell_length_c 14.162743
_cell_angle_alpha 119.652122
_cell_angle_beta 148.723496
_cell_angle_gamma 79.755630
_cell_volume 692.554397
_symmetry_space_group_name_H-M "P -1"
_symmetry_group_IT_number 2
_symmetry_cell_setting 'triclinic'
loop_
_space_group_symop_operation_xyz
x,y,z
-x,-y,-z
loop_
_atom_site_type_symbol
_atom_site_label
_atom_site_fract_x
_atom_site_fract_y
_atom_site_fract_z
Si Si1 0.198300 0.593104 0.408321
Si Si2 0.706217 0.077709 0.823223
Si Si3 0.236527 0.905211 0.597798
Si Si4 0.688427 0.418129 0.315185
Si Si5 0.779723 0.915555 0.175101
Si Si6 0.325742 0.236164 0.360761
Si Si7 0.548021 0.438326 0.907692
Si Si8 0.700036 0.839984 0.483285
O O1 0.218601 0.749042 0.513494
O O2 0.283095 0.549266 0.541368
O O3 0.405872 0.634618 0.470611
O O4 0.866613 0.473708 0.123124
O O5 0.551494 0.126852 0.670693
O O6 0.515423 0.034786 0.776312
O O7 0.681037 0.921106 0.715806
O O8 0.035620 0.201224 0.109574
O O9 0.963874 0.882106 0.353979
O O10 0.266476 0.968753 0.748094
O O11 0.506211 0.474412 0.170850
O O12 0.000000 0.500000 0.500000
O O13 0.507143 0.238149 0.103791
O O14 0.993254 0.002992 0.262091
O O15 0.324175 0.252461 0.478694
O O16 0.336526 0.261169 0.674537
O O17 0.500000 0.500000 0.000000
#
# Coordination Sequence:
#
# PCOD9022032 Si02
#       8
#     2   2   2   2   2   2   2   2
#     4  11  24  44  69  94 138 185 219 280 346 399
#     4   9  21  40  67  99 142 169 223 290 338 389
#     4   9  19  39  65 101 131 174 218 288 338 394
#     4  12  27  42  67  99 135 181 218 271 350 412
#     4  10  22  38  69 100 133 169 231 276 340 413
#     4  10  23  43  68 103 137 174 233 283 334 402
#     4  12  26  48  68  98 145 177 226 282 343 408
#     4  11  25  42  72 102 133 185 229 280 339 405
#
# _framework density 23.102878
#
# number of rings (size 3 to 8) (size 9 to 14) (size 15 to 20)
#    0.000    1.500    2.500    1.125    8.750    4.000 
#    0.000    1.250    0.000    0.000    0.000    0.000 
#    0.000    0.000    0.000    0.000    0.000    0.000 
#
# Total GULP energy -89558.474299 kJ/mol
# GULP energy per Si atom -5597.404644 kJ/mol
# Density = 2.305030 g / cm^3
# Si number density = 23.102878 Si / 1000 Ang^3
#
#
#
# Elastic Constant Matrix: (Units=GPa)
#
#
# Indices 1 2 3 4 5 6 
#
# 1 90.9963 15.8011 58.7151 -0.7679 2.7316 22.4201
# 2 15.8011 79.3142 14.7578 -4.1787 -8.3655 14.8897
# 3 58.7151 14.7578 127.2246 11.1423 24.3004 16.0383
# 4 -0.7679 -4.1787 11.1423 27.2082 8.5023 -8.0625
# 5 2.7316 -8.3655 24.3004 8.5023 29.2272 1.8052
# 6 22.4201 14.8897 16.0383 -8.0625 1.8052 35.6335
#
#
#
# Elastic Compliance Matrix: (Units=1/GPa)
#
#
# Indices 1 2 3 4 5 6 
#
# 1 0.018306 0.000079 -0.008569 -0.000221 0.005998 -0.008048
# 2 0.000079 0.014737 -0.002242 -0.000550 0.006584 -0.005657
# 3 -0.008569 -0.002242 0.014491 -0.003213 -0.010932 -0.000367
# 4 -0.000221 -0.000550 -0.003213 0.045294 -0.011422 0.012642
# 5 0.005998 0.006584 -0.010932 -0.011422 0.048361 -0.006639
# 6 -0.008048 -0.005657 -0.000367 0.012642 -0.006639 0.038853
#
#
# Mechanical properties :
#
#
# Convention : Reuss Voigt Hill
#
# Bulk Modulus (GPa) = 38.36025 52.89814 45.62919
# Shear Modulus (GPa) = 23.78739 32.29786 28.04262
#
# Velocity S-wave (km/s) = 3.21226 3.74304 3.48776
# Velocity P-wave (km/s) = 5.51347 6.45190 6.00105
#
# Compressibility (1/GPa) = 0.02606865
#
# Stress axis : x y z
#
# Youngs Moduli (GPa) = 54.62700 67.85665 69.01017
#
# Poissons Ratio (x) = -0.00538 0.59137
# Poissons Ratio (y) = -0.00433 0.15475
# Poissons Ratio (z) = 0.46811 0.15217
#
# Static dielectric constant tensor:
#      x y z
#    x 1.842020 -0.054110 -0.052650 
#    y -0.054110 1.864050 -0.020630 
#    z -0.052650 -0.020630 1.801070 
# 
# From -- ./inp_files/519889.got.cif
#   From: 2010.05.17/outbox.cif.g08.bks.cpg/sg2_260_cif.got.tgz:519889.got - 2010.06.03 11:33:40.
