data_PCOD9022885
_publ_section_title
;
Structure prediction by ZEFSAII (Michael W. Deem and Ramdas Pophale) SiO2 
 PCOD9022885
Probable space group: P -1
;
_chemical_formula_sum "Si O2"
_cell_formula_units_Z 12
_cell_length_a 14.107695
_cell_length_b 10.801302
_cell_length_c 8.430308
_cell_angle_alpha 58.994732
_cell_angle_beta 135.201640
_cell_angle_gamma 146.565020
_cell_volume 488.816819
_symmetry_space_group_name_H-M "P -1"
_symmetry_group_IT_number 2
_symmetry_cell_setting 'triclinic'
loop_
_space_group_symop_operation_xyz
x,y,z
-x,-y,-z
loop_
_atom_site_type_symbol
_atom_site_label
_atom_site_fract_x
_atom_site_fract_y
_atom_site_fract_z
Si Si1 0.217307 0.264087 0.425119
Si Si2 0.820511 0.540150 0.275913
Si Si3 0.447207 0.994706 0.202479
Si Si4 0.227800 0.910210 0.315355
Si Si5 0.342256 0.329155 0.178300
Si Si6 0.877759 0.131235 0.308821
O O1 0.269460 0.333534 0.258404
O O2 0.405091 0.476833 0.622806
O O3 0.000936 0.161845 0.286517
O O4 0.206744 0.082209 0.559803
O O5 0.629337 0.268995 0.232333
O O6 0.950426 0.650795 0.519440
O O7 0.719465 0.611758 0.070529
O O8 0.003162 0.668343 0.275510
O O9 0.302595 0.896146 0.252562
O O10 0.585928 0.967372 0.413734
O O11 0.297654 0.901957 0.936808
O O12 0.229226 0.082778 0.180290
#
# Coordination Sequence:
#
# PCOD9022885 Si02
#       6
#     2   2   2   2   2   2
#     4  10  22  39  65 100 130 164 215 273 324 374
#     4  12  24  43  72  97 127 173 220 266 324 383
#     4  11  26  47  64  95 136 173 215 266 323 389
#     4  11  25  44  67  94 134 176 213 265 328 385
#     4  11  22  42  67  99 129 169 218 270 323 382
#     4  11  23  41  66  99 127 168 219 268 320 384
#
# _framework density 24.549074999999998
#
# number of rings (size 3 to 8) (size 9 to 14) (size 15 to 20)
#    0.000    1.000    3.333    3.000    4.667    2.000 
#    0.000    9.167    0.000    0.000    0.000    0.000 
#    0.000    0.000    0.000    0.000    0.000    0.000 
#
# Total GULP energy -67275.155602 kJ/mol
# GULP energy per Si atom -5606.262967 kJ/mol
# Density = 2.449320 g / cm^3
# Si number density = 24.549075 Si / 1000 Ang^3
#
#
#
# Elastic Constant Matrix: (Units=GPa)
#
#
# Indices 1 2 3 4 5 6 
#
# 1 39.5179 42.0095 7.3809 -25.6652 -24.5330 36.0907
# 2 42.0095 56.5277 21.7827 19.1525 18.4728 -6.6247
# 3 7.3809 21.7827 170.0985 15.0165 4.5022 -10.2719
# 4 -25.6652 19.1525 15.0165 13.1083 -38.9170 20.4534
# 5 -24.5330 18.4728 4.5022 -38.9170 -9.4273 27.7605
# 6 36.0907 -6.6247 -10.2719 20.4534 27.7605 14.1751
#
#
#
# Elastic Compliance Matrix: (Units=1/GPa)
#
#
# Indices 1 2 3 4 5 6 
#
# 1 0.015377 -0.004281 0.000981 -0.008114 -0.014637 -0.000067
# 2 -0.004281 0.017128 -0.002961 0.004239 0.008442 -0.005891
# 3 0.000981 -0.002961 0.006325 -0.000806 0.000515 0.000856
# 4 -0.008114 0.004239 -0.000806 0.016819 -0.006932 0.011363
# 5 -0.014637 0.008442 0.000515 -0.006932 0.019113 0.014158
# 6 -0.000067 -0.005891 0.000856 0.011363 0.014158 0.024460
#
#
# Mechanical properties :
#
#
# Convention : Reuss Voigt Hill
#
# Bulk Modulus (GPa) = 38.01272 45.38781 41.70026
# Shear Modulus (GPa) = 41.48950 16.56927 29.02938
#
# Velocity S-wave (km/s) = 4.11550 2.60079 3.44249
# Velocity P-wave (km/s) = 6.17261 5.24858 5.72925
#
# Compressibility (1/GPa) = 0.02630699
#
# Stress axis : x y z
#
# Youngs Moduli (GPa) = 65.03234 58.38552 158.10772
#
# Poissons Ratio (x) = 0.24994 -0.15505
# Poissons Ratio (y) = 0.27839 0.46815
# Poissons Ratio (z) = -0.06378 0.17288
#
# Static dielectric constant tensor:
#      x y z
#    x 1.958740 0.026910 0.002330 
#    y 0.026910 1.894170 0.002870 
#    z 0.002330 0.002870 1.948160 
# 
# From -- ./inp_files/147467.got.cif
#   From: 2010.05.17/outbox.cif.g08.bks.cpg/sg2_74_cif.got.tgz:147467.got - 2010.06.03 11:33:40.
