data_PCOD9022500
_publ_section_title
;
Structure prediction by ZEFSAII (Michael W. Deem and Ramdas Pophale) SiO2 
 PCOD9022500
Probable space group: P -1
;
_chemical_formula_sum "Si O2"
_cell_formula_units_Z 14
_cell_length_a 16.181309
_cell_length_b 7.338286
_cell_length_c 7.593025
_cell_angle_alpha 67.662611
_cell_angle_beta 80.944933
_cell_angle_gamma 50.743887
_cell_volume 641.396031
_symmetry_space_group_name_H-M "P -1"
_symmetry_group_IT_number 2
_symmetry_cell_setting 'triclinic'
loop_
_space_group_symop_operation_xyz
x,y,z
-x,-y,-z
loop_
_atom_site_type_symbol
_atom_site_label
_atom_site_fract_x
_atom_site_fract_y
_atom_site_fract_z
Si Si1 0.842194 0.426253 0.811577
Si Si2 0.911043 0.963551 0.509987
Si Si3 0.812551 0.025746 0.872376
Si Si4 0.380239 0.696086 0.899024
Si Si5 0.263883 0.220651 0.610851
Si Si6 0.749191 0.453134 0.182293
Si Si7 0.048454 0.378265 0.766296
O O1 0.851107 0.180474 0.872766
O O2 0.761571 0.634288 0.616691
O O3 0.960355 0.340344 0.781623
O O4 0.790851 0.529885 0.982331
O O5 0.984650 0.664212 0.621055
O O6 0.818505 0.048686 0.654172
O O7 0.844535 0.159332 0.303394
O O8 0.000000 0.000000 0.500000
O O9 0.699798 0.159121 0.958459
O O10 0.900305 0.738438 0.015565
O O11 0.344289 0.551573 0.858849
O O12 0.360164 0.922419 0.706001
O O13 0.500000 0.500000 0.000000
O O14 0.270775 0.377976 0.703575
O O15 0.158475 0.239370 0.670904
#
# Coordination Sequence:
#
# PCOD9022500 Si02
#       7
#     2   2   2   2   2   2   2
#     4  11  22  39  62  96 135 172 216 259 323 404
#     4  12  21  37  62  97 138 173 209 251 320 405
#     4  10  22  39  62  91 134 168 218 274 315 385
#     4  10  25  48  69  93 125 169 232 287 328 379
#     4  11  23  43  66  93 134 172 216 272 329 391
#     4  11  24  42  67  96 132 173 217 273 325 393
#     4  11  22  34  62  96 133 182 210 253 325 401
#
# _framework density 21.827390999999999
#
# number of rings (size 3 to 8) (size 9 to 14) (size 15 to 20)
#    0.000    1.143    2.857    3.000    4.000    5.143 
#    0.000    3.571    0.000    0.000    0.000    0.000 
#    0.000    0.000    0.000    0.000    0.000    0.000 
#
# Total GULP energy -78152.089924 kJ/mol
# GULP energy per Si atom -5582.292137 kJ/mol
# Density = 2.177771 g / cm^3
# Si number density = 21.827391 Si / 1000 Ang^3
#
#
#
# Elastic Constant Matrix: (Units=GPa)
#
#
# Indices 1 2 3 4 5 6 
#
# 1 118.7899 51.2179 48.1967 -31.3639 18.1949 -2.2334
# 2 51.2179 84.9502 47.1412 -25.5546 8.1305 -4.1308
# 3 48.1967 47.1412 188.4337 -11.4646 4.6931 -9.2073
# 4 -31.3639 -25.5546 -11.4646 38.5225 -4.6096 3.3933
# 5 18.1949 8.1305 4.6931 -4.6096 28.3674 -8.4453
# 6 -2.2334 -4.1308 -9.2073 3.3933 -8.4453 31.5347
#
#
#
# Elastic Compliance Matrix: (Units=1/GPa)
#
#
# Indices 1 2 3 4 5 6 
#
# 1 0.014213 -0.004762 -0.001968 0.007230 -0.007106 -0.002873
# 2 -0.004762 0.018596 -0.002951 0.007497 -0.000479 0.000302
# 3 -0.001968 -0.002951 0.006509 -0.001631 0.001334 0.001907
# 4 0.007230 0.007497 -0.001631 0.036436 -0.001586 -0.003328
# 5 -0.007106 -0.000479 0.001334 -0.001586 0.042886 0.011479
# 6 -0.002873 0.000302 0.001907 -0.003328 0.011479 0.035536
#
#
# Mechanical properties :
#
#
# Convention : Reuss Voigt Hill
#
# Bulk Modulus (GPa) = 50.10900 76.14280 63.12590
# Shear Modulus (GPa) = 27.74814 36.05943 31.90379
#
# Velocity S-wave (km/s) = 3.56933 4.06892 3.82729
# Velocity P-wave (km/s) = 6.32405 7.55213 6.96521
#
# Compressibility (1/GPa) = 0.01995649
#
# Stress axis : x y z
#
# Youngs Moduli (GPa) = 70.35730 53.77408 153.62705
#
# Poissons Ratio (x) = 0.25608 0.30226
# Poissons Ratio (y) = 0.33505 0.45343
# Poissons Ratio (z) = 0.13843 0.15871
#
# Static dielectric constant tensor:
#      x y z
#    x 1.800100 0.100490 0.042320 
#    y 0.100490 1.894600 0.117740 
#    z 0.042320 0.117740 1.866470 
# 
# From -- ./inp_files/291855.got.cif
#   From: 2010.05.17/outbox.cif.g08.bks.cpg/sg2_146_cif.got.tgz:291855.got - 2010.06.03 11:33:40.
