data_PCOD9022090
_publ_section_title
;
Structure prediction by ZEFSAII (Michael W. Deem and Ramdas Pophale) SiO2 
 PCOD9022090
Probable space group: P -1
;
_chemical_formula_sum "Si O2"
_cell_formula_units_Z 16
_cell_length_a 17.902597
_cell_length_b 8.599483
_cell_length_c 11.297821
_cell_angle_alpha 124.007686
_cell_angle_beta 149.191827
_cell_angle_gamma 66.748277
_cell_volume 723.294579
_symmetry_space_group_name_H-M "P -1"
_symmetry_group_IT_number 2
_symmetry_cell_setting 'triclinic'
loop_
_space_group_symop_operation_xyz
x,y,z
-x,-y,-z
loop_
_atom_site_type_symbol
_atom_site_label
_atom_site_fract_x
_atom_site_fract_y
_atom_site_fract_z
Si Si1 0.496367 0.839956 0.325209
Si Si2 0.249264 0.370439 0.487185
Si Si3 0.003489 0.270686 0.530100
Si Si4 0.997978 0.709252 0.035740
Si Si5 0.759350 0.506200 0.216085
Si Si6 0.591000 0.931415 0.918886
Si Si7 0.296538 0.784497 0.599140
Si Si8 0.851581 0.829875 0.101139
O O1 0.648801 0.767060 0.484752
O O2 0.500000 0.000000 0.500000
O O3 0.457173 0.931413 0.187252
O O4 0.368306 0.648657 0.086297
O O5 0.293472 0.404276 0.699114
O O6 0.277125 0.576000 0.545454
O O7 0.071713 0.290570 0.189445
O O8 0.152476 0.334604 0.683567
O O9 0.052304 0.289177 0.740460
O O10 0.884363 0.394427 0.385950
O O11 0.926656 0.052235 0.311062
O O12 0.162876 0.814827 0.342730
O O13 0.873599 0.778785 0.975778
O O14 0.000000 0.500000 0.000000
O O15 0.447077 0.817161 0.741453
O O16 0.690019 0.807058 0.929354
O O17 0.686532 0.062368 0.205727
#
# Coordination Sequence:
#
# PCOD9022090 Si02
#       8
#     2   2   2   2   2   2   2   2
#     4  12  26  45  63  94 141 174 212 275 332 390
#     4  11  23  43  70  92 132 178 217 269 328 398
#     4  10  22  38  71  97 126 172 218 274 322 393
#     4  10  22  42  65  96 134 169 219 278 327 377
#     4  11  23  44  66  97 132 172 223 264 334 393
#     4  11  23  41  68  99 133 170 220 271 332 387
#     4  10  22  42  69 100 128 170 222 276 323 391
#     4  11  20  40  67  98 131 169 222 272 324 385
#
# _framework density 22.121001
#
# number of rings (size 3 to 8) (size 9 to 14) (size 15 to 20)
#    0.000    1.250    2.500    4.125    1.750    2.000 
#    9.000    4.375    0.000    0.000    0.000    0.000 
#    0.000    0.000    0.000    0.000    0.000    0.000 
#
# Total GULP energy -89417.939913 kJ/mol
# GULP energy per Si atom -5588.621245 kJ/mol
# Density = 2.207065 g / cm^3
# Si number density = 22.121001 Si / 1000 Ang^3
#
#
#
# Elastic Constant Matrix: (Units=GPa)
#
#
# Indices 1 2 3 4 5 6 
#
# 1 76.0504 21.8039 39.5443 23.7623 7.3070 -11.1917
# 2 21.8039 40.7332 12.5232 -16.7728 2.1993 -24.0147
# 3 39.5443 12.5232 119.5352 -10.1307 -5.2716 -14.1886
# 4 23.7623 -16.7728 -10.1307 18.2041 -3.5833 -4.5304
# 5 7.3070 2.1993 -5.2716 -3.5833 24.5010 2.4431
# 6 -11.1917 -24.0147 -14.1886 -4.5304 2.4431 38.0898
#
#
#
# Elastic Compliance Matrix: (Units=1/GPa)
#
#
# Indices 1 2 3 4 5 6 
#
# 1 -0.001491 0.022802 0.002846 0.029409 0.001476 0.018401
# 2 0.022802 -0.005301 -0.012210 -0.045824 -0.015088 -0.005673
# 3 0.002846 -0.012210 0.006990 -0.012410 0.000511 -0.005767
# 4 0.029409 -0.045824 -0.012410 -0.041922 -0.010549 -0.029183
# 5 0.001476 -0.015088 0.000511 -0.010549 0.041573 -0.012809
# 6 0.018401 -0.005673 -0.005767 -0.029183 -0.012809 0.023286
#
#
# Mechanical properties :
#
#
# Convention : Reuss Voigt Hill
#
# Bulk Modulus (GPa) = 36.93720 42.67350 39.80535
# Shear Modulus (GPa) = 946.09894 26.98880 486.54387
#
# Velocity S-wave (km/s) = 20.70317 3.49672 14.84669
# Velocity P-wave (km/s) = 24.25343 5.96955 17.66160
#
# Compressibility (1/GPa) = 0.02707298
#
# Stress axis : x y z
#
# Youngs Moduli (GPa) = -670.78255 -188.65824 143.06876
#
# Poissons Ratio (x) = 4.30170 -0.40718
# Poissons Ratio (y) = 15.29490 1.74691
# Poissons Ratio (z) = 1.90909 -2.30357
#
# Static dielectric constant tensor:
#      x y z
#    x 1.899900 -0.018490 -0.013160 
#    y -0.018490 1.796960 -0.001370 
#    z -0.013160 -0.001370 1.877800 
# 
# From -- ./inp_files/462522.got.cif
#   From: 2010.05.17/outbox.cif.g08.bks.cpg/sg2_232_cif.got.tgz:462522.got - 2010.06.03 11:33:40.
