data_PCOD9022816
_publ_section_title
;
Structure prediction by ZEFSAII (Michael W. Deem and Ramdas Pophale) SiO2 
 PCOD9022816
Probable space group: P -1
;
_chemical_formula_sum "Si O2"
_cell_formula_units_Z 16
_cell_length_a 6.553002
_cell_length_b 26.809282
_cell_length_c 6.013810
_cell_angle_alpha 126.327938
_cell_angle_beta 75.619049
_cell_angle_gamma 130.891972
_cell_volume 626.344766
_symmetry_space_group_name_H-M "P -1"
_symmetry_group_IT_number 2
_symmetry_cell_setting 'triclinic'
loop_
_space_group_symop_operation_xyz
x,y,z
-x,-y,-z
loop_
_atom_site_type_symbol
_atom_site_label
_atom_site_fract_x
_atom_site_fract_y
_atom_site_fract_z
Si Si1 0.370837 0.611775 0.724364
Si Si2 0.732960 0.022409 0.661503
Si Si3 0.359910 0.742527 0.952903
Si Si4 0.794111 0.509153 0.196816
Si Si5 0.864061 0.845959 0.766336
Si Si6 0.084049 0.259438 0.808906
Si Si7 0.264715 0.381568 0.726832
Si Si8 0.269106 0.099903 0.429117
O O1 0.223532 0.523856 0.641065
O O2 0.529898 0.618407 0.482884
O O3 0.231695 0.651493 0.815749
O O4 0.609506 0.676097 0.005038
O O5 0.979114 0.048345 0.500267
O O6 0.500000 0.000000 0.500000
O O7 0.623731 0.946631 0.650095
O O8 0.886431 0.100178 0.986225
O O9 0.534217 0.809723 0.279273
O O10 0.127411 0.749840 0.985587
O O11 0.586224 0.773267 0.781109
O O12 0.882512 0.594484 0.320298
O O13 0.476661 0.449441 0.034048
O O14 0.000000 0.500000 0.000000
O O15 0.948413 0.815742 0.467389
O O16 0.785892 0.895851 0.801371
O O17 0.064809 0.298753 0.698239
#
# Coordination Sequence:
#
# PCOD9022816 Si02
#       8
#     2   2   2   2   2   2   2   2
#     4  11  22  41  63  95 139 170 229 283 327 407
#     4  10  24  45  71 100 135 178 228 279 339 404
#     4  11  24  41  66  99 135 176 224 279 337 402
#     4  10  22  39  64  93 130 175 225 272 335 401
#     4  11  23  46  71  97 140 179 226 284 336 407
#     4  11  24  42  65  98 134 179 226 276 341 402
#     4  10  22  41  63  94 131 173 223 280 330 396
#     4  10  23  45  66 100 136 172 229 279 331 413
#
# _framework density 25.54504
#
# number of rings (size 3 to 8) (size 9 to 14) (size 15 to 20)
#    0.000    1.500    2.500    1.500    1.750    3.000 
#    6.750    0.000    0.000    0.000    0.000    0.000 
#    0.000    0.000    0.000    0.000    0.000    0.000 
#
# Total GULP energy -89511.102206 kJ/mol
# GULP energy per Si atom -5594.443888 kJ/mol
# Density = 2.548690 g / cm^3
# Si number density = 25.545040 Si / 1000 Ang^3
#
#
#
# Elastic Constant Matrix: (Units=GPa)
#
#
# Indices 1 2 3 4 5 6 
#
# 1 120.1598 34.6085 20.9793 8.6425 9.2408 -21.1418
# 2 34.6085 105.5663 15.8454 5.0501 7.3362 -17.4658
# 3 20.9793 15.8454 59.5407 4.7219 3.2215 -10.9716
# 4 8.6425 5.0501 4.7219 24.5577 -2.2714 -8.4857
# 5 9.2408 7.3362 3.2215 -2.2714 48.2946 -8.2103
# 6 -21.1418 -17.4658 -10.9716 -8.4857 -8.2103 37.8621
#
#
#
# Elastic Compliance Matrix: (Units=1/GPa)
#
#
# Indices 1 2 3 4 5 6 
#
# 1 0.010149 -0.002296 -0.002157 -0.001589 -0.000942 0.003422
# 2 -0.002296 0.011029 -0.001492 -0.000116 -0.000595 0.003218
# 3 -0.002157 -0.001492 0.018657 -0.001442 -0.000136 0.003161
# 4 -0.001589 -0.000116 -0.001442 0.045325 0.004200 0.009710
# 5 -0.000942 -0.000595 -0.000136 0.004200 0.022012 0.004875
# 6 0.003422 0.003218 0.003161 0.009710 0.004875 0.033957
#
#
# Mechanical properties :
#
#
# Convention : Reuss Voigt Hill
#
# Bulk Modulus (GPa) = 35.78508 47.57037 41.67772
# Shear Modulus (GPa) = 30.80103 36.39844 33.59973
#
# Velocity S-wave (km/s) = 3.47616 3.77884 3.63066
# Velocity P-wave (km/s) = 5.49096 6.14021 5.82464
#
# Compressibility (1/GPa) = 0.02794460
#
# Stress axis : x y z
#
# Youngs Moduli (GPa) = 98.53112 90.67341 53.60061
#
# Poissons Ratio (x) = 0.20816 0.11564
# Poissons Ratio (y) = 0.22619 0.07996
# Poissons Ratio (z) = 0.21257 0.13526
#
# Static dielectric constant tensor:
#      x y z
#    x 2.056820 -0.029210 0.012020 
#    y -0.029210 2.057240 0.027250 
#    z 0.012020 0.027250 1.999700 
# 
# From -- ./inp_files/14707.got.cif
#   From: 2010.05.17/outbox.cif.g08.bks.cpg/sg2_8_cif.got.tgz:14707.got - 2010.06.03 11:33:40.
