data_PCOD9022730
_publ_section_title
;
Structure prediction by ZEFSAII (Michael W. Deem and Ramdas Pophale) SiO2 
 PCOD9022730
Probable space group: P -1
;
_chemical_formula_sum "Si O2"
_cell_formula_units_Z 16
_cell_length_a 18.912499
_cell_length_b 12.146968
_cell_length_c 22.106833
_cell_angle_alpha 29.353629
_cell_angle_beta 18.222385
_cell_angle_gamma 30.119322
_cell_volume 755.364238
_symmetry_space_group_name_H-M "P -1"
_symmetry_group_IT_number 2
_symmetry_cell_setting 'triclinic'
loop_
_space_group_symop_operation_xyz
x,y,z
-x,-y,-z
loop_
_atom_site_type_symbol
_atom_site_label
_atom_site_fract_x
_atom_site_fract_y
_atom_site_fract_z
Si Si1 0.667284 0.407230 0.462728
Si Si2 0.874656 0.725105 0.455146
Si Si3 0.020451 0.991622 0.315325
Si Si4 0.318684 0.742636 0.012648
Si Si5 0.652674 0.190177 0.185316
Si Si6 0.895484 0.673539 0.237282
Si Si7 0.025812 0.209999 0.423567
Si Si8 0.534694 0.981513 0.135652
O O1 0.500000 0.500000 0.500000
O O2 0.753152 0.609458 0.327801
O O3 0.541466 0.258852 0.680845
O O4 0.887930 0.227949 0.340879
O O5 0.627506 0.728151 0.624005
O O6 0.000000 0.500000 0.500000
O O7 0.062989 0.742307 0.243728
O O8 0.865775 0.921479 0.420287
O O9 0.261030 0.009792 0.080775
O O10 0.051012 0.821284 0.430056
O O11 0.500000 0.500000 0.000000
O O12 0.311586 0.790941 0.924878
O O13 0.392057 0.945219 0.893307
O O14 0.755416 0.927489 0.250064
O O15 0.837748 0.324275 0.997208
O O16 0.906983 0.461128 0.375101
O O17 0.303801 0.176692 0.214101
O O18 0.000000 0.000000 0.500000
#
# Coordination Sequence:
#
# PCOD9022730 Si02
#       8
#     2   2   2   2   2   2   2   2
#     4  11  22  43  68  91 131 172 221 273 335 394
#     4  11  23  39  66 101 126 172 226 268 323 390
#     4  10  23  40  63  98 129 163 223 277 320 388
#     4  11  21  39  68  96 127 171 220 270 323 386
#     4  11  24  44  64  93 142 171 218 270 335 394
#     4  11  24  43  65  96 132 181 213 273 335 396
#     4  11  21  42  64  92 132 169 222 263 330 388
#     4  10  22  39  63  99 125 166 223 269 327 390
#
# _framework density 21.181833999999998
#
# number of rings (size 3 to 8) (size 9 to 14) (size 15 to 20)
#    0.000    1.250    3.750    3.750    3.500    1.000 
#    0.000    6.250    0.000    0.000    0.000    0.000 
#    0.000    0.000    0.000    0.000    0.000    0.000 
#
# Total GULP energy -89371.116544 kJ/mol
# GULP energy per Si atom -5585.694784 kJ/mol
# Density = 2.113362 g / cm^3
# Si number density = 21.181834 Si / 1000 Ang^3
#
#
#
# Elastic Constant Matrix: (Units=GPa)
#
#
# Indices 1 2 3 4 5 6 
#
# 1 77.5465 15.6176 45.7445 -1.9456 -13.7335 -14.9641
# 2 15.6176 61.0105 33.8476 -13.0255 3.0054 -21.1698
# 3 45.7445 33.8476 126.1263 17.8418 -18.6266 -0.0917
# 4 -1.9456 -13.0255 17.8418 30.0736 0.2793 -5.5334
# 5 -13.7335 3.0054 -18.6266 0.2793 42.6492 -0.7237
# 6 -14.9641 -21.1698 -0.0917 -5.5334 -0.7237 40.0031
#
#
#
# Elastic Compliance Matrix: (Units=1/GPa)
#
#
# Indices 1 2 3 4 5 6 
#
# 1 0.022340 0.011166 -0.013430 0.017304 0.000711 0.016641
# 2 0.011166 0.050456 -0.025451 0.044544 -0.010743 0.036787
# 3 -0.013430 -0.025451 0.025240 -0.031099 0.008313 -0.022586
# 4 0.017304 0.044544 -0.031099 0.079724 -0.010979 0.040804
# 5 0.000711 -0.010743 0.008313 -0.010979 0.028027 -0.006412
# 6 0.016641 0.036787 -0.022586 0.040804 -0.006412 0.056167
#
#
# Mechanical properties :
#
#
# Convention : Reuss Voigt Hill
#
# Bulk Modulus (GPa) = 23.47100 50.56697 37.01898
# Shear Modulus (GPa) = 15.07903 33.84343 24.46123
#
# Velocity S-wave (km/s) = 2.67101 4.00153 3.40195
# Velocity P-wave (km/s) = 4.54061 6.72862 5.73984
#
# Compressibility (1/GPa) = 0.04260577
#
# Stress axis : x y z
#
# Youngs Moduli (GPa) = 44.76224 19.81929 39.61966
#
# Poissons Ratio (x) = -0.22129 0.53208
# Poissons Ratio (y) = -0.49980 1.00836
# Poissons Ratio (z) = 0.60115 0.50442
#
# Static dielectric constant tensor:
#      x y z
#    x 1.800200 -0.005580 -0.032290 
#    y -0.005580 1.802950 -0.024750 
#    z -0.032290 -0.024750 1.786480 
# 
# From -- ./inp_files/600003.got.cif
#   From: 2010.05.17/outbox.cif.g08.bks.cpg/sg2_301_cif.got.tgz:600003.got - 2010.06.03 11:33:40.
