data_PCOD9022106
_publ_section_title
;
Structure prediction by ZEFSAII (Michael W. Deem and Ramdas Pophale) SiO2 
 PCOD9022106
Probable space group: P -1
;
_chemical_formula_sum "Si O2"
_cell_formula_units_Z 15
_cell_length_a 12.321532
_cell_length_b 10.115680
_cell_length_c 14.911728
_cell_angle_alpha 45.015973
_cell_angle_beta 30.331692
_cell_angle_gamma 51.762666
_cell_volume 663.679633
_symmetry_space_group_name_H-M "P -1"
_symmetry_group_IT_number 2
_symmetry_cell_setting 'triclinic'
loop_
_space_group_symop_operation_xyz
x,y,z
-x,-y,-z
loop_
_atom_site_type_symbol
_atom_site_label
_atom_site_fract_x
_atom_site_fract_y
_atom_site_fract_z
Si Si1 0.892459 0.167862 0.051277
Si Si2 0.468609 0.297403 0.231882
Si Si3 0.863829 0.686039 0.034964
Si Si4 0.500000 0.500000 0.500000
Si Si5 0.161439 0.141006 0.218401
Si Si6 0.440717 0.733043 0.027856
Si Si7 0.096976 0.534643 0.648792
Si Si8 0.017774 0.764425 0.424090
O O1 0.983744 0.181450 0.079778
O O2 0.964577 0.355164 0.858075
O O3 0.634764 0.176964 0.230102
O O4 0.000000 0.000000 0.000000
O O5 0.494553 0.519067 0.122101
O O6 0.219578 0.248682 0.439955
O O7 0.535686 0.259627 0.098891
O O8 0.676151 0.625274 0.263049
O O9 0.784410 0.782470 0.955269
O O10 0.000000 0.500000 0.000000
O O11 0.341393 0.506663 0.518976
O O12 0.002227 0.292700 0.305129
O O13 0.045074 0.947334 0.378787
O O14 0.381537 0.133982 0.120463
O O15 0.203165 0.773587 0.213699
O O16 0.060985 0.590173 0.544355
#
# Coordination Sequence:
#
# PCOD9022106 Si02
#       8
#     2   2   2   1   2   2   2   2
#     4  11  25  45  73 100 139 198 235 293 360 428
#     4  11  23  46  69  97 146 185 235 293 354 422
#     4  11  22  46  71  99 142 187 238 294 356 420
#     4  10  22  38  74  98 134 190 230 284 346 424
#     4  12  23  45  72 106 143 180 236 302 359 413
#     4  11  23  44  71 100 140 188 224 301 356 419
#     4  11  22  45  68 102 144 183 232 296 360 413
#     4  12  26  41  74 108 138 185 241 291 358 433
#
# _framework density 22.601265999999999
#
# number of rings (size 3 to 8) (size 9 to 14) (size 15 to 20)
#    0.000    0.800    5.333    2.800    1.867    2.133 
#    0.000    2.000    0.000    0.000    0.000    0.000 
#    0.000    0.000    0.000    0.000    0.000    0.000 
#
# Total GULP energy -83741.872976 kJ/mol
# GULP energy per Si atom -5582.791532 kJ/mol
# Density = 2.254982 g / cm^3
# Si number density = 22.601266 Si / 1000 Ang^3
#
#
#
# Elastic Constant Matrix: (Units=GPa)
#
#
# Indices 1 2 3 4 5 6 
#
# 1 75.3382 4.1452 23.0916 10.4252 -29.2497 0.0503
# 2 4.1452 87.9174 2.1253 -5.0602 -10.3659 14.5355
# 3 23.0916 2.1253 52.0365 -7.2902 -23.8311 -5.0894
# 4 10.4252 -5.0602 -7.2902 22.9192 -4.2316 -0.6348
# 5 -29.2497 -10.3659 -23.8311 -4.2316 54.1789 1.2486
# 6 0.0503 14.5355 -5.0894 -0.6348 1.2486 23.6990
#
#
#
# Elastic Compliance Matrix: (Units=1/GPa)
#
#
# Indices 1 2 3 4 5 6 
#
# 1 0.019427 -0.000204 -0.007230 -0.010033 0.006533 -0.002082
# 2 -0.000204 0.013289 0.000749 0.003639 0.003232 -0.008062
# 3 -0.007230 0.000749 0.029832 0.015025 0.010402 0.005817
# 4 -0.010033 0.003639 0.015025 0.054970 0.006132 0.002166
# 5 0.006533 0.003232 0.010402 0.006132 0.027682 -0.001056
# 6 -0.002082 -0.008062 0.005817 0.002166 -0.001056 0.048508
#
#
# Mechanical properties :
#
#
# Convention : Reuss Voigt Hill
#
# Bulk Modulus (GPa) = 20.33370 30.44624 25.38997
# Shear Modulus (GPa) = 22.37438 32.55477 27.46457
#
# Velocity S-wave (km/s) = 3.14978 3.79937 3.48972
# Velocity P-wave (km/s) = 4.71639 5.72252 5.24364
#
# Compressibility (1/GPa) = 0.04917945
#
# Stress axis : x y z
#
# Youngs Moduli (GPa) = 51.47510 75.24870 33.52057
#
# Poissons Ratio (x) = 0.01536 0.24234
# Poissons Ratio (y) = 0.01051 -0.02511
# Poissons Ratio (z) = 0.37214 -0.05638
#
# Static dielectric constant tensor:
#      x y z
#    x 1.828720 0.001070 0.012360 
#    y 0.001070 1.858290 -0.013520 
#    z 0.012360 -0.013520 1.794850 
# 
# From -- ./inp_files/514987.got.cif
#   From: 2010.05.17/outbox.cif.g08.bks.cpg/sg2_258_cif.got.tgz:514987.got - 2010.06.03 11:33:40.
