data_PCOD9022087
_publ_section_title
;
Structure prediction by ZEFSAII (Michael W. Deem and Ramdas Pophale) SiO2 
 PCOD9022087
Probable space group: P -1
;
_chemical_formula_sum "Si O2"
_cell_formula_units_Z 14
_cell_length_a 5.204918
_cell_length_b 10.672387
_cell_length_c 12.785147
_cell_angle_alpha 113.886617
_cell_angle_beta 60.677520
_cell_angle_gamma 114.873652
_cell_volume 543.711109
_symmetry_space_group_name_H-M "P -1"
_symmetry_group_IT_number 2
_symmetry_cell_setting 'triclinic'
loop_
_space_group_symop_operation_xyz
x,y,z
-x,-y,-z
loop_
_atom_site_type_symbol
_atom_site_label
_atom_site_fract_x
_atom_site_fract_y
_atom_site_fract_z
Si Si1 0.071039 0.998819 0.108559
Si Si2 0.708685 0.152550 0.379859
Si Si3 0.493720 0.523002 0.886986
Si Si4 0.313423 0.776857 0.935392
Si Si5 0.774918 0.679684 0.292562
Si Si6 0.156742 0.581314 0.698577
Si Si7 0.722955 0.144893 0.597842
O O1 0.407269 0.089801 0.108478
O O2 0.071840 0.836239 0.066518
O O3 0.853502 0.068480 0.238837
O O4 0.000000 0.000000 0.000000
O O5 0.725453 0.307822 0.382029
O O6 0.890243 0.173799 0.461207
O O7 0.396640 0.026937 0.423066
O O8 0.472991 0.682526 0.938836
O O9 0.214575 0.414670 0.844750
O O10 0.787932 0.514143 0.755995
O O11 0.500000 0.500000 0.000000
O O12 0.197908 0.684339 0.825981
O O13 0.695703 0.547957 0.350271
O O14 0.548016 0.777164 0.343687
O O15 0.079282 0.784251 0.318195
#
# Coordination Sequence:
#
# PCOD9022087 Si02
#       7
#     2   2   2   2   2   2   2
#     4  11  21  42  65 108 145 193 240 311 378 448
#     4  11  26  48  78 108 158 196 261 314 378 444
#     4  11  24  46  74 109 151 194 248 315 377 456
#     4  10  22  38  71 107 147 187 249 300 387 440
#     4  11  26  53  75 110 152 199 260 302 392 441
#     4  11  23  48  74 111 147 199 250 317 368 460
#     4  11  28  52  75 115 151 207 251 317 375 452
#
# _framework density 25.74897
#
# number of rings (size 3 to 8) (size 9 to 14) (size 15 to 20)
#    0.000    1.143    4.286    0.000    0.000   11.429 
#    2.571    0.000    0.000    0.000    0.000    0.000 
#    0.000    0.000    0.000    0.000    0.000    0.000 
#
# Total GULP energy -78191.365385 kJ/mol
# GULP energy per Si atom -5585.097527 kJ/mol
# Density = 2.569036 g / cm^3
# Si number density = 25.748970 Si / 1000 Ang^3
#
#
#
# Elastic Constant Matrix: (Units=GPa)
#
#
# Indices 1 2 3 4 5 6 
#
# 1 117.3295 34.9287 23.6248 3.2980 18.1718 -4.8554
# 2 34.9287 133.2478 11.5890 -14.9060 5.4544 -5.7936
# 3 23.6248 11.5890 76.5028 6.5792 -2.0557 -5.3520
# 4 3.2980 -14.9060 6.5792 43.4846 -7.6251 8.7111
# 5 18.1718 5.4544 -2.0557 -7.6251 31.9725 17.2588
# 6 -4.8554 -5.7936 -5.3520 8.7111 17.2588 48.4342
#
#
#
# Elastic Compliance Matrix: (Units=1/GPa)
#
#
# Indices 1 2 3 4 5 6 
#
# 1 0.011748 -0.002676 -0.002798 -0.004110 -0.009999 0.004851
# 2 -0.002676 0.008612 -0.000775 0.003512 0.001010 -0.000315
# 3 -0.002798 -0.000775 0.014354 -0.002159 0.001568 0.001042
# 4 -0.004110 0.003512 -0.002159 0.029498 0.014389 -0.010663
# 5 -0.009999 0.001010 0.001568 0.014389 0.052126 -0.021870
# 6 0.004851 -0.000315 0.001042 -0.010663 -0.021870 0.030921
#
#
# Mechanical properties :
#
#
# Convention : Reuss Voigt Hill
#
# Bulk Modulus (GPa) = 45.01565 51.92945 48.47255
# Shear Modulus (GPa) = 29.91114 41.90742 35.90928
#
# Velocity S-wave (km/s) = 3.41199 4.03865 3.73847
# Velocity P-wave (km/s) = 5.74828 6.47758 6.12379
#
# Compressibility (1/GPa) = 0.02221450
#
# Stress axis : x y z
#
# Youngs Moduli (GPa) = 85.12156 116.12374 69.66806
#
# Poissons Ratio (x) = 0.31071 0.19496
# Poissons Ratio (y) = 0.22776 0.05401
# Poissons Ratio (z) = 0.23821 0.09002
#
# Static dielectric constant tensor:
#      x y z
#    x 2.201290 -0.026830 -0.030920 
#    y -0.026830 2.122180 -0.089240 
#    z -0.030920 -0.089240 2.097080 
# 
# From -- ./inp_files/362256.got.cif
#   From: 2010.05.17/outbox.cif.g08.bks.cpg/sg2_182_cif.got.tgz:362256.got - 2010.06.03 11:33:40.
