data_PCOD9022450
_publ_section_title
;
Structure prediction by ZEFSAII (Michael W. Deem and Ramdas Pophale) SiO2 
 PCOD9022450
Probable space group: P -1
;
_chemical_formula_sum "Si O2"
_cell_formula_units_Z 12
_cell_length_a 7.204829
_cell_length_b 24.251343
_cell_length_c 7.138969
_cell_angle_alpha 129.884247
_cell_angle_beta 102.813991
_cell_angle_gamma 38.789823
_cell_volume 489.163033
_symmetry_space_group_name_H-M "P -1"
_symmetry_group_IT_number 2
_symmetry_cell_setting 'triclinic'
loop_
_space_group_symop_operation_xyz
x,y,z
-x,-y,-z
loop_
_atom_site_type_symbol
_atom_site_label
_atom_site_fract_x
_atom_site_fract_y
_atom_site_fract_z
Si Si1 0.972737 0.276461 0.642581
Si Si2 0.253682 0.832563 0.161707
Si Si3 0.232813 0.124133 0.022598
Si Si4 0.835606 0.029800 0.830965
Si Si5 0.166725 0.526213 0.088999
Si Si6 0.327250 0.656063 0.892478
O O1 0.046149 0.336433 0.739822
O O2 0.210368 0.147510 0.288142
O O3 0.540881 0.401934 0.781322
O O4 0.973550 0.257010 0.820035
O O5 0.402784 0.832323 0.025831
O O6 0.459285 0.696292 0.982566
O O7 0.858431 0.086474 0.506332
O O8 0.894633 0.911609 0.158728
O O9 0.899988 0.281361 0.209407
O O10 0.595156 0.037614 0.827443
O O11 0.000000 0.000000 0.000000
O O12 0.327088 0.492746 0.260868
O O13 0.000000 0.500000 0.000000
#
# Coordination Sequence:
#
# PCOD9022450 Si02
#       6
#     2   2   2   2   2   2
#     4   9  20  38  59  90 114 156 197 225 300 344
#     4   9  23  41  56  89 118 150 203 234 298 342
#     4  10  22  39  62  84 117 158 192 239 295 347
#     4  11  24  39  61  87 117 153 201 243 290 347
#     4   9  19  38  60  86 121 151 189 243 285 342
#     4   8  20  38  58  83 120 151 187 242 284 344
#
# _framework density 24.531697000000001
#
# number of rings (size 3 to 8) (size 9 to 14) (size 15 to 20)
#    2.000    0.667    0.000    0.500    2.333    8.000 
#    0.000    0.833    0.000    0.000    0.000    0.000 
#    0.000    0.000    0.000    0.000    0.000    0.000 
#
# Total GULP energy -66822.667083 kJ/mol
# GULP energy per Si atom -5568.555590 kJ/mol
# Density = 2.447586 g / cm^3
# Si number density = 24.531697 Si / 1000 Ang^3
#
#
#
# Elastic Constant Matrix: (Units=GPa)
#
#
# Indices 1 2 3 4 5 6 
#
# 1 151.2899 24.3723 29.5387 -4.9869 -17.1262 19.2566
# 2 24.3723 75.1262 18.2819 -19.5118 -10.1831 7.8207
# 3 29.5387 18.2819 52.2432 -16.9232 -1.9576 7.1078
# 4 -4.9869 -19.5118 -16.9232 30.8910 4.8818 -7.9655
# 5 -17.1262 -10.1831 -1.9576 4.8818 30.0826 -3.3010
# 6 19.2566 7.8207 7.1078 -7.9655 -3.3010 47.3163
#
#
#
# Elastic Compliance Matrix: (Units=1/GPa)
#
#
# Indices 1 2 3 4 5 6 
#
# 1 0.008563 -0.001687 -0.004936 -0.003788 0.004290 -0.002803
# 2 -0.001687 0.017109 -0.002017 0.008887 0.003245 -0.000116
# 3 -0.004936 -0.002017 0.026753 0.013272 -0.003874 0.000287
# 4 -0.003788 0.008887 0.013272 0.046926 -0.005284 0.005610
# 5 0.004290 0.003245 -0.003874 -0.005284 0.037390 0.000019
# 6 -0.002803 -0.000116 0.000287 0.005610 0.000019 0.023197
#
#
# Mechanical properties :
#
#
# Convention : Reuss Voigt Hill
#
# Bulk Modulus (GPa) = 28.45465 47.00501 37.72983
# Shear Modulus (GPa) = 26.46437 35.42241 30.94339
#
# Velocity S-wave (km/s) = 3.28805 3.80405 3.55542
# Velocity P-wave (km/s) = 5.10287 6.20459 5.68050
#
# Compressibility (1/GPa) = 0.03514364
#
# Stress axis : x y z
#
# Youngs Moduli (GPa) = 116.78265 58.44828 37.37923
#
# Poissons Ratio (x) = 0.09863 0.18451
# Poissons Ratio (y) = 0.19706 0.07540
# Poissons Ratio (z) = 0.57645 0.11789
#
# Static dielectric constant tensor:
#      x y z
#    x 1.968790 0.061380 0.045780 
#    y 0.061380 2.027530 0.050240 
#    z 0.045780 0.050240 1.930100 
# 
# From -- ./inp_files/126349.got.cif
#   From: 2010.05.17/outbox.cif.g08.bks.cpg/sg2_64_cif.got.tgz:126349.got - 2010.06.03 11:33:40.
