data_PCOD9022411
_publ_section_title
;
Structure prediction by ZEFSAII (Michael W. Deem and Ramdas Pophale) SiO2 
 PCOD9022411
Probable space group: P -1
;
_chemical_formula_sum "Si O2"
_cell_formula_units_Z 16
_cell_length_a 20.897792
_cell_length_b 12.463750
_cell_length_c 8.588378
_cell_angle_alpha 120.577258
_cell_angle_beta 34.748509
_cell_angle_gamma 144.704478
_cell_volume 641.495680
_symmetry_space_group_name_H-M "P -1"
_symmetry_group_IT_number 2
_symmetry_cell_setting 'triclinic'
loop_
_space_group_symop_operation_xyz
x,y,z
-x,-y,-z
loop_
_atom_site_type_symbol
_atom_site_label
_atom_site_fract_x
_atom_site_fract_y
_atom_site_fract_z
Si Si1 0.468197 0.064103 0.254766
Si Si2 0.202686 0.638652 0.624251
Si Si3 0.117634 0.879266 0.662842
Si Si4 0.839510 0.631460 0.322620
Si Si5 0.843784 0.520604 0.745521
Si Si6 0.638837 0.588632 0.147985
Si Si7 0.847967 0.972159 0.821937
Si Si8 0.313955 0.234921 0.314655
O O1 0.362174 0.890617 0.473187
O O2 0.310380 0.018155 0.471423
O O3 0.500000 0.000000 0.000000
O O4 0.675081 0.314996 0.042406
O O5 0.272389 0.590264 0.561886
O O6 0.167657 0.556183 0.456211
O O7 0.000000 0.500000 0.000000
O O8 0.053176 0.712879 0.547593
O O9 0.164133 0.048056 0.603481
O O10 0.943498 0.724131 0.017329
O O11 0.723007 0.654896 0.574097
O O12 0.017888 0.800055 0.212591
O O13 0.793504 0.622710 0.903648
O O14 0.500000 0.500000 0.500000
O O15 0.518037 0.416545 0.123190
O O16 0.723375 0.794779 0.072248
O O17 0.723676 0.879987 0.848689
O O18 0.000000 0.000000 0.500000
#
# Coordination Sequence:
#
# PCOD9022411 Si02
#       8
#     2   2   2   2   2   2   2   2
#     4  10  24  45  70  98 134 176 236 283 335 401
#     4  11  23  45  71  93 134 189 228 288 339 396
#     4  12  22  43  73 101 134 182 221 280 358 409
#     4  11  22  41  66  98 137 175 230 279 339 415
#     4  11  24  44  72 101 137 179 231 285 342 406
#     4  12  23  40  67 104 144 178 225 281 343 417
#     4  10  22  39  61  94 136 181 217 272 342 412
#     4  11  22  39  66 103 135 180 225 278 353 412
#
# _framework density 24.94171
#
# number of rings (size 3 to 8) (size 9 to 14) (size 15 to 20)
#    0.000    1.000    2.500    6.000    0.000    2.000 
#    0.000    0.625    2.750    0.000    0.000    0.000 
#    0.000    0.000    0.000    0.000    0.000    0.000 
#
# Total GULP energy -89559.377661 kJ/mol
# GULP energy per Si atom -5597.461104 kJ/mol
# Density = 2.488494 g / cm^3
# Si number density = 24.941710 Si / 1000 Ang^3
#
#
#
# Elastic Constant Matrix: (Units=GPa)
#
#
# Indices 1 2 3 4 5 6 
#
# 1 85.7532 43.1448 32.8810 -19.0833 15.4189 -21.8218
# 2 43.1448 81.5152 21.2524 -27.0331 3.9059 -14.7851
# 3 32.8810 21.2524 113.3380 -16.0582 26.9951 -12.3200
# 4 -19.0833 -27.0331 -16.0582 48.4836 -5.0188 16.7563
# 5 15.4189 3.9059 26.9951 -5.0188 38.8486 -18.7135
# 6 -21.8218 -14.7851 -12.3200 16.7563 -18.7135 35.5148
#
#
#
# Elastic Compliance Matrix: (Units=1/GPa)
#
#
# Indices 1 2 3 4 5 6 
#
# 1 0.018629 -0.008011 -0.002913 -0.000524 -0.001464 0.006577
# 2 -0.008011 0.019178 -0.000934 0.007193 0.003368 0.001119
# 3 -0.002913 -0.000934 0.011823 0.002686 -0.008447 -0.003795
# 4 -0.000524 0.007193 0.002686 0.029206 -0.004704 -0.012654
# 5 -0.001464 0.003368 -0.008447 -0.004704 0.041739 0.021785
# 6 0.006577 0.001119 -0.003795 -0.012654 0.021785 0.048797
#
#
# Mechanical properties :
#
#
# Convention : Reuss Voigt Hill
#
# Bulk Modulus (GPa) = 38.58783 52.79588 45.69186
# Shear Modulus (GPa) = 24.78594 36.79128 30.78861
#
# Velocity S-wave (km/s) = 3.15581 3.84486 3.51725
# Velocity P-wave (km/s) = 5.36504 6.39721 5.90372
#
# Compressibility (1/GPa) = 0.02591491
#
# Stress axis : x y z
#
# Youngs Moduli (GPa) = 53.67872 52.14236 84.57911
#
# Poissons Ratio (x) = 0.41774 0.24638
# Poissons Ratio (y) = 0.43004 0.07896
# Poissons Ratio (z) = 0.15637 0.04868
#
# Static dielectric constant tensor:
#      x y z
#    x 2.057340 -0.078350 -0.105230 
#    y -0.078350 2.215080 0.178030 
#    z -0.105230 0.178030 2.264040 
# 
# From -- ./inp_files/346216.got.cif
#   From: 2010.05.17/outbox.cif.g08.bks.cpg/sg2_174_cif.got.tgz:346216.got - 2010.06.03 11:33:40.
