data_PCOD9022640
_publ_section_title
;
Structure prediction by ZEFSAII (Michael W. Deem and Ramdas Pophale) SiO2 
 PCOD9022640
Probable space group: P -1
;
_chemical_formula_sum "Si O2"
_cell_formula_units_Z 12
_cell_length_a 9.373851
_cell_length_b 11.751862
_cell_length_c 11.162628
_cell_angle_alpha 124.235794
_cell_angle_beta 153.330559
_cell_angle_gamma 56.901943
_cell_volume 453.176578
_symmetry_space_group_name_H-M "P -1"
_symmetry_group_IT_number 2
_symmetry_cell_setting 'triclinic'
loop_
_space_group_symop_operation_xyz
x,y,z
-x,-y,-z
loop_
_atom_site_type_symbol
_atom_site_label
_atom_site_fract_x
_atom_site_fract_y
_atom_site_fract_z
Si Si1 0.372587 0.614605 0.766004
Si Si2 0.704099 0.703519 0.445479
Si Si3 0.710514 0.598703 0.783227
Si Si4 0.737902 0.836384 0.220154
Si Si5 0.988010 0.188129 0.035026
Si Si6 0.061596 0.012320 0.757923
O O1 0.382179 0.449077 0.668524
O O2 0.457261 0.670019 0.731828
O O3 0.036106 0.668796 0.603735
O O4 0.659779 0.679157 0.089532
O O5 0.377506 0.766681 0.174955
O O6 0.786676 0.803664 0.675575
O O7 0.500000 0.500000 0.500000
O O8 0.000000 0.500000 0.000000
O O9 0.866131 0.701589 0.875441
O O10 0.865368 0.908909 0.475100
O O11 0.943569 0.861507 0.269078
O O12 0.406874 0.928795 0.992295
O O13 0.968327 0.064239 0.852195
#
# Coordination Sequence:
#
# PCOD9022640 Si02
#       6
#     2   2   2   2   2   2
#     4  11  24  45  63  98 130 168 206 261 316 389
#     4  11  27  40  67  93 135 166 203 257 333 369
#     4  12  23  39  65  97 123 165 214 258 313 371
#     4  10  22  39  63  93 123 165 208 261 314 361
#     4  12  22  45  62  97 127 166 211 268 303 376
#     4  10  22  39  64  92 123 162 214 263 304 364
#
# _framework density 26.479745999999999
#
# number of rings (size 3 to 8) (size 9 to 14) (size 15 to 20)
#    0.000    1.000    5.000    1.000    0.000    8.000 
#    0.000    5.000    0.000    0.000    0.000    0.000 
#    0.000    0.000    0.000    0.000    0.000    0.000 
#
# Total GULP energy -67149.458718 kJ/mol
# GULP energy per Si atom -5595.788226 kJ/mol
# Density = 2.641948 g / cm^3
# Si number density = 26.479746 Si / 1000 Ang^3
#
#
#
# Elastic Constant Matrix: (Units=GPa)
#
#
# Indices 1 2 3 4 5 6 
#
# 1 85.1972 27.5901 39.6146 26.4491 19.0209 -16.2575
# 2 27.5901 51.4765 32.2601 16.6668 -5.0256 3.4172
# 3 39.6146 32.2601 214.0098 20.9203 -25.5622 5.4079
# 4 26.4491 16.6668 20.9203 48.0782 -3.0259 2.5402
# 5 19.0209 -5.0256 -25.5622 -3.0259 52.7517 11.1631
# 6 -16.2575 3.4172 5.4079 2.5402 11.1631 51.4764
#
#
#
# Elastic Compliance Matrix: (Units=1/GPa)
#
#
# Indices 1 2 3 4 5 6 
#
# 1 0.027133 -0.010591 -0.004690 -0.010997 -0.016641 0.013916
# 2 -0.010591 0.027652 -0.000929 -0.002555 0.007238 -0.006527
# 3 -0.004690 -0.000929 0.006346 0.000655 0.005412 -0.003292
# 4 -0.010997 -0.002555 0.000655 0.028221 0.006987 -0.006280
# 5 -0.016641 0.007238 0.005412 0.006987 0.031524 -0.013486
# 6 0.013916 -0.006527 -0.003292 -0.006280 -0.013486 0.027835
#
#
# Mechanical properties :
#
#
# Convention : Reuss Voigt Hill
#
# Bulk Modulus (GPa) = 34.82960 61.06814 47.94887
# Shear Modulus (GPa) = 26.21896 47.20916 36.71406
#
# Velocity S-wave (km/s) = 3.15008 4.22695 3.72761
# Velocity P-wave (km/s) = 5.13931 6.85092 6.05589
#
# Compressibility (1/GPa) = 0.02871121
#
# Stress axis : x y z
#
# Youngs Moduli (GPa) = 36.85583 36.16372 157.56746
#
# Poissons Ratio (x) = 0.38302 0.73903
# Poissons Ratio (y) = 0.39035 0.14632
# Poissons Ratio (z) = 0.17286 0.03358
#
# Static dielectric constant tensor:
#      x y z
#    x 2.188560 0.015900 -0.032120 
#    y 0.015900 2.075470 0.068500 
#    z -0.032120 0.068500 2.087360 
# 
# From -- ./inp_files/27957.got.cif
#   From: 2010.05.17/outbox.cif.g08.bks.cpg/sg2_14_cif.got.tgz:27957.got - 2010.06.03 11:33:40.
