data_PCOD9022031
_publ_section_title
;
Structure prediction by ZEFSAII (Michael W. Deem and Ramdas Pophale) SiO2 
 PCOD9022031
Probable space group: P -1
;
_chemical_formula_sum "Si O2"
_cell_formula_units_Z 16
_cell_length_a 11.524620
_cell_length_b 14.503320
_cell_length_c 20.117499
_cell_angle_alpha 23.867755
_cell_angle_beta 32.133101
_cell_angle_gamma 29.357336
_cell_volume 645.692552
_symmetry_space_group_name_H-M "P -1"
_symmetry_group_IT_number 2
_symmetry_cell_setting 'triclinic'
loop_
_space_group_symop_operation_xyz
x,y,z
-x,-y,-z
loop_
_atom_site_type_symbol
_atom_site_label
_atom_site_fract_x
_atom_site_fract_y
_atom_site_fract_z
Si Si1 0.700544 0.042648 0.997505
Si Si2 0.088931 0.231656 0.533752
Si Si3 0.439483 0.664636 0.247036
Si Si4 0.276727 0.615145 0.583261
Si Si5 0.458888 0.141295 0.531358
Si Si6 0.139510 0.528468 0.128189
Si Si7 0.571367 0.968863 0.737913
Si Si8 0.133451 0.699748 0.155035
O O1 0.725933 0.278098 0.863673
O O2 0.962955 0.814112 0.002469
O O3 0.534938 0.154004 0.940431
O O4 0.000000 0.000000 0.000000
O O5 0.228066 0.185516 0.567822
O O6 0.840173 0.204623 0.676276
O O7 0.010788 0.523860 0.355687
O O8 0.297368 0.042267 0.507129
O O9 0.633986 0.569134 0.274432
O O10 0.464862 0.405292 0.371215
O O11 0.500000 0.500000 0.500000
O O12 0.260685 0.888013 0.430859
O O13 0.035789 0.605678 0.680437
O O14 0.459213 0.025727 0.680651
O O15 0.259739 0.558616 0.118388
O O16 0.301904 0.337527 0.119171
O O17 0.397106 0.060836 0.825596
#
# Coordination Sequence:
#
# PCOD9022031 Si02
#       8
#     2   2   2   2   2   2   2   2
#     4  11  25  43  63 102 136 175 215 266 340 397
#     4  11  21  42  64  96 140 171 222 269 326 392
#     4  11  25  42  69  94 134 176 216 275 328 386
#     4  11  23  45  73  95 124 177 231 275 319 389
#     4  10  23  37  66  98 129 175 220 268 324 396
#     4  11  23  44  65  98 133 175 225 265 330 383
#     4  11  24  42  70  97 135 171 223 276 325 394
#     4  10  22  38  68  99 138 171 211 269 334 397
#
# _framework density 24.779595
#
# number of rings (size 3 to 8) (size 9 to 14) (size 15 to 20)
#    0.000    1.250    3.750    1.500    5.250    3.000 
#    0.000    0.625    0.000    0.000    0.000    0.000 
#    0.000    0.000    0.000    0.000    0.000    0.000 
#
# Total GULP energy -89405.279524 kJ/mol
# GULP energy per Si atom -5587.829970 kJ/mol
# Density = 2.472320 g / cm^3
# Si number density = 24.779595 Si / 1000 Ang^3
#
#
#
# Elastic Constant Matrix: (Units=GPa)
#
#
# Indices 1 2 3 4 5 6 
#
# 1 119.7209 18.0088 28.8752 -4.7742 10.8645 9.6151
# 2 18.0088 115.7066 16.7851 -13.5865 1.8244 18.2643
# 3 28.8752 16.7851 91.4051 0.2599 17.3951 7.0621
# 4 -4.7742 -13.5865 0.2599 25.5990 -0.3190 -8.6181
# 5 10.8645 1.8244 17.3951 -0.3190 46.7056 2.3600
# 6 9.6151 18.2643 7.0621 -8.6181 2.3600 28.4860
#
#
#
# Elastic Compliance Matrix: (Units=1/GPa)
#
#
# Indices 1 2 3 4 5 6 
#
# 1 0.009329 -0.000707 -0.002469 0.000786 -0.001129 -0.001752
# 2 -0.000707 0.010138 -0.001378 0.003631 0.000552 -0.004867
# 3 -0.002469 -0.001378 0.012893 -0.001957 -0.004099 -0.001732
# 4 0.000786 0.003631 -0.001957 0.045033 0.000130 0.011505
# 5 -0.001129 0.000552 -0.004099 0.000130 0.023222 -0.000841
# 6 -0.001752 -0.004867 -0.001732 0.011505 -0.000841 0.042797
#
#
# Mechanical properties :
#
#
# Convention : Reuss Voigt Hill
#
# Bulk Modulus (GPa) = 43.00678 50.46343 46.73511
# Shear Modulus (GPa) = 31.19716 37.70237 34.44976
#
# Velocity S-wave (km/s) = 3.55207 3.90488 3.73265
# Velocity P-wave (km/s) = 5.84947 6.38279 6.12194
#
# Compressibility (1/GPa) = 0.02325215
#
# Stress axis : x y z
#
# Youngs Moduli (GPa) = 107.19037 98.63417 77.56208
#
# Poissons Ratio (x) = 0.06975 0.19152
# Poissons Ratio (y) = 0.07580 0.10686
# Poissons Ratio (z) = 0.26468 0.13589
#
# Static dielectric constant tensor:
#      x y z
#    x 1.964790 -0.022180 -0.013600 
#    y -0.022180 2.009560 0.010900 
#    z -0.013600 0.010900 1.978150 
# 
# From -- ./inp_files/433509.got.cif
#   From: 2010.05.17/outbox.cif.g08.bks.cpg/sg2_217_cif.got.tgz:433509.got - 2010.06.03 11:33:40.
