data_PCOD9022406
_publ_section_title
;
Structure prediction by ZEFSAII (Michael W. Deem and Ramdas Pophale) SiO2 
 PCOD9022406
Probable space group: P -1
;
_chemical_formula_sum "Si O2"
_cell_formula_units_Z 16
_cell_length_a 11.397730
_cell_length_b 10.116610
_cell_length_c 7.758484
_cell_angle_alpha 116.875557
_cell_angle_beta 124.305836
_cell_angle_gamma 66.703396
_cell_volume 647.030790
_symmetry_space_group_name_H-M "P -1"
_symmetry_group_IT_number 2
_symmetry_cell_setting 'triclinic'
loop_
_space_group_symop_operation_xyz
x,y,z
-x,-y,-z
loop_
_atom_site_type_symbol
_atom_site_label
_atom_site_fract_x
_atom_site_fract_y
_atom_site_fract_z
Si Si1 0.778926 0.175873 0.461511
Si Si2 0.205554 0.493727 0.261416
Si Si3 0.115364 0.306119 0.395367
Si Si4 0.859569 0.030392 0.782590
Si Si5 0.382295 0.961093 0.010194
Si Si6 0.593155 0.278862 0.856503
Si Si7 0.178060 0.533129 0.860656
Si Si8 0.548392 0.748853 0.617685
O O1 0.810644 0.343199 0.565767
O O2 0.881204 0.094343 0.648433
O O3 0.615081 0.207506 0.421853
O O4 0.761725 0.070609 0.222354
O O5 0.154581 0.385462 0.298283
O O6 0.367850 0.401067 0.309889
O O7 0.147603 0.517522 0.030945
O O8 0.156540 0.390754 0.647947
O O9 0.941213 0.334366 0.245604
O O10 0.180820 0.132217 0.368880
O O11 0.728678 0.149306 0.827281
O O12 0.000000 0.000000 0.000000
O O13 0.449140 0.800044 0.054923
O O14 0.371980 0.108747 0.208139
O O15 0.500000 0.000000 0.000000
O O16 0.469708 0.290971 0.619999
O O17 0.664830 0.425246 0.012680
#
# Coordination Sequence:
#
# PCOD9022406 Si02
#       8
#     2   2   2   2   2   2   2   2
#     4  10  22  40  64  91 134 164 212 267 322 381
#     4  12  22  43  66  96 131 172 217 264 325 385
#     4  11  25  42  67  98 126 171 220 268 320 386
#     4  11  21  42  66  92 125 172 215 259 324 384
#     4  10  22  39  61  94 128 167 213 268 321 383
#     4  11  21  43  65  91 132 172 211 268 328 383
#     4  11  24  43  67  93 133 168 216 271 323 384
#     4  10  22  39  64  92 127 170 212 263 325 385
#
# _framework density 24.728344
#
# number of rings (size 3 to 8) (size 9 to 14) (size 15 to 20)
#    0.000    1.250    3.750    2.625    1.750    2.000 
#    2.250    1.875    0.000    0.000    0.000    0.000 
#    0.000    0.000    0.000    0.000    0.000    0.000 
#
# Total GULP energy -89442.701516 kJ/mol
# GULP energy per Si atom -5590.168845 kJ/mol
# Density = 2.467206 g / cm^3
# Si number density = 24.728344 Si / 1000 Ang^3
#
#
#
# Elastic Constant Matrix: (Units=GPa)
#
#
# Indices 1 2 3 4 5 6 
#
# 1 34.6187 3.0604 9.1906 3.2469 -4.3795 6.4966
# 2 3.0604 111.7252 53.0609 7.2883 10.4133 15.2171
# 3 9.1906 53.0609 156.1838 -1.3250 4.2097 -0.3677
# 4 3.2469 7.2883 -1.3250 42.9080 -0.1220 4.2009
# 5 -4.3795 10.4133 4.2097 -0.1220 17.3045 -12.3010
# 6 6.4966 15.2171 -0.3677 4.2009 -12.3010 35.5601
#
#
#
# Elastic Compliance Matrix: (Units=1/GPa)
#
#
# Indices 1 2 3 4 5 6 
#
# 1 0.031001 0.000239 -0.002084 -0.002083 0.005642 -0.003590
# 2 0.000239 0.014117 -0.004435 -0.001493 -0.015381 -0.011275
# 3 -0.002084 -0.004435 0.007982 0.000862 0.002402 0.003090
# 4 -0.002083 -0.001493 0.000862 0.023959 -0.001261 -0.002238
# 5 0.005642 -0.015381 0.002402 -0.001261 0.095410 0.038729
# 6 -0.003590 -0.011275 0.003090 -0.002238 0.038729 0.047295
#
#
# Mechanical properties :
#
#
# Convention : Reuss Voigt Hill
#
# Bulk Modulus (GPa) = 24.66616 48.12795 36.39705
# Shear Modulus (GPa) = 20.33880 34.96890 27.65385
#
# Velocity S-wave (km/s) = 2.87102 3.76456 3.34774
# Velocity P-wave (km/s) = 4.58114 6.19684 5.44920
#
# Compressibility (1/GPa) = 0.04054138
#
# Stress axis : x y z
#
# Youngs Moduli (GPa) = 32.25702 70.83833 125.28558
#
# Poissons Ratio (x) = -0.01696 0.26107
# Poissons Ratio (y) = -0.00772 0.55560
# Poissons Ratio (z) = 0.06722 0.31414
#
# Static dielectric constant tensor:
#      x y z
#    x 2.093320 -0.004140 -0.038340 
#    y -0.004140 1.950900 -0.009740 
#    z -0.038340 -0.009740 2.046410 
# 
# From -- ./inp_files/296245.got.cif
#   From: 2010.05.17/outbox.cif.g08.bks.cpg/sg2_149_cif.got.tgz:296245.got - 2010.06.03 11:33:40.
