data_PCOD9022667
_publ_section_title
;
Structure prediction by ZEFSAII (Michael W. Deem and Ramdas Pophale) SiO2 
 PCOD9022667
Probable space group: P -1
;
_chemical_formula_sum "Si O2"
_cell_formula_units_Z 14
_cell_length_a 8.471206
_cell_length_b 8.963977
_cell_length_c 13.238765
_cell_angle_alpha 119.416287
_cell_angle_beta 64.426854
_cell_angle_gamma 129.937294
_cell_volume 661.160491
_symmetry_space_group_name_H-M "P -1"
_symmetry_group_IT_number 2
_symmetry_cell_setting 'triclinic'
loop_
_space_group_symop_operation_xyz
x,y,z
-x,-y,-z
loop_
_atom_site_type_symbol
_atom_site_label
_atom_site_fract_x
_atom_site_fract_y
_atom_site_fract_z
Si Si1 0.033388 0.825214 0.312090
Si Si2 0.308946 0.093664 0.506401
Si Si3 0.182374 0.737275 0.035130
Si Si4 0.447222 0.669585 0.063776
Si Si5 0.909132 0.506114 0.742065
Si Si6 0.847522 0.072271 0.100593
Si Si7 0.756984 0.319237 0.527850
O O1 0.121519 0.829598 0.177268
O O2 0.980213 0.618135 0.316642
O O3 0.829152 0.834049 0.377807
O O4 0.212609 0.009751 0.393487
O O5 0.558707 0.259802 0.493901
O O6 0.264450 0.893622 0.513329
O O7 0.393597 0.740760 0.998931
O O8 0.190627 0.839071 0.960816
O O9 0.000000 0.500000 0.000000
O O10 0.227814 0.560177 0.142659
O O11 0.632813 0.874692 0.131102
O O12 0.500000 0.500000 0.000000
O O13 0.738223 0.407789 0.668672
O O14 0.055666 0.748928 0.783535
O O15 0.000000 0.000000 0.000000
O O16 0.000000 0.500000 0.500000
#
# Coordination Sequence:
#
# PCOD9022667 Si02
#       7
#     2   2   2   2   2   2   2
#     4   9  19  40  66  86 127 170 212 264 325 377
#     4   9  20  41  64  89 123 169 207 267 324 376
#     4  11  21  39  63  94 129 170 212 268 321 385
#     4  11  22  41  62  88 130 174 213 264 318 384
#     4  10  22  41  59  90 129 166 212 269 318 380
#     4  12  23  40  62  91 129 172 215 259 324 386
#     4  10  22  39  63  94 124 158 218 266 322 387
#
# _framework density 21.174890000000001
#
# number of rings (size 3 to 8) (size 9 to 14) (size 15 to 20)
#    0.000    1.714    4.286    0.429    0.000    8.000 
#    0.000    9.286    0.000    0.000    0.000    0.000 
#    0.000    0.000    0.000    0.000    0.000    0.000 
#
# Total GULP energy -78011.014427 kJ/mol
# GULP energy per Si atom -5572.215316 kJ/mol
# Density = 2.112669 g / cm^3
# Si number density = 21.174890 Si / 1000 Ang^3
#
#
#
# Elastic Constant Matrix: (Units=GPa)
#
#
# Indices 1 2 3 4 5 6 
#
# 1 119.1193 33.5140 37.6068 18.7650 -13.1949 16.1720
# 2 33.5140 95.4171 10.0735 26.5826 -1.7734 24.6172
# 3 37.6068 10.0735 76.9332 21.1551 -1.8627 -0.2046
# 4 18.7650 26.5826 21.1551 35.8100 -3.7828 6.0338
# 5 -13.1949 -1.7734 -1.8627 -3.7828 24.7658 4.0967
# 6 16.1720 24.6172 -0.2046 6.0338 4.0967 34.9085
#
#
#
# Elastic Compliance Matrix: (Units=1/GPa)
#
#
# Indices 1 2 3 4 5 6 
#
# 1 0.012186 -0.002374 -0.005544 0.000176 0.006730 -0.004824
# 2 -0.002374 0.016232 0.001899 -0.010512 -0.000159 -0.008500
# 3 -0.005544 0.001899 0.018194 -0.010227 -0.003595 0.003525
# 4 0.000176 -0.010512 -0.010227 0.042331 0.005145 -0.000649
# 5 0.006730 -0.000159 -0.003595 0.005145 0.046009 -0.009315
# 6 -0.004824 -0.008500 0.003525 -0.000649 -0.009315 0.038101
#
#
# Mechanical properties :
#
#
# Convention : Reuss Voigt Hill
#
# Bulk Modulus (GPa) = 28.92303 50.42870 39.67586
# Shear Modulus (GPa) = 25.43016 33.11521 29.27268
#
# Velocity S-wave (km/s) = 3.46924 3.95890 3.72213
# Velocity P-wave (km/s) = 5.45310 6.69060 6.10330
#
# Compressibility (1/GPa) = 0.03457453
#
# Stress axis : x y z
#
# Youngs Moduli (GPa) = 82.06155 61.60516 54.96257
#
# Poissons Ratio (x) = 0.14626 0.30472
# Poissons Ratio (y) = 0.19483 -0.10439
# Poissons Ratio (z) = 0.45496 -0.11701
#
# Static dielectric constant tensor:
#      x y z
#    x 2.006930 -0.180190 0.078540 
#    y -0.180190 1.895040 -0.119190 
#    z 0.078540 -0.119190 1.856490 
# 
# From -- ./inp_files/227227.got.cif
#   From: 2010.05.17/outbox.cif.g08.bks.cpg/sg2_114_cif.got.tgz:227227.got - 2010.06.03 11:33:40.
