data_PCOD9022778
_publ_section_title
;
Structure prediction by ZEFSAII (Michael W. Deem and Ramdas Pophale) SiO2 
 PCOD9022778
Probable space group: P -1
;
_chemical_formula_sum "Si O2"
_cell_formula_units_Z 16
_cell_length_a 13.275728
_cell_length_b 4.933653
_cell_length_c 23.354255
_cell_angle_alpha 95.342584
_cell_angle_beta 147.932344
_cell_angle_gamma 107.683468
_cell_volume 557.856539
_symmetry_space_group_name_H-M "P -1"
_symmetry_group_IT_number 2
_symmetry_cell_setting 'triclinic'
loop_
_space_group_symop_operation_xyz
x,y,z
-x,-y,-z
loop_
_atom_site_type_symbol
_atom_site_label
_atom_site_fract_x
_atom_site_fract_y
_atom_site_fract_z
Si Si1 0.498981 0.645752 0.818377
Si Si2 0.821384 0.662003 0.067869
Si Si3 0.274564 0.827804 0.793934
Si Si4 0.768511 0.519941 0.490959
Si Si5 0.639746 0.882432 0.352205
Si Si6 0.382452 0.717047 0.366057
Si Si7 0.112952 0.870334 0.320403
Si Si8 0.942914 0.580836 0.899205
O O1 0.337945 0.739693 0.763174
O O2 0.323647 0.255197 0.689748
O O3 0.627871 0.660422 0.938779
O O4 0.784970 0.020861 0.932385
O O5 0.999469 0.928066 0.214366
O O6 0.971518 0.616723 0.093049
O O7 0.571539 0.222642 0.967236
O O8 0.047251 0.819436 0.668197
O O9 0.118495 0.465679 0.754283
O O10 0.688553 0.714911 0.424096
O O11 0.796392 0.321756 0.450065
O O12 0.548705 0.124035 0.417311
O O13 0.320921 0.652954 0.193239
O O14 0.221983 0.713719 0.337066
O O15 0.164860 0.370709 0.209023
O O16 0.613779 0.762013 0.505506
#
# Coordination Sequence:
#
# PCOD9022778 Si02
#       8
#     2   2   2   2   2   2   2   2
#     4  11  25  39  62  94 131 174 218 265 324 397
#     4  10  22  39  64  90 132 172 218 267 323 397
#     4  10  23  42  62  91 132 172 221 269 322 392
#     4  10  24  43  70  99 132 170 221 274 328 390
#     4  11  25  42  70  99 131 174 218 274 335 381
#     4   8  17  38  66  95 126 161 217 272 332 388
#     4   9  17  37  68  90 126 170 214 272 332 384
#     4   9  21  40  62  92 128 163 215 270 329 384
#
# _framework density 28.681208999999999
#
# number of rings (size 3 to 8) (size 9 to 14) (size 15 to 20)
#    0.000    2.250    0.000    0.750   10.500    2.000 
#    0.000    0.625   16.500    0.000    0.000    0.000 
#    0.000    0.000    0.000    0.000    0.000    0.000 
#
# Total GULP energy -89605.950172 kJ/mol
# GULP energy per Si atom -5600.371886 kJ/mol
# Density = 2.861593 g / cm^3
# Si number density = 28.681209 Si / 1000 Ang^3
#
#
#
# Elastic Constant Matrix: (Units=GPa)
#
#
# Indices 1 2 3 4 5 6 
#
# 1 52.7868 19.6337 43.5505 2.0135 -8.8755 -1.6003
# 2 19.6337 108.3134 36.4591 -44.8830 -9.0748 -18.9364
# 3 43.5505 36.4591 118.8492 -13.1576 3.3921 -5.3019
# 4 2.0135 -44.8830 -13.1576 36.2831 -2.8679 -10.4314
# 5 -8.8755 -9.0748 3.3921 -2.8679 55.4595 -1.3852
# 6 -1.6003 -18.9364 -5.3019 -10.4314 -1.3852 36.3405
#
#
#
# Elastic Compliance Matrix: (Units=1/GPa)
#
#
# Indices 1 2 3 4 5 6 
#
# 1 0.045112 -0.036926 -0.013944 -0.064291 -0.002239 -0.037829
# 2 -0.036926 0.088502 0.005158 0.139504 0.017617 0.085959
# 3 -0.013944 0.005158 0.013947 0.014471 -0.001287 0.008213
# 4 -0.064291 0.139504 0.014471 0.253078 0.028379 0.145700
# 5 -0.002239 0.017617 -0.001287 0.028379 0.022549 0.017899
# 6 -0.037829 0.085959 0.008213 0.145700 0.017899 0.114347
#
#
# Mechanical properties :
#
#
# Convention : Reuss Voigt Hill
#
# Bulk Modulus (GPa) = 17.81409 53.24844 35.53127
# Shear Modulus (GPa) = 7.71998 37.63701 22.67849
#
# Velocity S-wave (km/s) = 1.64240 3.62643 2.81501
# Velocity P-wave (km/s) = 3.13388 6.01171 4.79384
#
# Compressibility (1/GPa) = 0.05613534
#
# Stress axis : x y z
#
# Youngs Moduli (GPa) = 22.16723 11.29920 71.70204
#
# Poissons Ratio (x) = 0.41723 0.99982
# Poissons Ratio (y) = 0.81854 -0.36981
# Poissons Ratio (z) = 0.30910 -0.05828
#
# Static dielectric constant tensor:
#      x y z
#    x 2.203510 0.101510 0.001450 
#    y 0.101510 2.356630 0.073360 
#    z 0.001450 0.073360 2.236590 
# 
# From -- ./inp_files/367637.got.cif
#   From: 2010.05.17/outbox.cif.g08.bks.cpg/sg2_184_cif.got.tgz:367637.got - 2010.06.03 11:33:40.
