data_PCOD9022110
_publ_section_title
;
Structure prediction by ZEFSAII (Michael W. Deem and Ramdas Pophale) SiO2 
 PCOD9022110
Probable space group: P -1
;
_chemical_formula_sum "Si O2"
_cell_formula_units_Z 14
_cell_length_a 12.620452
_cell_length_b 21.379966
_cell_length_c 8.980601
_cell_angle_alpha 43.447839
_cell_angle_beta 146.028286
_cell_angle_gamma 155.586574
_cell_volume 555.169115
_symmetry_space_group_name_H-M "P -1"
_symmetry_group_IT_number 2
_symmetry_cell_setting 'triclinic'
loop_
_space_group_symop_operation_xyz
x,y,z
-x,-y,-z
loop_
_atom_site_type_symbol
_atom_site_label
_atom_site_fract_x
_atom_site_fract_y
_atom_site_fract_z
Si Si1 0.024112 0.725421 0.482121
Si Si2 0.007800 0.099816 0.752615
Si Si3 0.817161 0.701357 0.812067
Si Si4 0.831168 0.337059 0.705719
Si Si5 0.311071 0.663066 0.789836
Si Si6 0.500000 0.500000 0.500000
Si Si7 0.500000 0.500000 0.000000
Si Si8 0.221708 0.011697 0.659042
O O1 0.160112 0.878849 0.403650
O O2 0.841478 0.625498 0.591038
O O3 0.264957 0.739809 0.687867
O O4 0.759329 0.628237 0.212639
O O5 0.883842 0.039659 0.546213
O O6 0.382686 0.269378 0.905265
O O7 0.000000 0.000000 0.000000
O O8 0.670800 0.627997 0.609244
O O9 0.559395 0.625636 0.765294
O O10 0.127174 0.882075 0.855109
O O11 0.889539 0.626313 0.089863
O O12 0.677163 0.312097 0.416309
O O13 0.018387 0.481299 0.772540
O O14 0.580818 0.184533 0.774076
O O15 0.000000 0.000000 0.500000
#
# Coordination Sequence:
#
# PCOD9022110 Si02
#       8
#     2   2   2   2   2   1   1   2
#     4  11  24  43  73 108 145 196 237 304 369 430
#     4  12  27  49  73 108 156 190 248 307 366 451
#     4  11  23  45  71 103 150 190 241 306 365 435
#     4  11  25  46  71 110 144 192 253 304 355 455
#     4  11  25  46  79 110 142 194 260 297 364 447
#     4  10  22  40  72 106 146 182 242 302 366 428
#     4  10  22  38  78 104 132 196 244 286 368 438
#     4  12  29  47  71 106 153 195 239 311 384 428
#
# _framework density 25.217542000000002
#
# number of rings (size 3 to 8) (size 9 to 14) (size 15 to 20)
#    0.000    0.857    4.286    2.143    8.000    1.714 
#    2.571    2.143    0.000    0.000    0.000    0.000 
#    0.000    0.000    0.000    0.000    0.000    0.000 
#
# Total GULP energy -77935.730530 kJ/mol
# GULP energy per Si atom -5566.837895 kJ/mol
# Density = 2.516015 g / cm^3
# Si number density = 25.217542 Si / 1000 Ang^3
#
#
#
# Elastic Constant Matrix: (Units=GPa)
#
#
# Indices 1 2 3 4 5 6 
#
# 1 110.0028 39.5724 20.9117 -22.0348 17.4364 -11.1374
# 2 39.5724 151.7057 14.7550 -13.7145 1.7980 16.8981
# 3 20.9117 14.7550 66.0459 4.0163 4.0436 -8.3554
# 4 -22.0348 -13.7145 4.0163 30.7779 5.3351 8.3188
# 5 17.4364 1.7980 4.0436 5.3351 37.0771 -19.0027
# 6 -11.1374 16.8981 -8.3554 8.3188 -19.0027 35.4812
#
#
#
# Elastic Compliance Matrix: (Units=1/GPa)
#
#
# Indices 1 2 3 4 5 6 
#
# 1 0.014454 -0.001389 -0.005053 0.013539 -0.010613 -0.004849
# 2 -0.001389 0.009106 -0.002978 0.007220 -0.005755 -0.010249
# 3 -0.005053 -0.002978 0.019082 -0.011901 0.007993 0.011397
# 4 0.013539 0.007220 -0.011901 0.061297 -0.031186 -0.033065
# 5 -0.010613 -0.005755 0.007993 -0.031186 0.055500 0.038328
# 6 -0.004849 -0.010249 0.011397 -0.033065 0.038328 0.062506
#
#
# Mechanical properties :
#
#
# Convention : Reuss Voigt Hill
#
# Bulk Modulus (GPa) = 42.01251 53.13696 47.57474
# Shear Modulus (GPa) = 20.10287 37.50157 28.80222
#
# Velocity S-wave (km/s) = 2.82650 3.86051 3.38324
# Velocity P-wave (km/s) = 5.22956 6.40223 5.84538
#
# Compressibility (1/GPa) = 0.02380243
#
# Stress axis : x y z
#
# Youngs Moduli (GPa) = 69.18402 109.81536 52.40435
#
# Poissons Ratio (x) = 0.15253 0.26482
# Poissons Ratio (y) = 0.09610 0.15605
# Poissons Ratio (z) = 0.34961 0.32702
#
# Static dielectric constant tensor:
#      x y z
#    x 1.414160 -0.125960 -0.027210 
#    y -0.125960 2.045690 -0.095790 
#    z -0.027210 -0.095790 2.174700 
# 
# From -- ./inp_files/279157.got.cif
#   From: 2010.05.17/outbox.cif.g08.bks.cpg/sg2_140_cif.got.tgz:279157.got - 2010.06.03 11:33:40.
