data_PCOD9022535
_publ_section_title
;
Structure prediction by ZEFSAII (Michael W. Deem and Ramdas Pophale) SiO2 
 PCOD9022535
Probable space group: P -1
;
_chemical_formula_sum "Si O2"
_cell_formula_units_Z 16
_cell_length_a 8.294414
_cell_length_b 12.139528
_cell_length_c 22.732220
_cell_angle_alpha 23.719277
_cell_angle_beta 132.136332
_cell_angle_gamma 133.490872
_cell_volume 661.415136
_symmetry_space_group_name_H-M "P -1"
_symmetry_group_IT_number 2
_symmetry_cell_setting 'triclinic'
loop_
_space_group_symop_operation_xyz
x,y,z
-x,-y,-z
loop_
_atom_site_type_symbol
_atom_site_label
_atom_site_fract_x
_atom_site_fract_y
_atom_site_fract_z
Si Si1 0.674137 0.980904 0.102130
Si Si2 0.858202 0.626873 0.480141
Si Si3 0.826731 0.773219 0.528460
Si Si4 0.577724 0.602218 0.658053
Si Si5 0.633947 0.090384 0.168441
Si Si6 0.988732 0.489312 0.882131
Si Si7 0.710513 0.080554 0.629750
Si Si8 0.419589 0.755693 0.801482
O O1 0.645528 0.647538 0.265151
O O2 0.594356 0.091260 0.089583
O O3 0.500000 0.000000 0.000000
O O4 0.905235 0.178373 0.040131
O O5 0.907767 0.641375 0.554861
O O6 0.783506 0.321658 0.580916
O O7 0.067609 0.832173 0.397779
O O8 0.659416 0.781735 0.343446
O O9 0.701907 0.546391 0.655889
O O10 0.666612 0.963165 0.371940
O O11 0.000000 0.000000 0.500000
O O12 0.769620 0.597186 0.755387
O O13 0.485631 0.871107 0.486470
O O14 0.491886 0.199845 0.131017
O O15 0.874894 0.304746 0.135961
O O16 0.177694 0.528820 0.857583
O O17 0.609092 0.784253 0.784089
#
# Coordination Sequence:
#
# PCOD9022535 Si02
#       8
#     2   2   2   2   2   2   2   2
#     4  10  19  29  50  81  97 130 177 223 258 294
#     4  10  20  32  50  78 110 143 161 212 260 317
#     4  10  17  31  51  74 107 133 166 211 260 299
#     4  10  18  31  52  77 105 135 169 220 248 305
#     4   9  17  33  50  74 102 134 168 220 261 296
#     4   9  18  32  50  76 104 129 175 221 260 290
#     4  10  20  32  49  81 109 136 176 196 265 321
#     4   8  18  29  52  71 102 133 169 212 253 310
#
# _framework density 24.190556999999998
#
# number of rings (size 3 to 8) (size 9 to 14) (size 15 to 20)
#    0.750    1.750    2.500    0.375    1.750    1.500 
#    0.000    5.625    0.000    0.750    3.250    5.250 
#    0.000    0.000    0.000    0.000    0.000    0.000 
#
# Total GULP energy -89075.773624 kJ/mol
# GULP energy per Si atom -5567.235852 kJ/mol
# Density = 2.413550 g / cm^3
# Si number density = 24.190557 Si / 1000 Ang^3
#
#
#
# Elastic Constant Matrix: (Units=GPa)
#
#
# Indices 1 2 3 4 5 6 
#
# 1 42.3836 7.4960 19.7478 4.7173 -10.5602 8.5009
# 2 7.4960 115.2363 26.5021 26.5605 -3.3060 1.3020
# 3 19.7478 26.5021 69.4124 -3.4687 -28.2713 6.4788
# 4 4.7173 26.5605 -3.4687 37.9034 7.8495 -10.6380
# 5 -10.5602 -3.3060 -28.2713 7.8495 45.2137 0.3313
# 6 8.5009 1.3020 6.4788 -10.6380 0.3313 32.1780
#
#
#
# Elastic Compliance Matrix: (Units=1/GPa)
#
#
# Indices 1 2 3 4 5 6 
#
# 1 0.030859 0.002175 -0.007295 -0.009805 0.004581 -0.010060
# 2 0.002175 0.012205 -0.005606 -0.010201 -0.000309 -0.003309
# 3 -0.007295 -0.005606 0.023900 0.004113 0.012127 -0.001423
# 4 -0.009805 -0.010201 0.004113 0.041183 -0.007730 0.015870
# 5 0.004581 -0.000309 0.012127 -0.007730 0.032137 -0.006526
# 6 -0.010060 -0.003309 -0.001423 0.015870 -0.006526 0.039469
#
#
# Mechanical properties :
#
#
# Convention : Reuss Voigt Hill
#
# Bulk Modulus (GPa) = 21.97183 37.16937 29.57060
# Shear Modulus (GPa) = 23.10801 34.61144 28.85973
#
# Velocity S-wave (km/s) = 3.09406 3.78667 3.45775
# Velocity P-wave (km/s) = 4.67620 5.87513 5.30961
#
# Compressibility (1/GPa) = 0.04551283
#
# Stress axis : x y z
#
# Youngs Moduli (GPa) = 32.40576 81.93140 41.84091
#
# Poissons Ratio (x) = -0.17823 0.30523
# Poissons Ratio (y) = -0.07049 0.23456
# Poissons Ratio (z) = 0.23640 0.45930
#
# Static dielectric constant tensor:
#      x y z
#    x 2.053830 -0.007120 -0.030510 
#    y -0.007120 1.954630 -0.020870 
#    z -0.030510 -0.020870 2.027280 
# 
# From -- ./inp_files/588594.got.cif
#   From: 2010.05.17/outbox.cif.g08.bks.cpg/sg2_295_cif.got.tgz:588594.got - 2010.06.03 11:33:40.
