data_PCOD9022980
_publ_section_title
;
Structure prediction by ZEFSAII (Michael W. Deem and Ramdas Pophale) SiO2 
 PCOD9022980
Probable space group: P -1
;
_chemical_formula_sum "Si O2"
_cell_formula_units_Z 14
_cell_length_a 9.568853
_cell_length_b 11.648483
_cell_length_c 9.370993
_cell_angle_alpha 102.560335
_cell_angle_beta 57.036413
_cell_angle_gamma 127.978168
_cell_volume 679.828667
_symmetry_space_group_name_H-M "P -1"
_symmetry_group_IT_number 2
_symmetry_cell_setting 'triclinic'
loop_
_space_group_symop_operation_xyz
x,y,z
-x,-y,-z
loop_
_atom_site_type_symbol
_atom_site_label
_atom_site_fract_x
_atom_site_fract_y
_atom_site_fract_z
Si Si1 0.418679 0.871359 0.388111
Si Si2 0.136498 0.741490 0.263159
Si Si3 0.142108 0.156541 0.533012
Si Si4 0.890652 0.399536 0.336345
Si Si5 0.812785 0.866218 0.162102
Si Si6 0.947750 0.665677 0.043827
Si Si7 0.576082 0.412053 0.360777
O O1 0.343796 0.872366 0.268361
O O2 0.194207 0.726109 0.531941
O O3 0.602818 0.853752 0.258207
O O4 0.500000 0.000000 0.500000
O O5 0.955131 0.756230 0.409894
O O6 0.067232 0.577392 0.297319
O O7 0.117853 0.745579 0.100899
O O8 0.150857 0.125414 0.685831
O O9 0.375601 0.260616 0.371047
O O10 0.000000 0.000000 0.500000
O O11 0.678528 0.380132 0.419004
O O12 0.950387 0.349330 0.152625
O O13 0.830626 0.735345 0.082068
O O14 0.000000 0.000000 0.000000
O O15 0.759949 0.509332 0.173039
O O16 0.500000 0.500000 0.500000
#
# Coordination Sequence:
#
# PCOD9022980 Si02
#       7
#     2   2   2   2   2   2   2
#     4  12  24  41  65  92 129 171 203 256 325 373
#     4  10  22  39  65  95 121 161 214 261 305 371
#     4  11  22  40  65  93 124 163 215 258 307 375
#     4  11  21  41  66  92 127 165 212 260 313 374
#     4  11  23  44  61  89 130 169 202 255 319 373
#     4  10  22  41  68  92 125 165 215 261 308 372
#     4  11  17  38  68  91 119 166 209 256 314 363
#
# _framework density 20.593423000000001
#
# number of rings (size 3 to 8) (size 9 to 14) (size 15 to 20)
#    0.000    1.143    5.714    3.857    0.000    0.000 
#    5.143    2.857    0.000    0.000    0.000    0.000 
#    0.000    0.000    0.000    0.000    0.000    0.000 
#
# Total GULP energy -77949.647754 kJ/mol
# GULP energy per Si atom -5567.831982 kJ/mol
# Density = 2.054655 g / cm^3
# Si number density = 20.593423 Si / 1000 Ang^3
#
#
#
# Elastic Constant Matrix: (Units=GPa)
#
#
# Indices 1 2 3 4 5 6 
#
# 1 98.4626 27.6838 33.7271 13.4766 -4.6373 19.2167
# 2 27.6838 69.5243 17.4870 17.7365 4.7618 14.3803
# 3 33.7271 17.4870 98.0106 4.2018 -5.9361 6.5687
# 4 13.4766 17.7365 4.2018 37.0867 -8.6235 5.7503
# 5 -4.6373 4.7618 -5.9361 -8.6235 14.6711 -3.2855
# 6 19.2167 14.3803 6.5687 5.7503 -3.2855 27.3491
#
#
#
# Elastic Compliance Matrix: (Units=1/GPa)
#
#
# Indices 1 2 3 4 5 6 
#
# 1 0.013843 -0.002736 -0.003665 -0.001993 0.001073 -0.006860
# 2 -0.002736 0.022515 -0.003085 -0.012402 -0.018684 -0.008812
# 3 -0.003665 -0.003085 0.012204 0.002759 0.006737 0.001495
# 4 -0.001993 -0.012402 0.002759 0.039515 0.028263 0.002346
# 5 0.001073 -0.018684 0.006737 0.028263 0.096847 0.013144
# 6 -0.006860 -0.008812 0.001495 0.002346 0.013144 0.046744
#
#
# Mechanical properties :
#
#
# Convention : Reuss Voigt Hill
#
# Bulk Modulus (GPa) = 33.79577 47.08814 40.44196
# Shear Modulus (GPa) = 19.19351 28.29469 23.74410
#
# Velocity S-wave (km/s) = 3.05621 3.71073 3.39926
# Velocity P-wave (km/s) = 5.37592 6.42453 5.92347
#
# Compressibility (1/GPa) = 0.02958950
#
# Stress axis : x y z
#
# Youngs Moduli (GPa) = 72.23795 44.41445 81.93906
#
# Poissons Ratio (x) = 0.12154 0.30033
# Poissons Ratio (y) = 0.19767 0.25277
# Poissons Ratio (z) = 0.26477 0.13701
#
# Static dielectric constant tensor:
#      x y z
#    x 1.799730 -0.041600 0.049720 
#    y -0.041600 1.821510 -0.012040 
#    z 0.049720 -0.012040 1.754040 
# 
# From -- ./inp_files/158172.got.cif
#   From: 2010.05.17/outbox.cif.g08.bks.cpg/sg2_80_cif.got.tgz:158172.got - 2010.06.03 11:33:40.
