data_PCOD9022633
_publ_section_title
;
Structure prediction by ZEFSAII (Michael W. Deem and Ramdas Pophale) SiO2 
 PCOD9022633
Probable space group: P -1
;
_chemical_formula_sum "Si O2"
_cell_formula_units_Z 14
_cell_length_a 5.219578
_cell_length_b 22.059942
_cell_length_c 6.283003
_cell_angle_alpha 128.590326
_cell_angle_beta 76.960592
_cell_angle_gamma 117.558495
_cell_volume 499.233562
_symmetry_space_group_name_H-M "P -1"
_symmetry_group_IT_number 2
_symmetry_cell_setting 'triclinic'
loop_
_space_group_symop_operation_xyz
x,y,z
-x,-y,-z
loop_
_atom_site_type_symbol
_atom_site_label
_atom_site_fract_x
_atom_site_fract_y
_atom_site_fract_z
Si Si1 0.757617 0.874607 0.207316
Si Si2 0.132989 0.703747 0.671029
Si Si3 0.797279 0.403306 0.250933
Si Si4 0.829676 0.558290 0.105020
Si Si5 0.103232 0.829913 0.667937
Si Si6 0.275594 0.274023 0.872640
Si Si7 0.815282 0.018723 0.262289
O O1 0.586761 0.785844 0.169015
O O2 0.967406 0.929544 0.476853
O O3 0.617709 0.930142 0.226779
O O4 0.941369 0.856054 0.944401
O O5 0.878340 0.625030 0.428669
O O6 0.265189 0.778177 0.636623
O O7 0.298882 0.654718 0.647198
O O8 0.996372 0.738059 0.955981
O O9 0.000000 0.500000 0.500000
O O10 0.515473 0.370711 0.081002
O O11 0.020020 0.388952 0.018067
O O12 0.500000 0.500000 0.000000
O O13 0.000000 0.500000 0.000000
O O14 0.854180 0.765477 0.416539
O O15 0.293981 0.915972 0.687898
O O16 0.000000 0.000000 0.000000
#
# Coordination Sequence:
#
# PCOD9022633 Si02
#       7
#     2   2   2   2   2   2   2
#     4   8  15  29  54  91 130 172 221 273 333 408
#     4  11  24  40  64  90 129 170 225 284 346 416
#     4  12  26  43  64  91 126 174 224 289 349 416
#     4  12  28  46  71  99 133 178 234 296 362 431
#     4   9  18  33  58  92 130 174 223 277 337 409
#     4  10  22  39  63  92 129 172 227 280 344 411
#     4   8  13  26  52  91 133 173 220 267 335 406
#
# _framework density 28.042984000000001
#
# number of rings (size 3 to 8) (size 9 to 14) (size 15 to 20)
#    0.000    2.000    1.429    1.714    4.000    2.286 
#    0.000    0.000    0.000    0.857    0.000   99.000 
#    0.000    0.000    0.000    0.000    0.000    4.000 
#
# Total GULP energy -78296.819625 kJ/mol
# GULP energy per Si atom -5592.629973 kJ/mol
# Density = 2.797916 g / cm^3
# Si number density = 28.042984 Si / 1000 Ang^3
#
#
#
# Elastic Constant Matrix: (Units=GPa)
#
#
# Indices 1 2 3 4 5 6 
#
# 1 106.1475 43.3685 37.7452 0.3807 9.9533 -9.3980
# 2 43.3685 180.5318 27.1266 -17.3290 -0.4351 -55.9208
# 3 37.7452 27.1266 217.6211 -5.6252 29.0963 11.5802
# 4 0.3807 -17.3290 -5.6252 48.3891 8.9708 -1.3183
# 5 9.9533 -0.4351 29.0963 8.9708 39.7273 5.4856
# 6 -9.3980 -55.9208 11.5802 -1.3183 5.4856 46.6822
#
#
#
# Elastic Compliance Matrix: (Units=1/GPa)
#
#
# Indices 1 2 3 4 5 6 
#
# 1 0.011124 -0.002724 -0.001384 -0.000958 -0.001514 -0.000529
# 2 -0.002724 0.010822 -0.001325 0.004280 -0.000988 0.012981
# 3 -0.001384 -0.001325 0.005651 0.000783 -0.003594 -0.002823
# 4 -0.000958 0.004280 0.000783 0.023667 -0.006483 0.006170
# 5 -0.001514 -0.000988 -0.003594 -0.006483 0.030234 -0.004332
# 6 -0.000529 0.012981 -0.002823 0.006170 -0.004332 0.038248
#
#
# Mechanical properties :
#
#
# Convention : Reuss Voigt Hill
#
# Bulk Modulus (GPa) = 59.76447 80.08677 69.92562
# Shear Modulus (GPa) = 36.71363 53.36374 45.03868
#
# Velocity S-wave (km/s) = 3.62220 4.36699 4.01191
# Velocity P-wave (km/s) = 6.23312 7.35174 6.81542
#
# Compressibility (1/GPa) = 0.01673235
#
# Stress axis : x y z
#
# Youngs Moduli (GPa) = 89.89183 92.40582 176.95214
#
# Poissons Ratio (x) = 0.25171 0.24492
# Poissons Ratio (y) = 0.24486 0.23438
# Poissons Ratio (z) = 0.12442 0.12240
#
# Static dielectric constant tensor:
#      x y z
#    x 2.159660 -0.118390 -0.027140 
#    y -0.118390 2.326430 0.062100 
#    z -0.027140 0.062100 2.146760 
# 
# From -- ./inp_files/13790.got.cif
#   From: 2010.05.17/outbox.cif.g08.bks.cpg/sg2_7_cif.got.tgz:13790.got - 2010.06.03 11:33:40.
