data_PCOD9022301
_publ_section_title
;
Structure prediction by ZEFSAII (Michael W. Deem and Ramdas Pophale) SiO2 
 PCOD9022301
Probable space group: P -1
;
_chemical_formula_sum "Si O2"
_cell_formula_units_Z 16
_cell_length_a 14.761385
_cell_length_b 9.402843
_cell_length_c 9.507929
_cell_angle_alpha 144.191641
_cell_angle_beta 108.802486
_cell_angle_gamma 84.946315
_cell_volume 694.216022
_symmetry_space_group_name_H-M "P -1"
_symmetry_group_IT_number 2
_symmetry_cell_setting 'triclinic'
loop_
_space_group_symop_operation_xyz
x,y,z
-x,-y,-z
loop_
_atom_site_type_symbol
_atom_site_label
_atom_site_fract_x
_atom_site_fract_y
_atom_site_fract_z
Si Si1 0.188246 0.540988 0.337945
Si Si2 0.755193 0.727988 0.081790
Si Si3 0.173037 0.272392 0.566894
Si Si4 0.751184 0.234912 0.175316
Si Si5 0.453253 0.132614 0.285181
Si Si6 0.041850 0.841551 0.508854
Si Si7 0.471719 0.316119 0.125279
Si Si8 0.884689 0.974031 0.930525
O O1 0.262877 0.726541 0.636235
O O2 0.086488 0.611632 0.310399
O O3 0.161576 0.286768 0.215604
O O4 0.240707 0.521662 0.202014
O O5 0.779191 0.741225 0.269277
O O6 0.851359 0.941503 0.232448
O O7 0.646358 0.749959 0.017464
O O8 0.242084 0.522548 0.722248
O O9 0.159482 0.046224 0.265809
O O10 0.056866 0.266011 0.530188
O O11 0.667588 0.983451 0.877802
O O12 0.860086 0.199569 0.180271
O O13 0.489790 0.246304 0.239722
O O14 0.484164 0.370705 0.600573
O O15 0.487083 0.874071 0.103220
O O16 0.000000 0.000000 0.500000
O O17 0.000000 0.000000 0.000000
#
# Coordination Sequence:
#
# PCOD9022301 Si02
#       8
#     2   2   2   2   2   2   2   2
#     4  11  22  36  65  90 128 165 223 270 335 397
#     4  11  24  41  64  98 131 174 220 284 347 402
#     4  10  24  41  62  93 136 176 217 272 344 416
#     4  11  24  41  64  96 131 176 221 283 335 404
#     4  10  23  41  70 100 136 175 237 288 346 403
#     4  10  22  39  60  93 131 172 215 268 334 409
#     4  10  23  41  69 103 133 176 232 294 345 407
#     4  11  22  39  64  93 129 173 223 271 330 402
#
# _framework density 23.047581000000001
#
# number of rings (size 3 to 8) (size 9 to 14) (size 15 to 20)
#    0.000    1.500    0.000    4.500   10.500    6.000 
#    0.000    1.250    0.000    0.000    0.000    0.000 
#    0.000    0.000    0.000    0.000    0.000    0.000 
#
# Total GULP energy -89177.880865 kJ/mol
# GULP energy per Si atom -5573.617554 kJ/mol
# Density = 2.299512 g / cm^3
# Si number density = 23.047581 Si / 1000 Ang^3
#
#
#
# Elastic Constant Matrix: (Units=GPa)
#
#
# Indices 1 2 3 4 5 6 
#
# 1 72.5503 10.3369 27.5749 -4.4148 -0.1611 -27.6232
# 2 10.3369 68.3390 50.4544 -17.6068 -8.9592 -4.0176
# 3 27.5749 50.4544 114.7345 -11.2642 4.0922 -1.5136
# 4 -4.4148 -17.6068 -11.2642 33.7019 5.9434 0.1027
# 5 -0.1611 -8.9592 4.0922 5.9434 43.9843 5.5530
# 6 -27.6232 -4.0176 -1.5136 0.1027 5.5530 33.1241
#
#
#
# Elastic Compliance Matrix: (Units=1/GPa)
#
#
# Indices 1 2 3 4 5 6 
#
# 1 0.023521 0.002694 -0.006258 0.002628 -0.001653 0.019924
# 2 0.002694 0.025648 -0.011128 0.009225 0.004510 0.004064
# 3 -0.006258 -0.011128 0.015037 -0.001086 -0.002860 -0.005398
# 4 0.002628 0.009225 -0.001086 0.035027 -0.003209 0.003690
# 5 -0.001653 0.004510 -0.002860 -0.003209 0.024997 -0.005143
# 6 0.019924 0.004064 -0.005398 0.003690 -0.005143 0.047902
#
#
# Mechanical properties :
#
#
# Convention : Reuss Voigt Hill
#
# Bulk Modulus (GPa) = 28.71678 48.03959 38.37819
# Shear Modulus (GPa) = 23.46070 33.31255 28.38662
#
# Velocity S-wave (km/s) = 3.19395 3.80594 3.51330
# Velocity P-wave (km/s) = 5.10770 6.34054 5.75722
#
# Compressibility (1/GPa) = 0.03482284
#
# Stress axis : x y z
#
# Youngs Moduli (GPa) = 42.51610 38.98962 66.50165
#
# Poissons Ratio (x) = -0.10503 0.41615
# Poissons Ratio (y) = -0.11453 0.74000
# Poissons Ratio (z) = 0.26605 0.43386
#
# Static dielectric constant tensor:
#      x y z
#    x 1.872900 -0.032380 -0.043050 
#    y -0.032380 2.013850 0.093640 
#    z -0.043050 0.093640 2.049000 
# 
# From -- ./inp_files/299898.got.cif
#   From: 2010.05.17/outbox.cif.g08.bks.cpg/sg2_150_cif.got.tgz:299898.got - 2010.06.03 11:33:40.
