data_PCOD9022061
_publ_section_title
;
Structure prediction by ZEFSAII (Michael W. Deem and Ramdas Pophale) SiO2 
 PCOD9022061
Probable space group: P -1
;
_chemical_formula_sum "Si O2"
_cell_formula_units_Z 13
_cell_length_a 14.082155
_cell_length_b 6.636790
_cell_length_c 8.714495
_cell_angle_alpha 103.620240
_cell_angle_beta 40.537107
_cell_angle_gamma 108.709359
_cell_volume 501.332559
_symmetry_space_group_name_H-M "P -1"
_symmetry_group_IT_number 2
_symmetry_cell_setting 'triclinic'
loop_
_space_group_symop_operation_xyz
x,y,z
-x,-y,-z
loop_
_atom_site_type_symbol
_atom_site_label
_atom_site_fract_x
_atom_site_fract_y
_atom_site_fract_z
Si Si1 0.222836 0.587032 0.824296
Si Si2 0.033784 0.185795 0.120217
Si Si3 0.142283 0.035089 0.444559
Si Si4 0.500000 0.500000 0.000000
Si Si5 0.297452 0.034763 0.950684
Si Si6 0.628035 0.182766 0.599286
Si Si7 0.353511 0.292234 0.433149
O O1 0.262539 0.782139 0.926372
O O2 0.243248 0.714831 0.660372
O O3 0.335395 0.432410 0.625640
O O4 0.078936 0.417501 0.030944
O O5 0.907130 0.151693 0.402913
O O6 0.177216 0.135350 0.026564
O O7 0.000000 0.000000 0.000000
O O8 0.192933 0.243014 0.527080
O O9 0.279913 0.070473 0.161409
O O10 0.000000 0.000000 0.500000
O O11 0.611508 0.336574 0.786779
O O12 0.520982 0.592285 0.815646
O O13 0.463371 0.143360 0.714249
O O14 0.631457 0.943111 0.592844
#
# Coordination Sequence:
#
# PCOD9022061 Si02
#       7
#     2   2   2   1   2   2   2
#     4  11  25  42  71 103 135 187 225 276 357 408
#     4  11  24  47  70  95 142 186 231 281 333 413
#     4  10  23  46  68  94 140 177 227 291 325 393
#     4  10  22  38  70 104 134 184 222 274 358 404
#     4  11  25  45  69 104 138 175 230 298 332 405
#     4  11  24  43  72 104 142 171 231 289 345 407
#     4  11  22  45  69 103 139 182 223 285 344 413
#
# _framework density 25.930889000000001
#
# number of rings (size 3 to 8) (size 9 to 14) (size 15 to 20)
#    0.000    1.231    3.077    1.846    0.000    4.923 
#    0.000    0.000    0.000    0.000    0.000    0.000 
#    0.000    0.000    0.000    0.000    0.000    0.000 
#
# Total GULP energy -72387.058641 kJ/mol
# GULP energy per Si atom -5568.235280 kJ/mol
# Density = 2.587187 g / cm^3
# Si number density = 25.930889 Si / 1000 Ang^3
#
#
#
# Elastic Constant Matrix: (Units=GPa)
#
#
# Indices 1 2 3 4 5 6 
#
# 1 73.3629 8.2997 4.2084 -12.4751 -8.6807 -5.7627
# 2 8.2997 152.5575 10.5142 -11.9763 5.9968 -26.5653
# 3 4.2084 10.5142 91.6026 -24.5840 17.4449 -22.0778
# 4 -12.4751 -11.9763 -24.5840 63.1732 -5.2048 6.4612
# 5 -8.6807 5.9968 17.4449 -5.2048 38.1552 -13.5364
# 6 -5.7627 -26.5653 -22.0778 6.4612 -13.5364 36.6933
#
#
#
# Elastic Compliance Matrix: (Units=1/GPa)
#
#
# Indices 1 2 3 4 5 6 
#
# 1 0.015051 -0.000154 0.000032 0.003006 0.005134 0.003636
# 2 -0.000154 0.007619 0.000754 0.001152 0.000710 0.006005
# 3 0.000032 0.000754 0.014505 0.004772 -0.003565 0.007122
# 4 0.003006 0.001152 0.004772 0.018464 0.001344 0.001422
# 5 0.005134 0.000710 -0.003565 0.001344 0.033024 0.011122
# 6 0.003636 0.006005 0.007122 0.001422 0.011122 0.040309
#
#
# Mechanical properties :
#
#
# Convention : Reuss Voigt Hill
#
# Bulk Modulus (GPa) = 26.01558 40.39641 33.20600
# Shear Modulus (GPa) = 35.58157 47.23772 41.40965
#
# Velocity S-wave (km/s) = 3.70830 4.27274 4.00049
# Velocity P-wave (km/s) = 5.32820 6.32092 5.84567
#
# Compressibility (1/GPa) = 0.03843850
#
# Stress axis : x y z
#
# Youngs Moduli (GPa) = 66.44177 131.24261 68.94197
#
# Poissons Ratio (x) = 0.02016 -0.00218
# Poissons Ratio (y) = 0.01021 -0.05195
# Poissons Ratio (z) = -0.00211 -0.09890
#
# Static dielectric constant tensor:
#      x y z
#    x 2.151870 -0.014910 -0.073150 
#    y -0.014910 2.090020 -0.025720 
#    z -0.073150 -0.025720 2.037280 
# 
# From -- ./inp_files/25795.got.cif
#   From: 2010.05.17/outbox.cif.g08.bks.cpg/sg2_13_cif.got.tgz:25795.got - 2010.06.03 11:33:40.
