data_PCOD9022715
_publ_section_title
;
Structure prediction by ZEFSAII (Michael W. Deem and Ramdas Pophale) SiO2 
 PCOD9022715
Probable space group: P -1
;
_chemical_formula_sum "Si O2"
_cell_formula_units_Z 16
_cell_length_a 14.270204
_cell_length_b 17.604695
_cell_length_c 22.608068
_cell_angle_alpha 22.686621
_cell_angle_beta 20.830371
_cell_angle_gamma 34.022279
_cell_volume 755.381344
_symmetry_space_group_name_H-M "P -1"
_symmetry_group_IT_number 2
_symmetry_cell_setting 'triclinic'
loop_
_space_group_symop_operation_xyz
x,y,z
-x,-y,-z
loop_
_atom_site_type_symbol
_atom_site_label
_atom_site_fract_x
_atom_site_fract_y
_atom_site_fract_z
Si Si1 0.984963 0.318286 0.300287
Si Si2 0.875888 0.271873 0.756892
Si Si3 0.179596 0.976739 0.214638
Si Si4 0.888162 0.235527 0.121810
Si Si5 0.308096 0.094251 0.184142
Si Si6 0.638127 0.951305 0.367444
Si Si7 0.813712 0.159322 0.004741
Si Si8 0.827535 0.561293 0.764579
O O1 0.181374 0.239918 0.195573
O O2 0.107896 0.373960 0.252664
O O3 0.944955 0.532524 0.147517
O O4 0.739833 0.122750 0.597979
O O5 0.000000 0.500000 0.500000
O O6 0.117253 0.159022 0.696972
O O7 0.627959 0.179422 0.926666
O O8 0.748729 0.236232 0.923789
O O9 0.983291 0.750035 0.496720
O O10 0.163960 0.065982 0.225903
O O11 0.070985 0.098857 0.140028
O O12 0.500000 0.000000 0.000000
O O13 0.629449 0.203888 0.340272
O O14 0.744781 0.139683 0.214164
O O15 0.587588 0.036313 0.271704
O O16 0.935536 0.366692 0.819915
O O17 0.000000 0.000000 0.000000
O O18 0.500000 0.500000 0.000000
#
# Coordination Sequence:
#
# PCOD9022715 Si02
#       8
#     2   2   2   2   2   2   2   2
#     4  10  22  42  66  93 129 180 224 272 330 397
#     4  11  23  40  68  96 130 169 214 275 332 395
#     4  11  26  43  64  96 137 175 220 283 342 402
#     4  11  22  41  66  94 129 175 222 273 324 394
#     4  10  23  44  62  96 135 172 224 269 337 407
#     4  10  22  39  63  97 131 161 222 274 323 391
#     4  10  22  40  61  99 132 166 211 279 335 391
#     4  11  22  41  71  96 129 179 227 272 339 401
#
# _framework density 21.181353000000001
#
# number of rings (size 3 to 8) (size 9 to 14) (size 15 to 20)
#    0.000    1.500    1.250    3.000    5.250    2.500 
#    4.500    1.875    0.000    0.000    0.000    0.000 
#    0.000    0.000    0.000    0.000    0.000    0.000 
#
# Total GULP energy -89299.930681 kJ/mol
# GULP energy per Si atom -5581.245668 kJ/mol
# Density = 2.113314 g / cm^3
# Si number density = 21.181353 Si / 1000 Ang^3
#
#
#
# Elastic Constant Matrix: (Units=GPa)
#
#
# Indices 1 2 3 4 5 6 
#
# 1 70.2641 12.7521 24.9641 -7.3835 16.6750 5.8915
# 2 12.7521 72.6977 47.7583 -15.2793 0.6976 10.5150
# 3 24.9641 47.7583 129.9687 -17.0755 7.8866 -16.3539
# 4 -7.3835 -15.2793 -17.0755 38.6886 -7.7332 -1.7047
# 5 16.6750 0.6976 7.8866 -7.7332 35.5181 -1.3820
# 6 5.8915 10.5150 -16.3539 -1.7047 -1.3820 29.2839
#
#
#
# Elastic Compliance Matrix: (Units=1/GPa)
#
#
# Indices 1 2 3 4 5 6 
#
# 1 0.017929 0.000420 -0.003916 0.000023 -0.007797 -0.006312
# 2 0.000420 0.022959 -0.009709 0.004673 0.002004 -0.013384
# 3 -0.003916 -0.009709 0.013810 0.002021 -0.000126 0.012098
# 4 0.000023 0.004673 0.002021 0.029854 0.006006 0.001467
# 5 -0.007797 0.002004 -0.000126 0.006006 0.033216 0.002696
# 6 -0.006312 -0.013384 0.012098 0.001467 0.002696 0.047193
#
#
# Mechanical properties :
#
#
# Convention : Reuss Voigt Hill
#
# Bulk Modulus (GPa) = 35.35127 49.31995 42.33561
# Shear Modulus (GPa) = 24.90036 33.19518 29.04777
#
# Velocity S-wave (km/s) = 3.43239 3.96307 3.70724
# Velocity P-wave (km/s) = 5.69513 6.65405 6.19317
#
# Compressibility (1/GPa) = 0.02828753
#
# Stress axis : x y z
#
# Youngs Moduli (GPa) = 55.77531 43.55607 72.41382
#
# Poissons Ratio (x) = -0.01831 0.28360
# Poissons Ratio (y) = -0.02345 0.70306
# Poissons Ratio (z) = 0.21844 0.42288
#
# Static dielectric constant tensor:
#      x y z
#    x 1.785090 0.033940 0.029580 
#    y 0.033940 1.769240 0.007040 
#    z 0.029580 0.007040 1.757650 
# 
# From -- ./inp_files/612181.got.cif
#   From: 2010.05.17/outbox.cif.g08.bks.cpg/sg2_307_cif.got.tgz:612181.got - 2010.06.03 11:33:40.
