data_PCOD9022670
_publ_section_title
;
Structure prediction by ZEFSAII (Michael W. Deem and Ramdas Pophale) SiO2 
 PCOD9022670
Probable space group: P -1
;
_chemical_formula_sum "Si O2"
_cell_formula_units_Z 16
_cell_length_a 7.281707
_cell_length_b 13.895259
_cell_length_c 21.861984
_cell_angle_alpha 161.240193
_cell_angle_beta 68.853207
_cell_angle_gamma 108.056503
_cell_volume 659.782707
_symmetry_space_group_name_H-M "P -1"
_symmetry_group_IT_number 2
_symmetry_cell_setting 'triclinic'
loop_
_space_group_symop_operation_xyz
x,y,z
-x,-y,-z
loop_
_atom_site_type_symbol
_atom_site_label
_atom_site_fract_x
_atom_site_fract_y
_atom_site_fract_z
Si Si1 0.054266 0.282890 0.625915
Si Si2 0.503435 0.277051 0.270281
Si Si3 0.410258 0.282839 0.927819
Si Si4 0.531321 0.386557 0.102750
Si Si5 0.977672 0.414880 0.063918
Si Si6 0.084249 0.948510 0.612162
Si Si7 0.500864 0.717094 0.428711
Si Si8 0.273219 0.282882 0.420035
O O1 0.035088 0.544303 0.835995
O O2 0.282241 0.209849 0.534618
O O3 0.923413 0.297236 0.589729
O O4 0.000000 0.000000 0.500000
O O5 0.463941 0.432662 0.303765
O O6 0.322292 0.344412 0.380630
O O7 0.684561 0.423469 0.369349
O O8 0.537589 0.919365 0.046366
O O9 0.553424 0.976119 0.734971
O O10 0.500000 0.500000 0.000000
O O11 0.411144 0.455972 0.097272
O O12 0.183611 0.226896 0.909870
O O13 0.763077 0.320434 0.016540
O O14 0.517352 0.639208 0.308042
O O15 0.989046 0.730267 0.215928
O O16 0.312718 0.954391 0.605371
O O17 0.934494 0.838981 0.613583
#
# Coordination Sequence:
#
# PCOD9022670 Si02
#       8
#     2   2   2   2   2   2   2   2
#     4   9  20  37  61  91 129 159 201 258 311 372
#     4  10  22  45  64  85 130 171 214 262 299 368
#     4  11  22  42  66  90 128 169 200 260 325 367
#     4  10  24  43  62  97 126 160 215 261 308 377
#     4  10  22  39  63  94 127 160 207 261 318 375
#     4  11  21  38  63  98 126 163 209 255 319 379
#     4  11  22  40  68  94 125 170 204 262 321 362
#     4  10  22  43  65  91 127 169 216 256 304 380
#
# _framework density 24.250408
#
# number of rings (size 3 to 8) (size 9 to 14) (size 15 to 20)
#    0.000    1.750    2.500    1.125    0.000    8.500 
#   11.250    0.625    0.000    0.000    0.000    0.000 
#    0.000    0.000    0.000    0.000    0.000    0.000 
#
# Total GULP energy -89509.873655 kJ/mol
# GULP energy per Si atom -5594.367103 kJ/mol
# Density = 2.419521 g / cm^3
# Si number density = 24.250408 Si / 1000 Ang^3
#
#
#
# Elastic Constant Matrix: (Units=GPa)
#
#
# Indices 1 2 3 4 5 6 
#
# 1 135.5684 23.6795 9.4070 0.7574 -9.2727 40.3764
# 2 23.6795 126.4422 5.5403 5.0849 -0.8130 13.8318
# 3 9.4070 5.5403 46.4194 0.8406 7.2477 4.0039
# 4 0.7574 5.0849 0.8406 34.6627 2.6436 4.1112
# 5 -9.2727 -0.8130 7.2477 2.6436 29.3290 -2.7432
# 6 40.3764 13.8318 4.0039 4.1112 -2.7432 37.8666
#
#
#
# Elastic Compliance Matrix: (Units=1/GPa)
#
#
# Indices 1 2 3 4 5 6 
#
# 1 0.011209 -0.000805 -0.001643 0.001054 0.002767 -0.011398
# 2 -0.000805 0.008347 -0.000647 -0.000955 0.000034 -0.002016
# 3 -0.001643 -0.000647 0.023017 0.000164 -0.006326 -0.000921
# 4 0.001054 -0.000955 0.000164 0.029677 -0.002803 -0.004218
# 5 0.002767 0.000034 -0.006326 -0.002803 0.036851 0.000680
# 6 -0.011398 -0.002016 -0.000921 -0.004218 0.000680 0.039903
#
#
# Mechanical properties :
#
#
# Convention : Reuss Voigt Hill
#
# Bulk Modulus (GPa) = 27.48597 42.85374 35.16986
# Shear Modulus (GPa) = 29.88235 38.35855 34.12045
#
# Velocity S-wave (km/s) = 3.51414 3.98146 3.75508
# Velocity P-wave (km/s) = 5.27488 6.23264 5.77365
#
# Compressibility (1/GPa) = 0.03638219
#
# Stress axis : x y z
#
# Youngs Moduli (GPa) = 89.21363 119.80336 43.44568
#
# Poissons Ratio (x) = 0.09643 0.07140
# Poissons Ratio (y) = 0.07181 0.02812
# Poissons Ratio (z) = 0.14661 0.07755
#
# Static dielectric constant tensor:
#      x y z
#    x 1.911610 -0.008660 0.004790 
#    y -0.008660 1.916530 -0.073420 
#    z 0.004790 -0.073420 1.983250 
# 
# From -- ./inp_files/604778.got.cif
#   From: 2010.05.17/outbox.cif.g08.bks.cpg/sg2_303_cif.got.tgz:604778.got - 2010.06.03 11:33:40.
