data_PCOD9022122
_publ_section_title
;
Structure prediction by ZEFSAII (Michael W. Deem and Ramdas Pophale) SiO2 
 PCOD9022122
Probable space group: P -1
;
_chemical_formula_sum "Si O2"
_cell_formula_units_Z 12
_cell_length_a 14.861985
_cell_length_b 6.957279
_cell_length_c 8.616562
_cell_angle_alpha 103.768694
_cell_angle_beta 135.662783
_cell_angle_gamma 64.506577
_cell_volume 558.581838
_symmetry_space_group_name_H-M "P -1"
_symmetry_group_IT_number 2
_symmetry_cell_setting 'triclinic'
loop_
_space_group_symop_operation_xyz
x,y,z
-x,-y,-z
loop_
_atom_site_type_symbol
_atom_site_label
_atom_site_fract_x
_atom_site_fract_y
_atom_site_fract_z
Si Si1 0.829793 0.879156 0.308026
Si Si2 0.604759 0.904734 0.805404
Si Si3 0.324195 0.914837 0.359243
Si Si4 0.921148 0.206429 0.629622
Si Si5 0.943800 0.798244 0.754051
Si Si6 0.219294 0.540807 0.219617
O O1 0.881860 0.750097 0.507331
O O2 0.951983 0.789682 0.314210
O O3 0.825455 0.117941 0.388855
O O4 0.687515 0.884634 0.062339
O O5 0.444409 0.937952 0.619646
O O6 0.680581 0.689970 0.756760
O O7 0.627632 0.081475 0.757309
O O8 0.298503 0.701866 0.323880
O O9 0.180308 0.109982 0.258780
O O10 0.837626 0.415397 0.665968
O O11 0.977722 0.006617 0.783083
O O12 0.081497 0.622068 0.957929
#
# Coordination Sequence:
#
# PCOD9022122 Si02
#       6
#     2   2   2   2   2   2
#     4   9  18  33  55  86 111 145 176 230 283 318
#     4  11  23  36  58  83 112 147 185 223 273 333
#     4  10  22  39  56  79 116 149 181 222 278 327
#     4   8  17  33  55  83 114 141 178 229 278 315
#     4   9  18  33  59  80 109 145 180 227 273 319
#     4  11  20  37  61  83 107 145 190 227 265 326
#
# _framework density 21.482973999999999
#
# number of rings (size 3 to 8) (size 9 to 14) (size 15 to 20)
#    1.000    1.333    0.000    4.500    0.000    4.000 
#    0.000    0.000    0.000    2.000    0.000    0.000 
#    0.000    0.000    0.000    0.000    0.000    0.000 
#
# Total GULP energy -66991.672791 kJ/mol
# GULP energy per Si atom -5582.639399 kJ/mol
# Density = 2.143408 g / cm^3
# Si number density = 21.482974 Si / 1000 Ang^3
#
#
#
# Elastic Constant Matrix: (Units=GPa)
#
#
# Indices 1 2 3 4 5 6 
#
# 1 54.3522 -4.3486 46.2036 4.7343 7.9195 5.8408
# 2 -4.3486 44.8010 7.1281 7.4187 1.9835 -7.3537
# 3 46.2036 7.1281 135.7090 8.5779 10.9923 -6.9514
# 4 4.7343 7.4187 8.5779 22.8048 -6.7927 3.4177
# 5 7.9195 1.9835 10.9923 -6.7927 23.6429 1.4905
# 6 5.8408 -7.3537 -6.9514 3.4177 1.4905 18.5402
#
#
#
# Elastic Compliance Matrix: (Units=1/GPa)
#
#
# Indices 1 2 3 4 5 6 
#
# 1 0.029576 0.003632 -0.010082 -0.003724 -0.005932 -0.010494
# 2 0.003632 0.027497 -0.000499 -0.013829 -0.008070 0.012773
# 3 -0.010082 -0.000499 0.011891 -0.004703 -0.004004 0.008625
# 4 -0.003724 -0.013829 -0.004703 0.060678 0.023233 -0.019129
# 5 -0.005932 -0.008070 -0.004004 0.023233 0.054220 -0.011475
# 6 -0.010494 0.012773 0.008625 -0.019129 -0.011475 0.069992
#
#
# Mechanical properties :
#
#
# Convention : Reuss Voigt Hill
#
# Bulk Modulus (GPa) = 18.16013 36.98094 27.57053
# Shear Modulus (GPa) = 17.47602 25.38953 21.43277
#
# Velocity S-wave (km/s) = 2.85526 3.44153 3.16201
# Velocity P-wave (km/s) = 4.39791 5.74835 5.11787
#
# Compressibility (1/GPa) = 0.05506569
#
# Stress axis : x y z
#
# Youngs Moduli (GPa) = 33.81148 36.36799 84.09868
#
# Poissons Ratio (x) = -0.13207 0.84786
# Poissons Ratio (y) = -0.12279 0.04193
# Poissons Ratio (z) = 0.34088 0.01813
#
# Static dielectric constant tensor:
#      x y z
#    x 1.793840 0.028900 -0.018670 
#    y 0.028900 1.804430 0.036220 
#    z -0.018670 0.036220 1.790150 
# 
# From -- ./inp_files/196994.got.cif
#   From: 2010.05.17/outbox.cif.g08.bks.cpg/sg2_99_cif.got.tgz:196994.got - 2010.06.03 11:33:40.
