data_PCOD9022437
_publ_section_title
;
Structure prediction by ZEFSAII (Michael W. Deem and Ramdas Pophale) SiO2 
 PCOD9022437
Probable space group: P -1
;
_chemical_formula_sum "Si O2"
_cell_formula_units_Z 16
_cell_length_a 8.670840
_cell_length_b 22.174966
_cell_length_c 12.863913
_cell_angle_alpha 153.588289
_cell_angle_beta 133.236331
_cell_angle_gamma 36.017793
_cell_volume 639.588274
_symmetry_space_group_name_H-M "P -1"
_symmetry_group_IT_number 2
_symmetry_cell_setting 'triclinic'
loop_
_space_group_symop_operation_xyz
x,y,z
-x,-y,-z
loop_
_atom_site_type_symbol
_atom_site_label
_atom_site_fract_x
_atom_site_fract_y
_atom_site_fract_z
Si Si1 0.195970 0.838818 0.415324
Si Si2 0.859986 0.750908 0.233157
Si Si3 0.550716 0.999531 0.144687
Si Si4 0.643590 0.191379 0.156371
Si Si5 0.895023 0.349507 0.588837
Si Si6 0.845692 0.313989 0.023285
Si Si7 0.598515 0.255031 0.007998
Si Si8 0.033422 0.480212 0.274742
O O1 0.001933 0.837822 0.405292
O O2 0.411388 0.856877 0.589540
O O3 0.306126 0.689123 0.151109
O O4 0.000000 0.000000 0.500000
O O5 0.945946 0.679744 0.278835
O O6 0.548201 0.832772 0.214327
O O7 0.963128 0.618589 0.979405
O O8 0.361821 0.964652 0.060855
O O9 0.838615 0.832846 0.057644
O O10 0.500000 0.000000 0.000000
O O11 0.810177 0.226566 0.359193
O O12 0.740860 0.180512 0.067559
O O13 0.334688 0.363631 0.278884
O O14 0.629754 0.542951 0.770821
O O15 0.024297 0.352386 0.545149
O O16 0.759336 0.259040 0.996196
O O17 0.839999 0.479630 0.266216
#
# Coordination Sequence:
#
# PCOD9022437 Si02
#       8
#     2   2   2   2   2   2   2   2
#     4   9  17  34  54  72  96 133 168 200 243 298
#     4   9  17  30  51  74  96 128 168 199 237 294
#     4  10  19  35  55  73  96 130 167 207 245 288
#     4   9  18  32  51  72  97 135 169 191 237 307
#     4  10  17  31  51  74 100 133 164 196 240 295
#     4   9  19  33  52  76  98 126 167 202 244 296
#     4  10  18  33  51  74 102 130 160 204 244 290
#     4   8  15  30  47  67  97 129 158 191 236 298
#
# _framework density 25.016093000000001
#
# number of rings (size 3 to 8) (size 9 to 14) (size 15 to 20)
#    0.000    3.000    0.000    6.000    0.000    0.000 
#    0.000   18.750    0.000    0.000    0.000    0.000 
#    0.000    0.000    0.000    0.000    0.000    0.000 
#
# Total GULP energy -89231.685922 kJ/mol
# GULP energy per Si atom -5576.980370 kJ/mol
# Density = 2.495915 g / cm^3
# Si number density = 25.016093 Si / 1000 Ang^3
#
#
#
# Elastic Constant Matrix: (Units=GPa)
#
#
# Indices 1 2 3 4 5 6 
#
# 1 130.7065 1.9550 28.9485 -3.5440 38.3227 30.1817
# 2 1.9550 69.1785 32.1556 -14.6541 -0.1230 10.3063
# 3 28.9485 32.1556 91.3501 -26.7017 38.1827 -5.8824
# 4 -3.5440 -14.6541 -26.7017 44.2758 1.7773 0.9297
# 5 38.3227 -0.1230 38.1827 1.7773 31.0468 5.8352
# 6 30.1817 10.3063 -5.8824 0.9297 5.8352 39.0916
#
#
#
# Elastic Compliance Matrix: (Units=1/GPa)
#
#
# Indices 1 2 3 4 5 6 
#
# 1 0.018294 -0.007171 0.021093 0.013820 -0.048950 -0.002082
# 2 -0.007171 0.037244 -0.050735 -0.021452 0.076925 -0.022890
# 3 0.021093 -0.050735 0.123699 0.066237 -0.190149 0.042513
# 4 0.013820 -0.021452 0.066237 0.060375 -0.105687 0.019293
# 5 -0.048950 0.076925 -0.190149 -0.105687 0.344107 -0.059952
# 6 -0.002082 -0.022890 0.042513 0.019293 -0.059952 0.048110
#
#
# Mechanical properties :
#
#
# Convention : Reuss Voigt Hill
#
# Bulk Modulus (GPa) = 9.46878 46.37261 27.92069
# Shear Modulus (GPa) = 6.75075 38.09457 22.42266
#
# Velocity S-wave (km/s) = 1.64451 3.90654 2.99712
# Velocity P-wave (km/s) = 2.72014 6.23903 4.81273
#
# Compressibility (1/GPa) = 0.10561026
#
# Stress axis : x y z
#
# Youngs Moduli (GPa) = 54.66342 26.85028 8.08412
#
# Poissons Ratio (x) = 0.19253 -0.17051
# Poissons Ratio (y) = 0.39197 0.41015
# Poissons Ratio (z) = -1.15299 1.36225
#
# Static dielectric constant tensor:
#      x y z
#    x 2.111360 -0.009240 -0.024680 
#    y -0.009240 1.958590 0.089650 
#    z -0.024680 0.089650 2.114850 
# 
# From -- ./inp_files/197952.got.cif
#   From: 2010.05.17/outbox.cif.g08.bks.cpg/sg2_99_cif.got.tgz:197952.got - 2010.06.03 11:33:40.
