data_PCOD9022007
_publ_section_title
;
Structure prediction by ZEFSAII (Michael W. Deem and Ramdas Pophale) SiO2 
 PCOD9022007
Probable space group: P -1
;
_chemical_formula_sum "Si O2"
_cell_formula_units_Z 15
_cell_length_a 21.283585
_cell_length_b 9.971379
_cell_length_c 12.682036
_cell_angle_alpha 38.695733
_cell_angle_beta 140.866635
_cell_angle_gamma 150.911150
_cell_volume 778.256483
_symmetry_space_group_name_H-M "P -1"
_symmetry_group_IT_number 2
_symmetry_cell_setting 'triclinic'
loop_
_space_group_symop_operation_xyz
x,y,z
-x,-y,-z
loop_
_atom_site_type_symbol
_atom_site_label
_atom_site_fract_x
_atom_site_fract_y
_atom_site_fract_z
Si Si1 0.352809 0.259450 0.401601
Si Si2 0.699575 0.263302 0.721022
Si Si3 0.728325 0.814181 0.433599
Si Si4 0.000000 0.500000 0.000000
Si Si5 0.462197 0.702746 0.103283
Si Si6 0.458445 0.676545 0.871470
Si Si7 0.980893 0.224159 0.361761
Si Si8 0.286278 0.754497 0.486780
O O1 0.500000 0.500000 0.500000
O O2 0.252925 0.126212 0.452750
O O3 0.351073 0.442100 0.198951
O O4 0.338448 0.014273 0.473401
O O5 0.701168 0.522332 0.561377
O O6 0.661609 0.129460 0.635506
O O7 0.589560 0.017210 0.811198
O O8 0.848984 0.394635 0.858468
O O9 0.597825 0.757635 0.260237
O O10 0.858808 0.070223 0.379265
O O11 0.953678 0.310256 0.165880
O O12 0.417679 0.623711 0.972828
O O13 0.500000 0.000000 0.000000
O O14 0.340592 0.606431 0.689761
O O15 0.500000 0.500000 0.000000
O O16 0.123787 0.515553 0.415819
O O17 0.000000 0.000000 0.500000
#
# Coordination Sequence:
#
# PCOD9022007 Si02
#       8
#     2   2   2   1   2   2   2   2
#     4  10  22  41  62  86 128 170 210 262 327 387
#     4  11  22  39  64  95 128 174 223 268 328 394
#     4  11  21  41  69  89 127 179 217 265 331 391
#     4  10  22  38  68  94 132 166 216 268 328 382
#     4  11  22  39  62  93 128 167 217 270 325 391
#     4  12  23  33  59  94 129 165 217 275 323 388
#     4  11  23  43  68  96 132 171 219 274 328 385
#     4  11  23  41  60  91 132 168 213 274 328 381
#
# _framework density 19.273852000000002
#
# number of rings (size 3 to 8) (size 9 to 14) (size 15 to 20)
#    0.000    1.067    2.667    6.800    1.867    0.533 
#    0.000    0.000    0.000    4.800    0.000    0.000 
#    0.000    0.000    0.000    0.000    0.000    0.000 
#
# Total GULP energy -83574.480608 kJ/mol
# GULP energy per Si atom -5571.632041 kJ/mol
# Density = 1.922998 g / cm^3
# Si number density = 19.273852 Si / 1000 Ang^3
#
#
#
# Elastic Constant Matrix: (Units=GPa)
#
#
# Indices 1 2 3 4 5 6 
#
# 1 105.9020 18.4754 57.8077 -5.7347 -21.6802 1.8048
# 2 18.4754 56.0770 30.7686 -11.3238 7.0931 -10.8105
# 3 57.8077 30.7686 144.8963 -4.7006 -9.5357 1.0409
# 4 -5.7347 -11.3238 -4.7006 24.3152 7.7608 -1.8695
# 5 -21.6802 7.0931 -9.5357 7.7608 41.9053 -5.2262
# 6 1.8048 -10.8105 1.0409 -1.8695 -5.2262 44.7825
#
#
#
# Elastic Compliance Matrix: (Units=1/GPa)
#
#
# Indices 1 2 3 4 5 6 
#
# 1 0.013759 -0.003408 -0.004354 -0.001428 0.006902 -0.000530
# 2 -0.003408 0.026610 -0.004478 0.014112 -0.009128 0.006189
# 3 -0.004354 -0.004478 0.009601 -0.001613 0.000852 -0.001097
# 4 -0.001428 0.014112 -0.001613 0.051357 -0.012483 0.004189
# 5 0.006902 -0.009128 0.000852 -0.012483 0.031568 0.000661
# 6 -0.000530 0.006189 -0.001097 0.004189 0.000661 0.024123
#
#
# Mechanical properties :
#
#
# Convention : Reuss Voigt Hill
#
# Bulk Modulus (GPa) = 39.23115 57.88653 48.55884
# Shear Modulus (GPa) = 26.31671 35.52216 30.91943
#
# Velocity S-wave (km/s) = 3.69915 4.29770 4.00961
# Velocity P-wave (km/s) = 6.21641 7.39770 6.83263
#
# Compressibility (1/GPa) = 0.02548995
#
# Stress axis : x y z
#
# Youngs Moduli (GPa) = 72.68224 37.57987 104.15481
#
# Poissons Ratio (x) = 0.12806 0.45346
# Poissons Ratio (y) = 0.24768 0.46645
# Poissons Ratio (z) = 0.31644 0.16830
#
# Static dielectric constant tensor:
#      x y z
#    x 1.695940 -0.000580 -0.017540 
#    y -0.000580 1.679020 -0.004460 
#    z -0.017540 -0.004460 1.668160 
# 
# From -- ./inp_files/315822.got.cif
#   From: 2010.05.17/outbox.cif.g08.bks.cpg/sg2_158_cif.got.tgz:315822.got - 2010.06.03 11:33:40.
