data_PCOD9022243
_publ_section_title
;
Structure prediction by ZEFSAII (Michael W. Deem and Ramdas Pophale) SiO2 
 PCOD9022243
Probable space group: P -1
;
_chemical_formula_sum "Si O2"
_cell_formula_units_Z 10
_cell_length_a 9.539009
_cell_length_b 8.836279
_cell_length_c 12.626178
_cell_angle_alpha 50.415659
_cell_angle_beta 32.780605
_cell_angle_gamma 43.461048
_cell_volume 395.313456
_symmetry_space_group_name_H-M "P -1"
_symmetry_group_IT_number 2
_symmetry_cell_setting 'triclinic'
loop_
_space_group_symop_operation_xyz
x,y,z
-x,-y,-z
loop_
_atom_site_type_symbol
_atom_site_label
_atom_site_fract_x
_atom_site_fract_y
_atom_site_fract_z
Si Si1 0.649843 0.463668 0.181171
Si Si2 0.602723 0.848345 0.333866
Si Si3 0.229371 0.263108 0.502050
Si Si4 0.067454 0.605160 0.746419
Si Si5 0.383023 0.942405 0.206997
O O1 0.515369 0.304223 0.305385
O O2 0.859824 0.365864 0.191971
O O3 0.409440 0.704198 0.267068
O O4 0.827946 0.512518 0.953466
O O5 0.815484 0.804197 0.320166
O O6 0.665124 0.595268 0.391039
O O7 0.308535 0.050940 0.473591
O O8 0.590936 0.915439 0.188088
O O9 0.000000 0.500000 0.500000
O O10 0.923403 0.842001 0.677725
O O11 0.500000 0.000000 0.000000
#
# Coordination Sequence:
#
# PCOD9022243 Si02
#       5
#     2   2   2   2   2
#     4   9  20  37  62  88 113 152 195 240 291 342
#     4  10  22  39  60  87 118 157 196 235 290 348
#     4  11  24  41  56  83 126 161 191 230 288 356
#     4   9  18  38  62  87 113 143 198 251 286 333
#     4   9  18  36  62  89 115 145 189 245 294 336
#
# _framework density 25.296379999999999
#
# number of rings (size 3 to 8) (size 9 to 14) (size 15 to 20)
#    0.000    2.400    0.000    2.400    0.000    7.200 
#    0.000   15.000    0.000    0.000    0.000    0.000 
#    0.000    0.000    0.000    0.000    0.000    0.000 
#
# Total GULP energy -55734.762538 kJ/mol
# GULP energy per Si atom -5573.476254 kJ/mol
# Density = 2.523880 g / cm^3
# Si number density = 25.296380 Si / 1000 Ang^3
#
#
#
# Elastic Constant Matrix: (Units=GPa)
#
#
# Indices 1 2 3 4 5 6 
#
# 1 93.0039 59.7322 32.7824 -1.8020 33.1296 -13.5819
# 2 59.7322 223.4262 41.4785 12.7309 19.2519 -33.2520
# 3 32.7824 41.4785 86.0860 -8.4488 19.6162 12.6612
# 4 -1.8020 12.7309 -8.4488 41.8704 7.3591 10.5324
# 5 33.1296 19.2519 19.6162 7.3591 49.0939 -9.3462
# 6 -13.5819 -33.2520 12.6612 10.5324 -9.3462 53.4833
#
#
#
# Elastic Compliance Matrix: (Units=1/GPa)
#
#
# Indices 1 2 3 4 5 6 
#
# 1 0.017474 -0.003399 -0.002642 0.002776 -0.009684 0.000711
# 2 -0.003399 0.007130 -0.004297 -0.005298 0.003187 0.006188
# 3 -0.002642 -0.004297 0.018905 0.009077 -0.007525 -0.010921
# 4 0.002776 -0.005298 0.009077 0.032626 -0.010797 -0.013050
# 5 -0.009684 0.003187 -0.007525 -0.010797 0.031997 0.009022
# 6 0.000711 0.006188 -0.010921 -0.013050 0.009022 0.029457
#
#
# Mechanical properties :
#
#
# Convention : Reuss Voigt Hill
#
# Bulk Modulus (GPa) = 43.79764 74.50025 59.14895
# Shear Modulus (GPa) = 30.14303 46.79105 38.46704
#
# Velocity S-wave (km/s) = 3.45569 4.30550 3.90379
# Velocity P-wave (km/s) = 5.76835 7.36419 6.61457
#
# Compressibility (1/GPa) = 0.02283228
#
# Stress axis : x y z
#
# Youngs Moduli (GPa) = 57.22915 140.24348 52.89646
#
# Poissons Ratio (x) = 0.47669 0.13974
# Poissons Ratio (y) = 0.19452 0.22732
# Poissons Ratio (z) = 0.15119 0.60269
#
# Static dielectric constant tensor:
#      x y z
#    x 2.020860 -0.053640 -0.031140 
#    y -0.053640 1.990350 0.058430 
#    z -0.031140 0.058430 2.105890 
# 
# From -- ./inp_files/17056.got.cif
#   From: 2010.05.17/outbox.cif.g08.bks.cpg/sg2_9_cif.got.tgz:17056.got - 2010.06.03 11:33:40.
