data_PCOD9022823
_publ_section_title
;
Structure prediction by ZEFSAII (Michael W. Deem and Ramdas Pophale) SiO2 
 PCOD9022823
Probable space group: P -1
;
_chemical_formula_sum "Si O2"
_cell_formula_units_Z 12
_cell_length_a 22.106179
_cell_length_b 5.723448
_cell_length_c 11.552430
_cell_angle_alpha 35.050171
_cell_angle_beta 143.968947
_cell_angle_gamma 134.671154
_cell_volume 490.116438
_symmetry_space_group_name_H-M "P -1"
_symmetry_group_IT_number 2
_symmetry_cell_setting 'triclinic'
loop_
_space_group_symop_operation_xyz
x,y,z
-x,-y,-z
loop_
_atom_site_type_symbol
_atom_site_label
_atom_site_fract_x
_atom_site_fract_y
_atom_site_fract_z
Si Si1 0.099722 0.550627 0.714534
Si Si2 0.039640 0.467271 0.897675
Si Si3 0.380706 0.561787 0.688929
Si Si4 0.155827 0.636861 0.221504
Si Si5 0.604366 0.868582 0.883682
Si Si6 0.326093 0.679492 0.974831
O O1 0.206385 0.751434 0.743199
O O2 0.000000 0.500000 0.500000
O O3 0.075483 0.709544 0.739855
O O4 0.129133 0.096027 0.972681
O O5 0.937516 0.598285 0.749861
O O6 0.136007 0.454113 0.137609
O O7 0.000000 0.000000 0.000000
O O8 0.269663 0.660452 0.437356
O O9 0.480891 0.858057 0.685000
O O10 0.390669 0.091736 0.856352
O O11 0.380721 0.500020 0.852902
O O12 0.651296 0.725213 0.894582
O O13 0.651382 0.261605 0.874822
#
# Coordination Sequence:
#
# PCOD9022823 Si02
#       6
#     2   2   2   2   2   2
#     4  11  26  39  60  93 131 169 206 267 324 382
#     4   9  22  40  59  89 122 167 213 257 317 381
#     4   9  21  37  67  91 121 170 215 264 306 385
#     4  10  22  41  63  89 126 165 216 262 314 383
#     4   9  21  40  66  95 125 164 221 257 317 375
#     4  10  22  39  64  94 126 168 206 268 315 371
#
# _framework density 24.483979000000001
#
# number of rings (size 3 to 8) (size 9 to 14) (size 15 to 20)
#    1.000    1.333    0.000    0.500   11.667    2.000 
#    0.000    1.667    0.000    0.000    0.000    0.000 
#    0.000    0.000    0.000    0.000    0.000    0.000 
#
# Total GULP energy -66925.675919 kJ/mol
# GULP energy per Si atom -5577.139660 kJ/mol
# Density = 2.442825 g / cm^3
# Si number density = 24.483979 Si / 1000 Ang^3
#
#
#
# Elastic Constant Matrix: (Units=GPa)
#
#
# Indices 1 2 3 4 5 6 
#
# 1 117.9408 24.8394 54.3807 27.1520 0.4201 -15.3607
# 2 24.8394 76.9824 27.1374 23.8112 10.5875 -20.5181
# 3 54.3807 27.1374 174.7549 47.3030 20.0525 -3.0664
# 4 27.1520 23.8112 47.3030 44.5553 8.9134 -0.6931
# 5 0.4201 10.5875 20.0525 8.9134 26.7786 8.8728
# 6 -15.3607 -20.5181 -3.0664 -0.6931 8.8728 34.8147
#
#
#
# Elastic Compliance Matrix: (Units=1/GPa)
#
#
# Indices 1 2 3 4 5 6 
#
# 1 0.011187 -0.000781 -0.002397 -0.004225 0.002129 0.003638
# 2 -0.000781 0.021327 0.001052 -0.009616 -0.010949 0.014916
# 3 -0.002397 0.001052 0.008964 -0.007583 -0.005061 0.001491
# 4 -0.004225 -0.009616 -0.007583 0.038253 -0.000788 -0.007237
# 5 0.002129 -0.010949 -0.005061 -0.000788 0.052068 -0.019245
# 6 0.003638 0.014916 0.001491 -0.007237 -0.019245 0.044011
#
#
# Mechanical properties :
#
#
# Convention : Reuss Voigt Hill
#
# Bulk Modulus (GPa) = 26.86246 64.71035 45.78640
# Shear Modulus (GPa) = 25.97780 38.78441 32.38111
#
# Velocity S-wave (km/s) = 3.26085 3.98436 3.64062
# Velocity P-wave (km/s) = 5.01725 6.90318 6.03435
#
# Compressibility (1/GPa) = 0.03722668
#
# Stress axis : x y z
#
# Youngs Moduli (GPa) = 89.38666 46.88901 111.55376
#
# Poissons Ratio (x) = 0.03664 0.26739
# Poissons Ratio (y) = 0.06985 -0.11739
# Poissons Ratio (z) = 0.21425 -0.04934
#
# Static dielectric constant tensor:
#      x y z
#    x 2.088340 -0.029910 -0.027990 
#    y -0.029910 2.065240 -0.058530 
#    z -0.027990 -0.058530 1.943720 
# 
# From -- ./inp_files/141785.got.cif
#   From: 2010.05.17/outbox.cif.g08.bks.cpg/sg2_71_cif.got.tgz:141785.got - 2010.06.03 11:33:40.
