data_PCOD9022014
_publ_section_title
;
Structure prediction by ZEFSAII (Michael W. Deem and Ramdas Pophale) SiO2 
 PCOD9022014
Probable space group: P -1
;
_chemical_formula_sum "Si O2"
_cell_formula_units_Z 16
_cell_length_a 16.573758
_cell_length_b 22.928216
_cell_length_c 8.867768
_cell_angle_alpha 32.654815
_cell_angle_beta 29.901879
_cell_angle_gamma 20.907723
_cell_volume 589.636444
_symmetry_space_group_name_H-M "P -1"
_symmetry_group_IT_number 2
_symmetry_cell_setting 'triclinic'
loop_
_space_group_symop_operation_xyz
x,y,z
-x,-y,-z
loop_
_atom_site_type_symbol
_atom_site_label
_atom_site_fract_x
_atom_site_fract_y
_atom_site_fract_z
Si Si1 0.529380 0.869961 0.809067
Si Si2 0.938720 0.523792 0.726131
Si Si3 0.989013 0.846130 0.625353
Si Si4 0.271097 0.655367 0.863710
Si Si5 0.494991 0.625111 0.129013
Si Si6 0.253965 0.487517 0.503678
Si Si7 0.149193 0.207298 0.307500
Si Si8 0.848659 0.022832 0.024551
O O1 0.761277 0.701030 0.710708
O O2 0.605794 0.858554 0.880094
O O3 0.291519 0.924809 0.021360
O O4 0.500000 0.000000 0.500000
O O5 0.746406 0.522934 0.032143
O O6 0.000000 0.500000 0.500000
O O7 0.183436 0.423633 0.646999
O O8 0.032132 0.802677 0.826782
O O9 0.842124 0.832794 0.793519
O O10 0.278656 0.687595 0.446653
O O11 0.944560 0.992304 0.322160
O O12 0.460778 0.656172 0.590687
O O13 0.443482 0.480267 0.880126
O O14 0.209264 0.619204 0.191101
O O15 0.360695 0.806674 0.909747
O O16 0.071184 0.600670 0.695659
O O17 0.103471 0.113711 0.670359
#
# Coordination Sequence:
#
# PCOD9022014 Si02
#       8
#     2   2   2   2   2   2   2   2
#     4   8  16  30  48  74 102 129 165 210 249 291
#     4  10  17  31  50  76  98 129 170 208 252 299
#     4  10  20  31  52  75 104 130 165 207 253 295
#     4  11  20  35  47  75 104 136 160 204 258 301
#     4   9  18  31  51  70 100 128 161 205 247 293
#     4  10  21  32  53  70 102 133 169 201 251 307
#     4  10  17  31  52  79  93 130 173 206 243 299
#     4   8  17  30  50  74  99 127 165 208 244 290
#
# _framework density 27.135366999999999
#
# number of rings (size 3 to 8) (size 9 to 14) (size 15 to 20)
#    0.750    1.750    2.500    0.750    0.000    0.000 
#    0.000    2.500    0.000    0.000    0.000   12.250 
#    0.000    0.000    0.000    0.000    0.000    0.000 
#
# Total GULP energy -89295.845925 kJ/mol
# GULP energy per Si atom -5580.990370 kJ/mol
# Density = 2.707361 g / cm^3
# Si number density = 27.135367 Si / 1000 Ang^3
#
#
#
# Elastic Constant Matrix: (Units=GPa)
#
#
# Indices 1 2 3 4 5 6 
#
# 1 235.3533 47.3428 35.2046 3.8870 -22.6041 -30.7859
# 2 47.3428 50.6771 16.6509 -13.4703 9.9901 18.4193
# 3 35.2046 16.6509 52.2746 -19.9410 -7.2083 -7.6282
# 4 3.8870 -13.4703 -19.9410 30.3786 -10.9969 3.7366
# 5 -22.6041 9.9901 -7.2083 -10.9969 51.2729 0.1472
# 6 -30.7859 18.4193 -7.6282 3.7366 0.1472 51.4185
#
#
#
# Elastic Compliance Matrix: (Units=1/GPa)
#
#
# Indices 1 2 3 4 5 6 
#
# 1 0.010625 -0.017557 -0.003070 -0.010832 0.005313 0.012968
# 2 -0.017557 0.059592 -0.004911 0.024337 -0.014724 -0.034315
# 3 -0.003070 -0.004911 0.033262 0.022991 0.009202 0.003159
# 4 -0.010832 0.024337 0.022991 0.065011 0.007706 -0.016539
# 5 0.005313 -0.014724 0.009202 0.007706 0.027635 0.009182
# 6 0.012968 -0.034315 0.003159 -0.016539 0.009182 0.041149
#
#
# Mechanical properties :
#
#
# Convention : Reuss Voigt Hill
#
# Bulk Modulus (GPa) = 19.08337 59.63352 39.35844
# Shear Modulus (GPa) = 16.34953 42.55446 29.45199
#
# Velocity S-wave (km/s) = 2.45729 3.96438 3.29807
# Velocity P-wave (km/s) = 3.88573 6.55585 5.38879
#
# Compressibility (1/GPa) = 0.05240165
#
# Stress axis : x y z
#
# Youngs Moduli (GPa) = 94.11412 16.78067 30.06442
#
# Poissons Ratio (x) = 0.29462 0.09230
# Poissons Ratio (y) = 1.65239 0.14766
# Poissons Ratio (z) = 0.28895 0.08242
#
# Static dielectric constant tensor:
#      x y z
#    x 2.244370 -0.069100 0.068870 
#    y -0.069100 2.124630 -0.086630 
#    z 0.068870 -0.086630 2.316730 
# 
# From -- ./inp_files/320008.got.cif
#   From: 2010.05.17/outbox.cif.g08.bks.cpg/sg2_161_cif.got.tgz:320008.got - 2010.06.03 11:33:40.
