data_PCOD9022051
_publ_section_title
;
Structure prediction by ZEFSAII (Michael W. Deem and Ramdas Pophale) SiO2 
 PCOD9022051
Probable space group: P -1
;
_chemical_formula_sum "Si O2"
_cell_formula_units_Z 16
_cell_length_a 8.166561
_cell_length_b 22.396555
_cell_length_c 9.504042
_cell_angle_alpha 146.340514
_cell_angle_beta 60.482307
_cell_angle_gamma 127.978951
_cell_volume 758.686667
_symmetry_space_group_name_H-M "P -1"
_symmetry_group_IT_number 2
_symmetry_cell_setting 'triclinic'
loop_
_space_group_symop_operation_xyz
x,y,z
-x,-y,-z
loop_
_atom_site_type_symbol
_atom_site_label
_atom_site_fract_x
_atom_site_fract_y
_atom_site_fract_z
Si Si1 0.263411 0.940918 0.441374
Si Si2 0.263777 0.900323 0.048743
Si Si3 0.486463 0.177570 0.419674
Si Si4 0.775076 0.412035 0.859437
Si Si5 0.137837 0.245669 0.737830
Si Si6 0.185898 0.171739 0.887708
Si Si7 0.577462 0.411921 0.216981
Si Si8 0.974013 0.535290 0.740658
O O1 0.260320 0.877922 0.171338
O O2 0.079111 0.842154 0.414972
O O3 0.500000 0.000000 0.500000
O O4 0.197586 0.048039 0.660217
O O5 0.027288 0.839033 0.973593
O O6 0.357072 0.043623 0.271166
O O7 0.402333 0.847599 0.809525
O O8 0.663849 0.267454 0.626095
O O9 0.337248 0.242195 0.571228
O O10 0.816361 0.437907 0.725752
O O11 0.620240 0.439157 0.084054
O O12 0.000000 0.500000 0.000000
O O13 0.160833 0.191661 0.772518
O O14 0.113180 0.364617 0.015611
O O15 0.394929 0.281139 0.059510
O O16 0.500000 0.500000 0.500000
O O17 0.794428 0.421977 0.208421
O O18 0.000000 0.500000 0.500000
#
# Coordination Sequence:
#
# PCOD9022051 Si02
#       8
#     2   2   2   2   2   2   2   2
#     4  11  21  38  65  94 130 168 214 276 334 402
#     4  10  22  38  69  98 122 172 223 270 341 404
#     4  11  21  41  67  92 129 170 223 274 331 398
#     4  10  24  43  66  95 134 178 225 279 334 395
#     4  11  21  40  63  91 127 171 217 272 333 397
#     4  11  20  41  65  95 128 172 221 270 337 406
#     4  11  23  43  70  98 131 179 225 278 338 409
#     4  11  26  43  64  99 133 176 226 279 338 400
#
# _framework density 21.089075000000001
#
# number of rings (size 3 to 8) (size 9 to 14) (size 15 to 20)
#    0.000    1.250    3.750    2.250    7.000    1.500 
#    0.000    0.625    0.000    0.000    0.000    0.000 
#    0.000    0.000    0.000    0.000    0.000    0.000 
#
# Total GULP energy -89140.407890 kJ/mol
# GULP energy per Si atom -5571.275493 kJ/mol
# Density = 2.104108 g / cm^3
# Si number density = 21.089075 Si / 1000 Ang^3
#
#
#
# Elastic Constant Matrix: (Units=GPa)
#
#
# Indices 1 2 3 4 5 6 
#
# 1 98.2788 28.7326 38.6398 -4.0278 -12.7075 30.4965
# 2 28.7326 94.4523 50.9914 -5.4288 -1.8641 31.0722
# 3 38.6398 50.9914 126.0332 -10.1028 -22.2985 22.4997
# 4 -4.0278 -5.4288 -10.1028 41.7658 12.6484 0.6840
# 5 -12.7075 -1.8641 -22.2985 12.6484 43.7830 0.6959
# 6 30.4965 31.0722 22.4997 0.6840 0.6959 35.7875
#
#
#
# Elastic Compliance Matrix: (Units=1/GPa)
#
#
# Indices 1 2 3 4 5 6 
#
# 1 0.015020 0.000601 -0.002059 0.000173 0.003479 -0.012097
# 2 0.000601 0.017328 -0.005225 0.001883 -0.002098 -0.012267
# 3 -0.002059 -0.005225 0.011844 0.000464 0.005098 -0.001263
# 4 0.000173 0.001883 0.000464 0.026557 -0.007267 -0.002440
# 5 0.003479 -0.002098 0.005098 -0.007267 0.028532 -0.004764
# 6 -0.012097 -0.012267 -0.001263 -0.002440 -0.004764 0.049836
#
#
# Mechanical properties :
#
#
# Convention : Reuss Voigt Hill
#
# Bulk Modulus (GPa) = 32.44091 61.72132 47.08112
# Shear Modulus (GPa) = 28.94221 37.62727 33.28474
#
# Velocity S-wave (km/s) = 3.70858 4.22857 3.97708
# Velocity P-wave (km/s) = 5.80985 7.29188 6.59264
#
# Compressibility (1/GPa) = 0.03082527
#
# Stress axis : x y z
#
# Youngs Moduli (GPa) = 66.57920 57.71113 84.42766
#
# Poissons Ratio (x) = -0.03467 0.17383
# Poissons Ratio (y) = -0.04000 0.44115
# Poissons Ratio (z) = 0.13708 0.30155
#
# Static dielectric constant tensor:
#      x y z
#    x 1.818750 0.043370 0.030980 
#    y 0.043370 1.859820 0.017190 
#    z 0.030980 0.017190 1.762730 
# 
# From -- ./inp_files/181791.got.cif
#   From: 2010.05.17/outbox.cif.g08.bks.cpg/sg2_91_cif.got.tgz:181791.got - 2010.06.03 11:33:40.
