data_PCOD9022088
_publ_section_title
;
Structure prediction by ZEFSAII (Michael W. Deem and Ramdas Pophale) SiO2 
 PCOD9022088
Probable space group: P -1
;
_chemical_formula_sum "Si O2"
_cell_formula_units_Z 16
_cell_length_a 13.129213
_cell_length_b 15.046312
_cell_length_c 9.432908
_cell_angle_alpha 46.134585
_cell_angle_beta 38.971092
_cell_angle_gamma 67.719607
_cell_volume 790.871036
_symmetry_space_group_name_H-M "P -1"
_symmetry_group_IT_number 2
_symmetry_cell_setting 'triclinic'
loop_
_space_group_symop_operation_xyz
x,y,z
-x,-y,-z
loop_
_atom_site_type_symbol
_atom_site_label
_atom_site_fract_x
_atom_site_fract_y
_atom_site_fract_z
Si Si1 0.737390 0.352347 0.071205
Si Si2 0.357589 0.351492 0.840326
Si Si3 0.299822 0.411397 0.299849
Si Si4 0.823245 0.987964 0.123702
Si Si5 0.071298 0.469176 0.104111
Si Si6 0.588043 0.781396 0.792635
Si Si7 0.677645 0.756663 0.312441
Si Si8 0.800409 0.264190 0.822999
O O1 0.529022 0.284798 0.384042
O O2 0.782579 0.492781 0.786299
O O3 0.818522 0.276246 0.960877
O O4 0.818872 0.393442 0.090522
O O5 0.500000 0.500000 0.500000
O O6 0.315288 0.266587 0.835986
O O7 0.411791 0.265094 0.994964
O O8 0.194256 0.385316 0.034127
O O9 0.302395 0.295997 0.320296
O O10 0.248422 0.348330 0.577956
O O11 0.500000 0.500000 0.000000
O O12 0.678991 0.927656 0.470136
O O13 0.773838 0.890323 0.147938
O O14 0.824858 0.127897 0.912904
O O15 0.000000 0.000000 0.000000
O O16 0.924668 0.382584 0.465334
O O17 0.000000 0.500000 0.000000
O O18 0.392074 0.738337 0.999232
#
# Coordination Sequence:
#
# PCOD9022088 Si02
#       8
#     2   2   2   2   2   2   2   2
#     4  11  21  40  66  98 132 169 223 273 333 388
#     4  12  22  41  68  96 139 177 214 265 347 399
#     4   9  15  33  62  94 117 159 218 266 312 381
#     4  11  25  46  68  96 129 175 235 276 318 382
#     4  12  27  40  60 105 143 169 212 274 343 397
#     4  11  21  40  68  94 128 177 219 272 324 395
#     4  10  22  38  71  94 128 173 230 262 328 395
#     4  12  25  42  69  97 134 173 224 277 325 389
#
# _framework density 20.230858000000001
#
# number of rings (size 3 to 8) (size 9 to 14) (size 15 to 20)
#    0.000    1.000    6.250    3.000    3.500    1.000 
#    0.000    4.375    0.000    0.000    0.000    0.000 
#    0.000    0.000    0.000    0.000    0.000    0.000 
#
# Total GULP energy -89258.979239 kJ/mol
# GULP energy per Si atom -5578.686202 kJ/mol
# Density = 2.018481 g / cm^3
# Si number density = 20.230858 Si / 1000 Ang^3
#
#
#
# Elastic Constant Matrix: (Units=GPa)
#
#
# Indices 1 2 3 4 5 6 
#
# 1 136.1464 32.2671 25.8207 -1.7347 5.2591 33.7879
# 2 32.2671 72.0618 10.3102 -2.7477 -4.4337 24.3753
# 3 25.8207 10.3102 73.2691 11.8591 -17.2501 10.8223
# 4 -1.7347 -2.7477 11.8591 30.0649 1.4757 3.3065
# 5 5.2591 -4.4337 -17.2501 1.4757 31.9338 2.6607
# 6 33.7879 24.3753 10.8223 3.3065 2.6607 37.4025
#
#
#
# Elastic Compliance Matrix: (Units=1/GPa)
#
#
# Indices 1 2 3 4 5 6 
#
# 1 0.010415 -0.001823 -0.003625 0.002823 -0.003459 -0.007175
# 2 -0.001823 0.018769 0.000109 0.002604 0.003771 -0.011115
# 3 -0.003625 0.000109 0.019335 -0.008122 0.011640 -0.002501
# 4 0.002823 0.002604 -0.008122 0.037682 -0.005831 -0.004814
# 5 -0.003459 0.003771 0.011640 -0.005831 0.039381 -0.004987
# 6 -0.007175 -0.011115 -0.002501 -0.004814 -0.004987 0.041965
#
#
# Mechanical properties :
#
#
# Convention : Reuss Voigt Hill
#
# Bulk Modulus (GPa) = 26.42671 46.47479 36.45075
# Shear Modulus (GPa) = 26.20025 34.08553 30.14289
#
# Velocity S-wave (km/s) = 3.60260 4.10912 3.86417
# Velocity P-wave (km/s) = 5.51325 6.74798 6.16162
#
# Compressibility (1/GPa) = 0.03784051
#
# Stress axis : x y z
#
# Youngs Moduli (GPa) = 96.01666 53.28057 51.71926
#
# Poissons Ratio (x) = 0.09713 0.18750
# Poissons Ratio (y) = 0.17504 -0.00566
# Poissons Ratio (z) = 0.34810 -0.00583
#
# Static dielectric constant tensor:
#      x y z
#    x 1.757950 0.026370 -0.019760 
#    y 0.026370 1.787730 -0.029570 
#    z -0.019760 -0.029570 1.761500 
# 
# From -- ./inp_files/205575.got.cif
#   From: 2010.05.17/outbox.cif.g08.bks.cpg/sg2_103_cif.got.tgz:205575.got - 2010.06.03 11:33:40.
