data_PCOD9022554
_publ_section_title
;
Structure prediction by ZEFSAII (Michael W. Deem and Ramdas Pophale) SiO2 
 PCOD9022554
Probable space group: P -1
;
_chemical_formula_sum "Si O2"
_cell_formula_units_Z 16
_cell_length_a 8.347025
_cell_length_b 19.564908
_cell_length_c 19.208650
_cell_angle_alpha 158.434378
_cell_angle_beta 41.714364
_cell_angle_gamma 129.597512
_cell_volume 746.254377
_symmetry_space_group_name_H-M "P -1"
_symmetry_group_IT_number 2
_symmetry_cell_setting 'triclinic'
loop_
_space_group_symop_operation_xyz
x,y,z
-x,-y,-z
loop_
_atom_site_type_symbol
_atom_site_label
_atom_site_fract_x
_atom_site_fract_y
_atom_site_fract_z
Si Si1 0.024023 0.390915 0.670192
Si Si2 0.259038 0.083014 0.411682
Si Si3 0.427457 0.574121 0.500229
Si Si4 0.066878 0.951351 0.716980
Si Si5 0.197767 0.066670 0.578242
Si Si6 0.416684 0.807750 0.862077
Si Si7 0.793891 0.103802 0.220568
Si Si8 0.640858 0.775496 0.189202
O O1 0.954556 0.237651 0.495125
O O2 0.120502 0.275124 0.599338
O O3 0.274406 0.450373 0.620419
O O4 0.792682 0.570136 0.921539
O O5 0.248282 0.114416 0.527920
O O6 0.538527 0.028348 0.238882
O O7 0.089698 0.930242 0.312233
O O8 0.344220 0.713286 0.725085
O O9 0.387475 0.363831 0.327741
O O10 0.303517 0.681757 0.574418
O O11 0.100293 0.910714 0.749670
O O12 0.268714 0.056089 0.721466
O O13 0.816602 0.112221 0.938302
O O14 0.292216 0.199130 0.728401
O O15 0.349214 0.847578 0.338411
O O16 0.500000 0.000000 0.000000
O O17 0.000000 0.000000 0.000000
#
# Coordination Sequence:
#
# PCOD9022554 Si02
#       8
#     2   2   2   2   2   2   2   2
#     4  11  23  40  65  97 132 172 225 273 331 408
#     4  10  22  42  67  98 133 172 225 272 336 399
#     4  10  22  39  62  96 127 173 226 267 334 400
#     4  12  22  42  64  97 134 180 219 276 340 388
#     4  10  22  44  69  97 132 177 220 281 338 392
#     4  11  21  38  67  91 129 176 223 274 330 398
#     4  11  23  42  67  98 139 179 219 282 337 397
#     4  11  23  43  69  97 131 175 221 276 340 398
#
# _framework density 21.440411000000001
#
# number of rings (size 3 to 8) (size 9 to 14) (size 15 to 20)
#    0.000    1.250    6.250    0.000    0.000    1.000 
#    0.000    8.125    0.000    0.000    0.000    0.000 
#    0.000    0.000    0.000    0.000    0.000    0.000 
#
# Total GULP energy -89317.624807 kJ/mol
# GULP energy per Si atom -5582.351550 kJ/mol
# Density = 2.139161 g / cm^3
# Si number density = 21.440411 Si / 1000 Ang^3
#
#
#
# Elastic Constant Matrix: (Units=GPa)
#
#
# Indices 1 2 3 4 5 6 
#
# 1 100.9457 42.1796 51.9317 2.5694 -1.0559 -27.8877
# 2 42.1796 109.1340 38.8056 -6.7356 -0.4846 -5.4109
# 3 51.9317 38.8056 153.7630 0.5541 6.4754 1.3234
# 4 2.5694 -6.7356 0.5541 35.5005 -0.3094 -4.7816
# 5 -1.0559 -0.4846 6.4754 -0.3094 21.6571 -6.2392
# 6 -27.8877 -5.4109 1.3234 -4.7816 -6.2392 36.2491
#
#
#
# Elastic Compliance Matrix: (Units=1/GPa)
#
#
# Indices 1 2 3 4 5 6 
#
# 1 0.019080 -0.004545 -0.005723 -0.000018 0.006979 0.015408
# 2 -0.004545 0.011478 -0.001361 0.002338 0.000068 -0.001414
# 3 -0.005723 -0.001361 0.009032 -0.000814 -0.004708 -0.005854
# 4 -0.000018 0.002338 -0.000814 0.029260 0.002031 0.004574
# 5 0.006979 0.000068 -0.004708 0.002031 0.052218 0.014807
# 6 0.015408 -0.001414 -0.005854 0.004574 0.014807 0.042596
#
#
# Mechanical properties :
#
#
# Convention : Reuss Voigt Hill
#
# Bulk Modulus (GPa) = 61.23415 69.96408 65.59912
# Shear Modulus (GPa) = 25.99202 34.07639 30.03421
#
# Velocity S-wave (km/s) = 3.48557 3.99099 3.74682
# Velocity P-wave (km/s) = 6.69486 7.34439 7.02713
#
# Compressibility (1/GPa) = 0.01633076
#
# Stress axis : x y z
#
# Youngs Moduli (GPa) = 52.41016 87.12170 110.72316
#
# Poissons Ratio (x) = 0.39601 0.63372
# Poissons Ratio (y) = 0.23823 0.15067
# Poissons Ratio (z) = 0.29997 0.11855
#
# Static dielectric constant tensor:
#      x y z
#    x 1.814400 0.097560 -0.033110 
#    y 0.097560 2.129100 -0.033430 
#    z -0.033110 -0.033430 1.750920 
# 
# From -- ./inp_files/591685.got.cif
#   From: 2010.05.17/outbox.cif.g08.bks.cpg/sg2_296_cif.got.tgz:591685.got - 2010.06.03 11:33:40.
