data_PCOD9022026
_publ_section_title
;
Structure prediction by ZEFSAII (Michael W. Deem and Ramdas Pophale) SiO2 
 PCOD9022026
Probable space group: P -1
;
_chemical_formula_sum "Si O2"
_cell_formula_units_Z 11
_cell_length_a 9.642761
_cell_length_b 14.095973
_cell_length_c 18.330151
_cell_angle_alpha 161.564171
_cell_angle_beta 35.217253
_cell_angle_gamma 146.630862
_cell_volume 428.993485
_symmetry_space_group_name_H-M "P -1"
_symmetry_group_IT_number 2
_symmetry_cell_setting 'triclinic'
loop_
_space_group_symop_operation_xyz
x,y,z
-x,-y,-z
loop_
_atom_site_type_symbol
_atom_site_label
_atom_site_fract_x
_atom_site_fract_y
_atom_site_fract_z
Si Si1 0.663864 0.168667 0.723173
Si Si2 0.497689 0.051647 0.874020
Si Si3 0.176903 0.104871 0.797399
Si Si4 0.394960 0.278777 0.223115
Si Si5 0.500000 0.500000 0.500000
Si Si6 0.039164 0.152688 0.731092
O O1 0.418646 0.052710 0.692125
O O2 0.554433 0.148992 0.838202
O O3 0.844941 0.968757 0.476097
O O4 0.809992 0.543715 0.925402
O O5 0.297746 0.721329 0.743196
O O6 0.738882 0.926010 0.704564
O O7 0.484853 0.325985 0.134297
O O8 0.182868 0.119653 0.717886
O O9 0.909401 0.840853 0.737149
O O10 0.499926 0.516287 0.417022
O O11 0.500000 0.000000 0.000000
O O12 0.000000 0.500000 0.000000
#
# Coordination Sequence:
#
# PCOD9022026 Si02
#       6
#     2   2   2   2   1   2
#     4  11  27  43  70 103 143 183 222 284 361 396
#     4  11  24  39  69 102 133 176 236 283 331 418
#     4  11  24  47  68 103 141 182 224 290 343 419
#     4  10  22  40  67  99 133 173 234 276 336 403
#     4  10  22  38  68  98 128 178 222 284 334 386
#     4  12  24  41  72 100 137 182 240 284 326 411
#
# _framework density 25.641414999999999
#
# number of rings (size 3 to 8) (size 9 to 14) (size 15 to 20)
#    0.000    1.091    5.455    1.091    7.636    0.727 
#    0.000    0.909    0.000    0.000    0.000    0.000 
#    0.000    0.000    0.000    0.000    0.000    0.000 
#
# Total GULP energy -61248.897017 kJ/mol
# GULP energy per Si atom -5568.081547 kJ/mol
# Density = 2.558305 g / cm^3
# Si number density = 25.641415 Si / 1000 Ang^3
#
#
#
# Elastic Constant Matrix: (Units=GPa)
#
#
# Indices 1 2 3 4 5 6 
#
# 1 176.4382 59.1639 46.6661 -41.7044 48.2463 -6.8279
# 2 59.1639 118.1447 58.5008 -22.9448 20.0750 -10.2570
# 3 46.6661 58.5008 149.9627 -17.9924 31.1524 -8.2991
# 4 -41.7044 -22.9448 -17.9924 47.2189 -16.9418 20.1712
# 5 48.2463 20.0750 31.1524 -16.9418 36.5566 1.6145
# 6 -6.8279 -10.2570 -8.2991 20.1712 1.6145 36.0261
#
#
#
# Elastic Compliance Matrix: (Units=1/GPa)
#
#
# Indices 1 2 3 4 5 6 
#
# 1 0.010402 -0.002893 0.000570 0.004600 -0.010456 -0.000828
# 2 -0.002893 0.012013 -0.003776 0.001946 0.001303 0.000854
# 3 0.000570 -0.003776 0.009487 -0.001421 -0.007525 0.002351
# 4 0.004600 0.001946 -0.001421 0.039782 0.013469 -0.021779
# 5 -0.010456 0.001303 -0.007525 0.013469 0.053681 -0.013291
# 6 -0.000828 0.000854 0.002351 -0.021779 -0.013291 0.041175
#
#
# Mechanical properties :
#
#
# Convention : Reuss Voigt Hill
#
# Bulk Modulus (GPa) = 50.75146 85.91191 68.33169
# Shear Modulus (GPa) = 26.98250 42.64133 34.81191
#
# Velocity S-wave (km/s) = 3.24744 4.08240 3.68862
# Velocity P-wave (km/s) = 5.82210 7.46988 6.69687
#
# Compressibility (1/GPa) = 0.01970387
#
# Stress axis : x y z
#
# Youngs Moduli (GPa) = 96.13989 83.24045 105.40783
#
# Poissons Ratio (x) = 0.24079 -0.06007
# Poissons Ratio (y) = 0.27811 0.39803
# Poissons Ratio (z) = -0.05479 0.31433
#
# Static dielectric constant tensor:
#      x y z
#    x 2.017790 0.017630 0.055400 
#    y 0.017630 2.342990 0.224460 
#    z 0.055400 0.224460 2.212480 
# 
# From -- ./inp_files/560999.got.cif
#   From: 2010.05.17/outbox.cif.g08.bks.cpg/sg2_281_cif.got.tgz:560999.got - 2010.06.03 11:33:40.
