data_PCOD9022613
_publ_section_title
;
Structure prediction by ZEFSAII (Michael W. Deem and Ramdas Pophale) SiO2 
 PCOD9022613
Probable space group: P -1
;
_chemical_formula_sum "Si O2"
_cell_formula_units_Z 16
_cell_length_a 9.129033
_cell_length_b 14.965669
_cell_length_c 14.539214
_cell_angle_alpha 43.202021
_cell_angle_beta 147.523042
_cell_angle_gamma 140.049103
_cell_volume 665.133939
_symmetry_space_group_name_H-M "P -1"
_symmetry_group_IT_number 2
_symmetry_cell_setting 'triclinic'
loop_
_space_group_symop_operation_xyz
x,y,z
-x,-y,-z
loop_
_atom_site_type_symbol
_atom_site_label
_atom_site_fract_x
_atom_site_fract_y
_atom_site_fract_z
Si Si1 0.626560 0.074828 0.662935
Si Si2 0.502862 0.177732 0.690998
Si Si3 0.138694 0.350670 0.961467
Si Si4 0.530213 0.829634 0.666448
Si Si5 0.120936 0.614877 0.863983
Si Si6 0.904581 0.731392 0.489568
Si Si7 0.751314 0.648583 0.192486
Si Si8 0.517329 0.454590 0.378283
O O1 0.470852 0.053599 0.695742
O O2 0.412943 0.107486 0.452563
O O3 0.944737 0.210228 0.740228
O O4 0.670188 0.943731 0.737025
O O5 0.247033 0.164581 0.637340
O O6 0.537784 0.316423 0.540301
O O7 0.812163 0.222384 0.874805
O O8 0.097833 0.471668 0.907853
O O9 0.244067 0.395649 0.878328
O O10 0.361877 0.293723 0.168974
O O11 0.174745 0.783256 0.522714
O O12 0.060849 0.704340 0.683165
O O13 0.831705 0.581957 0.799030
O O14 0.459291 0.682768 0.028607
O O15 0.650411 0.584437 0.425340
O O16 0.704875 0.521739 0.335348
#
# Coordination Sequence:
#
# PCOD9022613 Si02
#       8
#     2   2   2   2   2   2   2   2
#     4  10  25  43  61  86 116 158 208 251 292 352
#     4  10  22  39  63  91 123 156 199 238 300 358
#     4  11  22  38  61  92 122 153 199 248 295 353
#     4  11  24  43  65  82 118 160 206 251 298 339
#     4  11  21  38  58  95 125 156 191 240 307 361
#     4  11  20  41  64  87 122 166 189 240 303 361
#     4  11  23  35  60  91 122 155 200 240 298 350
#     4  11  21  38  61  90 130 159 188 240 301 366
#
# _framework density 24.055306000000002
#
# number of rings (size 3 to 8) (size 9 to 14) (size 15 to 20)
#    0.000    1.250    5.000    1.500    1.750    4.500 
#    0.000    0.000    0.000    2.250    0.000    0.000 
#    0.000    0.000    0.000    0.000    0.000    0.000 
#
# Total GULP energy -89495.195317 kJ/mol
# GULP energy per Si atom -5593.449707 kJ/mol
# Density = 2.400055 g / cm^3
# Si number density = 24.055306 Si / 1000 Ang^3
#
#
#
# Elastic Constant Matrix: (Units=GPa)
#
#
# Indices 1 2 3 4 5 6 
#
# 1 62.1125 -1.8695 19.4479 11.6763 19.7896 -2.0122
# 2 -1.8695 66.4213 13.4171 14.0331 12.9787 -18.4378
# 3 19.4479 13.4171 81.8000 15.7861 29.5026 3.2150
# 4 11.6763 14.0331 15.7861 18.1004 2.7452 -5.2708
# 5 19.7896 12.9787 29.5026 2.7452 33.9439 0.7581
# 6 -2.0122 -18.4378 3.2150 -5.2708 0.7581 28.3998
#
#
#
# Elastic Compliance Matrix: (Units=1/GPa)
#
#
# Indices 1 2 3 4 5 6 
#
# 1 0.026581 0.010360 0.004170 -0.024384 -0.021204 0.004178
# 2 0.010360 0.027058 0.003674 -0.024100 -0.017941 0.013891
# 3 0.004170 0.003674 0.023303 -0.023602 -0.022097 -0.003748
# 4 -0.024384 -0.024100 -0.023602 0.106072 0.035275 0.004043
# 5 -0.021204 -0.017941 -0.022097 0.035275 0.065166 -0.005841
# 6 0.004178 0.013891 -0.003748 0.004043 -0.005841 0.045856
#
#
# Mechanical properties :
#
#
# Convention : Reuss Voigt Hill
#
# Bulk Modulus (GPa) = 8.82214 30.25832 19.54023
# Shear Modulus (GPa) = 16.92559 28.04470 22.48514
#
# Velocity S-wave (km/s) = 2.65545 3.41815 3.06065
# Velocity P-wave (km/s) = 3.61625 5.30889 4.54211
#
# Compressibility (1/GPa) = 0.11335115
#
# Stress axis : x y z
#
# Youngs Moduli (GPa) = 37.62100 36.95758 42.91348
#
# Poissons Ratio (x) = -0.38290 -0.17895
# Poissons Ratio (y) = -0.38977 -0.15767
# Poissons Ratio (z) = -0.15688 -0.13579
#
# Static dielectric constant tensor:
#      x y z
#    x 2.003620 0.037530 0.015080 
#    y 0.037530 1.956670 0.030670 
#    z 0.015080 0.030670 1.896270 
# 
# From -- ./inp_files/180739.got.cif
#   From: 2010.05.17/outbox.cif.g08.bks.cpg/sg2_91_cif.got.tgz:180739.got - 2010.06.03 11:33:40.
