data_PCOD9022130
_publ_section_title
;
Structure prediction by ZEFSAII (Michael W. Deem and Ramdas Pophale) SiO2 
 PCOD9022130
Probable space group: P -1
;
_chemical_formula_sum "Si O2"
_cell_formula_units_Z 16
_cell_length_a 7.455588
_cell_length_b 11.478768
_cell_length_c 9.952409
_cell_angle_alpha 126.654660
_cell_angle_beta 78.238469
_cell_angle_gamma 108.054466
_cell_volume 649.462304
_symmetry_space_group_name_H-M "P -1"
_symmetry_group_IT_number 2
_symmetry_cell_setting 'triclinic'
loop_
_space_group_symop_operation_xyz
x,y,z
-x,-y,-z
loop_
_atom_site_type_symbol
_atom_site_label
_atom_site_fract_x
_atom_site_fract_y
_atom_site_fract_z
Si Si1 0.030944 0.246851 0.488914
Si Si2 0.893837 0.828280 0.866724
Si Si3 0.544384 0.656351 0.432216
Si Si4 0.514911 0.200049 0.214901
Si Si5 0.810395 0.521663 0.188603
Si Si6 0.966375 0.721115 0.065356
Si Si7 0.669680 0.111381 0.867673
Si Si8 0.362517 0.840931 0.386856
O O1 0.847612 0.153946 0.529545
O O2 0.013480 0.227329 0.318366
O O3 0.243457 0.237131 0.494930
O O4 0.051244 0.412299 0.662678
O O5 0.680239 0.815522 0.844991
O O6 0.887628 0.734009 0.939096
O O7 0.000000 0.000000 0.000000
O O8 0.440952 0.662764 0.593690
O O9 0.600697 0.507352 0.268051
O O10 0.430197 0.719803 0.382085
O O11 0.473396 0.050104 0.209532
O O12 0.659620 0.181799 0.065476
O O13 0.888655 0.387444 0.029962
O O14 0.829482 0.648019 0.155430
O O15 0.108024 0.882921 0.183802
O O16 0.618603 0.187809 0.793788
O O17 0.500000 0.000000 0.500000
#
# Coordination Sequence:
#
# PCOD9022130 Si02
#       8
#     2   2   2   2   2   2   2   2
#     4   9  23  42  59  89 128 159 208 261 300 375
#     4  11  23  37  64  94 119 165 203 250 328 377
#     4   9  21  42  59  84 126 162 206 255 299 374
#     4  10  22  39  56  90 131 152 199 264 311 382
#     4   9  22  45  61  85 127 168 215 257 296 366
#     4  11  22  40  67  87 123 170 205 260 315 358
#     4  11  22  38  58  92 128 156 203 260 317 365
#     4  12  23  35  64  94 120 167 204 253 322 363
#
# _framework density 24.635760999999999
#
# number of rings (size 3 to 8) (size 9 to 14) (size 15 to 20)
#    0.750    1.000    3.750    0.000    5.250    1.000 
#    0.000    2.500    0.000    0.000    0.000    0.000 
#    0.000    0.000    0.000    0.000    0.000    0.000 
#
# Total GULP energy -89226.302164 kJ/mol
# GULP energy per Si atom -5576.643885 kJ/mol
# Density = 2.457969 g / cm^3
# Si number density = 24.635761 Si / 1000 Ang^3
#
#
#
# Elastic Constant Matrix: (Units=GPa)
#
#
# Indices 1 2 3 4 5 6 
#
# 1 55.3846 16.2760 8.8368 -20.3189 4.2323 -4.1859
# 2 16.2760 70.8635 35.5095 -41.5312 1.8460 -1.5976
# 3 8.8368 35.5095 142.3861 -29.4383 3.8508 -19.6831
# 4 -20.3189 -41.5312 -29.4383 51.2061 -2.2318 10.0498
# 5 4.2323 1.8460 3.8508 -2.2318 39.8959 -8.8314
# 6 -4.1859 -1.5976 -19.6831 10.0498 -8.8314 34.4764
#
#
#
# Elastic Compliance Matrix: (Units=1/GPa)
#
#
# Indices 1 2 3 4 5 6 
#
# 1 0.021293 -0.000018 0.000508 0.008671 -0.001850 -0.000127
# 2 -0.000018 0.029392 -0.003563 0.023255 -0.001445 -0.007824
# 3 0.000508 -0.003563 0.008813 0.001494 0.000359 0.004585
# 4 0.008671 0.023255 0.001494 0.044674 -0.001975 -0.010545
# 5 -0.001850 -0.001445 0.000359 -0.001975 0.026812 0.007357
# 6 -0.000127 -0.007824 0.004585 -0.010545 0.007357 0.036203
#
#
# Mechanical properties :
#
#
# Convention : Reuss Voigt Hill
#
# Bulk Modulus (GPa) = 18.74364 43.31987 31.03175
# Shear Modulus (GPa) = 26.16204 38.98314 32.57259
#
# Velocity S-wave (km/s) = 3.26230 3.98223 3.64011
# Velocity P-wave (km/s) = 4.67065 6.22628 5.50370
#
# Compressibility (1/GPa) = 0.05335143
#
# Stress axis : x y z
#
# Youngs Moduli (GPa) = 46.96467 34.02285 113.46563
#
# Poissons Ratio (x) = 0.00062 -0.05767
# Poissons Ratio (y) = 0.00085 0.40431
# Poissons Ratio (z) = -0.02387 0.12123
#
# Static dielectric constant tensor:
#      x y z
#    x 1.962250 -0.005850 -0.041340 
#    y -0.005850 2.053500 0.064190 
#    z -0.041340 0.064190 2.017090 
# 
# From -- ./inp_files/189264.got.cif
#   From: 2010.05.17/outbox.cif.g08.bks.cpg/sg2_95_cif.got.tgz:189264.got - 2010.06.03 11:33:40.
