data_PCOD9022034
_publ_section_title
;
Structure prediction by ZEFSAII (Michael W. Deem and Ramdas Pophale) SiO2 
 PCOD9022034
Probable space group: P -1
;
_chemical_formula_sum "Si O2"
_cell_formula_units_Z 15
_cell_length_a 11.330438
_cell_length_b 9.307660
_cell_length_c 10.970256
_cell_angle_alpha 88.248428
_cell_angle_beta 140.848907
_cell_angle_gamma 67.010419
_cell_volume 550.766869
_symmetry_space_group_name_H-M "P -1"
_symmetry_group_IT_number 2
_symmetry_cell_setting 'triclinic'
loop_
_space_group_symop_operation_xyz
x,y,z
-x,-y,-z
loop_
_atom_site_type_symbol
_atom_site_label
_atom_site_fract_x
_atom_site_fract_y
_atom_site_fract_z
Si Si1 0.181218 0.585618 0.426246
Si Si2 0.431059 0.323760 0.040121
Si Si3 0.066250 0.534857 0.924962
Si Si4 0.106174 0.717263 0.625704
Si Si5 0.432993 0.833359 0.170723
Si Si6 0.283362 0.072304 0.477712
Si Si7 0.888127 0.098723 0.775389
Si Si8 0.500000 0.000000 0.000000
O O1 0.040846 0.716119 0.432264
O O2 0.434051 0.381061 0.678144
O O3 0.198658 0.696370 0.331992
O O4 0.033215 0.527240 0.253913
O O5 0.343840 0.418746 0.103239
O O6 0.248158 0.508141 0.801180
O O7 0.702100 0.249236 0.230031
O O8 0.440319 0.147502 0.055839
O O9 0.906353 0.756693 0.772700
O O10 0.000000 0.500000 0.000000
O O11 0.882026 0.860656 0.533507
O O12 0.498675 0.923601 0.321282
O O13 0.537100 0.847089 0.129835
O O14 0.145749 0.955269 0.911969
O O15 0.318897 0.903102 0.444337
O O16 0.000000 0.000000 0.000000
#
# Coordination Sequence:
#
# PCOD9022034 Si02
#       8
#     2   2   2   2   2   2   2   1
#     4  11  25  47  73 106 143 189 240 302 366 436
#     4  10  22  38  69 100 146 187 228 308 364 425
#     4  10  22  43  67  99 142 192 242 291 360 438
#     4  10  22  43  66 109 140 178 244 292 375 430
#     4  11  27  46  72 110 146 193 235 304 376 423
#     4  10  25  44  72 103 146 187 240 307 355 446
#     4  12  28  51  72 106 148 193 252 301 356 438
#     4  12  22  40  72 106 144 180 234 300 366 438
#
# _framework density 27.234753000000001
#
# number of rings (size 3 to 8) (size 9 to 14) (size 15 to 20)
#    0.000    1.333    1.333    2.400    9.333    3.200 
#    4.800    0.000    0.000    0.000    0.000    0.000 
#    0.000    0.000    0.000    0.000    0.000    0.000 
#
# Total GULP energy -83797.149811 kJ/mol
# GULP energy per Si atom -5586.476654 kJ/mol
# Density = 2.717277 g / cm^3
# Si number density = 27.234753 Si / 1000 Ang^3
#
#
#
# Elastic Constant Matrix: (Units=GPa)
#
#
# Indices 1 2 3 4 5 6 
#
# 1 92.9589 6.7014 29.7869 -17.2485 -14.7304 8.5787
# 2 6.7014 134.7407 26.9711 -7.4693 -8.0967 37.1772
# 3 29.7869 26.9711 98.9991 -16.5619 -24.6021 12.6317
# 4 -17.2485 -7.4693 -16.5619 56.1390 17.3114 -17.4512
# 5 -14.7304 -8.0967 -24.6021 17.3114 34.9116 -7.6384
# 6 8.5787 37.1772 12.6317 -17.4512 -7.6384 28.3068
#
#
#
# Elastic Compliance Matrix: (Units=1/GPa)
#
#
# Indices 1 2 3 4 5 6 
#
# 1 0.012468 0.000615 -0.002882 0.001944 0.002071 -0.001542
# 2 0.000615 0.012737 -0.002034 -0.004544 -0.000087 -0.018832
# 3 -0.002882 -0.002034 0.013498 0.000441 0.007570 -0.000164
# 4 0.001944 -0.004544 0.000441 0.026664 -0.008942 0.019207
# 5 0.002071 -0.000087 0.007570 -0.008942 0.039543 0.001267
# 6 -0.001542 -0.018832 -0.000164 0.019207 0.001267 0.072784
#
#
# Mechanical properties :
#
#
# Convention : Reuss Voigt Hill
#
# Bulk Modulus (GPa) = 33.22253 50.40195 41.81224
# Shear Modulus (GPa) = 25.46731 41.42078 33.44405
#
# Velocity S-wave (km/s) = 3.06126 3.90408 3.50807
# Velocity P-wave (km/s) = 4.97194 6.23451 5.63867
#
# Compressibility (1/GPa) = 0.03010005
#
# Stress axis : x y z
#
# Youngs Moduli (GPa) = 80.20624 78.51074 74.08350
#
# Poissons Ratio (x) = -0.04825 0.21352
# Poissons Ratio (y) = -0.04929 0.15068
# Poissons Ratio (z) = 0.23117 0.15969
#
# Static dielectric constant tensor:
#      x y z
#    x 2.175180 0.005290 0.016560 
#    y 0.005290 2.009630 0.135280 
#    z 0.016560 0.135280 2.197370 
# 
# From -- ./inp_files/417232.got.cif
#   From: 2010.05.17/outbox.cif.g08.bks.cpg/sg2_209_cif.got.tgz:417232.got - 2010.06.03 11:33:40.
