data_PCOD9022376
_publ_section_title
;
Structure prediction by ZEFSAII (Michael W. Deem and Ramdas Pophale) SiO2 
 PCOD9022376
Probable space group: P -1
;
_chemical_formula_sum "Si O2"
_cell_formula_units_Z 14
_cell_length_a 14.354419
_cell_length_b 9.354702
_cell_length_c 12.804768
_cell_angle_alpha 104.197557
_cell_angle_beta 150.639974
_cell_angle_gamma 56.407913
_cell_volume 571.982015
_symmetry_space_group_name_H-M "P -1"
_symmetry_group_IT_number 2
_symmetry_cell_setting 'triclinic'
loop_
_space_group_symop_operation_xyz
x,y,z
-x,-y,-z
loop_
_atom_site_type_symbol
_atom_site_label
_atom_site_fract_x
_atom_site_fract_y
_atom_site_fract_z
Si Si1 0.194616 0.368120 0.766922
Si Si2 0.683205 0.660576 0.594101
Si Si3 0.765235 0.817727 0.519928
Si Si4 0.310826 0.998200 0.929846
Si Si5 0.179842 0.877487 0.405912
Si Si6 0.248183 0.400058 0.110052
Si Si7 0.192987 0.757997 0.169748
O O1 0.000000 0.500000 0.500000
O O2 0.037588 0.569669 0.723560
O O3 0.203018 0.198603 0.794259
O O4 0.504358 0.210170 0.000764
O O5 0.631948 0.823157 0.494822
O O6 0.656796 0.705653 0.700347
O O7 0.468080 0.652995 0.361658
O O8 0.994752 0.439185 0.842613
O O9 0.870472 0.926193 0.643866
O O10 0.532233 0.927395 0.222102
O O11 0.058658 0.052207 0.743675
O O12 0.486155 0.726797 0.722725
O O13 0.215198 0.756487 0.316263
O O14 0.122956 0.632008 0.047753
O O15 0.000000 0.000000 0.000000
#
# Coordination Sequence:
#
# PCOD9022376 Si02
#       7
#     2   2   2   2   2   2   2
#     4   9  22  46  70  98 126 167 213 259 347 390
#     4  10  22  39  61  90 134 174 216 269 309 374
#     4  11  24  39  68 101 126 172 220 264 321 389
#     4  10  23  46  70  93 134 167 206 279 324 392
#     4  11  24  39  63 100 127 167 226 261 320 381
#     4  10  24  39  60  92 134 180 218 263 317 375
#     4  11  23  39  59  91 132 177 223 261 317 378
#
# _framework density 24.476292999999998
#
# number of rings (size 3 to 8) (size 9 to 14) (size 15 to 20)
#    0.000    1.714    0.000    3.429    6.000    9.143 
#    2.571    6.429    0.000    0.000    0.000    0.000 
#    0.000    0.000    0.000    0.000    0.000    0.000 
#
# Total GULP energy -78189.077423 kJ/mol
# GULP energy per Si atom -5584.934102 kJ/mol
# Density = 2.442058 g / cm^3
# Si number density = 24.476293 Si / 1000 Ang^3
#
#
#
# Elastic Constant Matrix: (Units=GPa)
#
#
# Indices 1 2 3 4 5 6 
#
# 1 152.4901 51.4129 60.2628 -2.7541 28.7369 25.6942
# 2 51.4129 127.0855 48.6157 -30.0091 14.3100 26.5007
# 3 60.2628 48.6157 137.7358 -22.2708 28.0896 16.4057
# 4 -2.7541 -30.0091 -22.2708 41.1700 7.0128 -4.5041
# 5 28.7369 14.3100 28.0896 7.0128 63.9241 -5.6981
# 6 25.6942 26.5007 16.4057 -4.5041 -5.6981 41.7129
#
#
#
# Elastic Compliance Matrix: (Units=1/GPa)
#
#
# Indices 1 2 3 4 5 6 
#
# 1 0.009537 -0.002260 -0.002763 -0.002488 -0.002650 -0.003983
# 2 -0.002260 0.012631 -0.000819 0.008473 -0.002897 -0.005791
# 3 -0.002763 -0.000819 0.010704 0.005486 -0.004054 -0.001949
# 4 -0.002488 0.008473 0.005486 0.034136 -0.007229 -0.003309
# 5 -0.002650 -0.002897 -0.004054 -0.007229 0.020692 0.007113
# 6 -0.003983 -0.005791 -0.001949 -0.003309 0.007113 0.031487
#
#
# Mechanical properties :
#
#
# Convention : Reuss Voigt Hill
#
# Bulk Modulus (GPa) = 47.19443 81.98826 64.59135
# Shear Modulus (GPa) = 36.24979 46.49608 41.37293
#
# Velocity S-wave (km/s) = 3.85257 4.36321 4.11582
# Velocity P-wave (km/s) = 6.25406 7.67810 7.00238
#
# Compressibility (1/GPa) = 0.02118894
#
# Stress axis : x y z
#
# Youngs Moduli (GPa) = 104.85471 79.17168 93.42367
#
# Poissons Ratio (x) = 0.17894 0.25809
# Poissons Ratio (y) = 0.23699 0.07649
# Poissons Ratio (z) = 0.28966 0.06482
#
# Static dielectric constant tensor:
#      x y z
#    x 2.024340 -0.083870 -0.077760 
#    y -0.083870 1.969780 -0.032460 
#    z -0.077760 -0.032460 2.035140 
# 
# From -- ./inp_files/528750.got.cif
#   From: 2010.05.17/outbox.cif.g08.bks.cpg/sg2_265_cif.got.tgz:528750.got - 2010.06.03 11:33:40.
