data_PCOD9022528
_publ_section_title
;
Structure prediction by ZEFSAII (Michael W. Deem and Ramdas Pophale) SiO2 
 PCOD9022528
Probable space group: P -1
;
_chemical_formula_sum "Si O2"
_cell_formula_units_Z 16
_cell_length_a 14.689037
_cell_length_b 14.734595
_cell_length_c 7.244947
_cell_angle_alpha 75.392765
_cell_angle_beta 73.828262
_cell_angle_gamma 23.018151
_cell_volume 588.855127
_symmetry_space_group_name_H-M "P -1"
_symmetry_group_IT_number 2
_symmetry_cell_setting 'triclinic'
loop_
_space_group_symop_operation_xyz
x,y,z
-x,-y,-z
loop_
_atom_site_type_symbol
_atom_site_label
_atom_site_fract_x
_atom_site_fract_y
_atom_site_fract_z
Si Si1 0.243587 0.852382 0.571029
Si Si2 0.575188 0.515814 0.242497
Si Si3 0.334830 0.958200 0.699822
Si Si4 0.806485 0.441941 0.742437
Si Si5 0.900693 0.364966 0.285136
Si Si6 0.648245 0.930625 0.704839
Si Si7 0.764218 0.663014 0.990845
Si Si8 0.175974 0.793007 0.148783
O O1 0.390425 0.739326 0.362419
O O2 0.376797 0.637948 0.669080
O O3 0.279282 0.911985 0.645112
O O4 0.966535 0.083509 0.639393
O O5 0.823913 0.336564 0.250780
O O6 0.396260 0.661722 0.100217
O O7 0.572608 0.710848 0.798456
O O8 0.397402 0.985892 0.512083
O O9 0.070708 0.226822 0.779369
O O10 0.815437 0.444868 0.508917
O O11 0.780894 0.354844 0.846383
O O12 0.789530 0.533698 0.108504
O O13 0.162847 0.167360 0.263108
O O14 0.426087 0.133814 0.855719
O O15 0.727035 0.751075 0.771910
O O16 0.000000 0.500000 0.000000
O O17 0.000000 0.000000 0.000000
#
# Coordination Sequence:
#
# PCOD9022528 Si02
#       8
#     2   2   2   2   2   2   2   2
#     4  10  20  34  54  77 102 145 186 236 265 339
#     4  11  19  34  54  78 104 143 197 223 283 321
#     4  10  17  31  51  74 106 138 183 224 266 330
#     4  10  18  33  50  75  99 143 179 228 269 325
#     4  10  18  29  49  72 105 140 183 226 265 332
#     4   9  17  26  43  70 106 140 170 216 278 328
#     4   9  16  27  42  69 106 142 165 211 277 334
#     4  11  24  37  51  75 111 150 188 237 283 325
#
# _framework density 27.17137
#
# number of rings (size 3 to 8) (size 9 to 14) (size 15 to 20)
#    0.000    2.000    3.750    1.125    0.000    3.500 
#    0.000    0.000    0.000    0.000    0.000    0.000 
#    0.000   26.000    0.000   36.125    0.000    4.875 
#
# Total GULP energy -89179.555673 kJ/mol
# GULP energy per Si atom -5573.722230 kJ/mol
# Density = 2.710953 g / cm^3
# Si number density = 27.171370 Si / 1000 Ang^3
#
#
#
# Elastic Constant Matrix: (Units=GPa)
#
#
# Indices 1 2 3 4 5 6 
#
# 1 105.3954 23.3319 36.6445 -15.1346 -17.9156 -17.7901
# 2 23.3319 157.7762 55.9433 -10.2478 -7.0217 -31.3036
# 3 36.6445 55.9433 103.9434 -27.2486 -23.2552 -11.2326
# 4 -15.1346 -10.2478 -27.2486 68.2562 3.3974 -19.8660
# 5 -17.9156 -7.0217 -23.2552 3.3974 46.9467 -6.0174
# 6 -17.7901 -31.3036 -11.2326 -19.8660 -6.0174 45.1072
#
#
#
# Elastic Compliance Matrix: (Units=1/GPa)
#
#
# Indices 1 2 3 4 5 6 
#
# 1 0.012623 0.000774 -0.001965 0.004064 0.004618 0.007432
# 2 0.000774 0.009010 -0.003837 0.001856 0.000438 0.006478
# 3 -0.001965 -0.003837 0.015957 0.006241 0.006664 0.004173
# 4 0.004064 0.001856 0.006241 0.022434 0.005222 0.015022
# 5 0.004618 0.000438 0.006664 0.005222 0.027298 0.009726
# 6 0.007432 0.006478 0.004173 0.015022 0.009726 0.038549
#
#
# Mechanical properties :
#
#
# Convention : Reuss Voigt Hill
#
# Bulk Modulus (GPa) = 36.32036 66.55047 51.43541
# Shear Modulus (GPa) = 34.45784 48.80837 41.63310
#
# Velocity S-wave (km/s) = 3.56500 4.24289 3.91863
# Velocity P-wave (km/s) = 5.50834 6.96770 6.28055
#
# Compressibility (1/GPa) = 0.02753277
#
# Stress axis : x y z
#
# Youngs Moduli (GPa) = 79.22007 110.99312 62.67017
#
# Poissons Ratio (x) = -0.08593 0.12315
# Poissons Ratio (y) = -0.06133 0.24048
# Poissons Ratio (z) = 0.15567 0.42591
#
# Static dielectric constant tensor:
#      x y z
#    x 2.295790 -0.575090 0.361520 
#    y -0.575090 4.171890 -0.812250 
#    z 0.361520 -0.812250 2.778340 
# 
# From -- ./inp_files/336730.got.cif
#   From: 2010.05.17/outbox.cif.g08.bks.cpg/sg2_169_cif.got.tgz:336730.got - 2010.06.03 11:33:40.
