data_PCOD9022979
_publ_section_title
;
Structure prediction by ZEFSAII (Michael W. Deem and Ramdas Pophale) SiO2 
 PCOD9022979
Probable space group: P -1
;
_chemical_formula_sum "Si O2"
_cell_formula_units_Z 14
_cell_length_a 16.042664
_cell_length_b 7.889838
_cell_length_c 14.317627
_cell_angle_alpha 120.162307
_cell_angle_beta 153.095848
_cell_angle_gamma 77.601215
_cell_volume 569.082611
_symmetry_space_group_name_H-M "P -1"
_symmetry_group_IT_number 2
_symmetry_cell_setting 'triclinic'
loop_
_space_group_symop_operation_xyz
x,y,z
-x,-y,-z
loop_
_atom_site_type_symbol
_atom_site_label
_atom_site_fract_x
_atom_site_fract_y
_atom_site_fract_z
Si Si1 0.490987 0.318794 0.588819
Si Si2 0.357211 0.944735 0.199685
Si Si3 0.182386 0.388624 0.405771
Si Si4 0.108437 0.172810 0.807632
Si Si5 0.331396 0.908587 0.626239
Si Si6 0.348778 0.625837 0.817990
Si Si7 0.963749 0.703169 0.436757
O O1 0.581648 0.204163 0.715998
O O2 0.255608 0.260248 0.375524
O O3 0.462345 0.200704 0.427483
O O4 0.672241 0.610184 0.859383
O O5 0.476293 0.987717 0.231552
O O6 0.083138 0.793247 0.881776
O O7 0.236884 0.634145 0.481306
O O8 0.351877 0.492325 0.693713
O O9 0.081251 0.259824 0.703203
O O10 0.884264 0.095114 0.619716
O O11 0.100648 0.944205 0.704928
O O12 0.441161 0.096403 0.875557
O O13 0.277318 0.473353 0.799547
O O14 0.122972 0.614808 0.569388
#
# Coordination Sequence:
#
# PCOD9022979 Si02
#       7
#     2   2   2   2   2   2   2
#     4  11  25  47  73  94 135 181 225 281 333 388
#     4  11  26  50  67  99 135 176 231 279 329 398
#     4  12  25  46  70 102 135 175 226 280 330 402
#     4  11  23  41  64 105 134 175 225 271 331 406
#     4  12  25  42  70  99 143 174 218 281 333 399
#     4  11  22  40  64 100 133 178 215 273 337 399
#     4  10  22  39  65  94 144 171 220 271 332 400
#
# _framework density 24.600997
#
# number of rings (size 3 to 8) (size 9 to 14) (size 15 to 20)
#    0.000    0.857    2.857    4.286    6.000    1.714 
#    0.000    0.000    0.000    0.000    0.000    0.000 
#    0.000    0.000    0.000    0.000    0.000    0.000 
#
# Total GULP energy -78491.225211 kJ/mol
# GULP energy per Si atom -5606.516086 kJ/mol
# Density = 2.454500 g / cm^3
# Si number density = 24.600997 Si / 1000 Ang^3
#
#
#
# Elastic Constant Matrix: (Units=GPa)
#
#
# Indices 1 2 3 4 5 6 
#
# 1 89.3254 10.8091 36.9648 9.4210 -1.3139 -14.5804
# 2 10.8091 40.9338 13.1837 5.6944 -16.7814 -14.6252
# 3 36.9648 13.1837 131.7246 18.1847 -5.0808 -12.9576
# 4 9.4210 5.6944 18.1847 33.9708 -13.9270 -9.1271
# 5 -1.3139 -16.7814 -5.0808 -13.9270 40.5495 5.1249
# 6 -14.5804 -14.6252 -12.9576 -9.1271 5.1249 33.5286
#
#
#
# Elastic Compliance Matrix: (Units=1/GPa)
#
#
# Indices 1 2 3 4 5 6 
#
# 1 0.013419 -0.001660 -0.003093 -0.001434 -0.001609 0.003772
# 2 -0.001660 0.035388 -0.001917 0.004988 0.014405 0.013130
# 3 -0.003093 -0.001917 0.009219 -0.004135 -0.001215 0.000441
# 4 -0.001434 0.004988 -0.004135 0.039188 0.013885 0.008500
# 5 -0.001609 0.014405 -0.001215 0.013885 0.034734 0.003585
# 6 0.003772 0.013130 0.000441 0.008500 0.003585 0.039129
#
#
# Mechanical properties :
#
#
# Convention : Reuss Voigt Hill
#
# Bulk Modulus (GPa) = 22.37831 42.65546 32.51689
# Shear Modulus (GPa) = 25.08625 35.01154 30.04890
#
# Velocity S-wave (km/s) = 3.19678 3.77659 3.49872
# Velocity P-wave (km/s) = 4.76887 6.03270 5.43763
#
# Compressibility (1/GPa) = 0.04468612
#
# Stress axis : x y z
#
# Youngs Moduli (GPa) = 74.52188 28.25793 108.47411
#
# Poissons Ratio (x) = 0.04690 0.33547
# Poissons Ratio (y) = 0.12369 0.20800
# Poissons Ratio (z) = 0.23047 0.05418
#
# Static dielectric constant tensor:
#      x y z
#    x 1.943630 0.041960 0.031490 
#    y 0.041960 1.987720 0.001470 
#    z 0.031490 0.001470 1.916140 
# 
# From -- ./inp_files/236536.got.cif
#   From: 2010.05.17/outbox.cif.g08.bks.cpg/sg2_119_cif.got.tgz:236536.got - 2010.06.03 11:33:40.
