data_PCOD9022382
_publ_section_title
;
Structure prediction by ZEFSAII (Michael W. Deem and Ramdas Pophale) SiO2 
 PCOD9022382
Probable space group: P -1
;
_chemical_formula_sum "Si O2"
_cell_formula_units_Z 16
_cell_length_a 7.728960
_cell_length_b 16.859869
_cell_length_c 13.662057
_cell_angle_alpha 29.174069
_cell_angle_beta 117.157090
_cell_angle_gamma 100.682124
_cell_volume 672.461794
_symmetry_space_group_name_H-M "P -1"
_symmetry_group_IT_number 2
_symmetry_cell_setting 'triclinic'
loop_
_space_group_symop_operation_xyz
x,y,z
-x,-y,-z
loop_
_atom_site_type_symbol
_atom_site_label
_atom_site_fract_x
_atom_site_fract_y
_atom_site_fract_z
Si Si1 0.400779 0.045031 0.317732
Si Si2 0.784058 0.755689 0.258119
Si Si3 0.659025 0.664907 0.676179
Si Si4 0.253265 0.666415 0.233852
Si Si5 0.976010 0.096960 0.243618
Si Si6 0.409775 0.824594 0.250432
Si Si7 0.157699 0.408973 0.759405
Si Si8 0.063996 0.706965 0.773965
O O1 0.163320 0.058472 0.254172
O O2 0.500000 0.000000 0.500000
O O3 0.544082 0.866208 0.481353
O O4 0.354715 0.246699 0.049221
O O5 0.606691 0.787604 0.263272
O O6 0.775929 0.648845 0.273444
O O7 0.040337 0.633596 0.495076
O O8 0.706296 0.962077 0.977145
O O9 0.528830 0.685894 0.520350
O O10 0.906382 0.639385 0.752721
O O11 0.701585 0.485278 0.944839
O O12 0.500000 0.500000 0.500000
O O13 0.222640 0.802007 0.169168
O O14 0.064707 0.606032 0.254072
O O15 0.244530 0.768271 0.019530
O O16 0.994025 0.212699 0.215616
O O17 0.023857 0.894133 0.507793
#
# Coordination Sequence:
#
# PCOD9022382 Si02
#       8
#     2   2   2   2   2   2   2   2
#     4  11  22  42  64  89 123 164 206 255 309 363
#     4  10  22  39  61  91 124 156 208 253 302 371
#     4  11  23  41  65  91 123 163 208 257 309 366
#     4  11  22  39  63  90 128 166 200 249 313 369
#     4  10  23  42  63  90 123 164 208 253 306 369
#     4  11  23  39  63  93 125 163 203 253 313 366
#     4  10  22  41  62  90 125 161 207 252 306 370
#     4  10  23  41  64  90 122 160 212 258 302 363
#
# _framework density 23.793175000000002
#
# number of rings (size 3 to 8) (size 9 to 14) (size 15 to 20)
#    0.000    1.500    3.750    0.750    5.250    1.000 
#    0.000    1.250    0.000    0.000    0.000    0.000 
#    0.000    0.000    0.000    0.000    0.000    0.000 
#
# Total GULP energy -89237.809858 kJ/mol
# GULP energy per Si atom -5577.363116 kJ/mol
# Density = 2.373902 g / cm^3
# Si number density = 23.793175 Si / 1000 Ang^3
#
#
#
# Elastic Constant Matrix: (Units=GPa)
#
#
# Indices 1 2 3 4 5 6 
#
# 1 24.7176 -6.9611 21.5979 1.2349 -0.0663 -9.4986
# 2 -6.9611 48.5059 33.1350 16.3009 -5.6354 3.0448
# 3 21.5979 33.1350 211.9867 14.3150 -15.2977 -15.4434
# 4 1.2349 16.3009 14.3150 45.0238 -10.0241 -3.9613
# 5 -0.0663 -5.6354 -15.2977 -10.0241 27.0571 -2.4884
# 6 -9.4986 3.0448 -15.4434 -3.9613 -2.4884 22.1547
#
#
#
# Elastic Compliance Matrix: (Units=1/GPa)
#
#
# Indices 1 2 3 4 5 6 
#
# 1 0.056093 0.011913 -0.006135 -0.002366 -0.000098 0.017702
# 2 0.011913 0.029673 -0.005607 -0.009950 -0.001086 -0.004780
# 3 -0.006135 -0.005607 0.006622 0.001115 0.003280 0.003324
# 4 -0.002366 -0.009950 0.001115 0.028328 0.009718 0.007287
# 5 -0.000098 -0.001086 0.003280 0.009718 0.043012 0.008962
# 6 0.017702 -0.004780 0.003324 0.007287 0.008962 0.058011
#
#
# Mechanical properties :
#
#
# Convention : Reuss Voigt Hill
#
# Bulk Modulus (GPa) = 10.78375 42.30596 26.54485
# Shear Modulus (GPa) = 19.81723 34.67633 27.24678
#
# Velocity S-wave (km/s) = 2.88912 3.82174 3.38768
# Velocity P-wave (km/s) = 3.95873 6.10685 5.14612
#
# Compressibility (1/GPa) = 0.09273210
#
# Stress axis : x y z
#
# Youngs Moduli (GPa) = 17.82749 33.70045 151.00636
#
# Poissons Ratio (x) = -0.40148 0.92639
# Poissons Ratio (y) = -0.21238 0.84663
# Poissons Ratio (z) = 0.10937 0.18894
#
# Static dielectric constant tensor:
#      x y z
#    x 1.893410 0.083440 -0.071480 
#    y 0.083440 1.925970 0.054000 
#    z -0.071480 0.054000 2.015260 
# 
# From -- ./inp_files/221730.got.cif
#   From: 2010.05.17/outbox.cif.g08.bks.cpg/sg2_111_cif.got.tgz:221730.got - 2010.06.03 11:33:40.
