data_PCOD9022618
_publ_section_title
;
Structure prediction by ZEFSAII (Michael W. Deem and Ramdas Pophale) SiO2 
 PCOD9022618
Probable space group: P -1
;
_chemical_formula_sum "Si O2"
_cell_formula_units_Z 14
_cell_length_a 17.997689
_cell_length_b 7.735830
_cell_length_c 8.135896
_cell_angle_alpha 71.733521
_cell_angle_beta 138.664190
_cell_angle_gamma 88.182640
_cell_volume 642.818295
_symmetry_space_group_name_H-M "P -1"
_symmetry_group_IT_number 2
_symmetry_cell_setting 'triclinic'
loop_
_space_group_symop_operation_xyz
x,y,z
-x,-y,-z
loop_
_atom_site_type_symbol
_atom_site_label
_atom_site_fract_x
_atom_site_fract_y
_atom_site_fract_z
Si Si1 0.239038 0.042781 0.927157
Si Si2 0.998033 0.598113 0.699605
Si Si3 0.836389 0.488006 0.672372
Si Si4 0.607945 0.893969 0.085027
Si Si5 0.444905 0.427218 0.086467
Si Si6 0.683525 0.372828 0.664040
Si Si7 0.750116 0.575755 0.007732
O O1 0.343094 0.971003 0.978559
O O2 0.106208 0.183806 0.585630
O O3 0.272265 0.196570 0.050145
O O4 0.240886 0.849537 0.074606
O O5 0.920624 0.468410 0.658514
O O6 0.071973 0.581818 0.997839
O O7 0.102905 0.526605 0.756296
O O8 0.733420 0.721076 0.424810
O O9 0.746525 0.380809 0.591066
O O10 0.550443 0.783742 0.901223
O O11 0.500000 0.000000 0.000000
O O12 0.543066 0.409308 0.394351
O O13 0.308191 0.514680 0.920073
O O14 0.500000 0.500000 0.000000
O O15 0.692157 0.537536 0.753483
#
# Coordination Sequence:
#
# PCOD9022618 Si02
#       7
#     2   2   2   2   2   2   2
#     4  10  23  40  61  98 123 162 216 257 301 380
#     4   9  19  40  65  88 127 166 209 253 311 367
#     4   9  19  38  64  91 124 167 205 255 312 370
#     4  10  22  39  63  91 130 165 205 259 316 367
#     4  11  23  40  62  92 127 159 211 253 311 378
#     4  11  23  40  67  92 130 162 208 257 317 362
#     4  10  23  40  66  89 127 170 202 253 318 366
#
# _framework density 21.779094000000001
#
# number of rings (size 3 to 8) (size 9 to 14) (size 15 to 20)
#    0.000    2.000    1.429    0.857    2.000    9.143 
#    0.000    0.714    0.000    0.000    0.000    0.000 
#    0.000    0.000    0.000    0.000    0.000    0.000 
#
# Total GULP energy -77934.983846 kJ/mol
# GULP energy per Si atom -5566.784560 kJ/mol
# Density = 2.172952 g / cm^3
# Si number density = 21.779094 Si / 1000 Ang^3
#
#
#
# Elastic Constant Matrix: (Units=GPa)
#
#
# Indices 1 2 3 4 5 6 
#
# 1 213.0965 14.5696 30.4909 -8.2776 23.7820 21.6554
# 2 14.5696 34.5396 30.0677 10.7143 5.8043 4.9634
# 3 30.4909 30.0677 94.5268 21.7659 7.7524 3.8690
# 4 -8.2776 10.7143 21.7659 34.5371 11.1792 -9.3588
# 5 23.7820 5.8043 7.7524 11.1792 35.5319 0.3011
# 6 21.6554 4.9634 3.8690 -9.3588 0.3011 37.9576
#
#
#
# Elastic Compliance Matrix: (Units=1/GPa)
#
#
# Indices 1 2 3 4 5 6 
#
# 1 0.005921 -0.000830 -0.002089 0.003922 -0.004588 -0.002054
# 2 -0.000830 0.042386 -0.011156 -0.007364 -0.001569 -0.005735
# 3 -0.002089 -0.011156 0.016639 -0.008592 0.002303 -0.001182
# 4 0.003922 -0.007364 -0.008592 0.044985 -0.013792 0.010802
# 5 -0.004588 -0.001569 0.002303 -0.013792 0.035317 -0.001093
# 6 -0.002054 -0.005735 -0.001182 0.010802 -0.001093 0.031059
#
#
# Mechanical properties :
#
#
# Convention : Reuss Voigt Hill
#
# Bulk Modulus (GPa) = 27.17554 54.71325 40.94440
# Shear Modulus (GPa) = 23.07101 39.40763 31.23932
#
# Velocity S-wave (km/s) = 3.25825 4.25835 3.79142
# Velocity P-wave (km/s) = 5.16331 7.02527 6.16499
#
# Compressibility (1/GPa) = 0.03679779
#
# Stress axis : x y z
#
# Youngs Moduli (GPa) = 168.87840 23.59289 60.09927
#
# Poissons Ratio (x) = 0.01958 0.12553
# Poissons Ratio (y) = 0.14015 0.67044
# Poissons Ratio (z) = 0.35274 0.26319
#
# Static dielectric constant tensor:
#      x y z
#    x 1.907520 -0.012510 -0.040480 
#    y -0.012510 1.797490 0.064050 
#    z -0.040480 0.064050 1.931550 
# 
# From -- ./inp_files/277355.got.cif
#   From: 2010.05.17/outbox.cif.g08.bks.cpg/sg2_139_cif.got.tgz:277355.got - 2010.06.03 11:33:40.
