data_PCOD9022487
_publ_section_title
;
Structure prediction by ZEFSAII (Michael W. Deem and Ramdas Pophale) SiO2 
 PCOD9022487
Probable space group: P -1
;
_chemical_formula_sum "Si O2"
_cell_formula_units_Z 14
_cell_length_a 16.828654
_cell_length_b 5.446275
_cell_length_c 12.221862
_cell_angle_alpha 111.371031
_cell_angle_beta 130.222236
_cell_angle_gamma 43.537748
_cell_volume 577.593672
_symmetry_space_group_name_H-M "P -1"
_symmetry_group_IT_number 2
_symmetry_cell_setting 'triclinic'
loop_
_space_group_symop_operation_xyz
x,y,z
-x,-y,-z
loop_
_atom_site_type_symbol
_atom_site_label
_atom_site_fract_x
_atom_site_fract_y
_atom_site_fract_z
Si Si1 0.776352 0.293773 0.870169
Si Si2 0.072612 0.991567 0.455482
Si Si3 0.466399 0.483811 0.843968
Si Si4 0.913943 0.623015 0.293307
Si Si5 0.437014 0.947516 0.720516
Si Si6 0.209039 0.144216 0.012196
Si Si7 0.222977 0.965307 0.407654
O O1 0.608398 0.640322 0.805694
O O2 0.843431 0.991410 0.974953
O O3 0.776295 0.143136 0.730938
O O4 0.844987 0.464728 0.949752
O O5 0.937462 0.282812 0.300425
O O6 0.125095 0.161892 0.595691
O O7 0.198088 0.762785 0.437872
O O8 0.000000 0.000000 0.500000
O O9 0.619426 0.162655 0.870088
O O10 0.387387 0.338642 0.743794
O O11 0.500000 0.500000 0.000000
O O12 0.591953 0.154454 0.208520
O O13 0.179200 0.157351 0.858895
O O14 0.078925 0.395040 0.364509
O O15 0.356022 0.912761 0.552471
#
# Coordination Sequence:
#
# PCOD9022487 Si02
#       7
#     2   2   2   2   2   2   2
#     4  10  23  42  64  92 131 168 214 259 315 378
#     4   9  21  40  59  91 124 161 214 260 319 368
#     4  10  22  39  62  90 128 170 209 258 320 379
#     4   9  22  40  58  92 126 160 215 262 319 370
#     4  10  22  41  61  96 126 164 216 261 312 372
#     4  10  23  41  61  92 128 170 207 267 314 376
#     4  10  22  41  64  95 122 173 215 261 321 378
#
# _framework density 24.238492999999998
#
# number of rings (size 3 to 8) (size 9 to 14) (size 15 to 20)
#    0.857    1.429    0.000    0.857    4.000    4.571 
#    0.000    4.286    0.000    0.000    0.000    0.000 
#    0.000    0.000    0.000    0.000    0.000    0.000 
#
# Total GULP energy -77944.166862 kJ/mol
# GULP energy per Si atom -5567.440490 kJ/mol
# Density = 2.418332 g / cm^3
# Si number density = 24.238493 Si / 1000 Ang^3
#
#
#
# Elastic Constant Matrix: (Units=GPa)
#
#
# Indices 1 2 3 4 5 6 
#
# 1 101.1305 35.0054 20.6542 -2.7274 -10.7953 25.9526
# 2 35.0054 65.3662 11.5026 -1.9658 -7.6538 22.7122
# 3 20.6542 11.5026 74.4785 1.2782 -26.8160 23.8424
# 4 -2.7274 -1.9658 1.2782 36.6582 -6.3742 -5.4221
# 5 -10.7953 -7.6538 -26.8160 -6.3742 41.5855 -10.0832
# 6 25.9526 22.7122 23.8424 -5.4221 -10.0832 29.4671
#
#
#
# Elastic Compliance Matrix: (Units=1/GPa)
#
#
# Indices 1 2 3 4 5 6 
#
# 1 0.013618 -0.004288 -0.000243 -0.000362 0.000500 -0.008388
# 2 -0.004288 0.022778 0.003304 -0.001458 0.001016 -0.016373
# 3 -0.000243 0.003304 0.022239 -0.001282 0.010581 -0.016942
# 4 -0.000362 -0.001458 -0.001282 0.029688 0.005766 0.009916
# 5 0.000500 0.001016 0.010581 0.005766 0.032665 0.002454
# 6 -0.008388 -0.016373 -0.016942 0.009916 0.002454 0.070315
#
#
# Mechanical properties :
#
#
# Convention : Reuss Voigt Hill
#
# Bulk Modulus (GPa) = 17.79988 41.69996 29.74992
# Shear Modulus (GPa) = 23.53108 33.12971 28.33040
#
# Velocity S-wave (km/s) = 3.11917 3.70107 3.42251
# Velocity P-wave (km/s) = 4.50909 5.95863 5.28380
#
# Compressibility (1/GPa) = 0.05618015
#
# Stress axis : x y z
#
# Youngs Moduli (GPa) = 73.43086 43.90277 44.96595
#
# Poissons Ratio (x) = 0.18826 0.01092
# Poissons Ratio (y) = 0.31488 -0.14855
# Poissons Ratio (z) = 0.01784 -0.14504
#
# Static dielectric constant tensor:
#      x y z
#    x 2.013620 0.110440 0.107480 
#    y 0.110440 2.155540 -0.041150 
#    z 0.107480 -0.041150 1.920560 
# 
# From -- ./inp_files/441349.got.cif
#   From: 2010.05.17/outbox.cif.g08.bks.cpg/sg2_221_cif.got.tgz:441349.got - 2010.06.03 11:33:40.
