data_PCOD9022763
_publ_section_title
;
Structure prediction by ZEFSAII (Michael W. Deem and Ramdas Pophale) SiO2 
 PCOD9022763
Probable space group: P -1
;
_chemical_formula_sum "Si O2"
_cell_formula_units_Z 16
_cell_length_a 14.867185
_cell_length_b 8.725649
_cell_length_c 14.640103
_cell_angle_alpha 110.073327
_cell_angle_beta 29.122096
_cell_angle_gamma 100.183799
_cell_volume 836.107128
_symmetry_space_group_name_H-M "P -1"
_symmetry_group_IT_number 2
_symmetry_cell_setting 'triclinic'
loop_
_space_group_symop_operation_xyz
x,y,z
-x,-y,-z
loop_
_atom_site_type_symbol
_atom_site_label
_atom_site_fract_x
_atom_site_fract_y
_atom_site_fract_z
Si Si1 0.563257 0.901534 0.831279
Si Si2 0.209682 0.908283 0.012824
Si Si3 0.420965 0.543545 0.681831
Si Si4 0.948308 0.231509 0.229761
Si Si5 0.681671 0.990538 0.401386
Si Si6 0.178898 0.117563 0.555096
Si Si7 0.885455 0.645907 0.065980
Si Si8 0.760884 0.565072 0.518286
O O1 0.719291 0.965067 0.645424
O O2 0.664102 0.698844 0.710262
O O3 0.381254 0.916097 0.929814
O O4 0.500000 0.000000 0.000000
O O5 0.019973 0.909971 0.240848
O O6 0.283036 0.735520 0.853725
O O7 0.133691 0.077340 0.055005
O O8 0.500000 0.500000 0.500000
O O9 0.309462 0.409155 0.787085
O O10 0.592975 0.537124 0.597078
O O11 0.774598 0.147602 0.346763
O O12 0.888961 0.378049 0.389326
O O13 0.996830 0.333206 0.122325
O O14 0.500000 0.000000 0.500000
O O15 0.668079 0.946012 0.511445
O O16 0.839436 0.825848 0.192533
O O17 0.142222 0.316393 0.605599
O O18 0.000000 0.500000 0.000000
#
# Coordination Sequence:
#
# PCOD9022763 Si02
#       8
#     2   2   2   2   2   2   2   2
#     4   9  21  41  69  90 114 152 201 253 310 368
#     4  10  22  39  64  88 121 158 199 253 305 350
#     4  11  21  36  57  81 120 165 206 242 287 350
#     4  11  22  38  54  87 123 158 202 253 293 351
#     4  11  23  35  55  83 120 165 200 240 290 340
#     4   9  20  39  63  86 123 151 208 244 296 359
#     4  12  24  33  52  78 119 163 208 231 283 344
#     4   9  20  37  58  83 119 150 201 241 292 355
#
# _framework density 19.136303999999999
#
# number of rings (size 3 to 8) (size 9 to 14) (size 15 to 20)
#    0.750    1.000    0.000    5.625    1.750    2.500 
#    0.000    0.625    0.000    3.000    0.000    0.000 
#    0.000    0.000    0.000    0.000    0.000    0.000 
#
# Total GULP energy -89182.345819 kJ/mol
# GULP energy per Si atom -5573.896614 kJ/mol
# Density = 1.909275 g / cm^3
# Si number density = 19.136304 Si / 1000 Ang^3
#
#
#
# Elastic Constant Matrix: (Units=GPa)
#
#
# Indices 1 2 3 4 5 6 
#
# 1 39.6413 21.8270 39.0471 10.7822 12.3019 2.1137
# 2 21.8270 106.6162 43.2294 16.8626 9.2354 -4.8377
# 3 39.0471 43.2294 112.9774 20.0183 23.4880 -1.5358
# 4 10.7822 16.8626 20.0183 39.8966 6.9687 -4.8235
# 5 12.3019 9.2354 23.4880 6.9687 36.4702 8.7796
# 6 2.1137 -4.8377 -1.5358 -4.8235 8.7796 19.2597
#
#
#
# Elastic Compliance Matrix: (Units=1/GPa)
#
#
# Indices 1 2 3 4 5 6 
#
# 1 0.040730 -0.002958 -0.011602 -0.004018 -0.003404 -0.005593
# 2 -0.002958 0.011685 -0.002958 -0.002307 -0.000230 0.002551
# 3 -0.011602 -0.002958 0.015639 -0.001923 -0.006014 0.004037
# 4 -0.004018 -0.002307 -0.001923 0.030079 -0.004845 0.009450
# 5 -0.003404 -0.000230 -0.006014 -0.004845 0.037917 -0.018662
# 6 -0.005593 0.002551 0.004037 0.009450 -0.018662 0.064372
#
#
# Mechanical properties :
#
#
# Convention : Reuss Voigt Hill
#
# Bulk Modulus (GPa) = 30.28554 51.93799 41.11177
# Shear Modulus (GPa) = 20.28710 29.46739 24.87725
#
# Velocity S-wave (km/s) = 3.25951 3.92837 3.60947
# Velocity P-wave (km/s) = 5.47964 6.91203 6.23709
#
# Compressibility (1/GPa) = 0.03301905
#
# Stress axis : x y z
#
# Youngs Moduli (GPa) = 24.55200 85.58240 63.94414
#
# Poissons Ratio (x) = 0.25313 0.74186
# Poissons Ratio (y) = 0.07262 0.18912
# Poissons Ratio (z) = 0.28485 0.25311
#
# Static dielectric constant tensor:
#      x y z
#    x 1.702500 0.016720 -0.027990 
#    y 0.016720 1.736140 -0.014280 
#    z -0.027990 -0.014280 1.773510 
# 
# From -- ./inp_files/528898.got.cif
#   From: 2010.05.17/outbox.cif.g08.bks.cpg/sg2_265_cif.got.tgz:528898.got - 2010.06.03 11:33:40.
