data_PCOD9022353
_publ_section_title
;
Structure prediction by ZEFSAII (Michael W. Deem and Ramdas Pophale) SiO2 
 PCOD9022353
Probable space group: P -1
;
_chemical_formula_sum "Si O2"
_cell_formula_units_Z 14
_cell_length_a 6.577838
_cell_length_b 16.934145
_cell_length_c 7.948706
_cell_angle_alpha 47.318680
_cell_angle_beta 63.414520
_cell_angle_gamma 73.902284
_cell_volume 581.614165
_symmetry_space_group_name_H-M "P -1"
_symmetry_group_IT_number 2
_symmetry_cell_setting 'triclinic'
loop_
_space_group_symop_operation_xyz
x,y,z
-x,-y,-z
loop_
_atom_site_type_symbol
_atom_site_label
_atom_site_fract_x
_atom_site_fract_y
_atom_site_fract_z
Si Si1 0.748836 0.042603 0.556669
Si Si2 0.295960 0.959949 0.798888
Si Si3 0.897300 0.264093 0.329922
Si Si4 0.251600 0.514474 0.452818
Si Si5 0.099429 0.176936 0.684274
Si Si6 0.559307 0.636978 0.684337
Si Si7 0.658495 0.618150 0.065595
O O1 0.667100 0.075578 0.354124
O O2 0.787205 0.147481 0.500558
O O3 0.537666 0.962802 0.804317
O O4 0.000000 0.000000 0.500000
O O5 0.208267 0.081971 0.671102
O O6 0.084037 0.885587 0.044195
O O7 0.710274 0.347327 0.229894
O O8 0.955417 0.259649 0.510519
O O9 0.144401 0.288739 0.118960
O O10 0.380751 0.439659 0.379584
O O11 0.396694 0.627001 0.212069
O O12 0.260940 0.471822 0.701530
O O13 0.000000 0.500000 0.500000
O O14 0.307693 0.249790 0.571936
O O15 0.641842 0.603576 0.889568
#
# Coordination Sequence:
#
# PCOD9022353 Si02
#       7
#     2   2   2   2   2   2   2
#     4  11  22  39  61  89 128 174 212 264 316 366
#     4  10  22  39  61  88 129 170 222 262 307 379
#     4  11  23  42  62  94 130 169 214 265 323 373
#     4  11  25  47  70  99 127 167 209 262 330 390
#     4  10  22  40  61  93 125 170 219 262 314 379
#     4  11  24  44  67  95 133 169 206 272 321 378
#     4  10  25  43  71  98 130 162 219 256 326 395
#
# _framework density 24.070941000000001
#
# number of rings (size 3 to 8) (size 9 to 14) (size 15 to 20)
#    0.000    1.429    2.857    1.286    2.000    7.429 
#    5.143    0.000    0.000    0.000    0.000    0.000 
#    0.000    0.000    0.000    0.000    0.000    0.000 
#
# Total GULP energy -78064.411997 kJ/mol
# GULP energy per Si atom -5576.029428 kJ/mol
# Density = 2.401615 g / cm^3
# Si number density = 24.070941 Si / 1000 Ang^3
#
#
#
# Elastic Constant Matrix: (Units=GPa)
#
#
# Indices 1 2 3 4 5 6 
#
# 1 164.4830 17.1589 39.2804 6.9927 -27.6985 -10.2509
# 2 17.1589 25.2505 2.6540 6.2561 0.5481 -11.0255
# 3 39.2804 2.6540 104.8508 2.2413 -29.6339 -1.0437
# 4 6.9927 6.2561 2.2413 21.2101 3.8676 -3.5474
# 5 -27.6985 0.5481 -29.6339 3.8676 53.0042 1.9299
# 6 -10.2509 -11.0255 -1.0437 -3.5474 1.9299 25.7034
#
#
#
# Elastic Compliance Matrix: (Units=1/GPa)
#
#
# Indices 1 2 3 4 5 6 
#
# 1 0.007594 -0.004394 -0.001827 -0.001470 0.003077 0.000636
# 2 -0.004394 0.054112 -0.000110 -0.010595 -0.002880 0.020208
# 3 -0.001827 -0.000110 0.011917 -0.001863 0.005881 -0.000990
# 4 -0.001470 -0.010595 -0.001863 0.052386 -0.005611 0.002445
# 5 0.003077 -0.002880 0.005881 -0.005611 0.024288 -0.002367
# 6 0.000636 0.020208 -0.000990 0.002445 -0.002367 0.048302
#
#
# Mechanical properties :
#
#
# Convention : Reuss Voigt Hill
#
# Bulk Modulus (GPa) = 16.40351 45.86344 31.13348
# Shear Modulus (GPa) = 21.59077 35.68293 28.63685
#
# Velocity S-wave (km/s) = 2.99818 3.85438 3.45292
# Velocity P-wave (km/s) = 4.33762 6.23724 5.37206
#
# Compressibility (1/GPa) = 0.06096256
#
# Stress axis : x y z
#
# Youngs Moduli (GPa) = 131.67444 18.48017 83.91723
#
# Poissons Ratio (x) = 0.08120 0.15328
# Poissons Ratio (y) = 0.57855 0.00922
# Poissons Ratio (z) = 0.24051 0.00203
#
# Static dielectric constant tensor:
#      x y z
#    x 2.055200 -0.008700 -0.102360 
#    y -0.008700 1.930940 -0.045620 
#    z -0.102360 -0.045620 2.039340 
# 
# From -- ./inp_files/117360.got.cif
#   From: 2010.05.17/outbox.cif.g08.bks.cpg/sg2_59_cif.got.tgz:117360.got - 2010.06.03 11:33:40.
