data_PCOD9022572
_publ_section_title
;
Structure prediction by ZEFSAII (Michael W. Deem and Ramdas Pophale) SiO2 
 PCOD9022572
Probable space group: P -1
;
_chemical_formula_sum "Si O2"
_cell_formula_units_Z 16
_cell_length_a 14.066209
_cell_length_b 11.566417
_cell_length_c 9.306074
_cell_angle_alpha 105.530812
_cell_angle_beta 93.014024
_cell_angle_gamma 31.545710
_cell_volume 715.388742
_symmetry_space_group_name_H-M "P -1"
_symmetry_group_IT_number 2
_symmetry_cell_setting 'triclinic'
loop_
_space_group_symop_operation_xyz
x,y,z
-x,-y,-z
loop_
_atom_site_type_symbol
_atom_site_label
_atom_site_fract_x
_atom_site_fract_y
_atom_site_fract_z
Si Si1 0.028870 0.090526 0.443303
Si Si2 0.339811 0.385195 0.505421
Si Si3 0.358932 0.010679 0.113124
Si Si4 0.366215 0.078897 0.806510
Si Si5 0.561316 0.363897 0.601482
Si Si6 0.089710 0.529016 0.750865
Si Si7 0.472641 0.635148 0.929135
Si Si8 0.955264 0.921369 0.908351
O O1 0.057242 0.052517 0.258354
O O2 0.831738 0.381970 0.535473
O O3 0.226200 0.927459 0.468762
O O4 0.000000 0.000000 0.500000
O O5 0.406268 0.425980 0.623345
O O6 0.241569 0.384321 0.585466
O O7 0.525570 0.141755 0.349293
O O8 0.138425 0.236617 0.231344
O O9 0.478631 0.982482 0.192124
O O10 0.329955 0.078258 0.966329
O O11 0.497480 0.740116 0.030046
O O12 0.174353 0.335765 0.797027
O O13 0.500000 0.500000 0.500000
O O14 0.572322 0.464421 0.745442
O O15 0.090559 0.660515 0.866098
O O16 0.500000 0.500000 0.000000
O O17 0.244598 0.892165 0.968505
O O18 0.000000 0.000000 0.000000
#
# Coordination Sequence:
#
# PCOD9022572 Si02
#       8
#     2   2   2   2   2   2   2   2
#     4  11  23  41  61  95 141 175 216 279 336 400
#     4  11  25  42  66 101 130 176 231 272 337 402
#     4  10  25  43  65  96 133 173 226 274 336 402
#     4  11  24  45  67  92 133 182 224 272 333 402
#     4  12  24  41  67  98 142 179 219 275 342 408
#     4  10  23  42  65  93 130 168 225 282 324 397
#     4  11  22  40  67  96 129 173 217 275 338 396
#     4  10  22  39  62  99 129 168 222 275 334 400
#
# _framework density 22.365461
#
# number of rings (size 3 to 8) (size 9 to 14) (size 15 to 20)
#    0.000    1.250    2.500    3.000    3.500    1.500 
#    2.250    0.000    0.000    0.000    0.000    0.000 
#    0.000    0.000    0.000    0.000    0.000    0.000 
#
# Total GULP energy -89217.119462 kJ/mol
# GULP energy per Si atom -5576.069966 kJ/mol
# Density = 2.231456 g / cm^3
# Si number density = 22.365461 Si / 1000 Ang^3
#
#
#
# Elastic Constant Matrix: (Units=GPa)
#
#
# Indices 1 2 3 4 5 6 
#
# 1 76.3690 8.9495 3.0008 0.6652 -3.5365 -10.5588
# 2 8.9495 129.7306 15.0525 2.3355 6.8806 9.2640
# 3 3.0008 15.0525 39.6985 7.6731 0.4518 1.3006
# 4 0.6652 2.3355 7.6731 31.6280 3.0574 -6.4517
# 5 -3.5365 6.8806 0.4518 3.0574 27.4209 4.3366
# 6 -10.5588 9.2640 1.3006 -6.4517 4.3366 37.5358
#
#
#
# Elastic Compliance Matrix: (Units=1/GPa)
#
#
# Indices 1 2 3 4 5 6 
#
# 1 0.013915 -0.001246 -0.000877 0.000740 0.001372 0.004221
# 2 -0.001246 0.008392 -0.002973 -0.000125 -0.001868 -0.002124
# 3 -0.000877 -0.002973 0.027781 -0.006993 0.001243 -0.001821
# 4 0.000740 -0.000125 -0.006993 0.035219 -0.004806 0.007090
# 5 0.001372 -0.001868 0.001243 -0.004806 0.038333 -0.004451
# 6 0.004221 -0.002124 -0.001821 0.007090 -0.004451 0.030149
#
#
# Mechanical properties :
#
#
# Convention : Reuss Voigt Hill
#
# Bulk Modulus (GPa) = 25.06402 33.31154 29.18778
# Shear Modulus (GPa) = 28.20418 33.90329 31.05373
#
# Velocity S-wave (km/s) = 3.55499 3.89765 3.73026
# Velocity P-wave (km/s) = 5.29920 5.93145 5.62422
#
# Compressibility (1/GPa) = 0.03989783
#
# Stress axis : x y z
#
# Youngs Moduli (GPa) = 71.86271 119.15884 35.99644
#
# Poissons Ratio (x) = 0.14844 0.03155
# Poissons Ratio (y) = 0.08952 0.10701
# Poissons Ratio (z) = 0.06299 0.35424
#
# Static dielectric constant tensor:
#      x y z
#    x 1.843480 0.031070 -0.191270 
#    y 0.031070 2.005760 0.173990 
#    z -0.191270 0.173990 1.555790 
# 
# From -- ./inp_files/307739.got.cif
#   From: 2010.05.17/outbox.cif.g08.bks.cpg/sg2_154_cif.got.tgz:307739.got - 2010.06.03 11:33:40.
