data_PCOD9022722
_publ_section_title
;
Structure prediction by ZEFSAII (Michael W. Deem and Ramdas Pophale) SiO2 
 PCOD9022722
Probable space group: P -1
;
_chemical_formula_sum "Si O2"
_cell_formula_units_Z 16
_cell_length_a 12.218740
_cell_length_b 6.078517
_cell_length_c 11.379161
_cell_angle_alpha 95.279393
_cell_angle_beta 120.988680
_cell_angle_gamma 84.139800
_cell_volume 719.964066
_symmetry_space_group_name_H-M "P -1"
_symmetry_group_IT_number 2
_symmetry_cell_setting 'triclinic'
loop_
_space_group_symop_operation_xyz
x,y,z
-x,-y,-z
loop_
_atom_site_type_symbol
_atom_site_label
_atom_site_fract_x
_atom_site_fract_y
_atom_site_fract_z
Si Si1 0.028392 0.781354 0.793682
Si Si2 0.413370 0.305550 0.409934
Si Si3 0.546740 0.754231 0.075583
Si Si4 0.157020 0.476970 0.156696
Si Si5 0.877528 0.908685 0.493606
Si Si6 0.949638 0.772412 0.113978
Si Si7 0.592806 0.947924 0.360989
Si Si8 0.834388 0.606332 0.258845
O O1 0.950239 0.642733 0.834153
O O2 0.921227 0.877422 0.649017
O O3 0.135458 0.647692 0.768803
O O4 0.090811 0.972893 0.907669
O O5 0.500000 0.500000 0.500000
O O6 0.289686 0.417884 0.285170
O O7 0.383969 0.188313 0.511523
O O8 0.489656 0.140420 0.353471
O O9 0.537705 0.809114 0.214420
O O10 0.699325 0.709371 0.143720
O O11 0.500000 0.500000 0.000000
O O12 0.500000 0.000000 0.000000
O O13 0.094526 0.724543 0.145832
O O14 0.145726 0.375415 0.016993
O O15 0.734599 0.027645 0.409274
O O16 0.854828 0.672499 0.407245
O O17 0.000000 0.000000 0.500000
O O18 0.939062 0.719231 0.242811
#
# Coordination Sequence:
#
# PCOD9022722 Si02
#       8
#     2   2   2   2   2   2   2   2
#     4  11  21  39  66  93 130 171 218 285 354 416
#     4  11  25  43  72  98 141 194 243 307 358 436
#     4  11  28  48  73 103 146 194 240 303 365 443
#     4  10  23  40  62  96 134 171 232 287 349 423
#     4  11  21  41  67  95 137 175 221 294 355 429
#     4  10  22  39  63  98 131 175 224 283 361 423
#     4  10  26  46  66 107 137 187 253 292 373 440
#     4  10  24  39  62 101 127 173 229 278 349 432
#
# _framework density 22.223331000000002
#
# number of rings (size 3 to 8) (size 9 to 14) (size 15 to 20)
#    0.000    1.500    2.500    0.750    7.000    0.000 
#    2.250    0.000    0.000    0.000    0.000    0.000 
#    0.000    0.000    0.000    0.000    0.000    0.000 
#
# Total GULP energy -89074.361124 kJ/mol
# GULP energy per Si atom -5567.147570 kJ/mol
# Density = 2.217275 g / cm^3
# Si number density = 22.223331 Si / 1000 Ang^3
#
#
#
# Elastic Constant Matrix: (Units=GPa)
#
#
# Indices 1 2 3 4 5 6 
#
# 1 72.9472 27.2504 31.1683 15.8879 1.9408 -16.6199
# 2 27.2504 92.9257 43.9840 25.0496 10.9650 -24.1449
# 3 31.1683 43.9840 123.1842 9.5800 4.4827 -19.8141
# 4 15.8879 25.0496 9.5800 28.6117 -10.8641 -10.7251
# 5 1.9408 10.9650 4.4827 -10.8641 39.7381 -4.6424
# 6 -16.6199 -24.1449 -19.8141 -10.7251 -4.6424 31.1589
#
#
#
# Elastic Compliance Matrix: (Units=1/GPa)
#
#
# Indices 1 2 3 4 5 6 
#
# 1 0.017864 -0.000346 -0.003016 -0.007743 -0.002043 0.004372
# 2 -0.000346 0.020181 -0.004595 -0.017517 -0.009223 0.005127
# 3 -0.003016 -0.004595 0.010672 0.003973 0.001676 0.003234
# 4 -0.007743 -0.017517 0.003973 0.066797 0.024362 0.011444
# 5 -0.002043 -0.009223 0.001676 0.024362 0.035033 0.006434
# 6 0.004372 0.005127 0.003234 0.011444 0.006434 0.045353
#
#
# Mechanical properties :
#
#
# Convention : Reuss Voigt Hill
#
# Bulk Modulus (GPa) = 30.48779 54.87359 42.68069
# Shear Modulus (GPa) = 22.44682 32.34535 27.39609
#
# Velocity S-wave (km/s) = 3.18159 3.81920 3.51488
# Velocity P-wave (km/s) = 5.21970 6.64785 5.97658
#
# Compressibility (1/GPa) = 0.03280001
#
# Stress axis : x y z
#
# Youngs Moduli (GPa) = 55.97932 49.55270 93.70188
#
# Poissons Ratio (x) = 0.01717 0.28265
# Poissons Ratio (y) = 0.01939 0.43059
# Poissons Ratio (z) = 0.16886 0.22771
#
# Static dielectric constant tensor:
#      x y z
#    x 1.844830 -0.004690 -0.034150 
#    y -0.004690 1.969680 0.036120 
#    z -0.034150 0.036120 1.786110 
# 
# From -- ./inp_files/69931.got.cif
#   From: 2010.05.17/outbox.cif.g08.bks.cpg/sg2_35_cif.got.tgz:69931.got - 2010.06.03 11:33:40.
