data_PCOD9022647
_publ_section_title
;
Structure prediction by ZEFSAII (Michael W. Deem and Ramdas Pophale) SiO2 
 PCOD9022647
Probable space group: P -1
;
_chemical_formula_sum "Si O2"
_cell_formula_units_Z 14
_cell_length_a 13.372877
_cell_length_b 7.827018
_cell_length_c 9.648043
_cell_angle_alpha 46.404452
_cell_angle_beta 53.587023
_cell_angle_gamma 63.008184
_cell_volume 586.851864
_symmetry_space_group_name_H-M "P -1"
_symmetry_group_IT_number 2
_symmetry_cell_setting 'triclinic'
loop_
_space_group_symop_operation_xyz
x,y,z
-x,-y,-z
loop_
_atom_site_type_symbol
_atom_site_label
_atom_site_fract_x
_atom_site_fract_y
_atom_site_fract_z
Si Si1 0.575705 0.795590 0.463552
Si Si2 0.621702 0.410064 0.864220
Si Si3 0.478053 0.995873 0.181821
Si Si4 0.784460 0.694969 0.748584
Si Si5 0.159623 0.197694 0.837786
Si Si6 0.143249 0.543779 0.888326
Si Si7 0.950756 0.932648 0.276173
O O1 0.597994 0.546099 0.663282
O O2 0.712246 0.886639 0.290723
O O3 0.500000 0.000000 0.500000
O O4 0.502094 0.780709 0.388025
O O5 0.742567 0.489820 0.795903
O O6 0.500000 0.500000 0.000000
O O7 0.599899 0.138953 0.035448
O O8 0.339552 0.120390 0.253922
O O9 0.500000 0.000000 0.000000
O O10 0.907000 0.793136 0.524313
O O11 0.806613 0.600843 0.937977
O O12 0.196841 0.427108 0.766879
O O13 0.070008 0.215464 0.765335
O O14 0.088614 0.025501 0.094626
O O15 0.138213 0.820833 0.775244
O O16 0.000000 0.500000 0.000000
#
# Coordination Sequence:
#
# PCOD9022647 Si02
#       7
#     2   2   2   2   2   2   2
#     4  12  21  41  69  92 134 177 214 270 344 384
#     4  10  22  39  63  93 128 170 222 259 319 406
#     4  11  25  40  63 103 131 168 221 274 329 396
#     4  11  22  42  66  95 129 176 223 264 336 401
#     4  10  22  41  65 101 126 170 230 268 321 411
#     4  10  24  43  65  95 135 175 222 277 330 381
#     4  10  22  44  68  90 135 176 216 277 338 376
#
# _framework density 23.856106
#
# number of rings (size 3 to 8) (size 9 to 14) (size 15 to 20)
#    0.000    1.429    4.286    0.857    2.000    6.286 
#    0.000    9.286    0.000    0.000    0.000    0.000 
#    0.000    0.000    0.000    0.000    0.000    0.000 
#
# Total GULP energy -77987.614172 kJ/mol
# GULP energy per Si atom -5570.543869 kJ/mol
# Density = 2.380181 g / cm^3
# Si number density = 23.856106 Si / 1000 Ang^3
#
#
#
# Elastic Constant Matrix: (Units=GPa)
#
#
# Indices 1 2 3 4 5 6 
#
# 1 63.4492 8.4720 19.9811 -4.4426 21.9446 -9.0972
# 2 8.4720 49.2244 27.9741 10.3553 0.5219 10.4150
# 3 19.9811 27.9741 95.8756 14.2844 -0.2224 -4.5043
# 4 -4.4426 10.3553 14.2844 32.9409 -11.0941 1.7622
# 5 21.9446 0.5219 -0.2224 -11.0941 51.7557 16.5201
# 6 -9.0972 10.4150 -4.5043 1.7622 16.5201 29.6246
#
#
#
# Elastic Compliance Matrix: (Units=1/GPa)
#
#
# Indices 1 2 3 4 5 6 
#
# 1 0.026463 -0.007174 -0.002507 -0.000086 -0.017587 0.020080
# 2 -0.007174 0.030440 -0.007680 -0.003635 0.007720 -0.018161
# 3 -0.002507 -0.007680 0.014157 -0.004846 -0.001500 0.005208
# 4 -0.000086 -0.003635 -0.004846 0.037539 0.010520 -0.007585
# 5 -0.017587 0.007720 -0.001500 0.010520 0.038700 -0.030550
# 6 0.020080 -0.018161 0.005208 -0.007585 -0.030550 0.064586
#
#
# Mechanical properties :
#
#
# Convention : Reuss Voigt Hill
#
# Bulk Modulus (GPa) = 27.51921 35.71151 31.61536
# Shear Modulus (GPa) = 19.32597 33.00569 26.16583
#
# Velocity S-wave (km/s) = 2.84932 3.72362 3.31542
# Velocity P-wave (km/s) = 4.73132 5.78698 5.28557
#
# Compressibility (1/GPa) = 0.03633826
#
# Stress axis : x y z
#
# Youngs Moduli (GPa) = 37.78793 32.85167 70.63800
#
# Poissons Ratio (x) = 0.23568 0.17706
# Poissons Ratio (y) = 0.27109 0.54252
# Poissons Ratio (z) = 0.09472 0.25231
#
# Static dielectric constant tensor:
#      x y z
#    x 2.040780 0.292860 0.164750 
#    y 0.292860 2.694700 0.166250 
#    z 0.164750 0.166250 1.943880 
# 
# From -- ./inp_files/241864.got.cif
#   From: 2010.05.17/outbox.cif.g08.bks.cpg/sg2_121_cif.got.tgz:241864.got - 2010.06.03 11:33:40.
