data_PCOD9022981
_publ_section_title
;
Structure prediction by ZEFSAII (Michael W. Deem and Ramdas Pophale) SiO2 
 PCOD9022981
Probable space group: P -1
;
_chemical_formula_sum "Si O2"
_cell_formula_units_Z 14
_cell_length_a 10.686629
_cell_length_b 14.054591
_cell_length_c 9.980525
_cell_angle_alpha 47.422077
_cell_angle_beta 105.975495
_cell_angle_gamma 67.956716
_cell_volume 646.225527
_symmetry_space_group_name_H-M "P -1"
_symmetry_group_IT_number 2
_symmetry_cell_setting 'triclinic'
loop_
_space_group_symop_operation_xyz
x,y,z
-x,-y,-z
loop_
_atom_site_type_symbol
_atom_site_label
_atom_site_fract_x
_atom_site_fract_y
_atom_site_fract_z
Si Si1 0.750302 0.390823 0.825677
Si Si2 0.850832 0.763951 0.319026
Si Si3 0.986160 0.625556 0.773540
Si Si4 0.434954 0.418453 0.131503
Si Si5 0.723292 0.598662 0.371406
Si Si6 0.715260 0.134932 0.070278
Si Si7 0.186662 0.022488 0.472496
O O1 0.581901 0.541508 0.753348
O O2 0.712530 0.532042 0.572638
O O3 0.733695 0.259200 0.887312
O O4 0.982960 0.207438 0.141133
O O5 0.695701 0.776008 0.202676
O O6 0.936474 0.624940 0.609952
O O7 0.048198 0.616506 0.417125
O O8 0.783933 0.959252 0.164943
O O9 0.789486 0.863396 0.547630
O O10 0.201267 0.543590 0.908107
O O11 0.000000 0.500000 0.000000
O O12 0.617087 0.176391 0.369336
O O13 0.500000 0.500000 0.000000
O O14 0.532817 0.693758 0.134328
O O15 0.835999 0.049522 0.331231
#
# Coordination Sequence:
#
# PCOD9022981 Si02
#       7
#     2   2   2   2   2   2   2
#     4  11  24  39  64  95 129 157 210 265 312 370
#     4  10  23  40  64  84 124 170 208 250 315 374
#     4  10  22  41  63  96 130 161 210 265 312 373
#     4  11  22  37  65  94 125 164 205 258 319 372
#     4  11  24  43  59  89 126 168 206 257 309 375
#     4  11  22  39  64  91 120 164 210 257 308 376
#     4  10  22  39  65  95 124 163 207 258 320 371
#
# _framework density 21.664263999999999
#
# number of rings (size 3 to 8) (size 9 to 14) (size 15 to 20)
#    0.000    1.429    1.429    3.857    4.000    2.286 
#    0.000    7.143    0.000    0.000    0.000    0.000 
#    0.000    0.000    0.000    0.000    0.000    0.000 
#
# Total GULP energy -78067.980278 kJ/mol
# GULP energy per Si atom -5576.284306 kJ/mol
# Density = 2.161495 g / cm^3
# Si number density = 21.664264 Si / 1000 Ang^3
#
#
#
# Elastic Constant Matrix: (Units=GPa)
#
#
# Indices 1 2 3 4 5 6 
#
# 1 83.9082 32.1907 17.5119 2.7807 -2.2399 2.7953
# 2 32.1907 121.9356 22.1351 -20.6264 -9.2359 -14.0818
# 3 17.5119 22.1351 43.6826 -9.1383 -3.8397 -8.7131
# 4 2.7807 -20.6264 -9.1383 33.8659 -1.3291 2.0699
# 5 -2.2399 -9.2359 -3.8397 -1.3291 33.6886 9.5295
# 6 2.7953 -14.0818 -8.7131 2.0699 9.5295 35.1701
#
#
#
# Elastic Compliance Matrix: (Units=1/GPa)
#
#
# Indices 1 2 3 4 5 6 
#
# 1 0.015061 -0.004259 -0.005751 -0.005130 0.000124 -0.004059
# 2 -0.004259 0.011318 -0.001772 0.006622 0.001880 0.003532
# 3 -0.005751 -0.001772 0.028852 0.006833 0.000924 0.006243
# 4 -0.005130 0.006622 0.006833 0.035842 0.003162 0.001786
# 5 0.000124 0.001880 0.000924 0.003162 0.032723 -0.008081
# 6 -0.004059 0.003532 0.006243 0.001786 -0.008081 0.033801
#
#
# Mechanical properties :
#
#
# Convention : Reuss Voigt Hill
#
# Bulk Modulus (GPa) = 31.58079 43.68909 37.63494
# Shear Modulus (GPa) = 26.08019 32.39083 29.23551
#
# Velocity S-wave (km/s) = 3.47340 3.87088 3.67751
# Velocity P-wave (km/s) = 5.54031 6.33944 5.95330
#
# Compressibility (1/GPa) = 0.03166482
#
# Stress axis : x y z
#
# Youngs Moduli (GPa) = 66.39870 88.35755 34.65956
#
# Poissons Ratio (x) = 0.37631 0.19934
# Poissons Ratio (y) = 0.28279 0.06143
# Poissons Ratio (z) = 0.38188 0.15661
#
# Static dielectric constant tensor:
#      x y z
#    x 1.894890 0.111290 -0.151150 
#    y 0.111290 1.860800 -0.116170 
#    z -0.151150 -0.116170 2.054010 
# 
# From -- ./inp_files/269612.got.cif
#   From: 2010.05.17/outbox.cif.g08.bks.cpg/sg2_135_cif.got.tgz:269612.got - 2010.06.03 11:33:40.
