data_PCOD9022410
_publ_section_title
;
Structure prediction by ZEFSAII (Michael W. Deem and Ramdas Pophale) SiO2 
 PCOD9022410
Probable space group: P -1
;
_chemical_formula_sum "Si O2"
_cell_formula_units_Z 16
_cell_length_a 13.125675
_cell_length_b 9.281128
_cell_length_c 9.151304
_cell_angle_alpha 132.732743
_cell_angle_beta 74.222862
_cell_angle_gamma 111.071637
_cell_volume 763.475882
_symmetry_space_group_name_H-M "P -1"
_symmetry_group_IT_number 2
_symmetry_cell_setting 'triclinic'
loop_
_space_group_symop_operation_xyz
x,y,z
-x,-y,-z
loop_
_atom_site_type_symbol
_atom_site_label
_atom_site_fract_x
_atom_site_fract_y
_atom_site_fract_z
Si Si1 0.531471 0.942295 0.611474
Si Si2 0.520135 0.523392 0.244444
Si Si3 0.709014 0.443655 0.269876
Si Si4 0.043348 0.846527 0.274389
Si Si5 0.336402 0.983912 0.896870
Si Si6 0.719985 0.895727 0.686349
Si Si7 0.320002 0.334030 0.987049
Si Si8 0.863281 0.520682 0.977215
O O1 0.496849 0.699581 0.474346
O O2 0.456677 0.027655 0.809728
O O3 0.657271 0.989972 0.647683
O O4 0.500000 0.000000 0.500000
O O5 0.586775 0.388950 0.210694
O O6 0.410446 0.428935 0.136941
O O7 0.611024 0.640970 0.172580
O O8 0.715782 0.255216 0.236912
O O9 0.719259 0.663726 0.489739
O O10 0.796869 0.466966 0.119983
O O11 0.077046 0.654827 0.204953
O O12 0.156221 0.978391 0.257156
O O13 0.000000 0.000000 0.500000
O O14 0.951414 0.732348 0.118245
O O15 0.338451 0.075651 0.120686
O O16 0.273953 0.103829 0.895809
O O17 0.226245 0.449730 0.082775
#
# Coordination Sequence:
#
# PCOD9022410 Si02
#       8
#     2   2   2   2   2   2   2   2
#     4  11  24  39  61  97 136 174 217 256 320 398
#     4   9  21  38  60  91 132 174 217 256 309 395
#     4  10  22  40  64  94 134 167 219 266 315 392
#     4  11  22  41  74  94 121 172 229 270 326 380
#     4  12  25  39  66  98 137 178 207 265 335 387
#     4  11  25  41  63 100 131 170 222 272 320 389
#     4  10  22  39  61  94 135 168 213 267 325 381
#     4  10  22  43  67  99 123 167 224 276 317 391
#
# _framework density 20.956785
#
# number of rings (size 3 to 8) (size 9 to 14) (size 15 to 20)
#    0.000    1.500    3.750    0.375    7.000    1.000 
#    0.000    0.625    0.000    1.500    0.000    0.000 
#    0.000    0.000    0.000    0.000    0.000    0.000 
#
# Total GULP energy -89323.720498 kJ/mol
# GULP energy per Si atom -5582.732531 kJ/mol
# Density = 2.090909 g / cm^3
# Si number density = 20.956785 Si / 1000 Ang^3
#
#
#
# Elastic Constant Matrix: (Units=GPa)
#
#
# Indices 1 2 3 4 5 6 
#
# 1 100.9450 35.7574 39.2540 0.5724 -5.5252 -0.3792
# 2 35.7574 90.4952 19.8008 6.1609 2.5692 -7.7895
# 3 39.2540 19.8008 111.1931 13.3849 -17.9211 2.0063
# 4 0.5724 6.1609 13.3849 31.5498 -2.4303 -5.9168
# 5 -5.5252 2.5692 -17.9211 -2.4303 24.7814 10.2283
# 6 -0.3792 -7.7895 2.0063 -5.9168 10.2283 25.6397
#
#
#
# Elastic Compliance Matrix: (Units=1/GPa)
#
#
# Indices 1 2 3 4 5 6 
#
# 1 0.013081 -0.004579 -0.003868 0.002229 0.001161 -0.000844
# 2 -0.004579 0.014162 -0.002013 -0.001066 -0.006896 0.006897
# 3 -0.003868 -0.002013 0.013435 -0.005784 0.011679 -0.007714
# 4 0.002229 -0.001066 -0.005784 0.035892 -0.004238 0.010135
# 5 0.001161 -0.006896 0.011679 -0.004238 0.061046 -0.028323
# 6 -0.000844 0.006897 -0.007714 0.010135 -0.028323 0.055326
#
#
# Mechanical properties :
#
#
# Convention : Reuss Voigt Hill
#
# Bulk Modulus (GPa) = 50.61633 54.69531 52.65582
# Shear Modulus (GPa) = 22.68100 30.24894 26.46497
#
# Velocity S-wave (km/s) = 3.29336 3.80333 3.55749
# Velocity P-wave (km/s) = 6.21826 6.74113 6.48497
#
# Compressibility (1/GPa) = 0.01975647
#
# Stress axis : x y z
#
# Youngs Moduli (GPa) = 76.44955 70.61001 74.43217
#
# Poissons Ratio (x) = 0.32335 0.28793
# Poissons Ratio (y) = 0.35010 0.14983
# Poissons Ratio (z) = 0.29573 0.14213
#
# Static dielectric constant tensor:
#      x y z
#    x 1.763040 0.007290 -0.004920 
#    y 0.007290 1.802350 0.025110 
#    z -0.004920 0.025110 1.785440 
# 
# From -- ./inp_files/245872.got.cif
#   From: 2010.05.17/outbox.cif.g08.bks.cpg/sg2_123_cif.got.tgz:245872.got - 2010.06.03 11:33:40.
