data_PCOD9022850
_publ_section_title
;
Structure prediction by ZEFSAII (Michael W. Deem and Ramdas Pophale) SiO2 
 PCOD9022850
Probable space group: P -1
;
_chemical_formula_sum "Si O2"
_cell_formula_units_Z 16
_cell_length_a 9.071568
_cell_length_b 19.041683
_cell_length_c 10.786266
_cell_angle_alpha 136.510955
_cell_angle_beta 136.721056
_cell_angle_gamma 39.748113
_cell_volume 756.092214
_symmetry_space_group_name_H-M "P -1"
_symmetry_group_IT_number 2
_symmetry_cell_setting 'triclinic'
loop_
_space_group_symop_operation_xyz
x,y,z
-x,-y,-z
loop_
_atom_site_type_symbol
_atom_site_label
_atom_site_fract_x
_atom_site_fract_y
_atom_site_fract_z
Si Si1 0.065997 0.233863 0.741988
Si Si2 0.119237 0.536538 0.229044
Si Si3 0.111719 0.536247 0.500941
Si Si4 0.500048 0.719207 0.858863
Si Si5 0.098162 0.897430 0.032165
Si Si6 0.437548 0.711862 0.534448
Si Si7 0.358112 0.971750 0.481640
Si Si8 0.237096 0.206272 0.309835
O O1 0.963931 0.328837 0.685577
O O2 0.799688 0.256230 0.656124
O O3 0.211065 0.095341 0.622349
O O4 0.259126 0.261902 0.967013
O O5 0.022423 0.532686 0.302095
O O6 0.399520 0.421724 0.252812
O O7 0.000000 0.500000 0.000000
O O8 0.397895 0.431277 0.544043
O O9 0.000000 0.500000 0.500000
O O10 0.005199 0.673852 0.635531
O O11 0.329975 0.788797 0.961169
O O12 0.371749 0.759207 0.696612
O O13 0.879478 0.872481 0.903048
O O14 0.187309 0.933641 0.255265
O O15 0.000000 0.000000 0.000000
O O16 0.615365 0.758345 0.651149
O O17 0.562250 0.865836 0.553675
O O18 0.500000 0.000000 0.500000
#
# Coordination Sequence:
#
# PCOD9022850 Si02
#       8
#     2   2   2   2   2   2   2   2
#     4  11  22  40  65  95 131 166 222 267 322 388
#     4   9  20  35  63  97 124 164 212 276 325 376
#     4   9  20  40  63  93 133 174 216 263 329 397
#     4  10  22  39  64  96 130 160 217 272 324 379
#     4  12  24  40  66  97 126 169 218 270 316 382
#     4  10  24  42  64  95 132 174 207 271 326 391
#     4  12  23  41  65  94 128 168 217 267 318 383
#     4  11  25  43  65  93 134 172 217 259 333 389
#
# _framework density 21.161439000000001
#
# number of rings (size 3 to 8) (size 9 to 14) (size 15 to 20)
#    0.000    1.500    2.500    1.500    5.250    2.500 
#    0.000    4.375    0.000    7.500    0.000    0.000 
#    0.000    0.000    0.000    0.000    0.000    0.000 
#
# Total GULP energy -89153.009632 kJ/mol
# GULP energy per Si atom -5572.063102 kJ/mol
# Density = 2.111327 g / cm^3
# Si number density = 21.161439 Si / 1000 Ang^3
#
#
#
# Elastic Constant Matrix: (Units=GPa)
#
#
# Indices 1 2 3 4 5 6 
#
# 1 43.4098 -4.3594 30.7811 5.7963 13.4181 7.9983
# 2 -4.3594 93.6234 25.2185 13.3737 5.9367 3.0242
# 3 30.7811 25.2185 141.8290 -3.7857 29.4739 10.6725
# 4 5.7963 13.3737 -3.7857 30.4967 -4.5390 1.0530
# 5 13.4181 5.9367 29.4739 -4.5390 33.7500 -0.7425
# 6 7.9983 3.0242 10.6725 1.0530 -0.7425 29.3958
#
#
#
# Elastic Compliance Matrix: (Units=1/GPa)
#
#
# Indices 1 2 3 4 5 6 
#
# 1 0.034049 0.005685 -0.005812 -0.011077 -0.011119 -0.007623
# 2 0.005685 0.013083 -0.003024 -0.007581 -0.002975 -0.001598
# 3 -0.005812 -0.003024 0.010290 0.002917 -0.005797 -0.002094
# 4 -0.011077 -0.007581 0.002917 0.039806 0.008577 0.001525
# 5 -0.011119 -0.002975 -0.005797 0.008577 0.040926 0.006163
# 6 -0.007623 -0.001598 -0.002094 0.001525 0.006163 0.037119
#
#
# Mechanical properties :
#
#
# Convention : Reuss Voigt Hill
#
# Bulk Modulus (GPa) = 19.56177 42.46031 31.01104
# Shear Modulus (GPa) = 25.17439 33.87664 29.52551
#
# Velocity S-wave (km/s) = 3.45285 4.00542 3.73936
# Velocity P-wave (km/s) = 5.01601 6.44203 5.77322
#
# Compressibility (1/GPa) = 0.05112011
#
# Stress axis : x y z
#
# Youngs Moduli (GPa) = 29.36971 76.43217 97.18182
#
# Poissons Ratio (x) = -0.43448 0.56480
# Poissons Ratio (y) = -0.16695 0.29386
# Poissons Ratio (z) = 0.17069 0.23112
#
# Static dielectric constant tensor:
#      x y z
#    x 1.793880 -0.045280 0.019610 
#    y -0.045280 1.694090 -0.049050 
#    z 0.019610 -0.049050 1.725580 
# 
# From -- ./inp_files/403437.got.cif
#   From: 2010.05.17/outbox.cif.g08.bks.cpg/sg2_202_cif.got.tgz:403437.got - 2010.06.03 11:33:40.
