data_PCOD9022177
_publ_section_title
;
Structure prediction by ZEFSAII (Michael W. Deem and Ramdas Pophale) SiO2 
 PCOD9022177
Probable space group: P -1
;
_chemical_formula_sum "Si O2"
_cell_formula_units_Z 16
_cell_length_a 15.261418
_cell_length_b 13.170257
_cell_length_c 16.364690
_cell_angle_alpha 67.280208
_cell_angle_beta 48.943412
_cell_angle_gamma 27.397443
_cell_volume 939.758734
_symmetry_space_group_name_H-M "P -1"
_symmetry_group_IT_number 2
_symmetry_cell_setting 'triclinic'
loop_
_space_group_symop_operation_xyz
x,y,z
-x,-y,-z
loop_
_atom_site_type_symbol
_atom_site_label
_atom_site_fract_x
_atom_site_fract_y
_atom_site_fract_z
Si Si1 0.663642 0.905673 0.850509
Si Si2 0.398650 0.782858 0.210560
Si Si3 0.414690 0.712150 0.398656
Si Si4 0.992842 0.835313 0.023639
Si Si5 0.096630 0.889468 0.687699
Si Si6 0.266937 0.138541 0.907294
Si Si7 0.863362 0.511334 0.191900
Si Si8 0.829303 0.199637 0.915861
O O1 0.983368 0.630327 0.770718
O O2 0.569577 0.113083 0.831773
O O3 0.568602 0.910708 0.832657
O O4 0.500000 0.000000 0.000000
O O5 0.288030 0.829243 0.349311
O O6 0.701463 0.467846 0.103394
O O7 0.173555 0.948131 0.227125
O O8 0.202346 0.870982 0.552688
O O9 0.651317 0.411654 0.350169
O O10 0.583231 0.680968 0.314878
O O11 0.052371 0.812768 0.088729
O O12 0.773614 0.928023 0.107352
O O13 0.881432 0.039284 0.981215
O O14 0.005206 0.039610 0.774471
O O15 0.173069 0.330298 0.858975
O O16 0.062123 0.294715 0.063096
O O17 0.500000 0.500000 0.000000
#
# Coordination Sequence:
#
# PCOD9022177 Si02
#       8
#     2   2   2   2   2   2   2   2
#     4  10  20  27  50  83 113 142 174 215 276 337
#     4  12  19  35  54  83 116 142 180 221 279 330
#     4  11  21  36  55  82 119 143 179 224 274 339
#     4  11  22  34  57  80 108 144 181 230 273 318
#     4  11  23  36  56  81 112 153 182 221 275 323
#     4  10  18  32  51  76 114 138 176 226 273 324
#     4  10  17  31  50  80 110 145 173 218 279 326
#     4  11  23  39  56  78 108 146 189 229 264 318
#
# _framework density 17.025645000000001
#
# number of rings (size 3 to 8) (size 9 to 14) (size 15 to 20)
#    0.000    1.250    6.250    1.875    1.750    1.000 
#    0.000    0.000    0.000    0.750    0.000    1.750 
#    0.000    0.000    0.000    0.000    0.000    0.000 
#
# Total GULP energy -89227.394028 kJ/mol
# GULP energy per Si atom -5576.712127 kJ/mol
# Density = 1.698689 g / cm^3
# Si number density = 17.025645 Si / 1000 Ang^3
#
#
#
# Elastic Constant Matrix: (Units=GPa)
#
#
# Indices 1 2 3 4 5 6 
#
# 1 147.3943 31.5364 36.5339 -3.3532 13.6112 -1.4921
# 2 31.5364 64.8844 25.3896 -10.4629 8.7833 -8.3035
# 3 36.5339 25.3896 71.1618 -7.1669 12.6253 6.6075
# 4 -3.3532 -10.4629 -7.1669 19.8212 -1.6151 -4.2469
# 5 13.6112 8.7833 12.6253 -1.6151 25.4390 -5.7694
# 6 -1.4921 -8.3035 6.6075 -4.2469 -5.7694 26.0663
#
#
#
# Elastic Compliance Matrix: (Units=1/GPa)
#
#
# Indices 1 2 3 4 5 6 
#
# 1 0.008294 -0.002863 -0.002961 -0.001441 -0.002162 -0.000400
# 2 -0.002863 0.022457 -0.006381 0.011306 0.000034 0.010457
# 3 -0.002961 -0.006381 0.020235 0.000843 -0.008247 -0.009019
# 4 -0.001441 0.011306 0.000843 0.059706 0.003364 0.013778
# 5 -0.002162 0.000034 -0.008247 0.003364 0.047730 0.013090
# 6 -0.000400 0.010457 -0.009019 0.013778 0.013090 0.049100
#
#
# Mechanical properties :
#
#
# Convention : Reuss Voigt Hill
#
# Bulk Modulus (GPa) = 37.62833 52.26226 44.94529
# Shear Modulus (GPa) = 20.76491 26.93069 23.84780
#
# Velocity S-wave (km/s) = 3.49610 3.98146 3.74665
# Velocity P-wave (km/s) = 6.20048 7.20409 6.72104
#
# Compressibility (1/GPa) = 0.02657572
#
# Stress axis : x y z
#
# Youngs Moduli (GPa) = 120.57101 44.52880 49.42020
#
# Poissons Ratio (x) = 0.12751 0.14632
# Poissons Ratio (y) = 0.34525 0.31534
# Poissons Ratio (z) = 0.35698 0.28413
#
# Static dielectric constant tensor:
#      x y z
#    x 1.618910 -0.035650 -0.003660 
#    y -0.035650 1.600780 -0.000210 
#    z -0.003660 -0.000210 1.556340 
# 
# From -- ./inp_files/426526.got.cif
#   From: 2010.05.17/outbox.cif.g08.bks.cpg/sg2_214_cif.got.tgz:426526.got - 2010.06.03 11:33:40.
