data_PCOD9022386
_publ_section_title
;
Structure prediction by ZEFSAII (Michael W. Deem and Ramdas Pophale) SiO2 
 PCOD9022386
Probable space group: P -1
;
_chemical_formula_sum "Si O2"
_cell_formula_units_Z 16
_cell_length_a 6.986525
_cell_length_b 8.982534
_cell_length_c 25.442692
_cell_angle_alpha 38.142189
_cell_angle_beta 52.932648
_cell_angle_gamma 73.076413
_cell_volume 730.636546
_symmetry_space_group_name_H-M "P -1"
_symmetry_group_IT_number 2
_symmetry_cell_setting 'triclinic'
loop_
_space_group_symop_operation_xyz
x,y,z
-x,-y,-z
loop_
_atom_site_type_symbol
_atom_site_label
_atom_site_fract_x
_atom_site_fract_y
_atom_site_fract_z
Si Si1 0.390142 0.283422 0.729854
Si Si2 0.581439 0.974123 0.643334
Si Si3 0.770365 0.617276 0.870254
Si Si4 0.022005 0.512454 0.413569
Si Si5 0.950341 0.760770 0.615847
Si Si6 0.865819 0.893308 0.282139
Si Si7 0.234793 0.723804 0.680680
Si Si8 0.746239 0.322592 0.059000
O O1 0.695621 0.392609 0.634696
O O2 0.216975 0.268774 0.711570
O O3 0.327792 0.482769 0.723565
O O4 0.311512 0.984183 0.842854
O O5 0.343993 0.971335 0.717620
O O6 0.819949 0.239172 0.542171
O O7 0.690107 0.746796 0.692377
O O8 0.462264 0.949168 0.611133
O O9 0.494524 0.607503 0.898983
O O10 0.983236 0.652144 0.780166
O O11 0.763721 0.396909 0.973679
O O12 0.864340 0.873607 0.821209
O O13 0.082108 0.471301 0.353887
O O14 0.872753 0.710048 0.380625
O O15 0.160283 0.804367 0.614191
O O16 0.000000 0.000000 0.500000
O O17 0.000000 0.500000 0.000000
#
# Coordination Sequence:
#
# PCOD9022386 Si02
#       8
#     2   2   2   2   2   2   2   2
#     4  12  24  39  68  94 130 173 214 264 327 380
#     4  10  24  39  63  93 132 172 220 263 314 379
#     4  10  24  43  69  96 129 162 217 272 325 391
#     4  11  22  40  59  95 133 169 217 267 309 380
#     4  10  22  39  61  91 129 174 217 261 310 374
#     4  11  22  40  64  96 126 170 215 269 317 383
#     4  11  24  42  66  97 130 176 215 264 319 387
#     4  11  23  44  70  96 126 166 211 271 339 385
#
# _framework density 21.898713000000001
#
# number of rings (size 3 to 8) (size 9 to 14) (size 15 to 20)
#    0.000    1.250    5.000    0.375    1.750    5.000 
#    0.000    0.625    0.000    0.000    0.000    0.000 
#    0.000    0.000    0.000    0.000    0.000    0.000 
#
# Total GULP energy -89227.570350 kJ/mol
# GULP energy per Si atom -5576.723147 kJ/mol
# Density = 2.184887 g / cm^3
# Si number density = 21.898713 Si / 1000 Ang^3
#
#
#
# Elastic Constant Matrix: (Units=GPa)
#
#
# Indices 1 2 3 4 5 6 
#
# 1 131.9497 30.3743 50.3754 -6.4288 -13.2180 -5.1476
# 2 30.3743 76.6614 21.3437 1.7759 -3.5166 -1.8199
# 3 50.3754 21.3437 70.2115 0.3688 -16.0336 5.6281
# 4 -6.4288 1.7759 0.3688 30.8657 0.5292 -5.7082
# 5 -13.2180 -3.5166 -16.0336 0.5292 40.2879 -1.1550
# 6 -5.1476 -1.8199 5.6281 -5.7082 -1.1550 34.3728
#
#
#
# Elastic Compliance Matrix: (Units=1/GPa)
#
#
# Indices 1 2 3 4 5 6 
#
# 1 0.011366 -0.002356 -0.007599 0.003208 0.000554 0.003373
# 2 -0.002356 0.014832 -0.003016 -0.001166 -0.000643 0.000711
# 3 -0.007599 -0.003016 0.022428 -0.002747 0.006056 -0.005223
# 4 0.003208 -0.001166 -0.002747 0.034388 -0.000406 0.006565
# 5 0.000554 -0.000643 0.006056 -0.000406 0.027360 -0.000091
# 6 0.003373 0.000711 -0.005223 0.006565 -0.000091 0.031578
#
#
# Mechanical properties :
#
#
# Convention : Reuss Voigt Hill
#
# Bulk Modulus (GPa) = 44.08670 53.66771 48.87721
# Shear Modulus (GPa) = 28.49753 32.88722 30.69238
#
# Velocity S-wave (km/s) = 3.61131 3.87949 3.74780
# Velocity P-wave (km/s) = 6.12900 6.68040 6.41063
#
# Compressibility (1/GPa) = 0.02268258
#
# Stress axis : x y z
#
# Youngs Moduli (GPa) = 87.98525 67.42156 44.58785
#
# Poissons Ratio (x) = 0.15887 0.33883
# Poissons Ratio (y) = 0.20732 0.13447
# Poissons Ratio (z) = 0.66861 0.20334
#
# Static dielectric constant tensor:
#      x y z
#    x 1.832660 -0.012420 0.021320 
#    y -0.012420 1.898770 0.017950 
#    z 0.021320 0.017950 1.830770 
# 
# From -- ./inp_files/124798.got.cif
#   From: 2010.05.17/outbox.cif.g08.bks.cpg/sg2_63_cif.got.tgz:124798.got - 2010.06.03 11:33:40.
