data_PCOD9022505
_publ_section_title
;
Structure prediction by ZEFSAII (Michael W. Deem and Ramdas Pophale) SiO2 
 PCOD9022505
Probable space group: P -1
;
_chemical_formula_sum "Si O2"
_cell_formula_units_Z 15
_cell_length_a 9.759284
_cell_length_b 11.117338
_cell_length_c 15.953610
_cell_angle_alpha 144.312778
_cell_angle_beta 51.566344
_cell_angle_gamma 140.344265
_cell_volume 644.364284
_symmetry_space_group_name_H-M "P -1"
_symmetry_group_IT_number 2
_symmetry_cell_setting 'triclinic'
loop_
_space_group_symop_operation_xyz
x,y,z
-x,-y,-z
loop_
_atom_site_type_symbol
_atom_site_label
_atom_site_fract_x
_atom_site_fract_y
_atom_site_fract_z
Si Si1 0.259364 0.906775 0.173439
Si Si2 0.000000 0.000000 0.000000
Si Si3 0.399529 0.197239 0.454042
Si Si4 0.864853 0.351429 0.316626
Si Si5 0.316581 0.602542 0.754087
Si Si6 0.565676 0.481785 0.872269
Si Si7 0.292304 0.838583 0.429297
Si Si8 0.191178 0.405463 0.877387
O O1 0.052843 0.834692 0.157919
O O2 0.274074 0.033707 0.327547
O O3 0.481492 0.106135 0.155740
O O4 0.230109 0.642678 0.048261
O O5 0.902999 0.133945 0.169295
O O6 0.242624 0.236120 0.067008
O O7 0.638791 0.262641 0.393948
O O8 0.405102 0.446132 0.597336
O O9 0.278172 0.033285 0.489659
O O10 0.845657 0.418803 0.265191
O O11 0.067841 0.611584 0.426197
O O12 0.223296 0.495491 0.820033
O O13 0.654025 0.311816 0.739631
O O14 0.365522 0.365933 0.820796
O O15 0.500000 0.500000 0.000000
O O16 0.500000 0.000000 0.500000
#
# Coordination Sequence:
#
# PCOD9022505 Si02
#       8
#     2   1   2   2   2   2   2   2
#     4  10  22  39  62  92 122 157 199 254 313 361
#     4  10  22  40  64  88 118 162 206 246 294 362
#     4  11  23  42  63  88 124 164 204 248 305 367
#     4  10  22  41  64  90 122 162 205 249 306 365
#     4  11  23  39  65  93 123 160 201 254 307 362
#     4  11  23  40  62  86 119 163 203 246 300 362
#     4  11  24  39  59  88 121 160 204 248 299 359
#     4  11  23  39  62  93 124 155 203 260 306 356
#
# _framework density 23.278759999999998
#
# number of rings (size 3 to 8) (size 9 to 14) (size 15 to 20)
#    0.000    1.333    0.000    6.800    0.000   10.133 
#    0.000    0.000    0.000    0.000    0.000    0.000 
#    0.000    0.000    0.000    0.000    0.000    0.000 
#
# Total GULP energy -83658.020459 kJ/mol
# GULP energy per Si atom -5577.201364 kJ/mol
# Density = 2.322578 g / cm^3
# Si number density = 23.278760 Si / 1000 Ang^3
#
#
#
# Elastic Constant Matrix: (Units=GPa)
#
#
# Indices 1 2 3 4 5 6 
#
# 1 45.9710 24.6624 3.7573 12.3848 1.7099 21.9498
# 2 24.6624 53.7107 22.0858 14.3004 8.2058 26.8167
# 3 3.7573 22.0858 87.6395 7.6522 6.9313 18.7282
# 4 12.3848 14.3004 7.6522 38.3015 8.6475 10.9121
# 5 1.7099 8.2058 6.9313 8.6475 28.1634 -3.5422
# 6 21.9498 26.8167 18.7282 10.9121 -3.5422 45.8452
#
#
#
# Elastic Compliance Matrix: (Units=1/GPa)
#
#
# Indices 1 2 3 4 5 6 
#
# 1 0.033192 -0.010522 0.003784 -0.004742 0.000301 -0.010131
# 2 -0.010522 0.033814 -0.004346 -0.002612 -0.008982 -0.013039
# 3 0.003784 -0.004346 0.013665 -0.000252 -0.002880 -0.005014
# 4 -0.004742 -0.002612 -0.000252 0.032028 -0.009281 -0.004439
# 5 0.000301 -0.008982 -0.002880 -0.009281 0.043152 0.011829
# 6 -0.010131 -0.013039 -0.005014 -0.004439 0.011829 0.038309
#
#
# Mechanical properties :
#
#
# Convention : Reuss Voigt Hill
#
# Bulk Modulus (GPa) = 17.09328 32.03691 24.56510
# Shear Modulus (GPa) = 21.20193 31.58308 26.39250
#
# Velocity S-wave (km/s) = 3.02119 3.68738 3.37079
# Velocity P-wave (km/s) = 4.41916 5.64989 5.07199
#
# Compressibility (1/GPa) = 0.05850252
#
# Stress axis : x y z
#
# Youngs Moduli (GPa) = 30.12801 29.57338 73.18175
#
# Poissons Ratio (x) = 0.31117 -0.27690
# Poissons Ratio (y) = 0.31701 0.31802
# Poissons Ratio (z) = -0.11400 0.12852
#
# Static dielectric constant tensor:
#      x y z
#    x 1.858390 0.009230 0.005340 
#    y 0.009230 1.900260 -0.014490 
#    z 0.005340 -0.014490 1.859070 
# 
# From -- ./inp_files/437436.got.cif
#   From: 2010.05.17/outbox.cif.g08.bks.cpg/sg2_219_cif.got.tgz:437436.got - 2010.06.03 11:33:40.
