data_PCOD9022871
_publ_section_title
;
Structure prediction by ZEFSAII (Michael W. Deem and Ramdas Pophale) SiO2 
 PCOD9022871
Probable space group: P -1
;
_chemical_formula_sum "Si O2"
_cell_formula_units_Z 15
_cell_length_a 8.020816
_cell_length_b 8.144199
_cell_length_c 12.025348
_cell_angle_alpha 116.365970
_cell_angle_beta 65.511378
_cell_angle_gamma 116.885800
_cell_volume 604.884730
_symmetry_space_group_name_H-M "P -1"
_symmetry_group_IT_number 2
_symmetry_cell_setting 'triclinic'
loop_
_space_group_symop_operation_xyz
x,y,z
-x,-y,-z
loop_
_atom_site_type_symbol
_atom_site_label
_atom_site_fract_x
_atom_site_fract_y
_atom_site_fract_z
Si Si1 0.591525 0.196562 0.429532
Si Si2 0.987806 0.710726 0.587074
Si Si3 0.051545 0.219051 0.789201
Si Si4 0.000000 0.000000 0.500000
Si Si5 0.648478 0.632299 0.828952
Si Si6 0.292772 0.627719 0.771237
Si Si7 0.468439 0.215959 0.714226
Si Si8 0.813068 0.022975 0.001208
O O1 0.644522 0.358873 0.370380
O O2 0.497500 0.249022 0.581636
O O3 0.790454 0.169265 0.408864
O O4 0.476494 0.981727 0.347710
O O5 0.847795 0.702698 0.725913
O O6 0.000000 0.500000 0.500000
O O7 0.924018 0.786412 0.515141
O O8 0.111240 0.444848 0.804900
O O9 0.246159 0.201231 0.789522
O O10 0.009520 0.094649 0.651395
O O11 0.877109 0.131754 0.897617
O O12 0.472797 0.626393 0.795275
O O13 0.604078 0.404340 0.798964
O O14 0.666642 0.804200 0.962139
O O15 0.257262 0.830213 0.863158
O O16 0.000000 0.000000 0.000000
#
# Coordination Sequence:
#
# PCOD9022871 Si02
#       8
#     2   2   2   1   2   2   2   2
#     4  11  22  42  66 100 149 175 231 279 357 427
#     4  12  23  41  66 105 143 185 230 279 357 431
#     4  11  24  43  68 100 136 180 234 280 356 418
#     4  12  24  40  72 104 146 184 224 300 356 424
#     4  11  24  43  67 100 137 173 240 288 354 415
#     4  11  26  43  70 100 137 189 230 294 347 416
#     4  10  22  39  64  98 138 175 222 288 345 419
#     4  12  25  49  72  93 137 187 241 291 339 424
#
# _framework density 24.798113000000001
#
# number of rings (size 3 to 8) (size 9 to 14) (size 15 to 20)
#    0.000    0.800    4.000    3.200    1.867    1.067 
#    0.000    7.333    0.000    0.000    0.000    0.000 
#    0.000    0.000    0.000    0.000    0.000    0.000 
#
# Total GULP energy -83700.924159 kJ/mol
# GULP energy per Si atom -5580.061611 kJ/mol
# Density = 2.474167 g / cm^3
# Si number density = 24.798113 Si / 1000 Ang^3
#
#
#
# Elastic Constant Matrix: (Units=GPa)
#
#
# Indices 1 2 3 4 5 6 
#
# 1 18.6833 -2.1978 10.3948 8.2405 -9.7798 9.6636
# 2 -2.1978 147.7900 48.3436 25.9581 10.8028 -5.2814
# 3 10.3948 48.3436 73.9864 -0.8773 8.3995 -1.6730
# 4 8.2405 25.9581 -0.8773 52.7967 -4.5847 -6.4409
# 5 -9.7798 10.8028 8.3995 -4.5847 27.9317 1.9292
# 6 9.6636 -5.2814 -1.6730 -6.4409 1.9292 30.8287
#
#
#
# Elastic Compliance Matrix: (Units=1/GPa)
#
#
# Indices 1 2 3 4 5 6 
#
# 1 0.152389 0.014750 -0.039340 -0.033740 0.057953 -0.058052
# 2 0.014750 0.011363 -0.010027 -0.008446 0.002755 -0.005158
# 3 -0.039340 -0.010027 0.028075 0.011938 -0.017465 0.015724
# 4 -0.033740 -0.008446 0.011938 0.029847 -0.008380 0.016537
# 5 0.057953 0.002755 -0.017465 -0.008380 0.060574 -0.024183
# 6 -0.058052 -0.005158 0.015724 0.016537 -0.024183 0.055572
#
#
# Mechanical properties :
#
#
# Convention : Reuss Voigt Hill
#
# Bulk Modulus (GPa) = 8.15700 39.28232 23.71966
# Shear Modulus (GPa) = 11.16273 34.57270 22.86772
#
# Velocity S-wave (km/s) = 2.12396 3.73790 3.04000
# Velocity P-wave (km/s) = 3.05147 5.87405 4.68060
#
# Compressibility (1/GPa) = 0.12259403
#
# Stress axis : x y z
#
# Youngs Moduli (GPa) = 6.56214 88.00252 35.61926
#
# Poissons Ratio (x) = -1.29806 1.40127
# Poissons Ratio (y) = -0.09679 0.35715
# Poissons Ratio (z) = 0.25816 0.88238
#
# Static dielectric constant tensor:
#      x y z
#    x 1.972270 0.041870 0.003030 
#    y 0.041870 2.080920 0.030120 
#    z 0.003030 0.030120 1.944920 
# 
# From -- ./inp_files/237052.got.cif
#   From: 2010.05.17/outbox.cif.g08.bks.cpg/sg2_119_cif.got.tgz:237052.got - 2010.06.03 11:33:40.
