data_PCOD9022482
_publ_section_title
;
Structure prediction by ZEFSAII (Michael W. Deem and Ramdas Pophale) SiO2 
 PCOD9022482
Probable space group: P -1
;
_chemical_formula_sum "Si O2"
_cell_formula_units_Z 13
_cell_length_a 12.335446
_cell_length_b 16.067148
_cell_length_c 17.397376
_cell_angle_alpha 16.933893
_cell_angle_beta 32.115812
_cell_angle_gamma 32.530036
_cell_volume 521.767815
_symmetry_space_group_name_H-M "P -1"
_symmetry_group_IT_number 2
_symmetry_cell_setting 'triclinic'
loop_
_space_group_symop_operation_xyz
x,y,z
-x,-y,-z
loop_
_atom_site_type_symbol
_atom_site_label
_atom_site_fract_x
_atom_site_fract_y
_atom_site_fract_z
Si Si1 0.576257 0.496002 0.545160
Si Si2 0.566163 0.097870 0.019922
Si Si3 0.835135 0.694534 0.516604
Si Si4 0.579653 0.455112 0.153837
Si Si5 0.000000 0.000000 0.000000
Si Si6 0.158928 0.159857 0.438433
Si Si7 0.175997 0.841574 0.477848
O O1 0.500000 0.500000 0.500000
O O2 0.343463 0.587665 0.642738
O O3 0.679576 0.766423 0.264118
O O4 0.671269 0.203551 0.789509
O O5 0.336026 0.048650 0.180896
O O6 0.546859 0.316865 0.908862
O O7 0.590245 0.697776 0.647712
O O8 0.860817 0.790977 0.502999
O O9 0.943126 0.353048 0.743009
O O10 0.909257 0.906888 0.222017
O O11 0.749003 0.186500 0.324697
O O12 0.690360 0.649351 0.859741
O O13 0.938785 0.249666 0.446599
O O14 0.000000 0.000000 0.500000
#
# Coordination Sequence:
#
# PCOD9022482 Si02
#       7
#     2   2   2   2   1   2   2
#     4  10  22  41  59  89 130 171 223 264 316 386
#     4  10  22  39  62  90 125 172 211 258 322 386
#     4  11  24  46  66 100 123 175 213 272 320 392
#     4  12  23  41  67  97 130 165 212 274 329 386
#     4  10  24  50  68  86 138 168 226 256 326 390
#     4  12  24  39  68  99 130 167 215 272 330 382
#     4  10  22  40  63  94 132 168 213 268 322 381
#
# _framework density 24.915296000000001
#
# number of rings (size 3 to 8) (size 9 to 14) (size 15 to 20)
#    0.923    0.308    1.538    5.077    2.154    1.231 
#    8.308    0.000    0.000    0.000    0.000    0.000 
#    0.000    0.000    0.000    0.000    0.000    0.000 
#
# Total GULP energy -72393.080098 kJ/mol
# GULP energy per Si atom -5568.698469 kJ/mol
# Density = 2.485859 g / cm^3
# Si number density = 24.915296 Si / 1000 Ang^3
#
#
#
# Elastic Constant Matrix: (Units=GPa)
#
#
# Indices 1 2 3 4 5 6 
#
# 1 115.6013 13.2453 32.0943 25.3743 -7.4298 11.8908
# 2 13.2453 40.1070 21.7262 9.9777 -4.8142 18.5496
# 3 32.0943 21.7262 226.2173 15.4145 17.7705 4.8491
# 4 25.3743 9.9777 15.4145 45.6770 7.6289 6.6901
# 5 -7.4298 -4.8142 17.7705 7.6289 25.0042 2.1496
# 6 11.8908 18.5496 4.8491 6.6901 2.1496 35.2934
#
#
#
# Elastic Compliance Matrix: (Units=1/GPa)
#
#
# Indices 1 2 3 4 5 6 
#
# 1 0.011261 0.001341 -0.001764 -0.006650 0.007182 -0.003433
# 2 0.001341 0.039909 -0.004263 -0.007581 0.015172 -0.020329
# 3 -0.001764 -0.004263 0.005425 0.000679 -0.005605 0.002302
# 4 -0.006650 -0.007581 0.000679 0.028955 -0.012875 0.001427
# 5 0.007182 0.015172 -0.005605 -0.012875 0.053860 -0.010464
# 6 -0.003433 -0.020329 0.002302 0.001427 -0.010464 0.040226
#
#
# Mechanical properties :
#
#
# Convention : Reuss Voigt Hill
#
# Bulk Modulus (GPa) = 21.17601 57.33968 39.25785
# Shear Modulus (GPa) = 24.42027 42.18556 33.30292
#
# Velocity S-wave (km/s) = 3.13410 4.11927 3.65998
# Velocity P-wave (km/s) = 4.64913 6.75931 5.80098
#
# Compressibility (1/GPa) = 0.04722325
#
# Stress axis : x y z
#
# Youngs Moduli (GPa) = 88.80322 25.05712 184.33606
#
# Poissons Ratio (x) = -0.03360 0.32514
# Poissons Ratio (y) = -0.11908 0.78577
# Poissons Ratio (z) = 0.15664 0.10681
#
# Static dielectric constant tensor:
#      x y z
#    x 2.161230 -0.038920 -0.052820 
#    y -0.038920 2.173220 0.026300 
#    z -0.052820 0.026300 2.008530 
# 
# From -- ./inp_files/521191.got.cif
#   From: 2010.05.17/outbox.cif.g08.bks.cpg/sg2_261_cif.got.tgz:521191.got - 2010.06.03 11:33:40.
