data_PCOD9022897
_publ_section_title
;
Structure prediction by ZEFSAII (Michael W. Deem and Ramdas Pophale) SiO2 
 PCOD9022897
Probable space group: P -1
;
_chemical_formula_sum "Si O2"
_cell_formula_units_Z 16
_cell_length_a 16.055455
_cell_length_b 5.182584
_cell_length_c 16.203911
_cell_angle_alpha 55.288189
_cell_angle_beta 34.065254
_cell_angle_gamma 64.291256
_cell_volume 618.713833
_symmetry_space_group_name_H-M "P -1"
_symmetry_group_IT_number 2
_symmetry_cell_setting 'triclinic'
loop_
_space_group_symop_operation_xyz
x,y,z
-x,-y,-z
loop_
_atom_site_type_symbol
_atom_site_label
_atom_site_fract_x
_atom_site_fract_y
_atom_site_fract_z
Si Si1 0.146056 0.258646 0.379326
Si Si2 0.405440 0.687655 0.801064
Si Si3 0.899229 0.356751 0.202254
Si Si4 0.914044 0.131702 0.951534
Si Si5 0.419266 0.649341 0.616558
Si Si6 0.413016 0.300703 0.034953
Si Si7 0.734737 0.837090 0.532732
Si Si8 0.032097 0.564398 0.635898
O O1 0.254237 0.196437 0.225443
O O2 0.251522 0.318604 0.360747
O O3 0.044937 0.515586 0.376205
O O4 0.056666 0.935795 0.539842
O O5 0.419980 0.504813 0.735165
O O6 0.564981 0.883477 0.644890
O O7 0.258593 0.881052 0.878060
O O8 0.394837 0.479518 0.930589
O O9 0.753482 0.346619 0.267352
O O10 0.968725 0.699964 0.109550
O O11 0.837568 0.154097 0.369167
O O12 0.025103 0.167199 0.089524
O O13 0.928437 0.402879 0.819471
O O14 0.500000 0.500000 0.500000
O O15 0.500000 0.000000 0.500000
O O16 0.500000 0.500000 0.000000
O O17 0.500000 0.000000 0.000000
O O18 0.809502 0.584460 0.459984
#
# Coordination Sequence:
#
# PCOD9022897 Si02
#       8
#     2   2   2   2   2   2   2   2
#     4  11  21  40  66  99 141 197 250 289 365 441
#     4  12  27  49  75 114 151 196 254 318 379 440
#     4  11  25  48  74 106 148 193 249 304 372 447
#     4  11  25  47  72 110 148 194 244 308 377 440
#     4  12  28  50  82 115 145 193 257 317 377 450
#     4  12  27  45  68 107 153 194 238 302 373 436
#     4  11  22  42  72 101 142 196 247 304 364 443
#     4  10  22  39  65 101 141 198 243 298 356 452
#
# _framework density 25.860099000000002
#
# number of rings (size 3 to 8) (size 9 to 14) (size 15 to 20)
#    0.000    0.750    5.000    1.875    1.750    5.000 
#    2.250    0.000    0.000    0.000    0.000    0.000 
#    0.000    0.000    0.000    0.000    0.000    0.000 
#
# Total GULP energy -89537.861750 kJ/mol
# GULP energy per Si atom -5596.116359 kJ/mol
# Density = 2.580124 g / cm^3
# Si number density = 25.860099 Si / 1000 Ang^3
#
#
#
# Elastic Constant Matrix: (Units=GPa)
#
#
# Indices 1 2 3 4 5 6 
#
# 1 142.2424 33.3609 56.6155 12.2887 3.5921 3.0795
# 2 33.3609 144.6689 52.6669 14.3633 -22.3009 17.4632
# 3 56.6155 52.6669 161.8222 21.2039 -3.5183 1.0299
# 4 12.2887 14.3633 21.2039 45.8092 -8.6197 -0.4992
# 5 3.5921 -22.3009 -3.5183 -8.6197 70.2698 10.0137
# 6 3.0795 17.4632 1.0299 -0.4992 10.0137 35.8820
#
#
#
# Elastic Compliance Matrix: (Units=1/GPa)
#
#
# Indices 1 2 3 4 5 6 
#
# 1 0.008380 -0.001124 -0.002465 -0.000950 -0.001051 0.000179
# 2 -0.001124 0.009339 -0.002417 -0.000897 0.003558 -0.005385
# 3 -0.002465 -0.002417 0.008128 -0.002465 -0.000725 0.001323
# 4 -0.000950 -0.000897 -0.002465 0.023989 0.002553 0.000210
# 5 -0.001051 0.003558 -0.000725 0.002553 0.016576 -0.006211
# 6 0.000179 -0.005385 0.001323 0.000210 -0.006211 0.032173
#
#
# Mechanical properties :
#
#
# Convention : Reuss Voigt Hill
#
# Bulk Modulus (GPa) = 72.28882 81.55780 76.92331
# Shear Modulus (GPa) = 43.39966 50.79819 47.09892
#
# Velocity S-wave (km/s) = 4.10109 4.43690 4.27230
# Velocity P-wave (km/s) = 7.10209 7.60623 7.35848
#
# Compressibility (1/GPa) = 0.01383340
#
# Stress axis : x y z
#
# Youngs Moduli (GPa) = 119.33265 107.07887 123.03684
#
# Poissons Ratio (x) = 0.12036 0.30334
# Poissons Ratio (y) = 0.13413 0.29738
# Poissons Ratio (z) = 0.29421 0.25881
#
# Static dielectric constant tensor:
#      x y z
#    x 2.220790 0.023730 0.020410 
#    y 0.023730 2.037340 0.016030 
#    z 0.020410 0.016030 2.036480 
# 
# From -- ./inp_files/525543.got.cif
#   From: 2010.05.17/outbox.cif.g08.bks.cpg/sg2_263_cif.got.tgz:525543.got - 2010.06.03 11:33:40.
