data_PCOD9022906
_publ_section_title
;
Structure prediction by ZEFSAII (Michael W. Deem and Ramdas Pophale) SiO2 
 PCOD9022906
Probable space group: P -1
;
_chemical_formula_sum "Si O2"
_cell_formula_units_Z 14
_cell_length_a 14.052615
_cell_length_b 10.822758
_cell_length_c 18.874058
_cell_angle_alpha 149.205365
_cell_angle_beta 24.633283
_cell_angle_gamma 146.227879
_cell_volume 595.195872
_symmetry_space_group_name_H-M "P -1"
_symmetry_group_IT_number 2
_symmetry_cell_setting 'triclinic'
loop_
_space_group_symop_operation_xyz
x,y,z
-x,-y,-z
loop_
_atom_site_type_symbol
_atom_site_label
_atom_site_fract_x
_atom_site_fract_y
_atom_site_fract_z
Si Si1 0.501415 0.769162 0.436761
Si Si2 0.978740 0.088194 0.291653
Si Si3 0.476470 0.980979 0.922953
Si Si4 0.957903 0.315203 0.708385
Si Si5 0.439925 0.236170 0.371723
Si Si6 0.059674 0.450765 0.543267
Si Si7 0.194206 0.853305 0.821964
O O1 0.346519 0.523362 0.382865
O O2 0.349293 0.806279 0.626571
O O3 0.500000 0.000000 0.500000
O O4 0.776807 0.834643 0.299734
O O5 0.947737 0.243651 0.459870
O O6 0.989516 0.286472 0.318295
O O7 0.228626 0.032001 0.098925
O O8 0.699750 0.179479 0.838672
O O9 0.487205 0.742976 0.749820
O O10 0.500000 0.000000 0.000000
O O11 0.155429 0.172167 0.530080
O O12 0.977481 0.369286 0.637550
O O13 0.036192 0.588954 0.824303
O O14 0.500000 0.500000 0.500000
O O15 0.597942 0.070069 0.221744
O O16 0.000000 0.000000 0.000000
#
# Coordination Sequence:
#
# PCOD9022906 Si02
#       7
#     2   2   2   2   2   2   2
#     4   9  20  37  62  94 138 178 218 286 359 410
#     4  10  22  39  65 104 134 187 229 297 357 417
#     4  12  27  43  70 103 143 183 252 294 351 434
#     4  10  23  44  68  95 142 187 229 291 361 423
#     4  10  24  47  69  98 136 189 234 286 367 425
#     4   9  20  41  65  96 143 180 233 282 368 426
#     4  10  23  41  70 103 134 182 243 290 343 435
#
# _framework density 23.52167
#
# number of rings (size 3 to 8) (size 9 to 14) (size 15 to 20)
#    0.000    2.000    0.000    1.286   10.000    4.000 
#    2.571    2.857    0.000    0.000    0.000    0.000 
#    0.000    0.000    0.000    0.000    0.000    0.000 
#
# Total GULP energy -78113.703131 kJ/mol
# GULP energy per Si atom -5579.550224 kJ/mol
# Density = 2.346813 g / cm^3
# Si number density = 23.521670 Si / 1000 Ang^3
#
#
#
# Elastic Constant Matrix: (Units=GPa)
#
#
# Indices 1 2 3 4 5 6 
#
# 1 136.7698 38.8293 45.0790 -16.8441 -16.2738 4.1012
# 2 38.8293 98.6482 36.2605 -32.6931 -5.5238 7.2472
# 3 45.0790 36.2605 124.6534 -22.6537 -39.5780 0.3205
# 4 -16.8441 -32.6931 -22.6537 42.7066 4.0277 -3.6225
# 5 -16.2738 -5.5238 -39.5780 4.0277 57.1934 -4.3108
# 6 4.1012 7.2472 0.3205 -3.6225 -4.3108 30.7371
#
#
#
# Elastic Compliance Matrix: (Units=1/GPa)
#
#
# Indices 1 2 3 4 5 6 
#
# 1 0.008886 -0.002515 -0.002199 0.000309 0.000709 -0.000434
# 2 -0.002515 0.015157 -0.002339 0.009331 -0.001705 -0.002353
# 3 -0.002199 -0.002339 0.012597 0.003478 0.007787 0.002216
# 4 0.000309 0.009331 0.003478 0.032556 0.001234 0.001732
# 5 0.000709 -0.001705 0.007787 0.001234 0.023096 0.003611
# 6 -0.000434 -0.002353 0.002216 0.001732 0.003611 0.033834
#
#
# Mechanical properties :
#
#
# Convention : Reuss Voigt Hill
#
# Bulk Modulus (GPa) = 44.38003 66.71211 55.54607
# Shear Modulus (GPa) = 33.84251 42.12093 37.98172
#
# Velocity S-wave (km/s) = 3.79724 4.23629 4.02276
# Velocity P-wave (km/s) = 6.17528 7.23545 6.72629
#
# Compressibility (1/GPa) = 0.02253266
#
# Stress axis : x y z
#
# Youngs Moduli (GPa) = 112.53672 65.97760 79.38527
#
# Poissons Ratio (x) = 0.16595 0.17460
# Poissons Ratio (y) = 0.28306 0.18566
# Poissons Ratio (z) = 0.24752 0.15430
#
# Static dielectric constant tensor:
#      x y z
#    x 2.017220 0.062910 -0.030470 
#    y 0.062910 1.964470 0.079690 
#    z -0.030470 0.079690 1.923300 
# 
# From -- ./inp_files/214014.got.cif
#   From: 2010.05.17/outbox.cif.g08.bks.cpg/sg2_108_cif.got.tgz:214014.got - 2010.06.03 11:33:40.
