data_PCOD9022066
_publ_section_title
;
Structure prediction by ZEFSAII (Michael W. Deem and Ramdas Pophale) SiO2 
 PCOD9022066
Probable space group: P -1
;
_chemical_formula_sum "Si O2"
_cell_formula_units_Z 16
_cell_length_a 8.759356
_cell_length_b 22.853609
_cell_length_c 9.771124
_cell_angle_alpha 26.752074
_cell_angle_beta 115.067457
_cell_angle_gamma 112.321093
_cell_volume 797.525017
_symmetry_space_group_name_H-M "P -1"
_symmetry_group_IT_number 2
_symmetry_cell_setting 'triclinic'
loop_
_space_group_symop_operation_xyz
x,y,z
-x,-y,-z
loop_
_atom_site_type_symbol
_atom_site_label
_atom_site_fract_x
_atom_site_fract_y
_atom_site_fract_z
Si Si1 0.913474 0.214553 0.303123
Si Si2 0.377730 0.615532 0.665585
Si Si3 0.961814 0.806198 0.075218
Si Si4 0.466544 0.105884 0.932278
Si Si5 0.871156 0.381476 0.681700
Si Si6 0.777300 0.963934 0.257073
Si Si7 0.322688 0.035032 0.299756
Si Si8 0.063766 0.643639 0.692326
O O1 0.928001 0.275791 0.331882
O O2 0.096476 0.160017 0.433809
O O3 0.786811 0.092004 0.513751
O O4 0.840183 0.319163 0.948850
O O5 0.468931 0.754417 0.387693
O O6 0.283601 0.583661 0.551506
O O7 0.238561 0.634680 0.692220
O O8 0.500000 0.500000 0.000000
O O9 0.036634 0.730817 0.134467
O O10 0.941918 0.710829 0.395136
O O11 0.791521 0.879299 0.823464
O O12 0.095635 0.914774 0.946539
O O13 0.331419 0.047787 0.897140
O O14 0.368049 0.116917 0.012259
O O15 0.627313 0.008228 0.211007
O O16 0.000000 0.500000 0.500000
O O17 0.500000 0.000000 0.500000
O O18 0.000000 0.500000 0.000000
#
# Coordination Sequence:
#
# PCOD9022066 Si02
#       8
#     2   2   2   2   2   2   2   2
#     4  11  24  42  67  98 131 167 221 269 332 393
#     4  11  26  46  68  95 133 176 221 272 322 393
#     4  10  22  44  64  93 129 173 220 263 324 398
#     4  11  22  41  64 101 131 165 220 268 334 389
#     4  11  24  45  68  94 130 177 223 264 326 395
#     4  10  22  38  70  91 128 169 210 269 330 390
#     4  11  25  38  64  96 133 167 208 274 333 384
#     4  11  23  43  68  93 124 173 225 264 317 389
#
# _framework density 20.062069000000001
#
# number of rings (size 3 to 8) (size 9 to 14) (size 15 to 20)
#    0.000    1.250    2.500    3.750    8.750    3.000 
#    2.250    0.625    0.000    0.000    0.000    0.000 
#    0.000    0.000    0.000    0.000    0.000    0.000 
#
# Total GULP energy -89289.832685 kJ/mol
# GULP energy per Si atom -5580.614543 kJ/mol
# Density = 2.001641 g / cm^3
# Si number density = 20.062069 Si / 1000 Ang^3
#
#
#
# Elastic Constant Matrix: (Units=GPa)
#
#
# Indices 1 2 3 4 5 6 
#
# 1 75.4357 7.8773 32.7339 3.2238 12.7662 19.2355
# 2 7.8773 59.5780 19.6192 -1.5515 2.8596 9.6681
# 3 32.7339 19.6192 70.3091 9.8919 7.2217 2.9874
# 4 3.2238 -1.5515 9.8919 32.1922 5.2741 -2.5534
# 5 12.7662 2.8596 7.2217 5.2741 45.3314 7.2153
# 6 19.2355 9.6681 2.9874 -2.5534 7.2153 24.3028
#
#
#
# Elastic Compliance Matrix: (Units=1/GPa)
#
#
# Indices 1 2 3 4 5 6 
#
# 1 0.022002 0.003301 -0.010250 0.000115 -0.002106 -0.016831
# 2 0.003301 0.020296 -0.007098 0.002025 0.000224 -0.009669
# 3 -0.010250 -0.007098 0.021438 -0.005146 -0.000753 0.007984
# 4 0.000115 0.002025 -0.005146 0.033736 -0.003975 0.004460
# 5 -0.002106 0.000224 -0.000753 -0.003975 0.024164 -0.005921
# 6 -0.016831 -0.009669 0.007984 0.004460 -0.005921 0.059561
#
#
# Mechanical properties :
#
#
# Convention : Reuss Voigt Hill
#
# Bulk Modulus (GPa) = 28.05475 36.19818 32.12647
# Shear Modulus (GPa) = 22.60702 30.03811 26.32256
#
# Velocity S-wave (km/s) = 3.36051 3.87364 3.62616
# Velocity P-wave (km/s) = 5.39182 6.17163 5.79486
#
# Compressibility (1/GPa) = 0.03564459
#
# Stress axis : x y z
#
# Youngs Moduli (GPa) = 45.44941 49.26963 46.64700
#
# Poissons Ratio (x) = -0.16266 0.47812
# Poissons Ratio (y) = -0.15005 0.33109
# Poissons Ratio (z) = 0.46584 0.34970
#
# Static dielectric constant tensor:
#      x y z
#    x 1.712010 -0.001650 0.026350 
#    y -0.001650 1.671950 0.018820 
#    z 0.026350 0.018820 1.726400 
# 
# From -- ./inp_files/222876.got.cif
#   From: 2010.05.17/outbox.cif.g08.bks.cpg/sg2_112_cif.got.tgz:222876.got - 2010.06.03 11:33:40.
