data_PCOD9022736
_publ_section_title
;
Structure prediction by ZEFSAII (Michael W. Deem and Ramdas Pophale) SiO2 
 PCOD9022736
Probable space group: P -1
;
_chemical_formula_sum "Si O2"
_cell_formula_units_Z 12
_cell_length_a 5.414447
_cell_length_b 9.748218
_cell_length_c 11.136417
_cell_angle_alpha 85.655845
_cell_angle_beta 57.623697
_cell_angle_gamma 101.494242
_cell_volume 474.496419
_symmetry_space_group_name_H-M "P -1"
_symmetry_group_IT_number 2
_symmetry_cell_setting 'triclinic'
loop_
_space_group_symop_operation_xyz
x,y,z
-x,-y,-z
loop_
_atom_site_type_symbol
_atom_site_label
_atom_site_fract_x
_atom_site_fract_y
_atom_site_fract_z
Si Si1 0.535472 0.672642 0.254053
Si Si2 0.509189 0.144920 0.362903
Si Si3 0.689329 0.412078 0.149687
Si Si4 0.055411 0.928383 0.116414
Si Si5 0.179297 0.833361 0.458822
Si Si6 0.603828 0.782776 0.956659
O O1 0.578684 0.516516 0.260516
O O2 0.230634 0.700555 0.379852
O O3 0.605030 0.718429 0.093467
O O4 0.791077 0.797957 0.245420
O O5 0.713077 0.269265 0.217897
O O6 0.689223 0.161148 0.440479
O O7 0.172895 0.170493 0.459327
O O8 0.405723 0.985593 0.342357
O O9 0.445937 0.346462 0.113888
O O10 0.000000 0.500000 0.000000
O O11 0.319671 0.851695 0.032168
O O12 0.139682 0.074166 0.161427
O O13 0.000000 0.000000 0.000000
#
# Coordination Sequence:
#
# PCOD9022736 Si02
#       6
#     2   2   2   2   2   2
#     4  11  24  40  70 101 141 183 234 294 356 433
#     4  10  26  48  73 103 141 189 242 303 348 423
#     4  12  26  44  68 108 149 182 228 297 372 428
#     4   9  20  37  61  99 129 187 232 284 339 415
#     4  10  25  49  74 102 136 193 252 290 347 418
#     4  10  22  39  63  99 142 184 229 285 358 416
#
# _framework density 25.289968999999999
#
# number of rings (size 3 to 8) (size 9 to 14) (size 15 to 20)
#    0.000    1.667    1.667    0.500    9.333    6.667 
#    0.000    0.000    0.000    0.000    0.000    0.000 
#    0.000    0.000    0.000    0.000    0.000    0.000 
#
# Total GULP energy -67095.856447 kJ/mol
# GULP energy per Si atom -5591.321371 kJ/mol
# Density = 2.523241 g / cm^3
# Si number density = 25.289969 Si / 1000 Ang^3
#
#
#
# Elastic Constant Matrix: (Units=GPa)
#
#
# Indices 1 2 3 4 5 6 
#
# 1 76.2112 12.1808 8.4490 -2.7483 -0.5329 0.0185
# 2 12.1808 143.2532 30.7866 5.4657 -22.8372 -1.0676
# 3 8.4490 30.7866 58.9083 -7.3596 6.7140 2.0049
# 4 -2.7483 5.4657 -7.3596 48.8062 -12.2032 -6.3577
# 5 -0.5329 -22.8372 6.7140 -12.2032 39.3786 0.1066
# 6 0.0185 -1.0676 2.0049 -6.3577 0.1066 43.9955
#
#
#
# Elastic Compliance Matrix: (Units=1/GPa)
#
#
# Indices 1 2 3 4 5 6 
#
# 1 0.013439 -0.000837 -0.001426 0.000692 0.000153 0.000139
# 2 -0.000837 0.009223 -0.005456 -0.000306 0.006172 0.000414
# 3 -0.001426 -0.005456 0.021014 0.002067 -0.006123 -0.000776
# 4 0.000692 -0.000306 0.002067 0.022935 0.006578 0.003196
# 5 0.000153 0.006172 -0.006123 0.006578 0.032055 0.001302
# 6 0.000139 0.000414 -0.000776 0.003196 0.001302 0.023234
#
#
# Mechanical properties :
#
#
# Convention : Reuss Voigt Hill
#
# Bulk Modulus (GPa) = 35.41232 42.35618 38.88425
# Shear Modulus (GPa) = 34.07146 41.56649 37.81897
#
# Velocity S-wave (km/s) = 3.67445 4.05853 3.87125
# Velocity P-wave (km/s) = 5.65995 6.22469 5.94902
#
# Compressibility (1/GPa) = 0.02823876
#
# Stress axis : x y z
#
# Youngs Moduli (GPa) = 74.40858 108.42507 47.58762
#
# Poissons Ratio (x) = 0.09078 0.06785
# Poissons Ratio (y) = 0.06230 0.25962
# Poissons Ratio (z) = 0.10609 0.59153
#
# Static dielectric constant tensor:
#      x y z
#    x 2.163890 0.060170 -0.019540 
#    y 0.060170 2.015360 0.012070 
#    z -0.019540 0.012070 2.016240 
# 
# From -- ./inp_files/90482.got.cif
#   From: 2010.05.17/outbox.cif.g08.bks.cpg/sg2_46_cif.got.tgz:90482.got - 2010.06.03 11:33:40.
