data_PCOD9022702
_publ_section_title
;
Structure prediction by ZEFSAII (Michael W. Deem and Ramdas Pophale) SiO2 
 PCOD9022702
Probable space group: P -1
;
_chemical_formula_sum "Si O2"
_cell_formula_units_Z 14
_cell_length_a 18.633339
_cell_length_b 12.500979
_cell_length_c 9.162979
_cell_angle_alpha 45.779942
_cell_angle_beta 32.688552
_cell_angle_gamma 35.631966
_cell_volume 670.940166
_symmetry_space_group_name_H-M "P -1"
_symmetry_group_IT_number 2
_symmetry_cell_setting 'triclinic'
loop_
_space_group_symop_operation_xyz
x,y,z
-x,-y,-z
loop_
_atom_site_type_symbol
_atom_site_label
_atom_site_fract_x
_atom_site_fract_y
_atom_site_fract_z
Si Si1 0.892837 0.303861 0.049522
Si Si2 0.544008 0.560387 0.514118
Si Si3 0.478638 0.951399 0.243941
Si Si4 0.254707 0.612407 0.094162
Si Si5 0.110556 0.953536 0.213871
Si Si6 0.673321 0.915666 0.206038
Si Si7 0.818054 0.682319 0.441485
O O1 0.739839 0.433653 0.295296
O O2 0.826725 0.297275 0.010457
O O3 0.008800 0.108431 0.116135
O O4 0.001186 0.381379 0.767530
O O5 0.500000 0.500000 0.500000
O O6 0.478911 0.772107 0.418546
O O7 0.444723 0.536954 0.829725
O O8 0.633766 0.905091 0.117730
O O9 0.312662 0.126560 0.431783
O O10 0.500000 0.000000 0.000000
O O11 0.171500 0.761471 0.221276
O O12 0.229031 0.454639 0.311653
O O13 0.000000 0.000000 0.500000
O O14 0.260153 0.962699 0.995987
O O15 0.795390 0.728357 0.263547
O O16 0.500000 0.000000 0.500000
#
# Coordination Sequence:
#
# PCOD9022702 Si02
#       7
#     2   2   2   2   2   2   2
#     4  10  22  41  62  90 126 163 209 255 304 369
#     4  10  22  39  63  96 123 155 206 260 306 358
#     4  11  22  40  65  91 122 164 207 251 305 375
#     4  11  22  41  65  92 125 166 209 256 305 364
#     4  11  25  41  61  93 127 163 206 259 315 358
#     4   9  21  41  60  83 121 163 201 243 303 371
#     4  10  22  41  63  91 123 166 207 250 311 367
#
# _framework density 20.866240999999999
#
# number of rings (size 3 to 8) (size 9 to 14) (size 15 to 20)
#    0.000    1.714    0.000    5.143    0.000    9.143 
#    0.000    7.143    0.000    0.000    0.000    0.000 
#    0.000    0.000    0.000    0.000    0.000    0.000 
#
# Total GULP energy -78202.068666 kJ/mol
# GULP energy per Si atom -5585.862048 kJ/mol
# Density = 2.081875 g / cm^3
# Si number density = 20.866241 Si / 1000 Ang^3
#
#
#
# Elastic Constant Matrix: (Units=GPa)
#
#
# Indices 1 2 3 4 5 6 
#
# 1 111.3211 25.8355 32.8851 3.5316 0.6285 10.9499
# 2 25.8355 106.0690 39.0613 3.4805 -18.9699 39.2973
# 3 32.8851 39.0613 116.0902 19.2346 -22.3471 21.2659
# 4 3.5316 3.4805 19.2346 28.1256 3.2589 -2.1291
# 5 0.6285 -18.9699 -22.3471 3.2589 38.7950 -1.5072
# 6 10.9499 39.2973 21.2659 -2.1291 -1.5072 24.3846
#
#
#
# Elastic Compliance Matrix: (Units=1/GPa)
#
#
# Indices 1 2 3 4 5 6 
#
# 1 0.010442 -0.003581 -0.003753 0.002503 -0.004124 0.004319
# 2 -0.003581 0.033056 0.006480 -0.014615 0.018951 -0.057419
# 3 -0.003753 0.006480 0.017043 -0.015366 0.013400 -0.024135
# 4 0.002503 -0.014615 -0.015366 0.052724 -0.018942 0.039262
# 5 -0.004124 0.018951 0.013400 -0.018942 0.042890 -0.039378
# 6 0.004319 -0.057419 -0.024135 0.039262 -0.039378 0.153647
#
#
# Mechanical properties :
#
#
# Convention : Reuss Voigt Hill
#
# Bulk Modulus (GPa) = 16.99736 58.78267 37.89002
# Shear Modulus (GPa) = 15.10020 33.97427 24.53723
#
# Velocity S-wave (km/s) = 2.69302 4.03946 3.43290
# Velocity P-wave (km/s) = 4.22296 7.07027 5.82332
#
# Compressibility (1/GPa) = 0.05883266
#
# Stress axis : x y z
#
# Youngs Moduli (GPa) = 95.76899 30.25184 58.67466
#
# Poissons Ratio (x) = 0.10834 0.22019
# Poissons Ratio (y) = 0.34297 -0.38021
# Poissons Ratio (z) = 0.35940 -0.19603
#
# Static dielectric constant tensor:
#      x y z
#    x 1.803570 -0.015670 0.013800 
#    y -0.015670 1.738750 0.032270 
#    z 0.013800 0.032270 1.783850 
# 
# From -- ./inp_files/149922.got.cif
#   From: 2010.05.17/outbox.cif.g08.bks.cpg/sg2_75_cif.got.tgz:149922.got - 2010.06.03 11:33:40.
