data_PCOD9022574
_publ_section_title
;
Structure prediction by ZEFSAII (Michael W. Deem and Ramdas Pophale) SiO2 
 PCOD9022574
Probable space group: P -1
;
_chemical_formula_sum "Si O2"
_cell_formula_units_Z 16
_cell_length_a 24.804109
_cell_length_b 16.748073
_cell_length_c 5.060269
_cell_angle_alpha 103.737018
_cell_angle_beta 100.226087
_cell_angle_gamma 16.781767
_cell_volume 580.208384
_symmetry_space_group_name_H-M "P -1"
_symmetry_group_IT_number 2
_symmetry_cell_setting 'triclinic'
loop_
_space_group_symop_operation_xyz
x,y,z
-x,-y,-z
loop_
_atom_site_type_symbol
_atom_site_label
_atom_site_fract_x
_atom_site_fract_y
_atom_site_fract_z
Si Si1 0.737101 0.281049 0.572405
Si Si2 0.714377 0.495144 0.898412
Si Si3 0.636785 0.176748 0.570421
Si Si4 0.276138 0.416367 0.514186
Si Si5 0.959428 0.704352 0.107429
Si Si6 0.224170 0.881543 0.036063
Si Si7 0.310982 0.041071 0.181351
Si Si8 0.730340 0.746011 0.359916
O O1 0.785408 0.304730 0.711135
O O2 0.504471 0.610281 0.632376
O O3 0.828658 0.089857 0.717004
O O4 0.763605 0.209433 0.242006
O O5 0.783394 0.463945 0.726008
O O6 0.764367 0.456238 0.200902
O O7 0.483694 0.820328 0.969880
O O8 0.621748 0.275756 0.826157
O O9 0.591961 0.158030 0.671768
O O10 0.854559 0.861463 0.419375
O O11 0.212762 0.419497 0.570625
O O12 0.503443 0.077334 0.415208
O O13 0.175135 0.385476 0.949644
O O14 0.897031 0.876827 0.037205
O O15 0.847278 0.786872 0.957240
O O16 0.215597 0.252969 0.418375
#
# Coordination Sequence:
#
# PCOD9022574 Si02
#       8
#     2   2   2   2   2   2   2   2
#     4  12  21  37  66  90 129 172 211 264 311 378
#     4  11  22  43  68  96 129 158 221 277 312 368
#     4  11  22  38  57  99 138 172 204 257 315 388
#     4  10  24  46  68  98 120 166 225 270 312 370
#     4  11  23  41  60  98 141 170 205 258 322 387
#     4  11  24  37  59  95 133 171 215 247 317 389
#     4  10  22  39  62  99 134 169 208 254 326 392
#     4  10  23  44  68  93 128 175 213 265 317 383
#
# _framework density 27.576295999999999
#
# number of rings (size 3 to 8) (size 9 to 14) (size 15 to 20)
#    0.000    1.250    2.500    4.125    1.750    5.000 
#   13.500    0.000    0.000    4.500    0.000    0.000 
#    0.000    0.000    0.000    0.000    0.000    0.000 
#
# Total GULP energy -89628.572028 kJ/mol
# GULP energy per Si atom -5601.785752 kJ/mol
# Density = 2.751353 g / cm^3
# Si number density = 27.576296 Si / 1000 Ang^3
#
#
#
# Elastic Constant Matrix: (Units=GPa)
#
#
# Indices 1 2 3 4 5 6 
#
# 1 148.7758 36.9314 58.1580 5.8038 12.5442 8.3739
# 2 36.9314 50.5029 -0.7524 -0.3383 -0.2436 -11.0600
# 3 58.1580 -0.7524 157.7068 7.8984 -2.6447 -9.7476
# 4 5.8038 -0.3383 7.8984 27.8100 10.4545 -1.7693
# 5 12.5442 -0.2436 -2.6447 10.4545 61.1594 -2.6041
# 6 8.3739 -11.0600 -9.7476 -1.7693 -2.6041 36.8890
#
#
#
# Elastic Compliance Matrix: (Units=1/GPa)
#
#
# Indices 1 2 3 4 5 6 
#
# 1 0.011910 -0.010412 -0.004916 -0.000591 -0.002909 -0.007358
# 2 -0.010412 0.030348 0.004788 0.000934 0.002856 0.012974
# 3 -0.004916 0.004788 0.008598 -0.001765 0.001908 0.004873
# 4 -0.000591 0.000934 -0.001765 0.039157 -0.006587 0.001361
# 5 -0.002909 0.002856 0.001908 -0.006587 0.018295 0.002997
# 6 -0.007358 0.012974 0.004873 0.001361 0.002997 0.034233
#
#
# Mechanical properties :
#
#
# Convention : Reuss Voigt Hill
#
# Bulk Modulus (GPa) = 33.58521 60.62882 47.10701
# Shear Modulus (GPa) = 28.81044 42.68158 35.74601
#
# Velocity S-wave (km/s) = 3.23577 3.93843 3.60427
# Velocity P-wave (km/s) = 5.11525 6.53569 5.86860
#
# Compressibility (1/GPa) = 0.02977501
#
# Stress axis : x y z
#
# Youngs Moduli (GPa) = 83.95975 32.95124 116.30313
#
# Poissons Ratio (x) = 0.34310 0.57174
# Poissons Ratio (y) = 0.87423 -0.55682
# Poissons Ratio (z) = 0.41274 -0.15776
#
# Static dielectric constant tensor:
#      x y z
#    x 2.061420 -0.044010 0.003120 
#    y -0.044010 2.250660 0.042530 
#    z 0.003120 0.042530 2.130210 
# 
# From -- ./inp_files/127454.got.cif
#   From: 2010.05.17/outbox.cif.g08.bks.cpg/sg2_64_cif.got.tgz:127454.got - 2010.06.03 11:33:40.
