data_PCOD9022600
_publ_section_title
;
Structure prediction by ZEFSAII (Michael W. Deem and Ramdas Pophale) SiO2 
 PCOD9022600
Probable space group: P -1
;
_chemical_formula_sum "Si O2"
_cell_formula_units_Z 14
_cell_length_a 29.447722
_cell_length_b 8.707381
_cell_length_c 26.561395
_cell_angle_alpha 146.619215
_cell_angle_beta 170.013554
_cell_angle_gamma 32.558772
_cell_volume 634.713066
_symmetry_space_group_name_H-M "P -1"
_symmetry_group_IT_number 2
_symmetry_cell_setting 'triclinic'
loop_
_space_group_symop_operation_xyz
x,y,z
-x,-y,-z
loop_
_atom_site_type_symbol
_atom_site_label
_atom_site_fract_x
_atom_site_fract_y
_atom_site_fract_z
Si Si1 0.785428 0.261565 0.360520
Si Si2 0.045300 0.701559 0.901864
Si Si3 0.815332 0.716443 0.895225
Si Si4 0.687556 0.284874 0.376607
Si Si5 0.891995 0.300696 0.149357
Si Si6 0.671531 0.264687 0.688400
Si Si7 0.682290 0.655232 0.204403
O O1 0.796151 0.213244 0.418904
O O2 0.898427 0.546518 0.553009
O O3 0.492823 0.303043 0.027425
O O4 0.000000 0.000000 0.500000
O O5 0.056795 0.710811 0.857565
O O6 0.874010 0.459472 0.658382
O O7 0.313986 0.653989 0.215318
O O8 0.903207 0.013011 0.851479
O O9 0.697592 0.544479 0.762429
O O10 0.582462 0.849844 0.638392
O O11 0.000000 0.500000 0.000000
O O12 0.919509 0.972964 0.104408
O O13 0.669406 0.981892 0.297734
O O14 0.402907 0.499090 0.113982
O O15 0.000000 0.500000 0.500000
O O16 0.500000 0.500000 0.000000
#
# Coordination Sequence:
#
# PCOD9022600 Si02
#       7
#     2   2   2   2   2   2   2
#     4  11  24  46  76  99 133 189 238 282 353 439
#     4  10  22  41  63  97 126 178 223 285 333 419
#     4  11  22  40  61  96 132 177 220 284 336 408
#     4  11  24  45  71  95 136 179 238 279 350 436
#     4  11  23  40  71  95 130 177 241 275 341 421
#     4  10  22  39  63  89 136 171 225 276 349 397
#     4  12  28  47  71 106 145 179 231 305 365 417
#
# _framework density 22.057210000000001
#
# number of rings (size 3 to 8) (size 9 to 14) (size 15 to 20)
#    0.000    1.143    4.286    1.286    4.000    2.857 
#    2.571    0.000    0.000    0.000    0.000    0.000 
#    0.000    0.000    0.000    0.000    0.000    0.000 
#
# Total GULP energy -78085.485023 kJ/mol
# GULP energy per Si atom -5577.534644 kJ/mol
# Density = 2.200701 g / cm^3
# Si number density = 22.057210 Si / 1000 Ang^3
#
#
#
# Elastic Constant Matrix: (Units=GPa)
#
#
# Indices 1 2 3 4 5 6 
#
# 1 32.9677 4.1378 5.7658 -2.7439 -7.5189 -0.6956
# 2 4.1378 114.2459 34.1029 32.5238 5.7722 7.3786
# 3 5.7658 34.1029 88.6312 16.6862 -12.2241 -3.1375
# 4 -2.7439 32.5238 16.6862 54.2930 -3.2266 11.4343
# 5 -7.5189 5.7722 -12.2241 -3.2266 34.0129 4.4876
# 6 -0.6956 7.3786 -3.1375 11.4343 4.4876 21.7484
#
#
#
# Elastic Compliance Matrix: (Units=1/GPa)
#
#
# Indices 1 2 3 4 5 6 
#
# 1 0.032959 -0.002394 -0.001014 0.004358 0.008035 -0.002229
# 2 -0.002394 0.012073 -0.003944 -0.006307 -0.004529 -0.000491
# 3 -0.001014 -0.003944 0.014133 -0.002522 0.004800 0.003680
# 4 0.004358 -0.006307 -0.002522 0.026243 0.005330 -0.012982
# 5 0.008035 -0.004529 0.004800 0.005330 0.035175 -0.007574
# 6 -0.002229 -0.000491 0.003680 -0.012982 -0.007574 0.054995
#
#
# Mechanical properties :
#
#
# Convention : Reuss Voigt Hill
#
# Bulk Modulus (GPa) = 22.49180 35.98419 29.23800
# Shear Modulus (GPa) = 24.37796 34.80006 29.58901
#
# Velocity S-wave (km/s) = 3.32808 3.97636 3.66658
# Velocity P-wave (km/s) = 4.99874 6.11812 5.58653
#
# Compressibility (1/GPa) = 0.04446064
#
# Stress axis : x y z
#
# Youngs Moduli (GPa) = 30.34086 82.82849 70.75404
#
# Poissons Ratio (x) = 0.19826 0.07177
# Poissons Ratio (y) = 0.07263 0.27908
# Poissons Ratio (z) = 0.03078 0.32671
#
# Static dielectric constant tensor:
#      x y z
#    x 1.851050 0.105040 -0.045280 
#    y 0.105040 1.649020 0.020600 
#    z -0.045280 0.020600 2.012920 
# 
# From -- ./inp_files/35004.got.cif
#   From: 2010.05.17/outbox.cif.g08.bks.cpg/sg2_18_cif.got.tgz:35004.got - 2010.06.03 11:33:40.
