data_PCOD9022836
_publ_section_title
;
Structure prediction by ZEFSAII (Michael W. Deem and Ramdas Pophale) SiO2 
 PCOD9022836
Probable space group: P -1
;
_chemical_formula_sum "Si O2"
_cell_formula_units_Z 16
_cell_length_a 21.986415
_cell_length_b 20.966721
_cell_length_c 10.272161
_cell_angle_alpha 134.526170
_cell_angle_beta 144.885810
_cell_angle_gamma 18.909718
_cell_volume 812.970141
_symmetry_space_group_name_H-M "P -1"
_symmetry_group_IT_number 2
_symmetry_cell_setting 'triclinic'
loop_
_space_group_symop_operation_xyz
x,y,z
-x,-y,-z
loop_
_atom_site_type_symbol
_atom_site_label
_atom_site_fract_x
_atom_site_fract_y
_atom_site_fract_z
Si Si1 0.593495 0.099661 0.603436
Si Si2 0.483180 0.554647 0.405312
Si Si3 0.610368 0.817106 0.905765
Si Si4 0.956402 0.104519 0.458392
Si Si5 0.518660 0.244158 0.214565
Si Si6 0.052407 0.011737 0.976830
Si Si7 0.895346 0.555584 0.609874
Si Si8 0.019681 0.347370 0.279142
O O1 0.814934 0.867898 0.719801
O O2 0.470932 0.148368 0.331436
O O3 0.369476 0.280198 0.573291
O O4 0.715252 0.099627 0.775029
O O5 0.500000 0.500000 0.500000
O O6 0.713468 0.347615 0.422613
O O7 0.480091 0.664441 0.570573
O O8 0.209304 0.733639 0.135158
O O9 0.504393 0.824342 0.831840
O O10 0.908135 0.590086 0.135530
O O11 0.500000 0.000000 0.000000
O O12 0.000000 0.000000 0.500000
O O13 0.215565 0.960703 0.689307
O O14 0.915489 0.081120 0.220164
O O15 0.271645 0.440551 0.971516
O O16 0.000000 0.000000 0.000000
O O17 0.863276 0.677564 0.662073
O O18 0.018028 0.401077 0.490125
#
# Coordination Sequence:
#
# PCOD9022836 Si02
#       8
#     2   2   2   2   2   2   2   2
#     4  12  23  39  70  89 125 172 212 254 329 380
#     4  11  21  42  69  96 133 171 213 269 321 387
#     4  11  23  48  62  89 133 172 208 269 315 383
#     4  11  23  42  69  99 129 171 220 262 326 400
#     4  10  23  41  67  95 132 168 212 262 327 375
#     4  11  26  44  62  98 139 166 217 275 319 383
#     4  10  23  42  62  92 125 163 215 263 313 380
#     4  10  22  39  64  95 128 157 210 274 312 365
#
# _framework density 19.680918999999999
#
# number of rings (size 3 to 8) (size 9 to 14) (size 15 to 20)
#    0.000    1.250    3.750    3.000    1.750    0.500 
#    9.000    0.000    0.000    0.000    0.000    0.000 
#    0.000    0.000    0.000    0.000    0.000    0.000 
#
# Total GULP energy -89379.450178 kJ/mol
# GULP energy per Si atom -5586.215636 kJ/mol
# Density = 1.963612 g / cm^3
# Si number density = 19.680919 Si / 1000 Ang^3
#
#
#
# Elastic Constant Matrix: (Units=GPa)
#
#
# Indices 1 2 3 4 5 6 
#
# 1 113.6168 60.0999 29.4441 -3.2369 9.7706 -1.7846
# 2 60.0999 101.0649 24.9832 -13.1014 6.8159 -13.8240
# 3 29.4441 24.9832 75.7896 -7.8937 2.5938 -6.5183
# 4 -3.2369 -13.1014 -7.8937 26.7054 -1.6856 6.8116
# 5 9.7706 6.8159 2.5938 -1.6856 41.6548 -4.7515
# 6 -1.7846 -13.8240 -6.5183 6.8116 -4.7515 32.5852
#
#
#
# Elastic Compliance Matrix: (Units=1/GPa)
#
#
# Indices 1 2 3 4 5 6 
#
# 1 0.014016 -0.008152 -0.003221 -0.002598 -0.002214 -0.003115
# 2 -0.008152 0.016452 -0.001253 0.005401 0.000106 0.005169
# 3 -0.003221 -0.001253 0.015321 0.003096 0.000332 0.001758
# 4 -0.002598 0.005401 0.003096 0.042257 0.000560 -0.005983
# 5 -0.002214 0.000106 0.000332 0.000560 0.024910 0.003506
# 6 -0.003115 0.005169 0.001758 -0.005983 0.003506 0.034825
#
#
# Mechanical properties :
#
#
# Convention : Reuss Voigt Hill
#
# Bulk Modulus (GPa) = 48.69017 57.72507 53.20762
# Shear Modulus (GPa) = 27.79665 31.91870 29.85768
#
# Velocity S-wave (km/s) = 3.76222 4.03154 3.89921
# Velocity P-wave (km/s) = 6.60802 7.14599 6.88226
#
# Compressibility (1/GPa) = 0.02053803
#
# Stress axis : x y z
#
# Youngs Moduli (GPa) = 71.34826 60.78245 65.27046
#
# Poissons Ratio (x) = 0.49550 0.21021
# Poissons Ratio (y) = 0.58164 0.08177
# Poissons Ratio (z) = 0.22978 0.07614
#
# Static dielectric constant tensor:
#      x y z
#    x 1.551110 -0.024430 0.054730 
#    y -0.024430 1.666980 -0.000220 
#    z 0.054730 -0.000220 1.695150 
# 
# From -- ./inp_files/349556.got.cif
#   From: 2010.05.17/outbox.cif.g08.bks.cpg/sg2_175_cif.got.tgz:349556.got - 2010.06.03 11:33:40.
