data_PCOD9022632
_publ_section_title
;
Structure prediction by ZEFSAII (Michael W. Deem and Ramdas Pophale) SiO2 
 PCOD9022632
Probable space group: P -1
;
_chemical_formula_sum "Si O2"
_cell_formula_units_Z 16
_cell_length_a 18.954448
_cell_length_b 5.680450
_cell_length_c 8.703211
_cell_angle_alpha 88.245007
_cell_angle_beta 86.430900
_cell_angle_gamma 129.452978
_cell_volume 719.153106
_symmetry_space_group_name_H-M "P -1"
_symmetry_group_IT_number 2
_symmetry_cell_setting 'triclinic'
loop_
_space_group_symop_operation_xyz
x,y,z
-x,-y,-z
loop_
_atom_site_type_symbol
_atom_site_label
_atom_site_fract_x
_atom_site_fract_y
_atom_site_fract_z
Si Si1 0.224170 0.103672 0.527483
Si Si2 0.271895 0.791129 0.668613
Si Si3 0.036911 0.832041 0.424448
Si Si4 0.378432 0.290201 0.886057
Si Si5 0.398157 0.740042 0.443670
Si Si6 0.965907 0.180770 0.935561
Si Si7 0.558015 0.940337 0.888952
Si Si8 0.218900 0.282203 0.872501
O O1 0.330930 0.366216 0.454741
O O2 0.203552 0.141437 0.706269
O O3 0.209827 0.793953 0.555543
O O4 0.147470 0.058363 0.434329
O O5 0.332668 0.741321 0.567562
O O6 0.220656 0.559464 0.821663
O O7 0.343555 0.113955 0.734936
O O8 0.015647 0.784015 0.248031
O O9 0.000000 0.500000 0.500000
O O10 0.000000 0.000000 0.500000
O O11 0.482304 0.592526 0.848113
O O12 0.314635 0.381695 0.919830
O O13 0.374649 0.076127 0.017290
O O14 0.500000 0.000000 0.500000
O O15 0.402573 0.846039 0.268405
O O16 0.000000 0.500000 0.000000
O O17 0.858251 0.949258 0.994464
O O18 0.000000 0.000000 0.000000
O O19 0.500000 0.000000 0.000000
#
# Coordination Sequence:
#
# PCOD9022632 Si02
#       8
#     2   2   2   2   2   2   2   2
#     4  10  24  42  69 103 137 186 235 297 368 435
#     4  10  22  41  67  94 132 175 229 285 355 425
#     4  12  28  50  78 110 155 195 247 314 378 441
#     4  10  22  39  63  92 128 181 222 288 349 419
#     4  11  23  40  65  97 138 181 234 290 357 432
#     4  12  28  49  76 112 147 196 247 305 379 454
#     4  11  23  39  60  90 135 175 231 284 351 417
#     4  10  22  42  68  96 136 174 236 284 356 434
#
# _framework density 22.248391000000002
#
# number of rings (size 3 to 8) (size 9 to 14) (size 15 to 20)
#    0.000    1.250    0.000    6.000    8.750    7.000 
#    0.000    0.000    0.000    0.000    0.000    0.000 
#    0.000    0.000    0.000    0.000    0.000    0.000 
#
# Total GULP energy -89189.529803 kJ/mol
# GULP energy per Si atom -5574.345613 kJ/mol
# Density = 2.219775 g / cm^3
# Si number density = 22.248391 Si / 1000 Ang^3
#
#
#
# Elastic Constant Matrix: (Units=GPa)
#
#
# Indices 1 2 3 4 5 6 
#
# 1 96.2538 30.6839 34.3803 -11.8112 29.6822 -4.3131
# 2 30.6839 75.4417 49.5831 -14.9301 4.3987 -14.3513
# 3 34.3803 49.5831 150.4014 -25.5478 19.1081 -10.5003
# 4 -11.8112 -14.9301 -25.5478 40.3351 -2.5301 0.9103
# 5 29.6822 4.3987 19.1081 -2.5301 40.3055 -3.7292
# 6 -4.3131 -14.3513 -10.5003 0.9103 -3.7292 31.4721
#
#
#
# Elastic Compliance Matrix: (Units=1/GPa)
#
#
# Indices 1 2 3 4 5 6 
#
# 1 0.015775 -0.005661 -0.000173 0.001767 -0.010976 -0.001829
# 2 -0.005661 0.020631 -0.005166 0.002868 0.005235 0.007446
# 3 -0.000173 -0.005166 0.009512 0.003833 -0.003554 0.000262
# 4 0.001767 0.002868 0.003833 0.028666 -0.001463 0.001826
# 5 -0.010976 0.005235 -0.003554 -0.001463 0.034267 0.003800
# 6 -0.001829 0.007446 0.000262 0.001826 0.003800 0.035404
#
#
# Mechanical properties :
#
#
# Convention : Reuss Voigt Hill
#
# Bulk Modulus (GPa) = 41.80555 61.26575 51.53565
# Shear Modulus (GPa) = 28.69809 36.25251 32.47530
#
# Velocity S-wave (km/s) = 3.59541 4.04102 3.82471
# Velocity P-wave (km/s) = 6.00559 7.02638 6.53594
#
# Compressibility (1/GPa) = 0.02392027
#
# Stress axis : x y z
#
# Youngs Moduli (GPa) = 63.39139 48.46971 105.12615
#
# Poissons Ratio (x) = 0.27437 0.01818
# Poissons Ratio (y) = 0.35883 0.54306
# Poissons Ratio (z) = 0.01096 0.25038
#
# Static dielectric constant tensor:
#      x y z
#    x 1.895670 -0.115720 0.056830 
#    y -0.115720 2.149370 0.004950 
#    z 0.056830 0.004950 1.785740 
# 
# From -- ./inp_files/110955.got.cif
#   From: 2010.05.17/outbox.cif.g08.bks.cpg/sg2_56_cif.got.tgz:110955.got - 2010.06.03 11:33:40.
