data_PCOD9022619
_publ_section_title
;
Structure prediction by ZEFSAII (Michael W. Deem and Ramdas Pophale) SiO2 
 PCOD9022619
Probable space group: P -1
;
_chemical_formula_sum "Si O2"
_cell_formula_units_Z 14
_cell_length_a 9.604128
_cell_length_b 5.336222
_cell_length_c 20.587781
_cell_angle_alpha 106.798449
_cell_angle_beta 55.108390
_cell_angle_gamma 137.487565
_cell_volume 567.830010
_symmetry_space_group_name_H-M "P -1"
_symmetry_group_IT_number 2
_symmetry_cell_setting 'triclinic'
loop_
_space_group_symop_operation_xyz
x,y,z
-x,-y,-z
loop_
_atom_site_type_symbol
_atom_site_label
_atom_site_fract_x
_atom_site_fract_y
_atom_site_fract_z
Si Si1 0.059911 0.269487 0.445601
Si Si2 0.850128 0.411501 0.247507
Si Si3 0.468675 0.342997 0.812603
Si Si4 0.745315 0.807944 0.001041
Si Si5 0.204192 0.703831 0.066704
Si Si6 0.444719 0.305675 0.307836
Si Si7 0.050394 0.412044 0.323461
O O1 0.334096 0.465586 0.368658
O O2 0.936914 0.136563 0.395945
O O3 0.000000 0.500000 0.500000
O O4 0.000000 0.000000 0.500000
O O5 0.685995 0.489807 0.296756
O O6 0.111961 0.707689 0.161092
O O7 0.884550 0.340593 0.305068
O O8 0.688468 0.042780 0.216037
O O9 0.362697 0.263880 0.905263
O O10 0.478179 0.600741 0.781344
O O11 0.749512 0.556476 0.759357
O O12 0.500000 0.500000 0.000000
O O13 0.886079 0.692536 0.949997
O O14 0.887992 0.199296 0.955974
O O15 0.500000 0.000000 0.000000
O O16 0.219724 0.844775 0.337796
#
# Coordination Sequence:
#
# PCOD9022619 Si02
#       7
#     2   2   2   2   2   2   2
#     4  11  22  46  78 107 144 181 221 284 354 422
#     4  11  25  43  69 103 141 185 244 291 347 421
#     4  10  24  41  66  97 144 185 240 299 348 416
#     4  10  22  39  63  91 130 182 238 288 350 398
#     4  10  23  40  63  94 133 183 236 293 345 402
#     4  10  24  43  72 103 141 183 234 284 352 420
#     4  10  22  44  73 102 138 193 227 279 357 424
#
# _framework density 24.655266999999998
#
# number of rings (size 3 to 8) (size 9 to 14) (size 15 to 20)
#    0.000    1.714    1.429    1.714   10.000    3.429 
#    0.000    1.429    0.000    0.000    0.000    0.000 
#    0.000    0.000    0.000    0.000    0.000    0.000 
#
# Total GULP energy -78183.439219 kJ/mol
# GULP energy per Si atom -5584.531373 kJ/mol
# Density = 2.459915 g / cm^3
# Si number density = 24.655267 Si / 1000 Ang^3
#
#
#
# Elastic Constant Matrix: (Units=GPa)
#
#
# Indices 1 2 3 4 5 6 
#
# 1 217.2859 39.7299 103.6951 8.5368 30.4233 -29.6789
# 2 39.7299 57.1578 29.2944 6.7016 2.5940 -14.6100
# 3 103.6951 29.2944 164.2961 10.9148 21.1342 -7.1174
# 4 8.5368 6.7016 10.9148 25.9206 -13.3175 2.6715
# 5 30.4233 2.5940 21.1342 -13.3175 47.7366 -1.6404
# 6 -29.6789 -14.6100 -7.1174 2.6715 -1.6404 54.9363
#
#
#
# Elastic Compliance Matrix: (Units=1/GPa)
#
#
# Indices 1 2 3 4 5 6 
#
# 1 0.007902 -0.002243 -0.003760 -0.002781 -0.003915 0.003204
# 2 -0.002243 0.021752 -0.001968 -0.004517 0.000015 0.004538
# 3 -0.003760 -0.001968 0.009317 -0.003387 -0.002610 -0.001261
# 4 -0.002781 -0.004517 -0.003387 0.051752 0.017778 -0.005128
# 5 -0.003915 0.000015 -0.002610 0.017778 0.029474 -0.002434
# 6 0.003204 0.004538 -0.001261 -0.005128 -0.002434 0.021154
#
#
# Mechanical properties :
#
#
# Convention : Reuss Voigt Hill
#
# Bulk Modulus (GPa) = 43.42462 87.13097 65.27780
# Shear Modulus (GPa) = 30.30886 43.45339 36.88112
#
# Velocity S-wave (km/s) = 3.50995 4.20270 3.87185
# Velocity P-wave (km/s) = 5.83757 7.67897 6.82070
#
# Compressibility (1/GPa) = 0.02302841
#
# Stress axis : x y z
#
# Youngs Moduli (GPa) = 126.55426 45.97287 107.33346
#
# Poissons Ratio (x) = 0.10310 0.40359
# Poissons Ratio (y) = 0.28382 0.21125
# Poissons Ratio (z) = 0.47586 0.09048
#
# Static dielectric constant tensor:
#      x y z
#    x 1.965790 -0.058690 -0.006950 
#    y -0.058690 2.275300 -0.099510 
#    z -0.006950 -0.099510 1.996350 
# 
# From -- ./inp_files/553617.got.cif
#   From: 2010.05.17/outbox.cif.g08.bks.cpg/sg2_277_cif.got.tgz:553617.got - 2010.06.03 11:33:40.
