data_PCOD9022833
_publ_section_title
;
Structure prediction by ZEFSAII (Michael W. Deem and Ramdas Pophale) SiO2 
 PCOD9022833
Probable space group: P -1
;
_chemical_formula_sum "Si O2"
_cell_formula_units_Z 14
_cell_length_a 10.704971
_cell_length_b 18.574885
_cell_length_c 9.451872
_cell_angle_alpha 137.020234
_cell_angle_beta 106.164900
_cell_angle_gamma 39.860188
_cell_volume 625.394639
_symmetry_space_group_name_H-M "P -1"
_symmetry_group_IT_number 2
_symmetry_cell_setting 'triclinic'
loop_
_space_group_symop_operation_xyz
x,y,z
-x,-y,-z
loop_
_atom_site_type_symbol
_atom_site_label
_atom_site_fract_x
_atom_site_fract_y
_atom_site_fract_z
Si Si1 0.131227 0.360744 0.663366
Si Si2 0.411871 0.457109 0.491119
Si Si3 0.751460 0.119860 0.325119
Si Si4 0.797391 0.776679 0.220789
Si Si5 0.669557 0.080477 0.523454
Si Si6 0.764737 0.081389 0.872820
Si Si7 0.845040 0.858590 0.812758
O O1 0.062608 0.340562 0.753744
O O2 0.381708 0.252679 0.631010
O O3 0.215444 0.217859 0.365363
O O4 0.895259 0.606730 0.918499
O O5 0.500000 0.500000 0.500000
O O6 0.542424 0.346646 0.524418
O O7 0.111431 0.663592 0.697359
O O8 0.521319 0.290155 0.183387
O O9 0.766331 0.096058 0.462211
O O10 0.019277 0.978556 0.148117
O O11 0.688941 0.047578 0.136181
O O12 0.500000 0.000000 0.500000
O O13 0.836518 0.855794 0.258881
O O14 0.685494 0.109662 0.730197
O O15 0.870609 0.908471 0.747148
#
# Coordination Sequence:
#
# PCOD9022833 Si02
#       7
#     2   2   2   2   2   2   2
#     4  10  22  39  64  95 121 164 215 250 312 374
#     4  11  21  40  65  88 121 167 219 253 300 370
#     4  11  24  42  60  95 131 163 209 257 317 371
#     4   9  20  38  60  89 123 160 205 253 301 367
#     4  11  24  40  63  94 133 164 198 263 323 367
#     4  11  22  40  66  93 122 168 211 259 311 371
#     4  11  22  40  68  91 121 167 215 260 303 372
#
# _framework density 22.385864999999999
#
# number of rings (size 3 to 8) (size 9 to 14) (size 15 to 20)
#    0.000    1.429    4.286    1.286    6.000    2.857 
#    0.000    2.143    0.000    0.000    0.000    0.000 
#    0.000    0.000    0.000    0.000    0.000    0.000 
#
# Total GULP energy -78079.426174 kJ/mol
# GULP energy per Si atom -5577.101870 kJ/mol
# Density = 2.233491 g / cm^3
# Si number density = 22.385865 Si / 1000 Ang^3
#
#
#
# Elastic Constant Matrix: (Units=GPa)
#
#
# Indices 1 2 3 4 5 6 
#
# 1 42.7729 20.2120 8.1783 3.7999 6.4203 5.8623
# 2 20.2120 105.3465 25.0493 7.1534 2.9115 21.4005
# 3 8.1783 25.0493 73.5290 14.7773 23.0306 2.4496
# 4 3.7999 7.1534 14.7773 38.4482 1.8592 7.0396
# 5 6.4203 2.9115 23.0306 1.8592 24.6417 -6.4152
# 6 5.8623 21.4005 2.4496 7.0396 -6.4152 35.7419
#
#
#
# Elastic Compliance Matrix: (Units=1/GPa)
#
#
# Indices 1 2 3 4 5 6 
#
# 1 0.027122 -0.004646 0.001732 -0.001492 -0.008825 -0.003076
# 2 -0.004646 0.012585 -0.004407 0.000852 0.002150 -0.006253
# 3 0.001732 -0.004407 0.023048 -0.006861 -0.021400 -0.001715
# 4 -0.001492 0.000852 -0.006861 0.029400 0.003176 -0.005016
# 5 -0.008825 0.002150 -0.021400 0.003176 0.065720 0.012797
# 6 -0.003076 -0.006253 -0.001715 -0.005016 0.012797 0.035629
#
#
# Mechanical properties :
#
#
# Convention : Reuss Voigt Hill
#
# Bulk Modulus (GPa) = 20.78401 36.50307 28.64354
# Shear Modulus (GPa) = 22.30340 30.98026 26.64183
#
# Velocity S-wave (km/s) = 3.15987 3.72414 3.45355
# Velocity P-wave (km/s) = 4.75580 5.90204 5.35965
#
# Compressibility (1/GPa) = 0.04811392
#
# Stress axis : x y z
#
# Youngs Moduli (GPa) = 36.87046 79.46193 43.38854
#
# Poissons Ratio (x) = 0.36915 -0.07517
# Poissons Ratio (y) = 0.17128 0.19121
# Poissons Ratio (z) = -0.06387 0.35019
#
# Static dielectric constant tensor:
#      x y z
#    x 1.893680 0.017230 0.045350 
#    y 0.017230 1.833610 0.007760 
#    z 0.045350 0.007760 1.898850 
# 
# From -- ./inp_files/40280.got.cif
#   From: 2010.05.17/outbox.cif.g08.bks.cpg/sg2_21_cif.got.tgz:40280.got - 2010.06.03 11:33:40.
