data_PCOD9022571
_publ_section_title
;
Structure prediction by ZEFSAII (Michael W. Deem and Ramdas Pophale) SiO2 
 PCOD9022571
Probable space group: P -1
;
_chemical_formula_sum "Si O2"
_cell_formula_units_Z 16
_cell_length_a 9.949861
_cell_length_b 11.353594
_cell_length_c 17.471092
_cell_angle_alpha 124.277360
_cell_angle_beta 27.473559
_cell_angle_gamma 114.928891
_cell_volume 736.387455
_symmetry_space_group_name_H-M "P -1"
_symmetry_group_IT_number 2
_symmetry_cell_setting 'triclinic'
loop_
_space_group_symop_operation_xyz
x,y,z
-x,-y,-z
loop_
_atom_site_type_symbol
_atom_site_label
_atom_site_fract_x
_atom_site_fract_y
_atom_site_fract_z
Si Si1 0.707425 0.162486 0.181379
Si Si2 0.036066 0.360416 0.379204
Si Si3 0.303716 0.452736 0.513422
Si Si4 0.678422 0.064371 0.649901
Si Si5 0.714256 0.345354 0.818704
Si Si6 0.555030 0.169052 0.971950
Si Si7 0.861400 0.071773 0.391600
Si Si8 0.970520 0.065921 0.168322
O O1 0.517777 0.318869 0.312697
O O2 0.520978 0.036268 0.245780
O O3 0.944387 0.093520 0.972164
O O4 0.845344 0.170466 0.199102
O O5 0.000000 0.500000 0.500000
O O6 0.854512 0.415751 0.413394
O O7 0.901798 0.236292 0.442133
O O8 0.380466 0.286257 0.162679
O O9 0.500000 0.500000 0.500000
O O10 0.034735 0.379257 0.651340
O O11 0.610201 0.236214 0.769239
O O12 0.697449 0.039565 0.539835
O O13 0.000000 0.000000 0.500000
O O14 0.712126 0.254569 0.863340
O O15 0.500000 0.500000 0.000000
O O16 0.813953 0.035765 0.815375
O O17 0.277187 0.111164 0.055284
O O18 0.769855 0.069785 0.347425
#
# Coordination Sequence:
#
# PCOD9022571 Si02
#       8
#     2   2   2   2   2   2   2   2
#     4  11  23  40  69  93 130 171 223 269 324 395
#     4  11  24  37  62  97 129 172 216 272 329 393
#     4  12  25  41  66  97 136 171 216 272 339 388
#     4  12  22  41  66  95 117 171 225 266 319 389
#     4  12  24  40  66  95 133 169 221 275 323 390
#     4  11  21  40  65  90 128 168 222 267 319 388
#     4  11  23  39  63  91 132 166 220 272 321 389
#     4  10  22  39  62  99 127 166 217 269 326 383
#
# _framework density 21.727692000000001
#
# number of rings (size 3 to 8) (size 9 to 14) (size 15 to 20)
#    0.000    0.750    5.000    3.750    3.500    0.500 
#    0.000    1.250    0.000    0.750    0.000    0.000 
#    0.000    0.000    0.000    0.000    0.000    0.000 
#
# Total GULP energy -89307.289813 kJ/mol
# GULP energy per Si atom -5581.705613 kJ/mol
# Density = 2.167824 g / cm^3
# Si number density = 21.727692 Si / 1000 Ang^3
#
#
#
# Elastic Constant Matrix: (Units=GPa)
#
#
# Indices 1 2 3 4 5 6 
#
# 1 61.5709 29.8396 17.9972 12.6206 15.4006 7.0018
# 2 29.8396 84.1251 21.4629 25.8109 -4.4602 -4.7818
# 3 17.9972 21.4629 71.0032 38.3994 17.8157 11.1477
# 4 12.6206 25.8109 38.3994 43.8566 -1.1780 6.0879
# 5 15.4006 -4.4602 17.8157 -1.1780 44.7249 2.7627
# 6 7.0018 -4.7818 11.1477 6.0879 2.7627 39.5907
#
#
#
# Elastic Compliance Matrix: (Units=1/GPa)
#
#
# Indices 1 2 3 4 5 6 
#
# 1 0.023336 -0.008602 0.000577 -0.001782 -0.008896 -0.004434
# 2 -0.008602 0.018132 -0.000947 -0.007919 0.004638 0.004872
# 3 0.000577 -0.000947 0.034665 -0.029745 -0.014614 -0.004384
# 4 -0.001782 -0.007919 -0.029745 0.054592 0.013208 -0.001582
# 5 -0.008896 0.004638 -0.014614 0.013208 0.031931 0.001989
# 6 -0.004434 0.004872 -0.004384 -0.001582 0.001989 0.027970
#
#
# Mechanical properties :
#
#
# Convention : Reuss Voigt Hill
#
# Bulk Modulus (GPa) = 17.18489 39.47762 28.33126
# Shear Modulus (GPa) = 21.93308 35.46109 28.69708
#
# Velocity S-wave (km/s) = 3.18064 4.04427 3.63817
# Velocity P-wave (km/s) = 4.62763 6.32589 5.54219
#
# Compressibility (1/GPa) = 0.05819065
#
# Stress axis : x y z
#
# Youngs Moduli (GPa) = 42.85211 55.15102 28.84743
#
# Poissons Ratio (x) = 0.47439 -0.01665
# Poissons Ratio (y) = 0.36860 0.02731
# Poissons Ratio (z) = -0.02473 0.05221
#
# Static dielectric constant tensor:
#      x y z
#    x 1.880500 0.030310 0.021420 
#    y 0.030310 1.812440 0.022220 
#    z 0.021420 0.022220 1.851620 
# 
# From -- ./inp_files/559889.got.cif
#   From: 2010.05.17/outbox.cif.g08.bks.cpg/sg2_280_cif.got.tgz:559889.got - 2010.06.03 11:33:40.
