data_PCOD9022634
_publ_section_title
;
Structure prediction by ZEFSAII (Michael W. Deem and Ramdas Pophale) SiO2 
 PCOD9022634
Probable space group: P -1
;
_chemical_formula_sum "Si O2"
_cell_formula_units_Z 14
_cell_length_a 23.571128
_cell_length_b 5.230389
_cell_length_c 4.895564
_cell_angle_alpha 96.674582
_cell_angle_beta 108.666762
_cell_angle_gamma 117.719747
_cell_volume 480.226854
_symmetry_space_group_name_H-M "P -1"
_symmetry_group_IT_number 2
_symmetry_cell_setting 'triclinic'
loop_
_space_group_symop_operation_xyz
x,y,z
-x,-y,-z
loop_
_atom_site_type_symbol
_atom_site_label
_atom_site_fract_x
_atom_site_fract_y
_atom_site_fract_z
Si Si1 0.338145 0.721978 0.688769
Si Si2 0.248350 0.106743 0.524887
Si Si3 0.360018 0.097097 0.298646
Si Si4 0.545247 0.362701 0.162626
Si Si5 0.872171 0.427963 0.900681
Si Si6 0.983089 0.229976 0.650622
Si Si7 0.836525 0.879195 0.184418
O O1 0.264345 0.425282 0.453064
O O2 0.380637 0.567195 0.848616
O O3 0.379209 0.900883 0.500779
O O4 0.341846 0.952110 0.952725
O O5 0.294227 0.042645 0.374372
O O6 0.239592 0.225353 0.823335
O O7 0.184434 0.755463 0.442491
O O8 0.423436 0.448097 0.479404
O O9 0.500000 0.500000 0.000000
O O10 0.500000 0.000000 0.000000
O O11 0.956576 0.623587 0.002638
O O12 0.850766 0.633476 0.052204
O O13 0.855412 0.139347 0.024599
O O14 0.000000 0.500000 0.500000
O O15 0.000000 0.000000 0.500000
O O16 0.898711 0.032473 0.536915
#
# Coordination Sequence:
#
# PCOD9022634 Si02
#       7
#     2   2   2   2   2   2   2
#     4  11  27  49  74 108 152 193 239 296 353 422
#     4  11  26  37  68  95 138 186 242 288 356 425
#     4  11  27  49  74 108 152 193 239 296 353 422
#     4  11  24  50  82 117 148 193 240 293 354 423
#     4  10  22  39  63  92 131 176 234 296 362 428
#     4   8  16  35  58  87 124 170 223 294 363 425
#     4  10  22  39  63  92 131 176 234 296 362 428
#
# _framework density 29.152892000000001
#
# number of rings (size 3 to 8) (size 9 to 14) (size 15 to 20)
#    0.000    1.714    1.429    0.857    8.000    5.143 
#    0.000    0.000    0.000   10.286    0.000    0.000 
#    0.000    0.000    0.000    0.000    0.000    0.000 
#
# Total GULP energy -77997.058891 kJ/mol
# GULP energy per Si atom -5571.218492 kJ/mol
# Density = 2.908654 g / cm^3
# Si number density = 29.152892 Si / 1000 Ang^3
#
#
#
# Elastic Constant Matrix: (Units=GPa)
#
#
# Indices 1 2 3 4 5 6 
#
# 1 158.3342 21.9503 21.9686 8.7949 -17.7355 -20.1875
# 2 21.9503 143.1037 47.6729 35.7803 -10.2316 -29.8905
# 3 21.9686 47.6729 153.7994 30.7526 -13.9889 -1.8820
# 4 8.7949 35.7803 30.7526 54.5555 7.4838 -5.4161
# 5 -17.7355 -10.2316 -13.9889 7.4838 46.4829 6.1981
# 6 -20.1875 -29.8905 -1.8820 -5.4161 6.1981 43.3909
#
#
#
# Elastic Compliance Matrix: (Units=1/GPa)
#
#
# Indices 1 2 3 4 5 6 
#
# 1 0.007062 0.000116 -0.000623 -0.000889 0.002289 0.002901
# 2 0.000116 0.010374 -0.001920 -0.005371 0.001789 0.006191
# 3 -0.000623 -0.001920 0.008171 -0.003827 0.002698 -0.002121
# 4 -0.000889 -0.005371 -0.003827 0.025050 -0.006680 -0.000199
# 5 0.002289 0.001789 0.002698 -0.006680 0.024932 -0.001981
# 6 0.002901 0.006191 -0.002121 -0.000199 -0.001981 0.028827
#
#
# Mechanical properties :
#
#
# Convention : Reuss Voigt Hill
#
# Bulk Modulus (GPa) = 48.18630 70.93567 59.56098
# Shear Modulus (GPa) = 43.03496 53.12889 48.08192
#
# Velocity S-wave (km/s) = 3.84628 4.27362 4.06557
# Velocity P-wave (km/s) = 6.02411 6.98118 6.52023
#
# Compressibility (1/GPa) = 0.02075279
#
# Stress axis : x y z
#
# Youngs Moduli (GPa) = 141.60879 96.39917 122.38981
#
# Poissons Ratio (x) = -0.01121 0.07628
# Poissons Ratio (y) = -0.01647 0.23494
# Poissons Ratio (z) = 0.08825 0.18505
#
# Static dielectric constant tensor:
#      x y z
#    x 3.309370 0.260300 1.028790 
#    y 0.260300 2.512520 0.303650 
#    z 1.028790 0.303650 3.171800 
# 
# From -- ./inp_files/9619.got.cif
#   From: 2010.05.17/outbox.cif.g08.bks.cpg/sg2_5_cif.got.tgz:9619.got - 2010.06.03 11:33:40.
