data_PCOD9022565
_publ_section_title
;
Structure prediction by ZEFSAII (Michael W. Deem and Ramdas Pophale) SiO2 
 PCOD9022565
Probable space group: P -1
;
_chemical_formula_sum "Si O2"
_cell_formula_units_Z 14
_cell_length_a 10.912306
_cell_length_b 9.816532
_cell_length_c 13.945866
_cell_angle_alpha 62.020751
_cell_angle_beta 29.720181
_cell_angle_gamma 59.702643
_cell_volume 637.783571
_symmetry_space_group_name_H-M "P -1"
_symmetry_group_IT_number 2
_symmetry_cell_setting 'triclinic'
loop_
_space_group_symop_operation_xyz
x,y,z
-x,-y,-z
loop_
_atom_site_type_symbol
_atom_site_label
_atom_site_fract_x
_atom_site_fract_y
_atom_site_fract_z
Si Si1 0.249715 0.365318 0.674049
Si Si2 0.263391 0.967669 0.387647
Si Si3 0.910879 0.946519 0.179990
Si Si4 0.699217 0.525479 0.987261
Si Si5 0.232036 0.788604 0.667931
Si Si6 0.443410 0.765691 0.923014
Si Si7 0.713283 0.696420 0.106388
O O1 0.465608 0.636918 0.550657
O O2 0.232302 0.354356 0.804137
O O3 0.216265 0.198020 0.708874
O O4 0.000786 0.491932 0.769325
O O5 0.236375 0.885469 0.534722
O O6 0.476756 0.845322 0.223407
O O7 0.370244 0.126041 0.275154
O O8 0.000000 0.000000 0.500000
O O9 0.166755 0.878589 0.088733
O O10 0.746554 0.095350 0.296939
O O11 0.000000 0.000000 0.000000
O O12 0.602862 0.368866 0.075176
O O13 0.658753 0.566986 0.112286
O O14 0.554226 0.671087 0.973874
O O15 0.964453 0.743193 0.879579
#
# Coordination Sequence:
#
# PCOD9022565 Si02
#       7
#     2   2   2   2   2   2   2
#     4  10  22  39  62  98 130 171 223 258 320 391
#     4  11  24  41  68 101 129 162 225 272 320 388
#     4  11  19  39  69  95 128 169 218 274 319 378
#     4  10  23  41  68  88 139 182 205 263 327 392
#     4  11  22  38  70  97 129 165 219 277 324 366
#     4  10  22  43  66  95 129 173 218 257 330 389
#     4  11  22  42  68  97 127 173 217 271 327 374
#
# _framework density 21.951021000000001
#
# number of rings (size 3 to 8) (size 9 to 14) (size 15 to 20)
#    0.000    1.429    2.857    2.571    2.000    1.714 
#    0.000    2.143    6.286    0.000    0.000    0.000 
#    0.000    0.000    0.000    0.000    0.000    0.000 
#
# Total GULP energy -78337.095046 kJ/mol
# GULP energy per Si atom -5595.506789 kJ/mol
# Density = 2.190106 g / cm^3
# Si number density = 21.951021 Si / 1000 Ang^3
#
#
#
# Elastic Constant Matrix: (Units=GPa)
#
#
# Indices 1 2 3 4 5 6 
#
# 1 110.2010 43.9636 51.5730 22.0713 -10.7196 -0.1193
# 2 43.9636 93.9238 49.1676 19.1182 -2.5713 1.5206
# 3 51.5730 49.1676 144.3009 13.7199 -10.9832 -2.4664
# 4 22.0713 19.1182 13.7199 38.4001 4.5163 -5.6847
# 5 -10.7196 -2.5713 -10.9832 4.5163 29.7085 14.7558
# 6 -0.1193 1.5206 -2.4664 -5.6847 14.7558 43.8665
#
#
#
# Elastic Compliance Matrix: (Units=1/GPa)
#
#
# Indices 1 2 3 4 5 6 
#
# 1 0.013516 -0.003466 -0.002657 -0.006203 0.005923 -0.002789
# 2 -0.003466 0.015017 -0.003469 -0.004456 0.000109 -0.001339
# 3 -0.002657 -0.003469 0.009269 -0.000358 0.002318 -0.000192
# 4 -0.006203 -0.004456 -0.000358 0.034712 -0.012397 0.008786
# 5 0.005923 0.000109 0.002318 -0.012397 0.047154 -0.017326
# 6 -0.002789 -0.001339 -0.000192 0.008786 -0.017326 0.029791
#
#
# Mechanical properties :
#
#
# Convention : Reuss Voigt Hill
#
# Bulk Modulus (GPa) = 53.71005 70.87048 62.29026
# Shear Modulus (GPa) = 28.59640 35.97647 32.28644
#
# Velocity S-wave (km/s) = 3.61326 4.05278 3.83931
# Velocity P-wave (km/s) = 6.47524 7.36586 6.93486
#
# Compressibility (1/GPa) = 0.01861849
#
# Stress axis : x y z
#
# Youngs Moduli (GPa) = 73.98776 66.59215 107.89076
#
# Poissons Ratio (x) = 0.23079 0.28664
# Poissons Ratio (y) = 0.25642 0.37426
# Poissons Ratio (z) = 0.19656 0.23100
#
# Static dielectric constant tensor:
#      x y z
#    x 1.799260 0.006680 -0.048570 
#    y 0.006680 1.816740 -0.008650 
#    z -0.048570 -0.008650 1.800960 
# 
# From -- ./inp_files/514059.got.cif
#   From: 2010.05.17/outbox.cif.g08.bks.cpg/sg2_258_cif.got.tgz:514059.got - 2010.06.03 11:33:40.
