data_PCOD9022524
_publ_section_title
;
Structure prediction by ZEFSAII (Michael W. Deem and Ramdas Pophale) SiO2 
 PCOD9022524
Probable space group: P -1
;
_chemical_formula_sum "Si O2"
_cell_formula_units_Z 16
_cell_length_a 24.985215
_cell_length_b 5.898603
_cell_length_c 16.712148
_cell_angle_alpha 54.226378
_cell_angle_beta 159.280868
_cell_angle_gamma 126.062504
_cell_volume 699.408459
_symmetry_space_group_name_H-M "P -1"
_symmetry_group_IT_number 2
_symmetry_cell_setting 'triclinic'
loop_
_space_group_symop_operation_xyz
x,y,z
-x,-y,-z
loop_
_atom_site_type_symbol
_atom_site_label
_atom_site_fract_x
_atom_site_fract_y
_atom_site_fract_z
Si Si1 0.770316 0.474033 0.892093
Si Si2 0.468038 0.816867 0.877067
Si Si3 0.263280 0.054466 0.653038
Si Si4 0.073849 0.440637 0.240442
Si Si5 0.419045 0.703905 0.484535
Si Si6 0.074111 0.798946 0.580144
Si Si7 0.881831 0.116332 0.904995
Si Si8 0.379799 0.744867 0.113318
O O1 0.655232 0.478767 0.656406
O O2 0.677769 0.289248 0.869048
O O3 0.832496 0.798352 0.930975
O O4 0.924422 0.362359 0.102838
O O5 0.305187 0.869868 0.674224
O O6 0.510591 0.971405 0.820351
O O7 0.500000 0.500000 0.000000
O O8 0.599264 0.967589 0.089095
O O9 0.228992 0.354947 0.510319
O O10 0.119726 0.965550 0.527606
O O11 0.083335 0.767529 0.160320
O O12 0.023316 0.255889 0.128601
O O13 0.272986 0.750448 0.321748
O O14 0.533416 0.523899 0.725072
O O15 0.500000 0.000000 0.500000
O O16 0.000000 0.500000 0.500000
O O17 0.224248 0.730760 0.849624
O O18 0.000000 0.000000 0.500000
#
# Coordination Sequence:
#
# PCOD9022524 Si02
#       8
#     2   2   2   2   2   2   2   2
#     4  11  23  40  63  99 130 173 224 276 342 420
#     4  10  24  45  64  96 130 173 234 292 349 419
#     4  10  23  43  66  93 131 176 229 282 348 422
#     4  10  22  40  63  92 131 172 220 272 353 407
#     4  11  23  41  63  97 135 173 227 281 342 422
#     4  11  27  46  72 106 140 182 241 295 355 423
#     4  10  22  39  62  93 134 167 218 279 334 421
#     4  11  24  43  70  98 132 180 229 287 357 408
#
# _framework density 22.876474000000002
#
# number of rings (size 3 to 8) (size 9 to 14) (size 15 to 20)
#    0.000    1.500    1.250    2.250    5.250    3.000 
#    4.500    0.000    0.000    0.000    0.000    0.000 
#    0.000    0.000    0.000    0.000    0.000    0.000 
#
# Total GULP energy -89140.120412 kJ/mol
# GULP energy per Si atom -5571.257526 kJ/mol
# Density = 2.282441 g / cm^3
# Si number density = 22.876474 Si / 1000 Ang^3
#
#
#
# Elastic Constant Matrix: (Units=GPa)
#
#
# Indices 1 2 3 4 5 6 
#
# 1 124.7233 41.0770 11.4672 -11.9987 22.1500 26.0350
# 2 41.0770 96.0487 7.0064 -17.4755 2.8435 17.4596
# 3 11.4672 7.0064 99.1582 -30.9982 8.0821 -0.8848
# 4 -11.9987 -17.4755 -30.9982 37.6442 4.0237 -4.4664
# 5 22.1500 2.8435 8.0821 4.0237 21.9605 -0.7495
# 6 26.0350 17.4596 -0.8848 -4.4664 -0.7495 33.2432
#
#
#
# Elastic Compliance Matrix: (Units=1/GPa)
#
#
# Indices 1 2 3 4 5 6 
#
# 1 0.013967 -0.003150 0.001187 0.004531 -0.015253 -0.008988
# 2 -0.003150 0.013416 0.001210 0.005793 -0.000195 -0.003773
# 3 0.001187 0.001210 0.015197 0.014548 -0.009592 0.000578
# 4 0.004531 0.005793 0.014548 0.044619 -0.018871 -0.000634
# 5 -0.015253 -0.000195 -0.009592 -0.018871 0.068303 0.010798
# 6 -0.008988 -0.003773 0.000578 -0.000634 0.010798 0.039275
#
#
# Mechanical properties :
#
#
# Convention : Reuss Voigt Hill
#
# Bulk Modulus (GPa) = 24.34719 48.78127 36.56423
# Shear Modulus (GPa) = 23.81230 35.92820 29.87025
#
# Velocity S-wave (km/s) = 3.22981 3.96729 3.61739
# Velocity P-wave (km/s) = 4.95731 6.50814 5.78493
#
# Compressibility (1/GPa) = 0.04107249
#
# Stress axis : x y z
#
# Youngs Moduli (GPa) = 71.59777 74.53756 65.80258
#
# Poissons Ratio (x) = 0.23480 -0.07809
# Poissons Ratio (y) = 0.22554 -0.07960
# Poissons Ratio (z) = -0.08497 -0.09016
#
# Static dielectric constant tensor:
#      x y z
#    x 1.979070 -0.016120 0.001020 
#    y -0.016120 1.985230 0.013200 
#    z 0.001020 0.013200 1.864290 
# 
# From -- ./inp_files/579526.got.cif
#   From: 2010.05.17/outbox.cif.g08.bks.cpg/sg2_290_cif.got.tgz:579526.got - 2010.06.03 11:33:40.
