data_PCOD9022195
_publ_section_title
;
Structure prediction by ZEFSAII (Michael W. Deem and Ramdas Pophale) SiO2 
 PCOD9022195
Probable space group: P -1
;
_chemical_formula_sum "Si O2"
_cell_formula_units_Z 15
_cell_length_a 9.009856
_cell_length_b 22.995078
_cell_length_c 19.970038
_cell_angle_alpha 17.759509
_cell_angle_beta 45.835881
_cell_angle_gamma 36.666959
_cell_volume 700.497060
_symmetry_space_group_name_H-M "P -1"
_symmetry_group_IT_number 2
_symmetry_cell_setting 'triclinic'
loop_
_space_group_symop_operation_xyz
x,y,z
-x,-y,-z
loop_
_atom_site_type_symbol
_atom_site_label
_atom_site_fract_x
_atom_site_fract_y
_atom_site_fract_z
Si Si1 0.869584 0.450128 0.221527
Si Si2 0.577605 0.863145 0.961287
Si Si3 0.922374 0.353209 0.800107
Si Si4 0.422682 0.788661 0.882363
Si Si5 0.106870 0.197078 0.641132
Si Si6 0.500000 0.000000 0.500000
Si Si7 0.621532 0.191739 0.783511
Si Si8 0.507959 0.324299 0.527503
O O1 0.725470 0.354880 0.406821
O O2 0.175507 0.230152 0.353565
O O3 0.810661 0.655757 0.066704
O O4 0.697046 0.590988 0.054023
O O5 0.301786 0.012017 0.842502
O O6 0.607303 0.063130 0.755367
O O7 0.540112 0.758836 0.153278
O O8 0.924276 0.559072 0.607162
O O9 0.760827 0.467748 0.655669
O O10 0.758694 0.294549 0.960014
O O11 0.205324 0.096281 0.975054
O O12 0.267628 0.047155 0.687850
O O13 0.466598 0.836650 0.741921
O O14 0.840905 0.226594 0.690621
O O15 0.467883 0.336324 0.605854
#
# Coordination Sequence:
#
# PCOD9022195 Si02
#       8
#     2   2   2   2   2   1   2   2
#     4  10  22  41  60  82 116 153 193 243 296 351
#     4  10  22  39  59  87 124 160 197 241 286 340
#     4   9  20  39  60  85 124 162 191 232 286 348
#     4   9  20  39  61  87 116 148 191 242 294 352
#     4   9  19  37  61  88 121 162 197 232 288 347
#     4  12  22  40  66  86 108 146 194 248 308 352
#     4  11  21  35  59  92 123 158 203 238 274 335
#     4  10  22  39  59  88 123 160 197 236 288 344
#
# _framework density 21.413366
#
# number of rings (size 3 to 8) (size 9 to 14) (size 15 to 20)
#    0.000    2.133    0.000    3.600    0.000    5.867 
#    0.000    5.333    0.000    6.400    0.000    0.000 
#    0.000    0.000    0.000    0.000    0.000    0.000 
#
# Total GULP energy -83736.156108 kJ/mol
# GULP energy per Si atom -5582.410407 kJ/mol
# Density = 2.136463 g / cm^3
# Si number density = 21.413366 Si / 1000 Ang^3
#
#
#
# Elastic Constant Matrix: (Units=GPa)
#
#
# Indices 1 2 3 4 5 6 
#
# 1 92.7581 33.5405 40.6286 -32.2465 8.1685 -11.8841
# 2 33.5405 58.1648 41.0517 -15.7649 20.0667 -33.0830
# 3 40.6286 41.0517 124.8937 14.6582 -0.7702 -3.5421
# 4 -32.2465 -15.7649 14.6582 108.6187 -5.9288 32.1996
# 5 8.1685 20.0667 -0.7702 -5.9288 35.7068 -14.8259
# 6 -11.8841 -33.0830 -3.5421 32.1996 -14.8259 20.6750
#
#
#
# Elastic Compliance Matrix: (Units=1/GPa)
#
#
# Indices 1 2 3 4 5 6 
#
# 1 0.013081 0.008529 -0.006456 -0.000106 0.000648 0.020691
# 2 0.008529 -0.028859 0.000821 0.025701 -0.021570 -0.096629
# 3 -0.006456 0.000821 0.011295 -0.007961 0.006969 0.016935
# 4 -0.000106 0.025701 -0.007961 0.004149 -0.000144 0.033135
# 5 0.000648 -0.021570 0.006969 -0.000144 0.037762 -0.005645
# 6 0.020691 -0.096629 0.016935 0.033135 -0.005645 -0.147111
#
#
# Mechanical properties :
#
#
# Convention : Reuss Voigt Hill
#
# Bulk Modulus (GPa) = 765.24520 56.25093 410.74806
# Shear Modulus (GPa) = -43.46413 43.70647 0.12117
#
# Velocity S-wave (km/s) = -4.51018 4.52274 0.23814
# Velocity P-wave (km/s) = 18.19400 7.32118 13.86761
#
# Compressibility (1/GPa) = 0.00130677
#
# Stress axis : x y z
#
# Youngs Moduli (GPa) = 76.44494 -34.65130 88.53767
#
# Poissons Ratio (x) = 0.29556 0.57158
# Poissons Ratio (y) = -0.65203 -0.07271
# Poissons Ratio (z) = 0.49351 0.02846
#
# Static dielectric constant tensor:
#      x y z
#    x 1.814630 0.004000 0.022890 
#    y 0.004000 1.719120 -0.029390 
#    z 0.022890 -0.029390 1.816010 
# 
# From -- ./inp_files/528879.got.cif
#   From: 2010.05.17/outbox.cif.g08.bks.cpg/sg2_265_cif.got.tgz:528879.got - 2010.06.03 11:33:40.
