data_PCOD9022863
_publ_section_title
;
Structure prediction by ZEFSAII (Michael W. Deem and Ramdas Pophale) SiO2 
 PCOD9022863
Probable space group: P -1
;
_chemical_formula_sum "Si O2"
_cell_formula_units_Z 16
_cell_length_a 19.012650
_cell_length_b 5.627162
_cell_length_c 13.134824
_cell_angle_alpha 89.951131
_cell_angle_beta 149.582985
_cell_angle_gamma 92.234612
_cell_volume 709.434102
_symmetry_space_group_name_H-M "P -1"
_symmetry_group_IT_number 2
_symmetry_cell_setting 'triclinic'
loop_
_space_group_symop_operation_xyz
x,y,z
-x,-y,-z
loop_
_atom_site_type_symbol
_atom_site_label
_atom_site_fract_x
_atom_site_fract_y
_atom_site_fract_z
Si Si1 0.429896 0.685412 0.842038
Si Si2 0.718109 0.566728 0.708547
Si Si3 0.901965 0.118081 0.208542
Si Si4 0.616678 0.029678 0.941681
Si Si5 0.820098 0.072093 0.475440
Si Si6 0.485240 0.198323 0.396981
Si Si7 0.071587 0.366835 0.869648
Si Si8 0.643642 0.702954 0.400220
O O1 0.301279 0.803849 0.734498
O O2 0.359053 0.551136 0.656609
O O3 0.550188 0.870069 0.949641
O O4 0.500000 0.500000 0.000000
O O5 0.641235 0.317502 0.578964
O O6 0.622536 0.631681 0.685720
O O7 0.697809 0.721366 0.582893
O O8 0.871626 0.582898 0.946160
O O9 0.897548 0.380208 0.151367
O O10 0.062391 0.070131 0.436107
O O11 0.867519 0.882737 0.093421
O O12 0.781121 0.095883 0.141813
O O13 0.519292 0.247772 0.809279
O O14 0.574536 0.889003 0.784704
O O15 0.911673 0.278429 0.651020
O O16 0.736062 0.889696 0.446738
O O17 0.500000 0.000000 0.500000
#
# Coordination Sequence:
#
# PCOD9022863 Si02
#       8
#     2   2   2   2   2   2   2   2
#     4  11  25  47  70  96 129 174 231 295 348 395
#     4  11  22  31  60  93 138 182 222 265 326 407
#     4  10  22  41  67  97 138 183 219 270 336 398
#     4  11  22  38  66 102 134 175 227 285 333 407
#     4   9  23  44  67  91 138 178 223 275 338 411
#     4  11  19  33  53  93 139 174 211 270 331 391
#     4  10  22  39  64  97 140 184 217 262 328 405
#     4  11  23  39  66  96 133 179 229 282 337 398
#
# _framework density 22.553187999999999
#
# number of rings (size 3 to 8) (size 9 to 14) (size 15 to 20)
#    0.750    0.750    3.750    1.500    3.500    2.500 
#    0.000    1.875    0.000    2.250    0.000    0.000 
#    0.000    0.000    0.000    0.000    0.000    0.000 
#
# Total GULP energy -89154.217402 kJ/mol
# GULP energy per Si atom -5572.138588 kJ/mol
# Density = 2.250186 g / cm^3
# Si number density = 22.553188 Si / 1000 Ang^3
#
#
#
# Elastic Constant Matrix: (Units=GPa)
#
#
# Indices 1 2 3 4 5 6 
#
# 1 77.1611 17.0652 51.9227 -3.6675 16.3700 -6.6837
# 2 17.0652 93.8191 45.6652 3.2814 10.2989 2.8981
# 3 51.9227 45.6652 107.2340 0.4811 23.8039 6.5529
# 4 -3.6675 3.2814 0.4811 30.9100 -1.4630 -8.8568
# 5 16.3700 10.2989 23.8039 -1.4630 39.0637 6.1375
# 6 -6.6837 2.8981 6.5529 -8.8568 6.1375 24.1959
#
#
#
# Elastic Compliance Matrix: (Units=1/GPa)
#
#
# Indices 1 2 3 4 5 6 
#
# 1 0.022625 0.001275 -0.011248 0.006104 -0.004710 0.012573
# 2 0.001275 0.013582 -0.006331 -0.001182 -0.000315 0.000087
# 3 -0.011248 -0.006331 0.018843 -0.003339 -0.004022 -0.007654
# 4 0.006104 -0.001182 -0.003339 0.038066 -0.001462 0.017037
# 5 -0.004710 -0.000315 -0.004022 -0.001462 0.031416 -0.008678
# 6 0.012573 0.000087 -0.007654 0.017037 -0.008678 0.055303
#
#
# Mechanical properties :
#
#
# Convention : Reuss Voigt Hill
#
# Bulk Modulus (GPa) = 44.56052 56.39117 50.47584
# Shear Modulus (GPa) = 22.73505 29.73798 26.23651
#
# Velocity S-wave (km/s) = 3.17845 3.63515 3.41444
# Velocity P-wave (km/s) = 5.76809 6.53277 6.16230
#
# Compressibility (1/GPa) = 0.02244139
#
# Stress axis : x y z
#
# Youngs Moduli (GPa) = 44.19794 73.62836 53.06894
#
# Poissons Ratio (x) = -0.09385 0.59693
# Poissons Ratio (y) = -0.05634 0.33598
# Poissons Ratio (z) = 0.49715 0.46614
#
# Static dielectric constant tensor:
#      x y z
#    x 2.216020 -0.093500 -0.145660 
#    y -0.093500 1.902900 -0.032230 
#    z -0.145660 -0.032230 1.963890 
# 
# From -- ./inp_files/539776.got.cif
#   From: 2010.05.17/outbox.cif.g08.bks.cpg/sg2_270_cif.got.tgz:539776.got - 2010.06.03 11:33:40.
