data_PCOD9022944
_publ_section_title
;
Structure prediction by ZEFSAII (Michael W. Deem and Ramdas Pophale) SiO2 
 PCOD9022944
Probable space group: P -1
;
_chemical_formula_sum "Si O2"
_cell_formula_units_Z 14
_cell_length_a 16.351201
_cell_length_b 5.121452
_cell_length_c 7.083179
_cell_angle_alpha 60.222606
_cell_angle_beta 100.446449
_cell_angle_gamma 83.838480
_cell_volume 492.583113
_symmetry_space_group_name_H-M "P -1"
_symmetry_group_IT_number 2
_symmetry_cell_setting 'triclinic'
loop_
_space_group_symop_operation_xyz
x,y,z
-x,-y,-z
loop_
_atom_site_type_symbol
_atom_site_label
_atom_site_fract_x
_atom_site_fract_y
_atom_site_fract_z
Si Si1 0.382357 0.354228 0.374185
Si Si2 0.320916 0.835420 0.720111
Si Si3 0.802878 0.453276 0.853287
Si Si4 0.070415 0.128566 0.703248
Si Si5 0.934904 0.803493 0.778999
Si Si6 0.535231 0.631064 0.192406
Si Si7 0.207363 0.437646 0.630028
O O1 0.464428 0.445242 0.288432
O O2 0.403026 0.392858 0.590179
O O3 0.296925 0.537991 0.167145
O O4 0.356646 0.023850 0.497244
O O5 0.274959 0.106545 0.746993
O O6 0.404972 0.558746 0.876626
O O7 0.248095 0.667397 0.683457
O O8 0.864102 0.173377 0.083664
O O9 0.020537 0.917682 0.246460
O O10 0.841356 0.752265 0.811332
O O11 0.808306 0.439240 0.633495
O O12 0.066277 0.171726 0.459356
O O13 0.118433 0.390450 0.694942
O O14 0.000000 0.500000 0.000000
O O15 0.500000 0.000000 0.000000
#
# Coordination Sequence:
#
# PCOD9022944 Si02
#       7
#     2   2   2   2   2   2   2
#     4  10  23  41  62  92 126 171 215 268 330 380
#     4  11  21  45  65  91 132 170 215 270 325 384
#     4   9  17  34  60  87 125 169 215 263 320 382
#     4   9  17  32  59  96 129 169 215 261 317 380
#     4   8  15  29  56  94 134 169 209 262 317 379
#     4  11  24  42  65  93 129 167 219 271 324 387
#     4  10  22  39  65  92 129 168 215 265 320 381
#
# _framework density 28.421596000000001
#
# number of rings (size 3 to 8) (size 9 to 14) (size 15 to 20)
#    0.000    2.286    2.857    0.429    2.000    0.571 
#    0.000   10.000    0.000   21.429    0.000   91.000 
#    0.000    0.000    0.000    0.000    0.000    0.000 
#
# Total GULP energy -78246.161799 kJ/mol
# GULP energy per Si atom -5589.011557 kJ/mol
# Density = 2.835691 g / cm^3
# Si number density = 28.421596 Si / 1000 Ang^3
#
#
#
# Elastic Constant Matrix: (Units=GPa)
#
#
# Indices 1 2 3 4 5 6 
#
# 1 220.1488 69.1825 15.8526 -13.0622 11.0857 58.7573
# 2 69.1825 139.9066 48.7307 -18.7747 0.1407 38.1222
# 3 15.8526 48.7307 149.8094 4.1450 23.3558 -13.4383
# 4 -13.0622 -18.7747 4.1450 59.6804 -6.1030 -0.8170
# 5 11.0857 0.1407 23.3558 -6.1030 47.5178 -17.0770
# 6 58.7573 38.1222 -13.4383 -0.8170 -17.0770 79.7417
#
#
#
# Elastic Compliance Matrix: (Units=1/GPa)
#
#
# Indices 1 2 3 4 5 6 
#
# 1 0.006550 -0.001932 -0.000003 0.000446 -0.003104 -0.004564
# 2 -0.001932 0.011167 -0.004118 0.003455 0.001345 -0.004286
# 3 -0.000003 -0.004118 0.008891 -0.002255 -0.003693 0.002655
# 4 0.000446 0.003455 -0.002255 0.018360 0.002786 -0.001576
# 5 -0.003104 0.001345 -0.003693 0.002786 0.026343 0.006692
# 6 -0.004564 -0.004286 0.002655 -0.001576 0.006692 0.019817
#
#
# Mechanical properties :
#
#
# Convention : Reuss Voigt Hill
#
# Bulk Modulus (GPa) = 68.94386 86.37738 77.66062
# Shear Modulus (GPa) = 46.26722 62.46126 54.36424
#
# Velocity S-wave (km/s) = 4.03909 4.69302 4.37828
# Velocity P-wave (km/s) = 6.78694 7.73455 7.27619
#
# Compressibility (1/GPa) = 0.01450455
#
# Stress axis : x y z
#
# Youngs Moduli (GPa) = 152.66111 89.54741 112.47093
#
# Poissons Ratio (x) = 0.17297 0.00030
# Poissons Ratio (y) = 0.29489 0.46314
# Poissons Ratio (z) = 0.00040 0.36875
#
# Static dielectric constant tensor:
#      x y z
#    x 2.274700 -0.045290 0.031040 
#    y -0.045290 2.248720 -0.023490 
#    z 0.031040 -0.023490 2.251570 
# 
# From -- ./inp_files/137778.got.cif
#   From: 2010.05.17/outbox.cif.g08.bks.cpg/sg2_69_cif.got.tgz:137778.got - 2010.06.03 11:33:40.
