data_PCOD9022891
_publ_section_title
;
Structure prediction by ZEFSAII (Michael W. Deem and Ramdas Pophale) SiO2 
 PCOD9022891
Probable space group: P -1
;
_chemical_formula_sum "Si O2"
_cell_formula_units_Z 16
_cell_length_a 14.132679
_cell_length_b 14.489393
_cell_length_c 14.683508
_cell_angle_alpha 139.488491
_cell_angle_beta 38.833146
_cell_angle_gamma 160.334092
_cell_volume 629.398851
_symmetry_space_group_name_H-M "P -1"
_symmetry_group_IT_number 2
_symmetry_cell_setting 'triclinic'
loop_
_space_group_symop_operation_xyz
x,y,z
-x,-y,-z
loop_
_atom_site_type_symbol
_atom_site_label
_atom_site_fract_x
_atom_site_fract_y
_atom_site_fract_z
Si Si1 0.392842 0.759950 0.931991
Si Si2 0.929093 0.234918 0.004156
Si Si3 0.246483 0.628144 0.474731
Si Si4 0.333932 0.510760 0.156505
Si Si5 0.726251 0.721730 0.287719
Si Si6 0.236889 0.389885 0.642347
Si Si7 0.931057 0.737882 0.526683
Si Si8 0.691072 0.049666 0.234747
O O1 0.364823 0.637757 0.773458
O O2 0.093780 0.486338 0.007446
O O3 0.500000 0.000000 0.000000
O O4 0.652169 0.935750 0.939534
O O5 0.801046 0.189475 0.159183
O O6 0.162748 0.294860 0.885336
O O7 0.391490 0.623872 0.299205
O O8 0.099860 0.432606 0.524105
O O9 0.418066 0.903148 0.590905
O O10 0.000000 0.500000 0.500000
O O11 0.982885 0.217278 0.188081
O O12 0.453090 0.733805 0.170404
O O13 0.500000 0.500000 0.000000
O O14 0.886300 0.789379 0.310635
O O15 0.380673 0.436590 0.350015
O O16 0.820832 0.960669 0.392449
O O17 0.500000 0.500000 0.500000
O O18 0.042545 0.255541 0.597576
#
# Coordination Sequence:
#
# PCOD9022891 Si02
#       8
#     2   2   2   2   2   2   2   2
#     4  11  24  41  64  96 140 180 223 275 329 409
#     4  11  23  42  67  96 139 177 225 277 345 392
#     4  10  26  48  69 102 142 179 228 289 350 408
#     4  11  25  45  74 101 132 173 229 291 349 408
#     4  10  22  39  65 100 135 170 226 288 327 402
#     4   9  20  41  63  96 131 175 217 276 334 387
#     4  11  23  39  70  97 132 180 230 273 343 412
#     4  11  25  45  70  98 139 180 221 286 351 411
#
# _framework density 25.421081999999998
#
# number of rings (size 3 to 8) (size 9 to 14) (size 15 to 20)
#    0.000    1.500    0.000    4.500    5.250    7.000 
#    4.500    0.000    0.000    0.000    0.000    0.000 
#    0.000    0.000    0.000    0.000    0.000    0.000 
#
# Total GULP energy -89517.388226 kJ/mol
# GULP energy per Si atom -5594.836764 kJ/mol
# Density = 2.536322 g / cm^3
# Si number density = 25.421082 Si / 1000 Ang^3
#
#
#
# Elastic Constant Matrix: (Units=GPa)
#
#
# Indices 1 2 3 4 5 6 
#
# 1 72.6291 7.1749 25.2990 4.3676 -0.1495 -12.4228
# 2 7.1749 117.1101 30.1922 12.4649 0.1700 -6.8400
# 3 25.2990 30.1922 169.4484 15.1610 -1.1455 -7.8143
# 4 4.3676 12.4649 15.1610 38.5410 -14.6413 -5.7171
# 5 -0.1495 0.1700 -1.1455 -14.6413 37.7850 2.7556
# 6 -12.4228 -6.8400 -7.8143 -5.7171 2.7556 46.6365
#
#
#
# Elastic Compliance Matrix: (Units=1/GPa)
#
#
# Indices 1 2 3 4 5 6 
#
# 1 0.015140 -0.000138 -0.002025 -0.000511 -0.000464 0.003638
# 2 -0.000138 0.009241 -0.001347 -0.002785 -0.001222 0.000824
# 3 -0.002025 -0.001347 0.006641 -0.002174 -0.000654 0.000148
# 4 -0.000511 -0.002785 -0.002174 0.032864 0.012506 0.002381
# 5 -0.000464 -0.001222 -0.000654 0.012506 0.031349 -0.000732
# 6 0.003638 0.000824 0.000148 0.002381 -0.000732 0.022892
#
#
# Mechanical properties :
#
#
# Convention : Reuss Voigt Hill
#
# Bulk Modulus (GPa) = 41.66507 53.83555 47.75031
# Shear Modulus (GPa) = 37.55236 44.36060 40.95648
#
# Velocity S-wave (km/s) = 3.84762 4.18189 4.01823
# Velocity P-wave (km/s) = 6.01369 6.67391 6.35238
#
# Compressibility (1/GPa) = 0.02400092
#
# Stress axis : x y z
#
# Youngs Moduli (GPa) = 66.05117 108.21275 150.58439
#
# Poissons Ratio (x) = 0.01491 0.30501
# Poissons Ratio (y) = 0.00910 0.20284
# Poissons Ratio (z) = 0.13379 0.14577
#
# Static dielectric constant tensor:
#      x y z
#    x 2.120610 -0.016830 0.047970 
#    y -0.016830 1.994120 -0.051480 
#    z 0.047970 -0.051480 2.066390 
# 
# From -- ./inp_files/534426.got.cif
#   From: 2010.05.17/outbox.cif.g08.bks.cpg/sg2_268_cif.got.tgz:534426.got - 2010.06.03 11:33:40.
