data_PCOD9022550
_publ_section_title
;
Structure prediction by ZEFSAII (Michael W. Deem and Ramdas Pophale) SiO2 
 PCOD9022550
Probable space group: P -1
;
_chemical_formula_sum "Si O2"
_cell_formula_units_Z 12
_cell_length_a 5.011762
_cell_length_b 14.671449
_cell_length_c 14.067653
_cell_angle_alpha 140.645666
_cell_angle_beta 125.824044
_cell_angle_gamma 61.089876
_cell_volume 530.875243
_symmetry_space_group_name_H-M "P -1"
_symmetry_group_IT_number 2
_symmetry_cell_setting 'triclinic'
loop_
_space_group_symop_operation_xyz
x,y,z
-x,-y,-z
loop_
_atom_site_type_symbol
_atom_site_label
_atom_site_fract_x
_atom_site_fract_y
_atom_site_fract_z
Si Si1 0.827118 0.388599 0.492808
Si Si2 0.180035 0.594324 0.038019
Si Si3 0.256686 0.905369 0.316520
Si Si4 0.487949 0.912630 0.155921
Si Si5 0.086328 0.654116 0.851053
Si Si6 0.280792 0.217001 0.291498
O O1 0.500000 0.500000 0.500000
O O2 0.651103 0.271606 0.425787
O O3 0.085325 0.493318 0.677973
O O4 0.016273 0.307797 0.378002
O O5 0.275234 0.741834 0.225126
O O6 0.500000 0.500000 0.000000
O O7 0.025341 0.637032 0.936783
O O8 0.000000 0.500000 0.000000
O O9 0.380106 0.910987 0.240262
O O10 0.869074 0.943785 0.261125
O O11 0.500000 0.000000 0.500000
O O12 0.291001 0.047123 0.174012
O O13 0.396514 0.752013 0.976318
O O14 0.810218 0.747110 0.808218
#
# Coordination Sequence:
#
# PCOD9022550 Si02
#       6
#     2   2   2   2   2   2
#     4  10  22  39  62  95 135 176 215 259 318 386
#     4  11  25  43  65  94 123 169 223 266 322 383
#     4  11  25  46  66  93 131 169 218 279 327 382
#     4  11  24  42  67  98 129 172 219 264 330 397
#     4  10  23  43  66  95 137 171 211 273 324 385
#     4  11  23  41  66 101 135 175 216 261 329 399
#
# _framework density 22.604181000000001
#
# number of rings (size 3 to 8) (size 9 to 14) (size 15 to 20)
#    0.000    1.333    0.000    6.000    0.000   16.000 
#    0.000    8.333    0.000    0.000    0.000    0.000 
#    0.000    0.000    0.000    0.000    0.000    0.000 
#
# Total GULP energy -66911.960634 kJ/mol
# GULP energy per Si atom -5575.996720 kJ/mol
# Density = 2.255273 g / cm^3
# Si number density = 22.604181 Si / 1000 Ang^3
#
#
#
# Elastic Constant Matrix: (Units=GPa)
#
#
# Indices 1 2 3 4 5 6 
#
# 1 182.5659 75.9397 58.1021 10.6799 18.3533 11.6674
# 2 75.9397 139.6540 67.7144 24.5613 10.9579 27.0032
# 3 58.1021 67.7144 153.0888 12.4521 26.6551 3.0630
# 4 10.6799 24.5613 12.4521 27.9588 3.9571 5.1938
# 5 18.3533 10.9579 26.6551 3.9571 26.7300 10.7072
# 6 11.6674 27.0032 3.0630 5.1938 10.7072 43.3151
#
#
#
# Elastic Compliance Matrix: (Units=1/GPa)
#
#
# Indices 1 2 3 4 5 6 
#
# 1 0.007534 -0.003969 -0.000591 0.001154 -0.003626 0.001245
# 2 -0.003969 0.014290 -0.005103 -0.008170 0.006403 -0.008082
# 3 -0.000591 -0.005103 0.010654 0.000471 -0.010222 0.005057
# 4 0.001154 -0.008170 0.000471 0.042799 -0.004546 0.000741
# 5 -0.003626 0.006403 -0.010222 -0.004546 0.054210 -0.015147
# 6 0.001245 -0.008082 0.005057 0.000741 -0.015147 0.031087
#
#
# Mechanical properties :
#
#
# Convention : Reuss Voigt Hill
#
# Bulk Modulus (GPa) = 76.03781 97.64677 86.84229
# Shear Modulus (GPa) = 27.13179 37.83760 32.48469
#
# Velocity S-wave (km/s) = 3.46829 4.09580 3.79504
# Velocity P-wave (km/s) = 7.05341 8.10307 7.59639
#
# Compressibility (1/GPa) = 0.01315135
#
# Stress axis : x y z
#
# Youngs Moduli (GPa) = 132.72896 69.97673 93.86164
#
# Poissons Ratio (x) = 0.27777 0.05549
# Poissons Ratio (y) = 0.52686 0.47898
# Poissons Ratio (z) = 0.07847 0.35709
#
# Static dielectric constant tensor:
#      x y z
#    x 1.839330 -0.018120 0.072110 
#    y -0.018120 1.878580 0.059410 
#    z 0.072110 0.059410 2.024230 
# 
# From -- ./inp_files/483421.got.cif
#   From: 2010.05.17/outbox.cif.g08.bks.cpg/sg2_242_cif.got.tgz:483421.got - 2010.06.03 11:33:40.
