data_PCOD9022236
_publ_section_title
;
Structure prediction by ZEFSAII (Michael W. Deem and Ramdas Pophale) SiO2 
 PCOD9022236
Probable space group: P -1
;
_chemical_formula_sum "Si O2"
_cell_formula_units_Z 14
_cell_length_a 8.755310
_cell_length_b 14.288341
_cell_length_c 11.276568
_cell_angle_alpha 55.433467
_cell_angle_beta 40.571130
_cell_angle_gamma 43.982119
_cell_volume 636.466480
_symmetry_space_group_name_H-M "P -1"
_symmetry_group_IT_number 2
_symmetry_cell_setting 'triclinic'
loop_
_space_group_symop_operation_xyz
x,y,z
-x,-y,-z
loop_
_atom_site_type_symbol
_atom_site_label
_atom_site_fract_x
_atom_site_fract_y
_atom_site_fract_z
Si Si1 0.169252 0.756951 0.898394
Si Si2 0.345560 0.798138 0.008067
Si Si3 0.437526 0.900840 0.675149
Si Si4 0.851392 0.661354 0.265657
Si Si5 0.446281 0.588366 0.623583
Si Si6 0.049953 0.423857 0.148478
Si Si7 0.968070 0.305028 0.606229
O O1 0.325617 0.718897 0.961515
O O2 0.217349 0.877207 0.753344
O O3 0.310786 0.652361 0.784653
O O4 0.883662 0.768662 0.094027
O O5 0.321583 0.925088 0.861355
O O6 0.652627 0.712220 0.939822
O O7 0.129614 0.797814 0.226445
O O8 0.751219 0.765570 0.586372
O O9 0.500000 0.000000 0.500000
O O10 0.556590 0.675651 0.437391
O O11 0.041964 0.519277 0.188202
O O12 0.945276 0.658115 0.347447
O O13 0.211802 0.592088 0.678644
O O14 0.707410 0.438669 0.607823
O O15 0.000000 0.500000 0.000000
#
# Coordination Sequence:
#
# PCOD9022236 Si02
#       7
#     2   2   2   2   2   2   2
#     4   9  20  36  56  80 114 142 180 239 276 324
#     4   9  20  37  53  83 114 146 179 227 278 321
#     4  10  22  39  60  83 104 140 197 246 278 310
#     4  11  20  34  50  82 116 150 182 215 273 335
#     4  12  21  33  55  88 120 149 178 211 282 351
#     4  12  21  33  53  85 128 153 170 214 275 347
#     4  11  20  34  59  84 111 148 183 225 279 338
#
# _framework density 21.996442999999999
#
# number of rings (size 3 to 8) (size 9 to 14) (size 15 to 20)
#    0.857    0.571    4.286    2.571    0.000    2.857 
#    0.000    0.000    0.000    0.857    0.000    4.000 
#    0.000    0.000    0.000    0.000    0.000    0.000 
#
# Total GULP energy -77992.800837 kJ/mol
# GULP energy per Si atom -5570.914346 kJ/mol
# Density = 2.194638 g / cm^3
# Si number density = 21.996443 Si / 1000 Ang^3
#
#
#
# Elastic Constant Matrix: (Units=GPa)
#
#
# Indices 1 2 3 4 5 6 
#
# 1 39.6071 12.7569 21.2317 -5.7194 -19.1637 3.8212
# 2 12.7569 31.5119 20.2292 -5.5550 -6.4646 3.8963
# 3 21.2317 20.2292 204.7738 -17.2861 -32.8807 4.0118
# 4 -5.7194 -5.5550 -17.2861 33.9649 7.9391 -1.9961
# 5 -19.1637 -6.4646 -32.8807 7.9391 43.1156 -0.7653
# 6 3.8212 3.8963 4.0118 -1.9961 -0.7653 13.1798
#
#
#
# Elastic Compliance Matrix: (Units=1/GPa)
#
#
# Indices 1 2 3 4 5 6 
#
# 1 0.036402 -0.010777 -0.000267 0.000550 0.014146 -0.006382
# 2 -0.010777 0.038865 -0.002575 0.003192 -0.001642 -0.007193
# 3 -0.000267 -0.002575 0.005906 0.001649 0.003687 -0.000495
# 4 0.000550 0.003192 0.001649 0.031974 -0.003854 0.003014
# 5 0.014146 -0.001642 0.003687 -0.003854 0.032695 -0.003423
# 6 -0.006382 -0.007193 -0.000495 0.003014 -0.003423 0.080259
#
#
# Mechanical properties :
#
#
# Convention : Reuss Voigt Hill
#
# Bulk Modulus (GPa) = 18.54086 42.70316 30.62201
# Shear Modulus (GPa) = 18.42853 32.83040 25.62946
#
# Velocity S-wave (km/s) = 2.89761 3.86752 3.41715
# Velocity P-wave (km/s) = 4.43195 6.27690 5.43331
#
# Compressibility (1/GPa) = 0.05393492
#
# Stress axis : x y z
#
# Youngs Moduli (GPa) = 27.47127 25.72987 169.30583
#
# Poissons Ratio (x) = 0.27730 0.04517
# Poissons Ratio (y) = 0.29606 0.43602
# Poissons Ratio (z) = 0.00733 0.06626
#
# Static dielectric constant tensor:
#      x y z
#    x 1.782910 0.021580 -0.018180 
#    y 0.021580 1.881310 -0.056250 
#    z -0.018180 -0.056250 1.920760 
# 
# From -- ./inp_files/344469.got.cif
#   From: 2010.05.17/outbox.cif.g08.bks.cpg/sg2_173_cif.got.tgz:344469.got - 2010.06.03 11:33:40.
