data_PCOD9022638
_publ_section_title
;
Structure prediction by ZEFSAII (Michael W. Deem and Ramdas Pophale) SiO2 
 PCOD9022638
Probable space group: P -1
;
_chemical_formula_sum "Si O2"
_cell_formula_units_Z 16
_cell_length_a 23.641870
_cell_length_b 9.363198
_cell_length_c 9.162158
_cell_angle_alpha 108.238137
_cell_angle_beta 115.526502
_cell_angle_gamma 130.583786
_cell_volume 695.656741
_symmetry_space_group_name_H-M "P -1"
_symmetry_group_IT_number 2
_symmetry_cell_setting 'triclinic'
loop_
_space_group_symop_operation_xyz
x,y,z
-x,-y,-z
loop_
_atom_site_type_symbol
_atom_site_label
_atom_site_fract_x
_atom_site_fract_y
_atom_site_fract_z
Si Si1 0.939092 0.437263 0.763852
Si Si2 0.673760 0.448281 0.342302
Si Si3 0.002026 0.848873 0.539092
Si Si4 0.501224 0.685508 0.741902
Si Si5 0.722438 0.697198 0.165124
Si Si6 0.525149 0.404608 0.637587
Si Si7 0.138817 0.763848 0.849171
Si Si8 0.823267 0.475361 0.521061
O O1 0.876738 0.470422 0.697819
O O2 0.087977 0.748941 0.924198
O O3 0.805339 0.034144 0.417877
O O4 0.000000 0.500000 0.000000
O O5 0.637423 0.515507 0.417233
O O6 0.717767 0.587686 0.270323
O O7 0.789170 0.570797 0.564615
O O8 0.500000 0.000000 0.000000
O O9 0.884640 0.464488 0.219192
O O10 0.947799 0.748435 0.613558
O O11 0.000000 0.000000 0.500000
O O12 0.171911 0.151995 0.791132
O O13 0.449336 0.396299 0.595937
O O14 0.538285 0.803306 0.650242
O O15 0.658132 0.055607 0.130555
O O16 0.556621 0.369261 0.799942
O O17 0.698633 0.840295 0.917527
O O18 0.000000 0.500000 0.500000
#
# Coordination Sequence:
#
# PCOD9022638 Si02
#       8
#     2   2   2   2   2   2   2   2
#     4  11  23  38  65  96 121 161 209 266 320 373
#     4  10  24  41  62  86 133 175 198 248 320 378
#     4  11  19  34  67  93 116 165 207 255 321 376
#     4  10  22  39  63  93 122 171 208 249 317 363
#     4  11  21  40  63  94 120 159 215 257 312 376
#     4  11  20  38  66  95 121 162 217 266 303 363
#     4  11  18  37  63  90 123 157 207 268 312 354
#     4  11  19  44  64  89 135 163 204 265 318 368
#
# _framework density 22.999848
#
# number of rings (size 3 to 8) (size 9 to 14) (size 15 to 20)
#    0.000    1.250    7.500    0.000    1.750    0.500 
#    0.000    5.625    0.000    0.000    0.000    0.000 
#    0.000    0.000    0.000    0.000    0.000    0.000 
#
# Total GULP energy -89363.925518 kJ/mol
# GULP energy per Si atom -5585.245345 kJ/mol
# Density = 2.294750 g / cm^3
# Si number density = 22.999848 Si / 1000 Ang^3
#
#
#
# Elastic Constant Matrix: (Units=GPa)
#
#
# Indices 1 2 3 4 5 6 
#
# 1 165.3655 34.5279 30.6703 -30.9209 41.2825 -3.1470
# 2 34.5279 85.6825 24.5103 -22.0353 20.7273 -17.1573
# 3 30.6703 24.5103 81.7892 -25.4274 3.5502 -7.3969
# 4 -30.9209 -22.0353 -25.4274 46.8534 -6.9436 10.2926
# 5 41.2825 20.7273 3.5502 -6.9436 21.8404 -12.0480
# 6 -3.1470 -17.1573 -7.3969 10.2926 -12.0480 34.7692
#
#
#
# Elastic Compliance Matrix: (Units=1/GPa)
#
#
# Indices 1 2 3 4 5 6 
#
# 1 0.017740 0.003331 -0.004755 0.007719 -0.041408 -0.014396
# 2 0.003331 0.017890 -0.004070 0.005405 -0.021287 -0.000713
# 3 -0.004755 -0.004070 0.016598 0.005073 0.014268 0.004534
# 4 0.007719 0.005405 0.005073 0.031637 -0.016321 -0.010576
# 5 -0.041408 -0.021287 0.014268 -0.016321 0.164712 0.050689
# 6 -0.014396 -0.000713 0.004534 -0.010576 0.050689 0.048766
#
#
# Mechanical properties :
#
#
# Convention : Reuss Voigt Hill
#
# Bulk Modulus (GPa) = 24.24950 56.91715 40.58332
# Shear Modulus (GPa) = 15.52414 36.90119 26.21267
#
# Velocity S-wave (km/s) = 2.60083 4.00985 3.37959
# Velocity P-wave (km/s) = 4.42553 6.79993 5.73691
#
# Compressibility (1/GPa) = 0.04123797
#
# Stress axis : x y z
#
# Youngs Moduli (GPa) = 56.36854 55.89738 60.24973
#
# Poissons Ratio (x) = -0.18619 0.28651
# Poissons Ratio (y) = -0.18776 0.24524
# Poissons Ratio (z) = 0.26805 0.22753
#
# Static dielectric constant tensor:
#      x y z
#    x 1.868850 -0.062010 0.039780 
#    y -0.062010 1.861030 -0.003220 
#    z 0.039780 -0.003220 1.901200 
# 
# From -- ./inp_files/351789.got.cif
#   From: 2010.05.17/outbox.cif.g08.bks.cpg/sg2_176_cif.got.tgz:351789.got - 2010.06.03 11:33:40.
