data_PCOD9022698
_publ_section_title
;
Structure prediction by ZEFSAII (Michael W. Deem and Ramdas Pophale) SiO2 
 PCOD9022698
Probable space group: P -1
;
_chemical_formula_sum "Si O2"
_cell_formula_units_Z 12
_cell_length_a 7.560834
_cell_length_b 10.255472
_cell_length_c 11.328507
_cell_angle_alpha 38.474715
_cell_angle_beta 84.825763
_cell_angle_gamma 73.416458
_cell_volume 510.540218
_symmetry_space_group_name_H-M "P -1"
_symmetry_group_IT_number 2
_symmetry_cell_setting 'triclinic'
loop_
_space_group_symop_operation_xyz
x,y,z
-x,-y,-z
loop_
_atom_site_type_symbol
_atom_site_label
_atom_site_fract_x
_atom_site_fract_y
_atom_site_fract_z
Si Si1 0.028826 0.009779 0.662286
Si Si2 0.597888 0.077849 0.613061
Si Si3 0.848756 0.943171 0.127163
Si Si4 0.426594 0.725864 0.766165
Si Si5 0.422764 0.754702 0.242785
Si Si6 0.180210 0.529047 0.558930
O O1 0.827966 0.977542 0.680846
O O2 0.961685 0.281535 0.483186
O O3 0.130653 0.951128 0.824784
O O4 0.197334 0.854491 0.682282
O O5 0.522887 0.266886 0.381085
O O6 0.536195 0.160793 0.690638
O O7 0.515092 0.891055 0.709420
O O8 0.881786 0.680410 0.321756
O O9 0.661226 0.062374 0.980440
O O10 0.000000 0.000000 0.000000
O O11 0.500000 0.500000 0.000000
O O12 0.263986 0.644683 0.367141
O O13 0.620240 0.585562 0.304607
#
# Coordination Sequence:
#
# PCOD9022698 Si02
#       6
#     2   2   2   2   2   2
#     4  11  24  44  66  97 132 171 214 265 325 383
#     4  10  23  46  65  96 128 165 221 267 322 382
#     4  12  22  39  62 103 135 165 211 254 323 397
#     4  11  26  47  68  91 125 172 224 275 319 373
#     4  10  22  41  66  97 133 170 212 260 326 387
#     4  10  22  39  63  95 135 173 205 262 320 386
#
# _framework density 23.504514
#
# number of rings (size 3 to 8) (size 9 to 14) (size 15 to 20)
#    0.000    1.333    3.333    2.500    0.000    7.333 
#    6.000    0.000    0.000    0.000    0.000    0.000 
#    0.000    0.000    0.000    0.000    0.000    0.000 
#
# Total GULP energy -66916.905537 kJ/mol
# GULP energy per Si atom -5576.408795 kJ/mol
# Density = 2.345102 g / cm^3
# Si number density = 23.504514 Si / 1000 Ang^3
#
#
#
# Elastic Constant Matrix: (Units=GPa)
#
#
# Indices 1 2 3 4 5 6 
#
# 1 107.1319 19.1056 28.3994 -7.6872 1.9517 12.6089
# 2 19.1056 74.3928 29.6098 19.6188 3.6517 3.0788
# 3 28.3994 29.6098 161.7326 20.2680 18.2021 -5.9437
# 4 -7.6872 19.6188 20.2680 30.9945 6.0862 4.6918
# 5 1.9517 3.6517 18.2021 6.0862 52.9575 -7.9379
# 6 12.6089 3.0788 -5.9437 4.6918 -7.9379 32.6259
#
#
#
# Elastic Compliance Matrix: (Units=1/GPa)
#
#
# Indices 1 2 3 4 5 6 
#
# 1 0.012070 -0.003976 -0.002532 0.008345 -0.001195 -0.006242
# 2 -0.003976 0.017979 -0.001128 -0.012050 0.000918 0.001590
# 3 -0.002532 -0.001128 0.007748 -0.005127 -0.001472 0.002876
# 4 0.008345 -0.012050 -0.005127 0.047955 -0.004891 -0.011108
# 5 -0.001195 0.000918 -0.001472 -0.004891 0.020812 0.005874
# 6 -0.006242 0.001590 0.002876 -0.011108 0.005874 0.036463
#
#
# Mechanical properties :
#
#
# Convention : Reuss Voigt Hill
#
# Bulk Modulus (GPa) = 44.39629 55.27631 49.83630
# Shear Modulus (GPa) = 30.15533 41.05841 35.60687
#
# Velocity S-wave (km/s) = 3.58573 4.18404 3.89639
# Velocity P-wave (km/s) = 6.00605 6.84909 6.44138
#
# Compressibility (1/GPa) = 0.02252440
#
# Stress axis : x y z
#
# Youngs Moduli (GPa) = 82.85158 55.62006 129.06459
#
# Poissons Ratio (x) = 0.22113 0.32682
# Poissons Ratio (y) = 0.32940 0.14562
# Poissons Ratio (z) = 0.20980 0.06276
#
# Static dielectric constant tensor:
#      x y z
#    x 3.048180 -2.744270 -0.895910 
#    y -2.744270 9.277850 2.537950 
#    z -0.895910 2.537950 2.824870 
# 
# From -- ./inp_files/496009.got.cif
#   From: 2010.05.17/outbox.cif.g08.bks.cpg/sg2_249_cif.got.tgz:496009.got - 2010.06.03 11:33:40.
