data_PCOD9022313
_publ_section_title
;
Structure prediction by ZEFSAII (Michael W. Deem and Ramdas Pophale) SiO2 
 PCOD9022313
Probable space group: P -1
;
_chemical_formula_sum "Si O2"
_cell_formula_units_Z 12
_cell_length_a 10.807171
_cell_length_b 11.329520
_cell_length_c 6.894632
_cell_angle_alpha 102.240268
_cell_angle_beta 109.810234
_cell_angle_gamma 50.619971
_cell_volume 613.891526
_symmetry_space_group_name_H-M "P -1"
_symmetry_group_IT_number 2
_symmetry_cell_setting 'triclinic'
loop_
_space_group_symop_operation_xyz
x,y,z
-x,-y,-z
loop_
_atom_site_type_symbol
_atom_site_label
_atom_site_fract_x
_atom_site_fract_y
_atom_site_fract_z
Si Si1 0.068923 0.903719 0.199813
Si Si2 0.846924 0.415430 0.933841
Si Si3 0.570890 0.746672 0.944829
Si Si4 0.764965 0.032386 0.375635
Si Si5 0.632635 0.859345 0.383441
Si Si6 0.160765 0.364146 0.252620
O O1 0.193370 0.921891 0.387185
O O2 0.148427 0.728853 0.139913
O O3 0.914315 0.968816 0.284207
O O4 0.000000 0.000000 0.000000
O O5 0.996113 0.378353 0.137488
O O6 0.671607 0.566103 0.968128
O O7 0.875636 0.476177 0.769984
O O8 0.403932 0.825549 0.763010
O O9 0.702118 0.746616 0.878426
O O10 0.545558 0.831721 0.159401
O O11 0.739001 0.906198 0.360400
O O12 0.752502 0.707920 0.523025
O O13 0.500000 0.000000 0.500000
#
# Coordination Sequence:
#
# PCOD9022313 Si02
#       6
#     2   2   2   2   2   2
#     4  11  25  45  65  87 127 172 212 253 308 371
#     4   9  20  43  62  90 130 160 204 265 303 374
#     4  10  22  39  60  96 126 156 210 255 311 364
#     4  11  25  40  64  96 124 167 212 252 307 380
#     4  12  22  36  68  98 125 161 202 263 317 367
#     4   9  20  38  62  96 126 161 194 264 321 355
#
# _framework density 19.547426999999999
#
# number of rings (size 3 to 8) (size 9 to 14) (size 15 to 20)
#    1.000    0.667    1.667    2.500    4.667    1.333 
#    6.000    0.833    0.000    0.000    0.000    0.000 
#    0.000    0.000    0.000    0.000    0.000    0.000 
#
# Total GULP energy -66962.493941 kJ/mol
# GULP energy per Si atom -5580.207828 kJ/mol
# Density = 1.950294 g / cm^3
# Si number density = 19.547427 Si / 1000 Ang^3
#
#
#
# Elastic Constant Matrix: (Units=GPa)
#
#
# Indices 1 2 3 4 5 6 
#
# 1 30.6058 20.8545 30.3461 -0.7661 4.8625 -1.5636
# 2 20.8545 103.8340 68.9067 3.9271 16.5270 5.1711
# 3 30.3461 68.9067 152.3017 -11.4033 18.3790 2.2683
# 4 -0.7661 3.9271 -11.4033 32.3089 -4.2465 6.7844
# 5 4.8625 16.5270 18.3790 -4.2465 26.0459 -1.9593
# 6 -1.5636 5.1711 2.2683 6.7844 -1.9593 27.1196
#
#
#
# Elastic Compliance Matrix: (Units=1/GPa)
#
#
# Indices 1 2 3 4 5 6 
#
# 1 0.042393 -0.004107 -0.006722 -0.001823 -0.000546 0.004206
# 2 -0.004107 0.015488 -0.005780 -0.004360 -0.005847 -0.002038
# 3 -0.006722 -0.005780 0.011161 0.004493 -0.002334 -0.001512
# 4 -0.001823 -0.004360 0.004493 0.035402 0.005097 -0.008138
# 5 -0.000546 -0.005847 -0.002334 0.005097 0.044928 0.003250
# 6 0.004206 -0.002038 -0.001512 -0.008138 0.003250 0.039902
#
#
# Mechanical properties :
#
#
# Convention : Reuss Voigt Hill
#
# Bulk Modulus (GPa) = 27.91386 58.55068 43.23227
# Shear Modulus (GPa) = 21.32801 28.20382 24.76591
#
# Velocity S-wave (km/s) = 3.30675 3.80259 3.56331
# Velocity P-wave (km/s) = 5.37499 7.02124 6.25253
#
# Compressibility (1/GPa) = 0.03582450
#
# Stress axis : x y z
#
# Youngs Moduli (GPa) = 23.58887 64.56508 89.59992
#
# Poissons Ratio (x) = 0.26519 0.60227
# Poissons Ratio (y) = 0.09689 0.51785
# Poissons Ratio (z) = 0.15856 0.37316
#
# Static dielectric constant tensor:
#      x y z
#    x 1.682090 -0.012300 -0.019810 
#    y -0.012300 1.692980 -0.003800 
#    z -0.019810 -0.003800 1.671230 
# 
# From -- ./inp_files/65114.got.cif
#   From: 2010.05.17/outbox.cif.g08.bks.cpg/sg2_33_cif.got.tgz:65114.got - 2010.06.03 11:33:40.
