data_PCOD9022238
_publ_section_title
;
Structure prediction by ZEFSAII (Michael W. Deem and Ramdas Pophale) SiO2 
 PCOD9022238
Probable space group: P -1
;
_chemical_formula_sum "Si O2"
_cell_formula_units_Z 12
_cell_length_a 9.576451
_cell_length_b 8.566310
_cell_length_c 9.979890
_cell_angle_alpha 128.068516
_cell_angle_beta 58.206863
_cell_angle_gamma 107.547152
_cell_volume 547.496506
_symmetry_space_group_name_H-M "P -1"
_symmetry_group_IT_number 2
_symmetry_cell_setting 'triclinic'
loop_
_space_group_symop_operation_xyz
x,y,z
-x,-y,-z
loop_
_atom_site_type_symbol
_atom_site_label
_atom_site_fract_x
_atom_site_fract_y
_atom_site_fract_z
Si Si1 0.842812 0.123217 0.089715
Si Si2 0.841147 0.129117 0.609605
Si Si3 0.512911 0.645399 0.308461
Si Si4 0.491558 0.016404 0.720697
Si Si5 0.839846 0.376300 0.483305
Si Si6 0.160744 0.614659 0.013774
O O1 0.672046 0.011980 0.128035
O O2 0.836430 0.309377 0.294959
O O3 0.857031 0.191400 0.966759
O O4 0.000000 0.000000 0.000000
O O5 0.841203 0.184179 0.481175
O O6 0.839869 0.331521 0.801556
O O7 0.676657 0.023245 0.684100
O O8 0.000000 0.000000 0.500000
O O9 0.498902 0.825039 0.517686
O O10 0.342233 0.531006 0.342998
O O11 0.528378 0.771173 0.231061
O O12 0.672616 0.505862 0.172169
O O13 0.000000 0.500000 0.500000
O O14 0.000000 0.500000 0.000000
#
# Coordination Sequence:
#
# PCOD9022238 Si02
#       6
#     2   2   2   2   2   2
#     4  11  23  39  60  85 116 154 192 237 288 339
#     4  11  23  39  60  85 116 154 192 237 288 339
#     4   9  20  39  60  85 116 154 192 233 290 342
#     4   9  20  39  60  82 118 156 188 234 290 344
#     4  10  22  39  60  84 115 152 188 236 288 341
#     4  12  24  37  60  89 117 150 194 242 284 342
#
# _framework density 21.917947999999999
#
# number of rings (size 3 to 8) (size 9 to 14) (size 15 to 20)
#    0.000    1.667    0.000    5.000    0.000    8.667 
#    0.000    0.000    0.000    0.000    0.000    0.000 
#    0.000    0.000    0.000    0.000    0.000    0.000 
#
# Total GULP energy -66994.275689 kJ/mol
# GULP energy per Si atom -5582.856307 kJ/mol
# Density = 2.186806 g / cm^3
# Si number density = 21.917948 Si / 1000 Ang^3
#
#
#
# Elastic Constant Matrix: (Units=GPa)
#
#
# Indices 1 2 3 4 5 6 
#
# 1 140.0321 25.7044 29.5572 -2.8646 -47.5738 21.1560
# 2 25.7044 39.7947 18.3181 -7.4934 -26.8572 7.1089
# 3 29.5572 18.3181 53.6906 -5.9841 -23.7961 0.6980
# 4 -2.8646 -7.4934 -5.9841 24.2797 -0.7982 -12.8070
# 5 -47.5738 -26.8572 -23.7961 -0.7982 60.6008 -2.9498
# 6 21.1560 7.1089 0.6980 -12.8070 -2.9498 56.2925
#
#
#
# Elastic Compliance Matrix: (Units=1/GPa)
#
#
# Indices 1 2 3 4 5 6 
#
# 1 0.010723 -0.000598 -0.002768 -0.001425 0.006858 -0.003885
# 2 -0.000598 0.040867 -0.005489 0.010867 0.015553 -0.001581
# 3 -0.002768 -0.005489 0.025068 0.005953 0.005465 0.003063
# 4 -0.001425 0.010867 0.005953 0.052045 0.007271 0.011311
# 5 0.006858 0.015553 0.005465 0.007271 0.030955 -0.001333
# 6 -0.003885 -0.001581 0.003063 0.011311 -0.001333 0.021890
#
#
# Mechanical properties :
#
#
# Convention : Reuss Voigt Hill
#
# Bulk Modulus (GPa) = 16.96404 42.29743 29.63074
# Shear Modulus (GPa) = 22.84082 38.89711 30.86896
#
# Velocity S-wave (km/s) = 3.23167 4.21725 3.75692
# Velocity P-wave (km/s) = 4.65634 6.56152 5.68925
#
# Compressibility (1/GPa) = 0.05894821
#
# Stress axis : x y z
#
# Youngs Moduli (GPa) = 93.25790 24.46954 39.89204
#
# Poissons Ratio (x) = 0.01463 0.11042
# Poissons Ratio (y) = 0.05577 0.21896
# Poissons Ratio (z) = 0.25812 0.13431
#
# Static dielectric constant tensor:
#      x y z
#    x 1.817240 0.041450 -0.006830 
#    y 0.041450 1.792950 0.008830 
#    z -0.006830 0.008830 1.797840 
# 
# From -- ./inp_files/145473.got.cif
#   From: 2010.05.17/outbox.cif.g08.bks.cpg/sg2_73_cif.got.tgz:145473.got - 2010.06.03 11:33:40.
