data_PCOD9022677
_publ_section_title
;
Structure prediction by ZEFSAII (Michael W. Deem and Ramdas Pophale) SiO2 
 PCOD9022677
Probable space group: P -1
;
_chemical_formula_sum "Si O2"
_cell_formula_units_Z 16
_cell_length_a 12.255712
_cell_length_b 12.983119
_cell_length_c 8.302736
_cell_angle_alpha 147.323564
_cell_angle_beta 77.142564
_cell_angle_gamma 111.548867
_cell_volume 653.457396
_symmetry_space_group_name_H-M "P -1"
_symmetry_group_IT_number 2
_symmetry_cell_setting 'triclinic'
loop_
_space_group_symop_operation_xyz
x,y,z
-x,-y,-z
loop_
_atom_site_type_symbol
_atom_site_label
_atom_site_fract_x
_atom_site_fract_y
_atom_site_fract_z
Si Si1 0.416954 0.639030 0.670980
Si Si2 0.215059 0.055144 0.695194
Si Si3 0.556586 0.919792 0.230985
Si Si4 0.007795 0.299934 0.818188
Si Si5 0.766990 0.819511 0.496081
Si Si6 0.491537 0.464682 0.770056
Si Si7 0.080208 0.775044 0.874043
Si Si8 0.169066 0.413510 0.369462
O O1 0.500000 0.500000 0.500000
O O2 0.428568 0.651936 0.490481
O O3 0.279119 0.513189 0.586054
O O4 0.475093 0.859770 0.020384
O O5 0.300939 0.978115 0.679155
O O6 0.263046 0.086432 0.536741
O O7 0.084900 0.891900 0.496756
O O8 0.209321 0.265646 0.044573
O O9 0.500000 0.000000 0.500000
O O10 0.538644 0.692979 0.995145
O O11 0.136894 0.282217 0.724715
O O12 0.970396 0.280595 0.995740
O O13 0.000000 0.500000 0.000000
O O14 0.644826 0.661661 0.389153
O O15 0.829523 0.997364 0.836702
O O16 0.500000 0.500000 0.000000
O O17 0.143231 0.616119 0.590305
O O18 0.965892 0.734135 0.741704
#
# Coordination Sequence:
#
# PCOD9022677 Si02
#       8
#     2   2   2   2   2   2   2   2
#     4  10  22  39  63  94 131 168 210 269 329 383
#     4  11  20  43  67  86 129 170 219 262 325 392
#     4  11  25  42  66  96 130 177 213 268 338 384
#     4  11  24  39  62  95 124 167 212 270 318 386
#     4  11  21  41  63  91 127 168 216 264 316 393
#     4  11  22  40  66  94 128 172 216 263 322 387
#     4  10  23  39  67  91 122 172 214 264 328 380
#     4  11  19  40  68  89 120 169 220 260 320 391
#
# _framework density 24.485147999999999
#
# number of rings (size 3 to 8) (size 9 to 14) (size 15 to 20)
#    0.000    1.250    6.250    0.750    5.250    1.000 
#    0.000    6.875    0.000    0.000    0.000    0.000 
#    0.000    0.000    0.000    0.000    0.000    0.000 
#
# Total GULP energy -89234.060016 kJ/mol
# GULP energy per Si atom -5577.128751 kJ/mol
# Density = 2.442942 g / cm^3
# Si number density = 24.485148 Si / 1000 Ang^3
#
#
#
# Elastic Constant Matrix: (Units=GPa)
#
#
# Indices 1 2 3 4 5 6 
#
# 1 136.4537 2.2447 51.9582 12.9527 22.8040 20.3884
# 2 2.2447 31.8178 -4.4570 -1.3921 6.9344 4.2616
# 3 51.9582 -4.4570 138.3542 -17.6018 3.2270 2.8075
# 4 12.9527 -1.3921 -17.6018 28.6274 10.0238 4.0756
# 5 22.8040 6.9344 3.2270 10.0238 45.4960 2.1092
# 6 20.3884 4.2616 2.8075 4.0756 2.1092 22.7722
#
#
#
# Elastic Compliance Matrix: (Units=1/GPa)
#
#
# Indices 1 2 3 4 5 6 
#
# 1 0.011602 0.000243 -0.004802 -0.005625 -0.003879 -0.008474
# 2 0.000243 0.034397 0.002109 0.006205 -0.006537 -0.007420
# 3 -0.004802 0.002109 0.010179 0.008570 -0.000579 0.001170
# 4 -0.005625 0.006205 0.008570 0.046814 -0.008828 -0.004742
# 5 -0.003879 -0.006537 -0.000579 -0.008828 0.026727 0.003872
# 6 -0.008474 -0.007420 0.001170 -0.004742 0.003872 0.053235
#
#
# Mechanical properties :
#
#
# Convention : Reuss Voigt Hill
#
# Bulk Modulus (GPa) = 19.50140 45.12418 32.31279
# Shear Modulus (GPa) = 24.39647 36.50445 30.45046
#
# Velocity S-wave (km/s) = 3.15997 3.86538 3.53034
# Velocity P-wave (km/s) = 4.61473 6.19603 5.46290
#
# Compressibility (1/GPa) = 0.05127836
#
# Stress axis : x y z
#
# Youngs Moduli (GPa) = 86.19492 29.07211 98.23768
#
# Poissons Ratio (x) = -0.00707 0.47177
# Poissons Ratio (y) = -0.02096 -0.20720
# Poissons Ratio (z) = 0.41394 -0.06132
#
# Static dielectric constant tensor:
#      x y z
#    x 2.067750 -0.230960 0.293070 
#    y -0.230960 2.232320 -0.249290 
#    z 0.293070 -0.249290 2.091250 
# 
# From -- ./inp_files/274856.got.cif
#   From: 2010.05.17/outbox.cif.g08.bks.cpg/sg2_138_cif.got.tgz:274856.got - 2010.06.03 11:33:40.
