data_PCOD9022686
_publ_section_title
;
Structure prediction by ZEFSAII (Michael W. Deem and Ramdas Pophale) SiO2 
 PCOD9022686
Probable space group: P -1
;
_chemical_formula_sum "Si O2"
_cell_formula_units_Z 12
_cell_length_a 9.615491
_cell_length_b 13.398132
_cell_length_c 10.635576
_cell_angle_alpha 138.662586
_cell_angle_beta 71.349897
_cell_angle_gamma 134.502164
_cell_volume 580.143106
_symmetry_space_group_name_H-M "P -1"
_symmetry_group_IT_number 2
_symmetry_cell_setting 'triclinic'
loop_
_space_group_symop_operation_xyz
x,y,z
-x,-y,-z
loop_
_atom_site_type_symbol
_atom_site_label
_atom_site_fract_x
_atom_site_fract_y
_atom_site_fract_z
Si Si1 0.346663 0.323475 0.266913
Si Si2 0.102579 0.568411 0.237693
Si Si3 0.269730 0.861982 0.221919
Si Si4 0.569278 0.349499 0.600921
Si Si5 0.625598 0.011736 0.086988
Si Si6 0.933776 0.634237 0.579259
O O1 0.500000 0.500000 0.500000
O O2 0.424739 0.466294 0.250333
O O3 0.113836 0.221255 0.273370
O O4 0.365253 0.160002 0.101410
O O5 0.201853 0.745508 0.265581
O O6 0.287731 0.606843 0.285412
O O7 0.996065 0.601340 0.401469
O O8 0.919828 0.323575 0.996408
O O9 0.485194 0.940092 0.184221
O O10 0.341238 0.091231 0.421493
O O11 0.708604 0.407763 0.491502
O O12 0.874393 0.244216 0.261544
O O13 0.500000 0.000000 0.000000
#
# Coordination Sequence:
#
# PCOD9022686 Si02
#       6
#     2   2   2   2   2   2
#     4  10  23  39  60  97 130 161 215 268 315 372
#     4  11  22  41  62  99 129 169 217 255 321 386
#     4  11  24  37  68  93 129 173 209 264 316 384
#     4  10  22  39  63  95 124 167 211 264 317 368
#     4  12  23  40  68  96 126 170 217 261 325 377
#     4  10  23  39  66  95 128 164 215 267 311 383
#
# _framework density 20.684550999999999
#
# number of rings (size 3 to 8) (size 9 to 14) (size 15 to 20)
#    1.000    0.333    1.667    4.500    2.333    0.000 
#    0.000    0.833    0.000    6.000    0.000    0.000 
#    0.000    0.000    0.000    0.000    0.000    0.000 
#
# Total GULP energy -66954.536994 kJ/mol
# GULP energy per Si atom -5579.544749 kJ/mol
# Density = 2.063747 g / cm^3
# Si number density = 20.684551 Si / 1000 Ang^3
#
#
#
# Elastic Constant Matrix: (Units=GPa)
#
#
# Indices 1 2 3 4 5 6 
#
# 1 113.5500 27.9598 35.8949 2.3578 -4.7210 -27.2689
# 2 27.9598 111.3233 48.2032 5.8335 9.0086 -13.1008
# 3 35.8949 48.2032 82.0444 11.9579 8.2707 -20.2640
# 4 2.3578 5.8335 11.9579 31.5040 -1.9444 3.2386
# 5 -4.7210 9.0086 8.2707 -1.9444 38.4828 6.1753
# 6 -27.2689 -13.1008 -20.2640 3.2386 6.1753 26.2126
#
#
#
# Elastic Compliance Matrix: (Units=1/GPa)
#
#
# Indices 1 2 3 4 5 6 
#
# 1 0.012315 -0.000898 -0.002079 -0.001052 0.000382 0.010795
# 2 -0.000898 0.012214 -0.006508 0.000122 -0.001646 0.000511
# 3 -0.002079 -0.006508 0.022488 -0.009068 -0.006364 0.014589
# 4 -0.001052 0.000122 -0.009068 0.037045 0.005912 -0.014013
# 5 0.000382 -0.001646 -0.006364 0.005912 0.030201 -0.013190
# 6 0.010795 0.000511 0.014589 -0.014013 -0.013190 0.065752
#
#
# Mechanical properties :
#
#
# Convention : Reuss Voigt Hill
#
# Bulk Modulus (GPa) = 35.65587 59.00372 47.32980
# Shear Modulus (GPa) = 23.99968 32.23052 28.11510
#
# Velocity S-wave (km/s) = 3.40997 3.95168 3.69078
# Velocity P-wave (km/s) = 5.72531 7.02911 6.41045
#
# Compressibility (1/GPa) = 0.02804587
#
# Stress axis : x y z
#
# Youngs Moduli (GPa) = 81.19947 81.87613 44.46741
#
# Poissons Ratio (x) = 0.07354 0.09246
# Poissons Ratio (y) = 0.07293 0.28941
# Poissons Ratio (z) = 0.16883 0.53288
#
# Static dielectric constant tensor:
#      x y z
#    x 1.806690 -0.031590 -0.036500 
#    y -0.031590 1.755440 0.038240 
#    z -0.036500 0.038240 1.806060 
# 
# From -- ./inp_files/431941.got.cif
#   From: 2010.05.17/outbox.cif.g08.bks.cpg/sg2_216_cif.got.tgz:431941.got - 2010.06.03 11:33:40.
