data_PCOD9022501
_publ_section_title
;
Structure prediction by ZEFSAII (Michael W. Deem and Ramdas Pophale) SiO2 
 PCOD9022501
Probable space group: P -1
;
_chemical_formula_sum "Si O2"
_cell_formula_units_Z 16
_cell_length_a 25.473973
_cell_length_b 5.286087
_cell_length_c 7.027615
_cell_angle_alpha 78.225136
_cell_angle_beta 43.398492
_cell_angle_gamma 80.488373
_cell_volume 636.303330
_symmetry_space_group_name_H-M "P -1"
_symmetry_group_IT_number 2
_symmetry_cell_setting 'triclinic'
loop_
_space_group_symop_operation_xyz
x,y,z
-x,-y,-z
loop_
_atom_site_type_symbol
_atom_site_label
_atom_site_fract_x
_atom_site_fract_y
_atom_site_fract_z
Si Si1 0.953906 0.769525 0.057900
Si Si2 0.789142 0.371519 0.899469
Si Si3 0.429490 0.263547 0.235842
Si Si4 0.374335 0.454678 0.731872
Si Si5 0.856248 0.581584 0.046679
Si Si6 0.825981 0.101452 0.460340
Si Si7 0.277204 0.027209 0.556926
Si Si8 0.491895 0.199017 0.707548
O O1 0.924629 0.759647 0.915703
O O2 0.872094 0.828357 0.366191
O O3 0.000000 0.500000 0.000000
O O4 0.000000 0.000000 0.000000
O O5 0.714789 0.527453 0.990685
O O6 0.847551 0.524681 0.855246
O O7 0.751253 0.172851 0.178828
O O8 0.825664 0.213900 0.653720
O O9 0.382154 0.427692 0.488299
O O10 0.364592 0.082408 0.346278
O O11 0.489153 0.080420 0.218010
O O12 0.469255 0.372554 0.927258
O O13 0.421312 0.225566 0.747644
O O14 0.429446 0.691339 0.599651
O O15 0.862906 0.312042 0.187455
O O16 0.776468 0.720334 0.297841
O O17 0.744079 0.067293 0.583041
#
# Coordination Sequence:
#
# PCOD9022501 Si02
#       8
#     2   2   2   2   2   2   2   2
#     4  11  22  46  78 107 148 186 221 279 346 410
#     4  11  23  41  65  98 135 177 230 289 339 413
#     4  11  21  41  59  84 122 174 228 287 353 413
#     4  11  22  40  59  86 124 170 225 292 353 399
#     4  10  22  43  70  98 137 179 229 273 337 406
#     4  10  24  42  69 103 135 181 229 274 338 417
#     4  10  22  39  62  91 134 176 224 287 346 404
#     4  10  24  38  56  87 122 169 229 289 354 421
#
# _framework density 25.145240999999999
#
# number of rings (size 3 to 8) (size 9 to 14) (size 15 to 20)
#    0.000    1.500    3.750    0.750    1.750    3.000 
#    9.000    1.250    0.000    0.000    0.000    0.000 
#    0.000    0.000    0.000    0.000    0.000    0.000 
#
# Total GULP energy -89390.452496 kJ/mol
# GULP energy per Si atom -5586.903281 kJ/mol
# Density = 2.508801 g / cm^3
# Si number density = 25.145241 Si / 1000 Ang^3
#
#
#
# Elastic Constant Matrix: (Units=GPa)
#
#
# Indices 1 2 3 4 5 6 
#
# 1 183.6973 61.4882 42.6096 18.0843 13.4441 -2.0624
# 2 61.4882 109.2186 19.1076 15.8346 10.4791 0.9584
# 3 42.6096 19.1076 60.9149 19.2154 35.1206 2.2366
# 4 18.0843 15.8346 19.2154 45.1225 9.3652 2.6855
# 5 13.4441 10.4791 35.1206 9.3652 34.8662 10.1539
# 6 -2.0624 0.9584 2.2366 2.6855 10.1539 28.8154
#
#
#
# Elastic Compliance Matrix: (Units=1/GPa)
#
#
# Indices 1 2 3 4 5 6 
#
# 1 0.008133 -0.003785 -0.008439 0.000331 0.006715 -0.001034
# 2 -0.003785 0.011686 0.001583 -0.002648 -0.003098 0.000556
# 3 -0.008439 0.001583 0.057322 -0.010762 -0.056694 0.015875
# 4 0.000331 -0.002648 -0.010762 0.026635 0.005351 -0.003421
# 5 0.006715 -0.003098 -0.056694 0.005351 0.090695 -0.027473
# 6 -0.001034 0.000556 0.015875 -0.003421 -0.027473 0.043379
#
#
# Mechanical properties :
#
#
# Convention : Reuss Voigt Hill
#
# Bulk Modulus (GPa) = 17.90232 66.69351 42.29791
# Shear Modulus (GPa) = 18.00175 37.13585 27.56880
#
# Velocity S-wave (km/s) = 2.67855 3.84716 3.31476
# Velocity P-wave (km/s) = 4.08671 6.80551 5.61321
#
# Compressibility (1/GPa) = 0.05585868
#
# Stress axis : x y z
#
# Youngs Moduli (GPa) = 122.96053 85.57009 17.44534
#
# Poissons Ratio (x) = 0.32391 0.14722
# Poissons Ratio (y) = 0.46544 -0.02762
# Poissons Ratio (z) = 1.03769 -0.13549
#
# Static dielectric constant tensor:
#      x y z
#    x 2.045070 0.069720 0.008530 
#    y 0.069720 2.107100 0.012040 
#    z 0.008530 0.012040 1.999880 
# 
# From -- ./inp_files/121615.got.cif
#   From: 2010.05.17/outbox.cif.g08.bks.cpg/sg2_61_cif.got.tgz:121615.got - 2010.06.03 11:33:40.
