data_PCOD9022107
_publ_section_title
;
Structure prediction by ZEFSAII (Michael W. Deem and Ramdas Pophale) SiO2 
 PCOD9022107
Probable space group: P -1
;
_chemical_formula_sum "Si O2"
_cell_formula_units_Z 15
_cell_length_a 7.058300
_cell_length_b 7.204596
_cell_length_c 14.251510
_cell_angle_alpha 58.281588
_cell_angle_beta 68.741883
_cell_angle_gamma 76.262676
_cell_volume 573.526437
_symmetry_space_group_name_H-M "P -1"
_symmetry_group_IT_number 2
_symmetry_cell_setting 'triclinic'
loop_
_space_group_symop_operation_xyz
x,y,z
-x,-y,-z
loop_
_atom_site_type_symbol
_atom_site_label
_atom_site_fract_x
_atom_site_fract_y
_atom_site_fract_z
Si Si1 0.214897 0.253296 0.691106
Si Si2 0.162696 0.209273 0.215441
Si Si3 0.487280 0.454870 0.165719
Si Si4 0.275707 0.697074 0.671926
Si Si5 0.197550 0.833434 0.937236
Si Si6 0.000000 0.500000 0.500000
Si Si7 0.750748 0.845587 0.996974
Si Si8 0.320180 0.837162 0.426718
O O1 0.235024 0.463189 0.697466
O O2 0.052334 0.313540 0.623107
O O3 0.169067 0.048316 0.818685
O O4 0.079104 0.764885 0.750488
O O5 0.262362 0.431074 0.173585
O O6 0.253895 0.132647 0.120029
O O7 0.233949 0.041328 0.328258
O O8 0.527111 0.331029 0.290590
O O9 0.633183 0.328745 0.096503
O O10 0.579149 0.687128 0.100915
O O11 0.285856 0.857264 0.539174
O O12 0.439850 0.202329 0.621780
O O13 0.976713 0.736284 0.006773
O O14 0.258044 0.936104 0.998044
O O15 0.804553 0.366246 0.532802
#
# Coordination Sequence:
#
# PCOD9022107 Si02
#       8
#     2   2   2   2   2   1   2   2
#     4  11  23  48  71 108 145 189 247 295 364 437
#     4  12  26  44  74 110 147 191 248 300 361 442
#     4  12  25  47  73 106 152 190 245 306 366 431
#     4  11  25  44  72 104 146 192 242 300 368 427
#     4  11  23  46  78 102 144 198 236 308 363 434
#     4  10  22  38  74  98 140 184 236 298 346 424
#     4  11  25  46  74 109 144 194 247 301 369 430
#     4  11  25  47  70 108 149 190 246 296 365 438
#
# _framework density 26.153979
#
# number of rings (size 3 to 8) (size 9 to 14) (size 15 to 20)
#    0.000    0.800    4.000    3.600    0.000    5.333 
#    0.000    0.000    0.000    0.000    0.000    0.000 
#    0.000    0.000    0.000    0.000    0.000    0.000 
#
# Total GULP energy -83941.510235 kJ/mol
# GULP energy per Si atom -5596.100682 kJ/mol
# Density = 2.609445 g / cm^3
# Si number density = 26.153979 Si / 1000 Ang^3
#
#
#
# Elastic Constant Matrix: (Units=GPa)
#
#
# Indices 1 2 3 4 5 6 
#
# 1 96.3127 22.2071 38.3830 12.9718 21.8851 30.6156
# 2 22.2071 84.7961 17.6097 5.6742 3.5074 23.2933
# 3 38.3830 17.6097 139.0029 2.9590 22.0358 21.6761
# 4 12.9718 5.6742 2.9590 38.9953 2.0605 2.4285
# 5 21.8851 3.5074 22.0358 2.0605 33.1953 -0.1408
# 6 30.6156 23.2933 21.6761 2.4285 -0.1408 44.8238
#
#
#
# Elastic Compliance Matrix: (Units=1/GPa)
#
#
# Indices 1 2 3 4 5 6 
#
# 1 0.017386 -0.000617 -0.001329 -0.004382 -0.010289 -0.010707
# 2 -0.000617 0.013966 -0.000433 -0.001347 -0.000725 -0.006556
# 3 -0.001329 -0.000433 0.008906 0.000294 -0.005022 -0.003206
# 4 -0.004382 -0.001347 0.000294 0.027084 0.001164 0.002087
# 5 -0.010289 -0.000725 -0.005022 0.001164 0.040288 0.009896
# 6 -0.010707 -0.006556 -0.003206 0.002087 0.009896 0.034498
#
#
# Mechanical properties :
#
#
# Convention : Reuss Voigt Hill
#
# Bulk Modulus (GPa) = 28.16937 52.94569 40.55753
# Shear Modulus (GPa) = 31.50243 39.53034 35.51639
#
# Velocity S-wave (km/s) = 3.47435 3.89195 3.68907
# Velocity P-wave (km/s) = 5.18544 6.36272 5.80401
#
# Compressibility (1/GPa) = 0.03549955
#
# Stress axis : x y z
#
# Youngs Moduli (GPa) = 57.51669 71.60476 112.28903
#
# Poissons Ratio (x) = 0.04421 0.14921
# Poissons Ratio (y) = 0.03551 0.04860
# Poissons Ratio (z) = 0.07643 0.03099
#
# Static dielectric constant tensor:
#      x y z
#    x 2.014230 -0.021130 -0.002100 
#    y -0.021130 2.048560 -0.045580 
#    z -0.002100 -0.045580 2.063190 
# 
# From -- ./inp_files/203447.got.cif
#   From: 2010.05.17/outbox.cif.g08.bks.cpg/sg2_102_cif.got.tgz:203447.got - 2010.06.03 11:33:40.
