data_PCOD9022430
_publ_section_title
;
Structure prediction by ZEFSAII (Michael W. Deem and Ramdas Pophale) SiO2 
 PCOD9022430
Probable space group: P -1
;
_chemical_formula_sum "Si O2"
_cell_formula_units_Z 12
_cell_length_a 11.209309
_cell_length_b 7.334319
_cell_length_c 7.080346
_cell_angle_alpha 58.049953
_cell_angle_beta 87.328688
_cell_angle_gamma 106.094457
_cell_volume 461.020843
_symmetry_space_group_name_H-M "P -1"
_symmetry_group_IT_number 2
_symmetry_cell_setting 'triclinic'
loop_
_space_group_symop_operation_xyz
x,y,z
-x,-y,-z
loop_
_atom_site_type_symbol
_atom_site_label
_atom_site_fract_x
_atom_site_fract_y
_atom_site_fract_z
Si Si1 0.441749 0.526319 0.190131
Si Si2 0.189652 0.210614 0.254454
Si Si3 0.915854 0.123493 0.838819
Si Si4 0.004386 0.600474 0.707046
Si Si5 0.495453 0.147892 0.662665
Si Si6 0.276744 0.840334 0.624071
O O1 0.293917 0.443424 0.191911
O O2 0.467331 0.339220 0.428321
O O3 0.492186 0.760243 0.176144
O O4 0.500000 0.500000 0.000000
O O5 0.058009 0.253558 0.243296
O O6 0.201801 0.090172 0.121138
O O7 0.211169 0.031460 0.499878
O O8 0.981971 0.269957 0.567047
O O9 0.911618 0.334261 0.849620
O O10 0.000000 0.000000 0.000000
O O11 0.148379 0.616459 0.742755
O O12 0.628719 0.144738 0.568766
O O13 0.376968 0.916504 0.746784
#
# Coordination Sequence:
#
# PCOD9022430 Si02
#       6
#     2   2   2   2   2   2
#     4  10  22  41  62  96 131 172 229 280 334 403
#     4  10  22  41  62  96 134 168 223 278 337 402
#     4  10  22  39  61  98 131 171 220 265 331 405
#     4  10  22  41  69  94 135 181 207 284 345 389
#     4   9  20  39  67  91 128 181 218 277 338 402
#     4   9  18  39  66  97 127 172 232 261 337 416
#
# _framework density 26.029191000000001
#
# number of rings (size 3 to 8) (size 9 to 14) (size 15 to 20)
#    0.000    2.333    0.000    2.000    7.000    2.000 
#   12.000    9.167    0.000    0.000    0.000    0.000 
#    0.000    0.000    0.000    0.000    0.000    0.000 
#
# Total GULP energy -66988.271149 kJ/mol
# GULP energy per Si atom -5582.355929 kJ/mol
# Density = 2.596995 g / cm^3
# Si number density = 26.029191 Si / 1000 Ang^3
#
#
#
# Elastic Constant Matrix: (Units=GPa)
#
#
# Indices 1 2 3 4 5 6 
#
# 1 165.0805 64.1475 28.3306 20.3128 6.3863 3.3786
# 2 64.1475 177.6007 42.9397 27.0007 3.1537 -1.2768
# 3 28.3306 42.9397 104.6361 16.4738 18.5284 5.2537
# 4 20.3128 27.0007 16.4738 52.0784 0.1989 14.1714
# 5 6.3863 3.1537 18.5284 0.1989 27.2015 5.3219
# 6 3.3786 -1.2768 5.2537 14.1714 5.3219 26.9551
#
#
#
# Elastic Compliance Matrix: (Units=1/GPa)
#
#
# Indices 1 2 3 4 5 6 
#
# 1 0.007251 -0.002217 -0.000643 -0.001499 -0.001016 0.000100
# 2 -0.002217 0.007426 -0.002233 -0.002956 0.000718 0.002477
# 3 -0.000643 -0.002233 0.012488 -0.002662 -0.008186 0.000556
# 4 -0.001499 -0.002956 -0.002662 0.025976 0.005075 -0.014092
# 5 -0.001016 0.000718 -0.008186 0.005075 0.044348 -0.009667
# 6 0.000100 0.002477 0.000556 -0.014092 -0.009667 0.046413
#
#
# Mechanical properties :
#
#
# Convention : Reuss Voigt Hill
#
# Bulk Modulus (GPa) = 58.89500 79.79477 69.34489
# Shear Modulus (GPa) = 31.29948 42.04029 36.66989
#
# Velocity S-wave (km/s) = 3.47144 4.02322 3.75747
# Velocity P-wave (km/s) = 6.22442 7.23216 6.74713
#
# Compressibility (1/GPa) = 0.01697937
#
# Stress axis : x y z
#
# Youngs Moduli (GPa) = 137.90957 134.66717 80.07686
#
# Poissons Ratio (x) = 0.29856 0.05145
# Poissons Ratio (y) = 0.30575 0.17882
# Poissons Ratio (z) = 0.08861 0.30073
#
# Static dielectric constant tensor:
#      x y z
#    x 2.291630 0.164380 -0.118060 
#    y 0.164380 2.146150 -0.046180 
#    z -0.118060 -0.046180 2.120200 
# 
# From -- ./inp_files/58970.got.cif
#   From: 2010.05.17/outbox.cif.g08.bks.cpg/sg2_30_cif.got.tgz:58970.got - 2010.06.03 11:33:40.
