data_PCOD9022814
_publ_section_title
;
Structure prediction by ZEFSAII (Michael W. Deem and Ramdas Pophale) SiO2 
 PCOD9022814
Probable space group: P -1
;
_chemical_formula_sum "Si O2"
_cell_formula_units_Z 16
_cell_length_a 14.273203
_cell_length_b 8.907449
_cell_length_c 10.218296
_cell_angle_alpha 120.327758
_cell_angle_beta 107.020962
_cell_angle_gamma 34.103930
_cell_volume 607.267347
_symmetry_space_group_name_H-M "P -1"
_symmetry_group_IT_number 2
_symmetry_cell_setting 'triclinic'
loop_
_space_group_symop_operation_xyz
x,y,z
-x,-y,-z
loop_
_atom_site_type_symbol
_atom_site_label
_atom_site_fract_x
_atom_site_fract_y
_atom_site_fract_z
Si Si1 0.367107 0.081103 0.819834
Si Si2 0.024212 0.881438 0.806446
Si Si3 0.391354 0.672486 0.195331
Si Si4 0.373321 0.436707 0.862665
Si Si5 0.981561 0.495667 0.272893
Si Si6 0.029362 0.128347 0.682588
Si Si7 0.650555 0.395497 0.582761
Si Si8 0.231026 0.055476 0.946535
O O1 0.388413 0.247493 0.873362
O O2 0.223032 0.219786 0.719505
O O3 0.284114 0.166481 0.964583
O O4 0.547286 0.719056 0.721969
O O5 0.233505 0.605091 0.767759
O O6 0.994839 0.712075 0.713485
O O7 0.953274 0.103813 0.752771
O O8 0.000000 0.000000 0.000000
O O9 0.437348 0.795644 0.219124
O O10 0.308155 0.773127 0.344360
O O11 0.588664 0.309176 0.126810
O O12 0.316046 0.665606 0.046756
O O13 0.032093 0.630635 0.344374
O O14 0.101839 0.252486 0.097933
O O15 0.180509 0.809465 0.522450
O O16 0.128902 0.111296 0.814547
O O17 0.500000 0.500000 0.500000
#
# Coordination Sequence:
#
# PCOD9022814 Si02
#       8
#     2   2   2   2   2   2   2   2
#     4   9  19  30  52  77 107 135 181 221 266 320
#     4  11  20  33  57  85 108 137 182 235 276 312
#     4  10  20  35  55  74 115 146 175 226 279 318
#     4  10  20  35  51  85 105 139 189 225 270 325
#     4  10  19  31  52  84 108 138 181 224 280 315
#     4  11  19  33  52  80 114 137 176 226 272 321
#     4  11  18  34  51  76 112 150 175 217 279 325
#     4  10  17  31  51  78 107 138 177 221 276 308
#
# _framework density 26.347539000000001
#
# number of rings (size 3 to 8) (size 9 to 14) (size 15 to 20)
#    0.000    1.750    6.250    1.500    1.750    2.000 
#    2.250    1.875    0.000    0.750    0.000    2.625 
#    0.000    0.000    0.000    0.000    0.000    0.000 
#
# Total GULP energy -89167.435550 kJ/mol
# GULP energy per Si atom -5572.964722 kJ/mol
# Density = 2.628757 g / cm^3
# Si number density = 26.347539 Si / 1000 Ang^3
#
#
#
# Elastic Constant Matrix: (Units=GPa)
#
#
# Indices 1 2 3 4 5 6 
#
# 1 136.5055 41.8603 22.3083 -22.3251 -18.0405 50.6301
# 2 41.8603 95.6302 19.3730 -7.4926 -4.3045 28.7328
# 3 22.3083 19.3730 78.9496 -8.7247 -34.5587 13.7851
# 4 -22.3251 -7.4926 -8.7247 33.0922 5.9881 -5.6545
# 5 -18.0405 -4.3045 -34.5587 5.9881 30.2876 -8.7838
# 6 50.6301 28.7328 13.7851 -5.6545 -8.7838 58.9488
#
#
#
# Elastic Compliance Matrix: (Units=1/GPa)
#
#
# Indices 1 2 3 4 5 6 
#
# 1 0.012774 -0.002572 0.001501 0.005993 0.005244 -0.008712
# 2 -0.002572 0.013504 -0.004407 0.000524 -0.005957 -0.004180
# 3 0.001501 -0.004407 0.026995 0.001473 0.030558 -0.000759
# 4 0.005993 0.000524 0.001473 0.034720 -0.002342 -0.002766
# 5 0.005244 -0.005957 0.030558 -0.002342 0.071095 0.001623
# 6 -0.008712 -0.004180 -0.000759 -0.002766 0.001623 0.026638
#
#
# Mechanical properties :
#
#
# Convention : Reuss Voigt Hill
#
# Bulk Modulus (GPa) = 23.63129 53.12984 38.38056
# Shear Modulus (GPa) = 23.72045 39.63530 31.67788
#
# Velocity S-wave (km/s) = 3.00374 3.88277 3.47119
# Velocity P-wave (km/s) = 4.58459 6.34902 5.53753
#
# Compressibility (1/GPa) = 0.04231678
#
# Stress axis : x y z
#
# Youngs Moduli (GPa) = 78.28522 74.04968 37.04358
#
# Poissons Ratio (x) = 0.19048 -0.05559
# Poissons Ratio (y) = 0.20137 0.16324
# Poissons Ratio (z) = -0.11748 0.32632
#
# Static dielectric constant tensor:
#      x y z
#    x 2.244890 0.056830 -0.045110 
#    y 0.056830 2.224130 -0.021060 
#    z -0.045110 -0.021060 2.077990 
# 
# From -- ./inp_files/446198.got.cif
#   From: 2010.05.17/outbox.cif.g08.bks.cpg/sg2_224_cif.got.tgz:446198.got - 2010.06.03 11:33:40.
