data_PCOD9022271
_publ_section_title
;
Structure prediction by ZEFSAII (Michael W. Deem and Ramdas Pophale) SiO2 
 PCOD9022271
Probable space group: P -1
;
_chemical_formula_sum "Si O2"
_cell_formula_units_Z 12
_cell_length_a 9.413489
_cell_length_b 13.255246
_cell_length_c 12.018041
_cell_angle_alpha 146.039794
_cell_angle_beta 102.785542
_cell_angle_gamma 54.337353
_cell_volume 555.462875
_symmetry_space_group_name_H-M "P -1"
_symmetry_group_IT_number 2
_symmetry_cell_setting 'triclinic'
loop_
_space_group_symop_operation_xyz
x,y,z
-x,-y,-z
loop_
_atom_site_type_symbol
_atom_site_label
_atom_site_fract_x
_atom_site_fract_y
_atom_site_fract_z
Si Si1 0.992926 0.051173 0.413748
Si Si2 0.595902 0.099569 0.153731
Si Si3 0.316076 0.202575 0.741587
Si Si4 0.497381 0.497519 0.328813
Si Si5 0.925762 0.729934 0.046934
Si Si6 0.415444 0.707202 0.078797
O O1 0.756761 0.310512 0.563800
O O2 0.000000 0.000000 0.500000
O O3 0.188906 0.989434 0.343603
O O4 0.043564 0.811326 0.150518
O O5 0.598769 0.244993 0.189239
O O6 0.488875 0.324325 0.438845
O O7 0.500000 0.000000 0.000000
O O8 0.815545 0.830357 0.001196
O O9 0.405914 0.298288 0.908373
O O10 0.098089 0.429834 0.842535
O O11 0.500000 0.000000 0.500000
O O12 0.258164 0.112404 0.744711
O O13 0.601505 0.386847 0.124692
O O14 0.500000 0.500000 0.000000
#
# Coordination Sequence:
#
# PCOD9022271 Si02
#       6
#     2   2   2   2   2   2
#     4  11  20  37  66  93 128 167 203 259 326 380
#     4  10  22  42  67  86 126 180 216 259 312 380
#     4  11  23  37  61  97 128 158 204 264 319 380
#     4  10  23  42  63  95 129 168 217 262 317 381
#     4  10  22  39  60  89 126 163 209 257 316 372
#     4  12  22  38  65  97 127 161 207 263 325 382
#
# _framework density 21.603605000000002
#
# number of rings (size 3 to 8) (size 9 to 14) (size 15 to 20)
#    0.000    1.333    3.333    2.000    2.333    4.000 
#    0.000    9.167    0.000   12.000    0.000    0.000 
#    0.000    0.000    0.000    0.000    0.000    0.000 
#
# Total GULP energy -66890.718835 kJ/mol
# GULP energy per Si atom -5574.226570 kJ/mol
# Density = 2.155443 g / cm^3
# Si number density = 21.603605 Si / 1000 Ang^3
#
#
#
# Elastic Constant Matrix: (Units=GPa)
#
#
# Indices 1 2 3 4 5 6 
#
# 1 91.5798 35.9062 31.9242 -11.1180 7.8994 -10.6450
# 2 35.9062 166.7915 48.2824 -3.1937 -1.3478 -4.4917
# 3 31.9242 48.2824 89.7284 -20.4440 -4.4672 -0.8902
# 4 -11.1180 -3.1937 -20.4440 40.9188 -6.3824 4.6438
# 5 7.8994 -1.3478 -4.4672 -6.3824 46.1608 -6.4036
# 6 -10.6450 -4.4917 -0.8902 4.6438 -6.4036 38.1983
#
#
#
# Elastic Compliance Matrix: (Units=1/GPa)
#
#
# Indices 1 2 3 4 5 6 
#
# 1 0.013568 -0.001758 -0.003731 0.001005 -0.002179 0.003000
# 2 -0.001758 0.007454 -0.003806 -0.001862 -0.000035 0.000518
# 3 -0.003731 -0.003806 0.016358 0.007493 0.002935 -0.001525
# 4 0.001005 -0.001862 0.007493 0.029260 0.004181 -0.002621
# 5 -0.002179 -0.000035 0.002935 0.004181 0.023293 0.002854
# 6 0.003000 0.000518 -0.001525 -0.002621 0.002854 0.027838
#
#
# Mechanical properties :
#
#
# Convention : Reuss Voigt Hill
#
# Bulk Modulus (GPa) = 53.22122 64.48060 58.85091
# Shear Modulus (GPa) = 35.05698 40.52138 37.78918
#
# Velocity S-wave (km/s) = 4.03269 4.33561 4.18689
# Velocity P-wave (km/s) = 6.80972 7.41453 7.11855
#
# Compressibility (1/GPa) = 0.01878950
#
# Stress axis : x y z
#
# Youngs Moduli (GPa) = 73.70207 134.15861 61.13053
#
# Poissons Ratio (x) = 0.23591 0.22807
# Poissons Ratio (y) = 0.12960 0.23267
# Poissons Ratio (z) = 0.27498 0.51062
#
# Static dielectric constant tensor:
#      x y z
#    x 1.797360 -0.059060 0.012330 
#    y -0.059060 1.780940 0.023940 
#    z 0.012330 0.023940 1.860020 
# 
# From -- ./inp_files/354052.got.cif
#   From: 2010.05.17/outbox.cif.g08.bks.cpg/sg2_178_cif.got.tgz:354052.got - 2010.06.03 11:33:40.
