data_PCOD9022828
_publ_section_title
;
Structure prediction by ZEFSAII (Michael W. Deem and Ramdas Pophale) SiO2 
 PCOD9022828
Probable space group: P -1
;
_chemical_formula_sum "Si O2"
_cell_formula_units_Z 12
_cell_length_a 14.310554
_cell_length_b 9.460039
_cell_length_c 6.777114
_cell_angle_alpha 119.906015
_cell_angle_beta 82.703293
_cell_angle_gamma 56.257049
_cell_volume 547.722156
_symmetry_space_group_name_H-M "P -1"
_symmetry_group_IT_number 2
_symmetry_cell_setting 'triclinic'
loop_
_space_group_symop_operation_xyz
x,y,z
-x,-y,-z
loop_
_atom_site_type_symbol
_atom_site_label
_atom_site_fract_x
_atom_site_fract_y
_atom_site_fract_z
Si Si1 0.432116 0.239111 0.788384
Si Si2 0.674974 0.999329 0.801600
Si Si3 0.878428 0.276598 0.242148
Si Si4 0.881566 0.564217 0.703200
Si Si5 0.616245 0.418782 0.264228
Si Si6 0.167532 0.400575 0.844307
O O1 0.443330 0.384235 0.747474
O O2 0.277835 0.373543 0.919337
O O3 0.500000 0.000000 0.500000
O O4 0.516726 0.161255 0.910716
O O5 0.741191 0.818467 0.839104
O O6 0.756642 0.831094 0.469876
O O7 0.683758 0.178914 0.971697
O O8 0.884448 0.371801 0.507302
O O9 0.733984 0.369065 0.313760
O O10 0.891935 0.395022 0.148968
O O11 0.000000 0.000000 0.000000
O O12 0.000000 0.500000 0.500000
O O13 0.912552 0.563906 0.921049
O O14 0.500000 0.500000 0.500000
#
# Coordination Sequence:
#
# PCOD9022828 Si02
#       6
#     2   2   2   2   2   2
#     4   9  20  41  61  93 131 169 214 260 333 388
#     4  10  22  39  64  94 130 169 217 260 331 394
#     4  10  23  46  64  95 133 175 222 266 335 402
#     4  11  24  43  66  97 126 174 228 269 327 392
#     4  11  24  40  65 104 135 169 221 278 325 391
#     4   9  22  42  66  92 132 172 215 278 322 387
#
# _framework density 21.908916999999999
#
# number of rings (size 3 to 8) (size 9 to 14) (size 15 to 20)
#    0.000    2.000    0.000    2.500    7.000    4.000 
#    3.000    0.000    0.000    0.000    0.000    0.000 
#    0.000    0.000    0.000    0.000    0.000    0.000 
#
# Total GULP energy -67018.053263 kJ/mol
# GULP energy per Si atom -5584.837772 kJ/mol
# Density = 2.185905 g / cm^3
# Si number density = 21.908917 Si / 1000 Ang^3
#
#
#
# Elastic Constant Matrix: (Units=GPa)
#
#
# Indices 1 2 3 4 5 6 
#
# 1 96.5509 28.9795 37.6505 -2.3902 20.3401 1.6875
# 2 28.9795 117.5601 80.2744 15.3715 9.3248 -0.2960
# 3 37.6505 80.2744 144.6680 -7.1837 20.6465 17.5939
# 4 -2.3902 15.3715 -7.1837 43.2332 5.7143 9.3304
# 5 20.3401 9.3248 20.6465 5.7143 42.1307 -2.7514
# 6 1.6875 -0.2960 17.5939 9.3304 -2.7514 42.1156
#
#
#
# Elastic Compliance Matrix: (Units=1/GPa)
#
#
# Indices 1 2 3 4 5 6 
#
# 1 0.012670 -0.002304 -0.001004 0.002287 -0.005488 -0.000970
# 2 -0.002304 0.018001 -0.011539 -0.010740 0.004744 0.007729
# 3 -0.001004 -0.011539 0.016169 0.009658 -0.006807 -0.009380
# 4 0.002287 -0.010740 0.009658 0.032399 -0.008634 -0.011944
# 5 -0.005488 0.004744 -0.006807 -0.008634 0.030299 0.006989
# 6 -0.000970 0.007729 -0.009380 -0.011944 0.006989 0.030858
#
#
# Mechanical properties :
#
#
# Convention : Reuss Voigt Hill
#
# Bulk Modulus (GPa) = 58.32615 72.50975 65.41795
# Shear Modulus (GPa) = 28.44044 39.62087 34.03065
#
# Velocity S-wave (km/s) = 3.60685 4.25718 3.94544
# Velocity P-wave (km/s) = 6.63519 7.57183 7.11893
#
# Compressibility (1/GPa) = 0.01714497
#
# Stress axis : x y z
#
# Youngs Moduli (GPa) = 78.92577 55.55200 61.84806
#
# Poissons Ratio (x) = 0.12797 0.06212
# Poissons Ratio (y) = 0.18181 0.71369
# Poissons Ratio (z) = 0.07928 0.64104
#
# Static dielectric constant tensor:
#      x y z
#    x 1.958880 -0.016710 -0.085470 
#    y -0.016710 1.799770 -0.053340 
#    z -0.085470 -0.053340 1.843460 
# 
# From -- ./inp_files/24634.got.cif
#   From: 2010.05.17/outbox.cif.g08.bks.cpg/sg2_13_cif.got.tgz:24634.got - 2010.06.03 11:33:40.
