data_PCOD9022590
_publ_section_title
;
Structure prediction by ZEFSAII (Michael W. Deem and Ramdas Pophale) SiO2 
 PCOD9022590
Probable space group: P -1
;
_chemical_formula_sum "Si O2"
_cell_formula_units_Z 14
_cell_length_a 21.281271
_cell_length_b 5.330548
_cell_length_c 5.102976
_cell_angle_alpha 84.875406
_cell_angle_beta 68.687437
_cell_angle_gamma 71.369862
_cell_volume 510.802571
_symmetry_space_group_name_H-M "P -1"
_symmetry_group_IT_number 2
_symmetry_cell_setting 'triclinic'
loop_
_space_group_symop_operation_xyz
x,y,z
-x,-y,-z
loop_
_atom_site_type_symbol
_atom_site_label
_atom_site_fract_x
_atom_site_fract_y
_atom_site_fract_z
Si Si1 0.219056 0.653190 0.698744
Si Si2 0.286545 0.797828 0.103367
Si Si3 0.454061 0.208956 0.338293
Si Si4 0.822267 0.698611 0.830964
Si Si5 0.918246 0.903631 0.999471
Si Si6 0.949719 0.406928 0.383591
Si Si7 0.581371 0.228468 0.782602
O O1 0.264123 0.749982 0.847434
O O2 0.210275 0.388098 0.854662
O O3 0.137967 0.852908 0.795085
O O4 0.257823 0.625134 0.367600
O O5 0.367215 0.755687 0.059710
O O6 0.242219 0.095048 0.233118
O O7 0.423621 0.521220 0.422591
O O8 0.500000 0.000000 0.500000
O O9 0.397176 0.062459 0.354540
O O10 0.505483 0.237334 0.019733
O O11 0.873525 0.867879 0.818076
O O12 0.876199 0.440457 0.639697
O O13 0.998453 0.869431 0.783257
O O14 0.928995 0.635109 0.173853
O O15 0.000000 0.500000 0.500000
#
# Coordination Sequence:
#
# PCOD9022590 Si02
#       7
#     2   2   2   2   2   2   2
#     4  11  25  41  65  92 130 173 223 270 340 409
#     4  11  26  43  63  98 133 172 222 275 335 407
#     4  10  22  44  72 102 141 181 231 286 343 404
#     4  10  22  39  63  86 129 167 218 274 339 404
#     4   9  19  38  58  87 123 162 216 280 332 399
#     4   9  17  35  61  84 121 163 212 281 334 393
#     4  10  24  42  69 104 139 181 235 284 341 414
#
# _framework density 27.407851000000001
#
# number of rings (size 3 to 8) (size 9 to 14) (size 15 to 20)
#    0.000    2.000    1.429    0.429    6.000    1.714 
#    0.000    6.429    0.000    0.000    0.000    0.000 
#    0.000    0.000    0.000    0.000    0.000    0.000 
#
# Total GULP energy -78277.385144 kJ/mol
# GULP energy per Si atom -5591.241796 kJ/mol
# Density = 2.734547 g / cm^3
# Si number density = 27.407851 Si / 1000 Ang^3
#
#
#
# Elastic Constant Matrix: (Units=GPa)
#
#
# Indices 1 2 3 4 5 6 
#
# 1 124.9093 36.1330 10.4494 -5.5892 18.3421 -3.5258
# 2 36.1330 125.3500 40.7222 -26.4263 -0.3178 11.5556
# 3 10.4494 40.7222 76.2820 -9.6949 8.1859 4.1930
# 4 -5.5892 -26.4263 -9.6949 47.9773 1.7912 0.9585
# 5 18.3421 -0.3178 8.1859 1.7912 36.6870 0.5410
# 6 -3.5258 11.5556 4.1930 0.9585 0.5410 33.6311
#
#
#
# Elastic Compliance Matrix: (Units=1/GPa)
#
#
# Indices 1 2 3 4 5 6 
#
# 1 0.009698 -0.003368 0.000844 -0.000408 -0.005078 0.002162
# 2 -0.003368 0.012203 -0.005472 0.005200 0.002816 -0.004057
# 3 0.000844 -0.005472 0.016434 0.000561 -0.004163 -0.000030
# 4 -0.000408 0.005200 0.000561 0.023862 -0.001003 -0.002563
# 5 -0.005078 0.002816 -0.004163 -0.001003 0.030820 -0.001448
# 6 0.002162 -0.004057 -0.000030 -0.002563 -0.001448 0.031455
#
#
# Mechanical properties :
#
#
# Convention : Reuss Voigt Hill
#
# Bulk Modulus (GPa) = 44.75494 55.68338 50.21916
# Shear Modulus (GPa) = 33.80381 39.60821 36.70601
#
# Velocity S-wave (km/s) = 3.51574 3.80563 3.66355
# Velocity P-wave (km/s) = 5.73107 6.29850 6.02147
#
# Compressibility (1/GPa) = 0.02234390
#
# Stress axis : x y z
#
# Youngs Moduli (GPa) = 103.11543 81.94440 60.84793
#
# Poissons Ratio (x) = 0.27597 -0.05133
# Poissons Ratio (y) = 0.34727 0.33294
# Poissons Ratio (z) = -0.08699 0.44837
#
# Static dielectric constant tensor:
#      x y z
#    x 2.149290 0.022330 0.033650 
#    y 0.022330 2.252900 0.119580 
#    z 0.033650 0.119580 2.168420 
# 
# From -- ./inp_files/113912.got.cif
#   From: 2010.05.17/outbox.cif.g08.bks.cpg/sg2_57_cif.got.tgz:113912.got - 2010.06.03 11:33:40.
