data_PCOD9022155
_publ_section_title
;
Structure prediction by ZEFSAII (Michael W. Deem and Ramdas Pophale) SiO2 
 PCOD9022155
Probable space group: P -1
;
_chemical_formula_sum "Si O2"
_cell_formula_units_Z 16
_cell_length_a 13.590366
_cell_length_b 12.963253
_cell_length_c 6.639425
_cell_angle_alpha 94.501286
_cell_angle_beta 111.034305
_cell_angle_gamma 130.737950
_cell_volume 741.962963
_symmetry_space_group_name_H-M "P -1"
_symmetry_group_IT_number 2
_symmetry_cell_setting 'triclinic'
loop_
_space_group_symop_operation_xyz
x,y,z
-x,-y,-z
loop_
_atom_site_type_symbol
_atom_site_label
_atom_site_fract_x
_atom_site_fract_y
_atom_site_fract_z
Si Si1 0.871817 0.099772 0.140648
Si Si2 0.427467 0.557980 0.391691
Si Si3 0.247223 0.838050 0.292631
Si Si4 0.363640 0.234204 0.137312
Si Si5 0.373529 0.604463 0.928980
Si Si6 0.867022 0.748636 0.915187
Si Si7 0.483437 0.910005 0.168062
Si Si8 0.018489 0.314388 0.662395
O O1 0.931297 0.210341 0.385501
O O2 0.731490 0.923802 0.062987
O O3 0.813557 0.126294 0.915195
O O4 0.011785 0.135034 0.149867
O O5 0.500000 0.500000 0.500000
O O6 0.410929 0.564212 0.145634
O O7 0.550654 0.731673 0.584655
O O8 0.246446 0.419671 0.294841
O O9 0.349030 0.836495 0.225237
O O10 0.096229 0.695429 0.290267
O O11 0.361499 0.967979 0.565186
O O12 0.521345 0.374360 0.158523
O O13 0.240939 0.235833 0.089123
O O14 0.439291 0.766801 0.027560
O O15 0.188221 0.477323 0.752106
O O16 0.945997 0.755752 0.170441
O O17 0.500000 0.000000 0.000000
#
# Coordination Sequence:
#
# PCOD9022155 Si02
#       8
#     2   2   2   2   2   2   2   2
#     4  11  21  38  59  85 121 157 197 247 297 350
#     4   9  20  38  58  83 118 157 198 244 288 339
#     4  10  22  41  63  85 116 151 194 247 300 351
#     4  11  21  34  58  87 118 160 203 244 293 347
#     4  11  23  38  61  90 119 157 203 241 293 356
#     4   9  21  36  55  84 119 159 200 243 294 349
#     4  11  23  42  66  91 117 151 195 249 301 352
#     4  10  22  39  58  85 120 157 194 244 297 351
#
# _framework density 21.564419999999998
#
# number of rings (size 3 to 8) (size 9 to 14) (size 15 to 20)
#    0.000    1.750    0.000    4.125    0.000    9.500 
#    0.000    2.500    0.000    0.000    0.000    0.000 
#    0.000    0.000    0.000    0.000    0.000    0.000 
#
# Total GULP energy -89085.601190 kJ/mol
# GULP energy per Si atom -5567.850074 kJ/mol
# Density = 2.151534 g / cm^3
# Si number density = 21.564420 Si / 1000 Ang^3
#
#
#
# Elastic Constant Matrix: (Units=GPa)
#
#
# Indices 1 2 3 4 5 6 
#
# 1 102.5360 48.3257 24.1420 8.8235 -8.7621 42.1695
# 2 48.3257 81.2565 30.5239 6.0388 -7.2639 22.1035
# 3 24.1420 30.5239 127.8733 11.9009 7.6745 2.2295
# 4 8.8235 6.0388 11.9009 20.2759 -1.8977 -0.1313
# 5 -8.7621 -7.2639 7.6745 -1.8977 22.1963 -0.8519
# 6 42.1695 22.1035 2.2295 -0.1313 -0.8519 41.5495
#
#
#
# Elastic Compliance Matrix: (Units=1/GPa)
#
#
# Indices 1 2 3 4 5 6 
#
# 1 0.021893 -0.006116 -0.002159 -0.005983 0.006156 -0.018743
# 2 -0.006116 0.018635 -0.003477 -0.000428 0.004719 -0.003425
# 3 -0.002159 -0.003477 0.009728 -0.004236 -0.005586 0.003391
# 4 -0.005983 -0.000428 -0.004236 0.054948 0.003920 0.006782
# 5 0.006156 0.004719 -0.005586 0.003920 0.051010 -0.007401
# 6 -0.018743 -0.003425 0.003391 0.006782 -0.007401 0.044600
#
#
# Mechanical properties :
#
#
# Convention : Reuss Voigt Hill
#
# Bulk Modulus (GPa) = 37.38078 57.51657 47.44867
# Shear Modulus (GPa) = 21.43761 30.71595 26.07678
#
# Velocity S-wave (km/s) = 3.15639 3.77819 3.48120
# Velocity P-wave (km/s) = 5.53677 6.76483 6.18137
#
# Compressibility (1/GPa) = 0.02675172
#
# Stress axis : x y z
#
# Youngs Moduli (GPa) = 45.67766 53.66138 102.79333
#
# Poissons Ratio (x) = 0.32817 0.22196
# Poissons Ratio (y) = 0.27935 0.35745
# Poissons Ratio (z) = 0.09863 0.18660
#
# Static dielectric constant tensor:
#      x y z
#    x 1.867580 0.045270 -0.039430 
#    y 0.045270 1.862690 0.030570 
#    z -0.039430 0.030570 1.811680 
# 
# From -- ./inp_files/77298.got.cif
#   From: 2010.05.17/outbox.cif.g08.bks.cpg/sg2_39_cif.got.tgz:77298.got - 2010.06.03 11:33:40.
