data_PCOD9022368
_publ_section_title
;
Structure prediction by ZEFSAII (Michael W. Deem and Ramdas Pophale) SiO2 
 PCOD9022368
Probable space group: P -1
;
_chemical_formula_sum "Si O2"
_cell_formula_units_Z 12
_cell_length_a 9.500117
_cell_length_b 8.188620
_cell_length_c 13.109402
_cell_angle_alpha 108.370539
_cell_angle_beta 144.082379
_cell_angle_gamma 89.887719
_cell_volume 505.602068
_symmetry_space_group_name_H-M "P -1"
_symmetry_group_IT_number 2
_symmetry_cell_setting 'triclinic'
loop_
_space_group_symop_operation_xyz
x,y,z
-x,-y,-z
loop_
_atom_site_type_symbol
_atom_site_label
_atom_site_fract_x
_atom_site_fract_y
_atom_site_fract_z
Si Si1 0.650429 0.606268 0.429963
Si Si2 0.677831 0.537226 0.211446
Si Si3 0.718456 0.224459 0.688547
Si Si4 0.782045 0.264244 0.514250
Si Si5 0.228176 0.824171 0.846441
Si Si6 0.201208 0.903985 0.082291
O O1 0.551131 0.554961 0.245875
O O2 0.443847 0.650822 0.380426
O O3 0.703551 0.435188 0.473883
O O4 0.938461 0.798544 0.634730
O O5 0.745426 0.357714 0.219220
O O6 0.971075 0.718282 0.405690
O O7 0.500000 0.500000 0.000000
O O8 0.887353 0.283575 0.696065
O O9 0.851056 0.235002 0.878160
O O10 0.500000 0.000000 0.500000
O O11 0.509240 0.069616 0.303275
O O12 0.191936 0.819232 0.947329
O O13 0.500000 0.000000 0.000000
O O14 0.000000 0.000000 0.000000
#
# Coordination Sequence:
#
# PCOD9022368 Si02
#       6
#     2   2   2   2   2   2
#     4  11  22  42  64  90 125 164 206 256 309 367
#     4  11  24  41  62  92 124 164 208 252 307 367
#     4  10  22  39  61  90 122 160 205 252 303 362
#     4  10  22  42  64  91 126 164 204 254 308 365
#     4  11  22  39  63  91 123 163 206 254 307 365
#     4  11  23  41  63  94 126 163 206 254 309 368
#
# _framework density 23.734079000000001
#
# number of rings (size 3 to 8) (size 9 to 14) (size 15 to 20)
#    0.000    1.333    0.000    7.500    0.000    6.667 
#    0.000   10.833    0.000    0.000    0.000    0.000 
#    0.000    0.000    0.000    0.000    0.000    0.000 
#
# Total GULP energy -67095.543179 kJ/mol
# GULP energy per Si atom -5591.295265 kJ/mol
# Density = 2.368006 g / cm^3
# Si number density = 23.734079 Si / 1000 Ang^3
#
#
#
# Elastic Constant Matrix: (Units=GPa)
#
#
# Indices 1 2 3 4 5 6 
#
# 1 88.7257 -4.6511 11.8142 4.0986 -34.0135 14.0218
# 2 -4.6511 23.5153 -1.3389 -10.2397 -7.8286 13.7801
# 3 11.8142 -1.3389 88.4023 -1.0393 -15.8831 16.7546
# 4 4.0986 -10.2397 -1.0393 28.6663 6.2469 -5.8552
# 5 -34.0135 -7.8286 -15.8831 6.2469 46.0267 -6.8914
# 6 14.0218 13.7801 16.7546 -5.8552 -6.8914 32.0562
#
#
#
# Elastic Compliance Matrix: (Units=1/GPa)
#
#
# Indices 1 2 3 4 5 6 
#
# 1 0.021451 0.018279 0.003674 -0.003646 0.018346 -0.015883
# 2 0.018279 0.086545 0.011536 0.014677 0.023712 -0.043450
# 3 0.003674 0.011536 0.014811 -0.000175 0.007920 -0.012636
# 4 -0.003646 0.014677 -0.000175 0.042269 -0.005716 0.001869
# 5 0.018346 0.023712 0.007920 -0.005716 0.040630 -0.014667
# 6 -0.015883 -0.043450 -0.012636 0.001869 -0.014667 0.060613
#
#
# Mechanical properties :
#
#
# Convention : Reuss Voigt Hill
#
# Bulk Modulus (GPa) = 5.26913 23.58798 14.42855
# Shear Modulus (GPa) = 19.04004 34.33778 26.68891
#
# Velocity S-wave (km/s) = 2.83543 3.80777 3.35699
# Velocity P-wave (km/s) = 3.59784 5.41222 4.59547
#
# Compressibility (1/GPa) = 0.18978472
#
# Stress axis : x y z
#
# Youngs Moduli (GPa) = 46.61714 11.55471 67.51517
#
# Poissons Ratio (x) = -0.21121 -0.24803
# Poissons Ratio (y) = -0.85213 -0.77882
# Poissons Ratio (z) = -0.17125 -0.13329
#
# Static dielectric constant tensor:
#      x y z
#    x 1.874620 0.036540 0.002940 
#    y 0.036540 2.088190 -0.035520 
#    z 0.002940 -0.035520 1.967100 
# 
# From -- ./inp_files/148267.got.cif
#   From: 2010.05.17/outbox.cif.g08.bks.cpg/sg2_75_cif.got.tgz:148267.got - 2010.06.03 11:33:40.
