data_PCOD9022783
_publ_section_title
;
Structure prediction by ZEFSAII (Michael W. Deem and Ramdas Pophale) SiO2 
 PCOD9022783
Probable space group: P -1
;
_chemical_formula_sum "Si O2"
_cell_formula_units_Z 16
_cell_length_a 5.904153
_cell_length_b 13.347303
_cell_length_c 17.399881
_cell_angle_alpha 45.666985
_cell_angle_beta 131.892443
_cell_angle_gamma 127.913989
_cell_volume 701.396300
_symmetry_space_group_name_H-M "P -1"
_symmetry_group_IT_number 2
_symmetry_cell_setting 'triclinic'
loop_
_space_group_symop_operation_xyz
x,y,z
-x,-y,-z
loop_
_atom_site_type_symbol
_atom_site_label
_atom_site_fract_x
_atom_site_fract_y
_atom_site_fract_z
Si Si1 0.518810 0.397996 0.989103
Si Si2 0.689949 0.895737 0.948581
Si Si3 0.483102 0.725982 0.146844
Si Si4 0.396337 0.270694 0.448871
Si Si5 0.531891 0.846789 0.247621
Si Si6 0.186102 0.447423 0.172130
Si Si7 0.079341 0.592552 0.373655
Si Si8 0.056847 0.756389 0.499578
O O1 0.278499 0.237610 0.024251
O O2 0.868594 0.373420 0.094040
O O3 0.500000 0.500000 0.000000
O O4 0.545042 0.488198 0.866650
O O5 0.522901 0.005646 0.811659
O O6 0.518488 0.805455 0.031128
O O7 0.000000 0.000000 0.000000
O O8 0.499335 0.845762 0.150037
O O9 0.174790 0.590997 0.140407
O O10 0.759870 0.647004 0.275854
O O11 0.270678 0.351387 0.308860
O O12 0.680146 0.366027 0.519833
O O13 0.097668 0.213345 0.470130
O O14 0.587263 0.183024 0.485947
O O15 0.273978 0.701552 0.295007
O O16 0.857228 0.821563 0.359654
O O17 0.022916 0.422635 0.429088
#
# Coordination Sequence:
#
# PCOD9022783 Si02
#       8
#     2   2   2   2   2   2   2   2
#     4  10  25  45  64  92 129 173 225 275 328 398
#     4  11  24  41  64  96 128 173 220 272 343 399
#     4  11  20  36  62  93 132 167 221 267 341 391
#     4  11  21  34  59  93 128 170 221 272 340 385
#     4  11  22  37  57  90 138 169 210 278 334 396
#     4  10  22  39  64  91 126 168 223 274 327 398
#     4  11  20  34  54  97 133 167 216 277 329 390
#     4  11  22  34  58  94 136 176 217 280 330 396
#
# _framework density 22.811641000000002
#
# number of rings (size 3 to 8) (size 9 to 14) (size 15 to 20)
#    0.000    1.250    3.750    3.750    3.500    0.000 
#    2.250    0.000    0.000    3.750    0.000    0.000 
#    0.000    0.000    0.000    0.000    0.000    0.000 
#
# Total GULP energy -89116.678266 kJ/mol
# GULP energy per Si atom -5569.792392 kJ/mol
# Density = 2.275972 g / cm^3
# Si number density = 22.811641 Si / 1000 Ang^3
#
#
#
# Elastic Constant Matrix: (Units=GPa)
#
#
# Indices 1 2 3 4 5 6 
#
# 1 89.0467 8.5801 11.8928 -4.4050 8.0932 -20.9168
# 2 8.5801 62.0709 18.6506 -5.0191 8.4763 -9.7186
# 3 11.8928 18.6506 95.8501 -1.0724 2.3456 -8.0378
# 4 -4.4050 -5.0191 -1.0724 31.1728 -10.6410 4.0981
# 5 8.0932 8.4763 2.3456 -10.6410 33.0300 4.2594
# 6 -20.9168 -9.7186 -8.0378 4.0981 4.2594 26.5087
#
#
#
# Elastic Compliance Matrix: (Units=1/GPa)
#
#
# Indices 1 2 3 4 5 6 
#
# 1 0.014749 0.000913 -0.000795 -0.001526 -0.005950 0.012923
# 2 0.000913 0.018887 -0.003003 0.000073 -0.005821 0.007658
# 3 -0.000795 -0.003003 0.011267 -0.000527 -0.000238 0.001808
# 4 -0.001526 0.000073 -0.000527 0.037796 0.013781 -0.009395
# 5 -0.005950 -0.005821 -0.000238 0.013781 0.039670 -0.015406
# 6 0.012923 0.007658 0.001808 -0.009395 -0.015406 0.055204
#
#
# Mechanical properties :
#
#
# Convention : Reuss Voigt Hill
#
# Bulk Modulus (GPa) = 25.55418 36.13495 30.84457
# Shear Modulus (GPa) = 25.45963 31.99858 28.72911
#
# Velocity S-wave (km/s) = 3.34440 3.74937 3.55266
# Velocity P-wave (km/s) = 5.11272 5.88376 5.51174
#
# Compressibility (1/GPa) = 0.03913254
#
# Stress axis : x y z
#
# Youngs Moduli (GPa) = 67.79979 52.94771 88.75141
#
# Poissons Ratio (x) = -0.04833 0.07059
# Poissons Ratio (y) = -0.06189 0.26650
# Poissons Ratio (z) = 0.05393 0.15899
#
# Static dielectric constant tensor:
#      x y z
#    x 3.132660 -1.499950 2.498330 
#    y -1.499950 3.825740 -3.120510 
#    z 2.498330 -3.120510 7.029500 
# 
# From -- ./inp_files/549472.got.cif
#   From: 2010.05.17/outbox.cif.g08.bks.cpg/sg2_275_cif.got.tgz:549472.got - 2010.06.03 11:33:40.
