data_PCOD9022081
_publ_section_title
;
Structure prediction by ZEFSAII (Michael W. Deem and Ramdas Pophale) SiO2 
 PCOD9022081
Probable space group: P -1
;
_chemical_formula_sum "Si O2"
_cell_formula_units_Z 15
_cell_length_a 8.222041
_cell_length_b 11.556027
_cell_length_c 11.351643
_cell_angle_alpha 58.742902
_cell_angle_beta 137.330206
_cell_angle_gamma 123.522154
_cell_volume 597.161743
_symmetry_space_group_name_H-M "P -1"
_symmetry_group_IT_number 2
_symmetry_cell_setting 'triclinic'
loop_
_space_group_symop_operation_xyz
x,y,z
-x,-y,-z
loop_
_atom_site_type_symbol
_atom_site_label
_atom_site_fract_x
_atom_site_fract_y
_atom_site_fract_z
Si Si1 0.272969 0.279956 0.045907
Si Si2 0.082627 0.109456 0.819491
Si Si3 0.340745 0.527978 0.563423
Si Si4 0.519352 0.283689 0.813881
Si Si5 0.500000 0.000000 0.500000
Si Si6 0.377857 0.169316 0.551005
Si Si7 0.199480 0.559330 0.743968
Si Si8 0.032781 0.822236 0.835322
O O1 0.569105 0.306667 0.168402
O O2 0.195366 0.246229 0.157784
O O3 0.115012 0.150294 0.951999
O O4 0.214562 0.423566 0.899274
O O5 0.284292 0.242870 0.797912
O O6 0.799898 0.082448 0.640901
O O7 0.156563 0.974107 0.881937
O O8 0.544832 0.443757 0.704899
O O9 0.437476 0.683575 0.479482
O O10 0.271278 0.538983 0.657188
O O11 0.085082 0.439111 0.409274
O O12 0.435605 0.180000 0.712908
O O13 0.769304 0.264853 0.012566
O O14 0.432905 0.043705 0.574444
O O15 0.097102 0.165836 0.363698
#
# Coordination Sequence:
#
# PCOD9022081 Si02
#       8
#     2   2   2   2   1   2   2   2
#     4  11  21  43  68 102 131 173 231 287 334 396
#     4  11  24  43  71  99 133 181 227 280 341 401
#     4  11  22  43  67 100 139 175 227 281 337 404
#     4  12  26  44  67  99 145 179 221 284 339 410
#     4  10  24  44  72  96 132 174 226 282 322 400
#     4  11  25  46  69 105 136 182 228 276 344 403
#     4  10  22  38  71 101 131 173 230 285 338 395
#     4  11  25  43  66  96 140 181 226 277 339 408
#
# _framework density 25.118821000000001
#
# number of rings (size 3 to 8) (size 9 to 14) (size 15 to 20)
#    0.000    1.067    2.667    3.600    1.867    4.800 
#    0.000    1.333    0.000    0.000    0.000    0.000 
#    0.000    0.000    0.000    0.000    0.000    0.000 
#
# Total GULP energy -83754.132721 kJ/mol
# GULP energy per Si atom -5583.608848 kJ/mol
# Density = 2.506165 g / cm^3
# Si number density = 25.118821 Si / 1000 Ang^3
#
#
#
# Elastic Constant Matrix: (Units=GPa)
#
#
# Indices 1 2 3 4 5 6 
#
# 1 52.7805 2.2031 9.5823 6.7571 -6.9267 -2.0307
# 2 2.2031 65.2877 -3.1319 11.2607 10.4690 11.5029
# 3 9.5823 -3.1319 34.6064 10.5519 -7.8715 11.5236
# 4 6.7571 11.2607 10.5519 39.6305 -3.2843 -2.3127
# 5 -6.9267 10.4690 -7.8715 -3.2843 27.4032 6.8307
# 6 -2.0307 11.5029 11.5236 -2.3127 6.8307 31.8708
#
#
#
# Elastic Compliance Matrix: (Units=1/GPa)
#
#
# Indices 1 2 3 4 5 6 
#
# 1 0.020812 -0.001979 -0.006071 -0.000894 0.003303 0.003463
# 2 -0.001979 0.019419 0.006683 -0.007879 -0.004670 -0.009122
# 3 -0.006071 0.006683 0.046046 -0.013377 0.013338 -0.023277
# 4 -0.000894 -0.007879 -0.013377 0.031786 0.000292 0.009868
# 5 0.003303 -0.004670 0.013338 0.000292 0.046168 -0.012800
# 6 0.003463 -0.009122 -0.023277 0.009868 -0.012800 0.046766
#
#
# Mechanical properties :
#
#
# Convention : Reuss Voigt Hill
#
# Bulk Modulus (GPa) = 11.96975 18.88684 15.42829
# Shear Modulus (GPa) = 20.69720 29.38231 25.03975
#
# Velocity S-wave (km/s) = 2.87360 3.42385 3.16072
# Velocity P-wave (km/s) = 3.97313 4.81307 4.41313
#
# Compressibility (1/GPa) = 0.08354392
#
# Stress axis : x y z
#
# Youngs Moduli (GPa) = 48.04845 51.49521 21.71746
#
# Poissons Ratio (x) = 0.10191 0.13185
# Poissons Ratio (y) = 0.09509 -0.14515
# Poissons Ratio (z) = 0.29171 -0.34417
#
# Static dielectric constant tensor:
#      x y z
#    x 1.958790 0.051510 -0.050380 
#    y 0.051510 2.018810 -0.075210 
#    z -0.050380 -0.075210 2.065360 
# 
# From -- ./inp_files/389624.got.cif
#   From: 2010.05.17/outbox.cif.g08.bks.cpg/sg2_195_cif.got.tgz:389624.got - 2010.06.03 11:33:40.
