data_PCOD9022866
_publ_section_title
;
Structure prediction by ZEFSAII (Michael W. Deem and Ramdas Pophale) SiO2 
 PCOD9022866
Probable space group: P -1
;
_chemical_formula_sum "Si O2"
_cell_formula_units_Z 14
_cell_length_a 12.443728
_cell_length_b 10.149821
_cell_length_c 9.439174
_cell_angle_alpha 120.998681
_cell_angle_beta 133.559194
_cell_angle_gamma 46.370178
_cell_volume 623.544847
_symmetry_space_group_name_H-M "P -1"
_symmetry_group_IT_number 2
_symmetry_cell_setting 'triclinic'
loop_
_space_group_symop_operation_xyz
x,y,z
-x,-y,-z
loop_
_atom_site_type_symbol
_atom_site_label
_atom_site_fract_x
_atom_site_fract_y
_atom_site_fract_z
Si Si1 0.183450 0.613112 0.102685
Si Si2 0.504866 0.818057 0.369056
Si Si3 0.329333 0.486353 0.857881
Si Si4 0.802675 0.948920 0.952287
Si Si5 0.907667 0.178272 0.359976
Si Si6 0.740492 0.171079 0.487507
Si Si7 0.364967 0.274851 0.260805
O O1 0.259153 0.717676 0.314322
O O2 0.210231 0.457938 0.149809
O O3 0.282932 0.513593 0.994767
O O4 0.983176 0.768031 0.969121
O O5 0.616550 0.703288 0.271508
O O6 0.592076 0.699878 0.523597
O O7 0.500000 0.000000 0.500000
O O8 0.302103 0.904323 0.186521
O O9 0.168832 0.647353 0.711834
O O10 0.500000 0.500000 0.000000
O O11 0.683690 0.877443 0.865453
O O12 0.847805 0.049871 0.165529
O O13 0.817955 0.227347 0.459367
O O14 0.118165 0.045329 0.485196
O O15 0.546247 0.214678 0.312086
#
# Coordination Sequence:
#
# PCOD9022866 Si02
#       7
#     2   2   2   2   2   2   2
#     4  11  24  40  68  98 127 169 224 266 323 377
#     4  10  23  43  64  91 134 171 207 265 331 381
#     4  12  22  39  70  94 128 167 227 264 313 393
#     4  10  23  42  66  93 133 172 214 269 323 388
#     4  10  22  40  64  97 132 167 222 265 323 381
#     4  10  22  39  64  98 130 172 213 274 323 380
#     4  11  22  41  66  89 133 171 215 260 332 383
#
# _framework density 22.452276000000001
#
# number of rings (size 3 to 8) (size 9 to 14) (size 15 to 20)
#    0.000    1.429    1.429    3.429    2.000    1.714 
#    2.571    2.857    0.000    0.000    0.000    0.000 
#    0.000    0.000    0.000    0.000    0.000    0.000 
#
# Total GULP energy -78238.233602 kJ/mol
# GULP energy per Si atom -5588.445257 kJ/mol
# Density = 2.240117 g / cm^3
# Si number density = 22.452276 Si / 1000 Ang^3
#
#
#
# Elastic Constant Matrix: (Units=GPa)
#
#
# Indices 1 2 3 4 5 6 
#
# 1 53.8337 40.5945 29.9629 10.6400 -22.6789 -6.5311
# 2 40.5945 128.8720 52.0189 2.6464 -19.9946 -7.0297
# 3 29.9629 52.0189 78.0441 -4.1037 -27.7669 -14.1758
# 4 10.6400 2.6464 -4.1037 44.4911 0.5852 -8.7770
# 5 -22.6789 -19.9946 -27.7669 0.5852 44.8609 -0.7382
# 6 -6.5311 -7.0297 -14.1758 -8.7770 -0.7382 24.1124
#
#
#
# Elastic Compliance Matrix: (Units=1/GPa)
#
#
# Indices 1 2 3 4 5 6 
#
# 1 0.032059 -0.006474 -0.004149 -0.007415 0.010883 0.001991
# 2 -0.006474 0.012073 -0.006749 -0.000228 -0.002105 -0.002349
# 3 -0.004149 -0.006749 0.025891 0.006567 0.011078 0.014859
# 4 -0.007415 -0.000228 0.006567 0.027172 0.000053 0.011678
# 5 0.010883 -0.002105 0.011078 0.000053 0.033874 0.009903
# 6 0.001991 -0.002349 0.014859 0.011678 0.009903 0.054617
#
#
# Mechanical properties :
#
#
# Convention : Reuss Voigt Hill
#
# Bulk Modulus (GPa) = 28.34683 56.21138 42.27911
# Shear Modulus (GPa) = 21.53409 31.90445 26.71927
#
# Velocity S-wave (km/s) = 3.10030 3.77369 3.45345
# Velocity P-wave (km/s) = 5.04664 6.63912 5.89689
#
# Compressibility (1/GPa) = 0.03527731
#
# Stress axis : x y z
#
# Youngs Moduli (GPa) = 31.19264 82.82734 38.62407
#
# Poissons Ratio (x) = 0.53626 0.16025
# Poissons Ratio (y) = 0.20195 0.26068
# Poissons Ratio (z) = 0.12942 0.55902
#
# Static dielectric constant tensor:
#      x y z
#    x 1.852660 0.009420 -0.024180 
#    y 0.009420 1.849370 -0.021950 
#    z -0.024180 -0.021950 1.886990 
# 
# From -- ./inp_files/207635.got.cif
#   From: 2010.05.17/outbox.cif.g08.bks.cpg/sg2_104_cif.got.tgz:207635.got - 2010.06.03 11:33:40.
