data_PCOD9022248
_publ_section_title
;
Structure prediction by ZEFSAII (Michael W. Deem and Ramdas Pophale) SiO2 
 PCOD9022248
Probable space group: P -1
;
_chemical_formula_sum "Si O2"
_cell_formula_units_Z 14
_cell_length_a 15.858457
_cell_length_b 8.781659
_cell_length_c 7.684723
_cell_angle_alpha 139.677831
_cell_angle_beta 117.161771
_cell_angle_gamma 54.396890
_cell_volume 562.896900
_symmetry_space_group_name_H-M "P -1"
_symmetry_group_IT_number 2
_symmetry_cell_setting 'triclinic'
loop_
_space_group_symop_operation_xyz
x,y,z
-x,-y,-z
loop_
_atom_site_type_symbol
_atom_site_label
_atom_site_fract_x
_atom_site_fract_y
_atom_site_fract_z
Si Si1 0.780881 0.979285 0.344601
Si Si2 0.582799 0.292283 0.276907
Si Si3 0.925878 0.778186 0.602817
Si Si4 0.738524 0.248809 0.883253
Si Si5 0.576714 0.089166 0.752183
Si Si6 0.268228 0.461465 0.538048
Si Si7 0.077556 0.902215 0.647379
O O1 0.860017 0.757798 0.351268
O O2 0.662899 0.039112 0.234509
O O3 0.760707 0.223321 0.674405
O O4 0.843072 0.970873 0.219041
O O5 0.500000 0.500000 0.500000
O O6 0.472337 0.769894 0.993605
O O7 0.657158 0.415314 0.367583
O O8 0.000000 0.500000 0.500000
O O9 0.998530 0.926118 0.747848
O O10 0.832671 0.982374 0.805976
O O11 0.628855 0.234534 0.807417
O O12 0.742808 0.467275 0.204048
O O13 0.673524 0.837646 0.687335
O O14 0.500000 0.000000 0.500000
O O15 0.156468 0.602181 0.469104
O O16 0.000000 0.000000 0.500000
#
# Coordination Sequence:
#
# PCOD9022248 Si02
#       7
#     2   2   2   2   2   2   2
#     4   8  19  37  60  89 125 163 204 262 311 370
#     4  10  23  42  65  87 125 166 207 262 320 369
#     4   9  17  32  63  91 126 162 214 256 310 372
#     4   9  21  38  60  88 128 161 207 258 317 365
#     4  11  25  40  62  94 123 165 213 258 315 385
#     4  10  22  39  60  87 129 164 204 260 313 378
#     4   9  17  36  58  89 123 163 213 248 311 370
#
# _framework density 24.871338000000002
#
# number of rings (size 3 to 8) (size 9 to 14) (size 15 to 20)
#    0.857    1.714    0.000    0.857    4.000    2.286 
#    0.000    1.429    0.000    6.857    0.000    0.000 
#    0.000    0.000    0.000    0.000    0.000    0.000 
#
# Total GULP energy -77999.072373 kJ/mol
# GULP energy per Si atom -5571.362312 kJ/mol
# Density = 2.481473 g / cm^3
# Si number density = 24.871338 Si / 1000 Ang^3
#
#
#
# Elastic Constant Matrix: (Units=GPa)
#
#
# Indices 1 2 3 4 5 6 
#
# 1 110.3242 26.2763 47.1450 -28.7165 -10.9574 -11.9037
# 2 26.2763 116.1584 36.1352 -20.0778 1.0813 -23.9532
# 3 47.1450 36.1352 103.3223 -23.4473 -26.6342 -4.0581
# 4 -28.7165 -20.0778 -23.4473 26.9058 -0.1819 -0.3939
# 5 -10.9574 1.0813 -26.6342 -0.1819 29.6567 -6.3597
# 6 -11.9037 -23.9532 -4.0581 -0.3939 -6.3597 41.9388
#
#
#
# Elastic Compliance Matrix: (Units=1/GPa)
#
#
# Indices 1 2 3 4 5 6 
#
# 1 0.014592 0.000964 -0.002405 0.014304 0.004413 0.005263
# 2 0.000964 0.012017 -0.003028 0.007447 -0.001316 0.006714
# 3 -0.002405 -0.003028 0.018897 0.011784 0.016707 0.002060
# 4 0.014304 0.007447 0.011784 0.068576 0.018794 0.012947
# 5 0.004413 -0.001316 0.016707 0.018794 0.052723 0.010289
# 6 0.005263 0.006714 0.002060 0.012947 0.010289 0.031054
#
#
# Mechanical properties :
#
#
# Convention : Reuss Voigt Hill
#
# Bulk Modulus (GPa) = 27.34710 60.99088 44.16899
# Shear Modulus (GPa) = 22.83249 34.38349 28.60799
#
# Velocity S-wave (km/s) = 3.03318 3.72217 3.39520
# Velocity P-wave (km/s) = 4.82558 6.56114 5.75911
#
# Compressibility (1/GPa) = 0.03656695
#
# Stress axis : x y z
#
# Youngs Moduli (GPa) = 68.53254 83.21635 52.91928
#
# Poissons Ratio (x) = -0.08022 0.12727
# Poissons Ratio (y) = -0.06606 0.16025
# Poissons Ratio (z) = 0.16481 0.25199
#
# Static dielectric constant tensor:
#      x y z
#    x 2.039830 0.108530 -0.051870 
#    y 0.108530 2.162990 -0.187480 
#    z -0.051870 -0.187480 2.231450 
# 
# From -- ./inp_files/293521.got.cif
#   From: 2010.05.17/outbox.cif.g08.bks.cpg/sg2_147_cif.got.tgz:293521.got - 2010.06.03 11:33:40.
