data_PCOD9022254
_publ_section_title
;
Structure prediction by ZEFSAII (Michael W. Deem and Ramdas Pophale) SiO2 
 PCOD9022254
Probable space group: P -1
;
_chemical_formula_sum "Si O2"
_cell_formula_units_Z 13
_cell_length_a 18.857811
_cell_length_b 8.701355
_cell_length_c 15.574510
_cell_angle_alpha 54.239703
_cell_angle_beta 20.371979
_cell_angle_gamma 44.625979
_cell_volume 588.038875
_symmetry_space_group_name_H-M "P -1"
_symmetry_group_IT_number 2
_symmetry_cell_setting 'triclinic'
loop_
_space_group_symop_operation_xyz
x,y,z
-x,-y,-z
loop_
_atom_site_type_symbol
_atom_site_label
_atom_site_fract_x
_atom_site_fract_y
_atom_site_fract_z
Si Si1 0.500000 0.000000 0.500000
Si Si2 0.270715 0.731795 0.104460
Si Si3 0.747518 0.850691 0.931911
Si Si4 0.192173 0.504863 0.421840
Si Si5 0.220660 0.045164 0.514002
Si Si6 0.037765 0.540416 0.042746
Si Si7 0.735280 0.190031 0.281432
O O1 0.774655 0.772902 0.295594
O O2 0.456420 0.817697 0.558969
O O3 0.221106 0.576602 0.270570
O O4 0.037495 0.883436 0.257557
O O5 0.281903 0.911871 0.092505
O O6 0.548177 0.573253 0.800642
O O7 0.940684 0.716827 0.680018
O O8 0.872053 0.682001 0.928465
O O9 0.470308 0.912311 0.215315
O O10 0.180949 0.285507 0.505815
O O11 0.273273 0.897500 0.586711
O O12 0.000000 0.500000 0.000000
O O13 0.246687 0.592738 0.798985
O O14 0.000000 0.000000 0.000000
#
# Coordination Sequence:
#
# PCOD9022254 Si02
#       7
#     1   2   2   2   2   2   2
#     4  10  22  40  60  82 120 166 208 254 304 362
#     4  10  23  42  65  90 124 163 205 259 315 375
#     4  11  24  39  61  94 125 159 209 258 310 376
#     4  10  22  42  64  91 124 162 207 257 314 375
#     4  11  23  40  62  93 125 161 210 258 311 374
#     4  11  23  39  61  90 126 166 207 256 310 370
#     4  10  22  39  60  88 123 165 210 253 306 370
#
# _framework density 22.107382999999999
#
# number of rings (size 3 to 8) (size 9 to 14) (size 15 to 20)
#    0.000    1.538    0.000    4.615    0.000   12.923 
#    0.000    0.000    0.000    0.000    0.000    0.000 
#    0.000    0.000    0.000    0.000    0.000    0.000 
#
# Total GULP energy -72371.003693 kJ/mol
# GULP energy per Si atom -5567.000284 kJ/mol
# Density = 2.205707 g / cm^3
# Si number density = 22.107383 Si / 1000 Ang^3
#
#
#
# Elastic Constant Matrix: (Units=GPa)
#
#
# Indices 1 2 3 4 5 6 
#
# 1 18.7709 9.3719 13.3809 6.1560 -9.0770 46.0962
# 2 9.3719 102.1025 3.6953 -13.1720 0.5047 -8.2653
# 3 13.3809 3.6953 124.1333 18.4552 -10.6576 20.6235
# 4 6.1560 -13.1720 18.4552 27.0902 -12.3686 -19.7494
# 5 -9.0770 0.5047 -10.6576 -12.3686 29.8251 -16.8377
# 6 46.0962 -8.2653 20.6235 -19.7494 -16.8377 -9.2074
#
#
#
# Elastic Compliance Matrix: (Units=1/GPa)
#
#
# Indices 1 2 3 4 5 6 
#
# 1 0.023340 0.001930 -0.006334 0.021115 0.022130 0.015173
# 2 0.001930 0.009647 -0.000340 0.002013 -0.000573 -0.003030
# 3 -0.006334 -0.000340 0.009359 -0.004857 -0.000297 0.000522
# 4 0.021115 0.002013 -0.004857 0.035833 0.014092 -0.009608
# 5 0.022130 -0.000573 -0.000297 0.014092 0.044976 -0.001834
# 6 0.015173 -0.003030 0.000522 -0.009608 -0.001834 -0.004792
#
#
# Mechanical properties :
#
#
# Convention : Reuss Voigt Hill
#
# Bulk Modulus (GPa) = 30.43455 33.10031 31.76743
# Shear Modulus (GPa) = 36.02230 24.11215 30.06722
#
# Velocity S-wave (km/s) = 4.04099 3.30613 3.69189
# Velocity P-wave (km/s) = 5.96401 5.43866 5.70738
#
# Compressibility (1/GPa) = 0.03285739
#
# Stress axis : x y z
#
# Youngs Moduli (GPa) = 42.84423 103.66433 106.85332
#
# Poissons Ratio (x) = -0.20004 0.67676
# Poissons Ratio (y) = -0.08268 0.03636
# Poissons Ratio (z) = 0.27135 0.03527
#
# Static dielectric constant tensor:
#      x y z
#    x 1.780280 0.016750 0.021200 
#    y 0.016750 1.793030 0.030970 
#    z 0.021200 0.030970 1.847100 
# 
# From -- ./inp_files/88344.got.cif
#   From: 2010.05.17/outbox.cif.g08.bks.cpg/sg2_45_cif.got.tgz:88344.got - 2010.06.03 11:33:40.
