data_PCOD9022570
_publ_section_title
;
Structure prediction by ZEFSAII (Michael W. Deem and Ramdas Pophale) SiO2 
 PCOD9022570
Probable space group: P -1
;
_chemical_formula_sum "Si O2"
_cell_formula_units_Z 12
_cell_length_a 15.315574
_cell_length_b 9.469302
_cell_length_c 9.473381
_cell_angle_alpha 86.864066
_cell_angle_beta 115.392337
_cell_angle_gamma 37.689330
_cell_volume 531.727098
_symmetry_space_group_name_H-M "P -1"
_symmetry_group_IT_number 2
_symmetry_cell_setting 'triclinic'
loop_
_space_group_symop_operation_xyz
x,y,z
-x,-y,-z
loop_
_atom_site_type_symbol
_atom_site_label
_atom_site_fract_x
_atom_site_fract_y
_atom_site_fract_z
Si Si1 0.611528 0.159718 0.847851
Si Si2 0.966924 0.890540 0.045670
Si Si3 0.793931 0.754470 0.454794
Si Si4 0.732483 0.764534 0.724441
Si Si5 0.158135 0.622504 0.509019
Si Si6 0.690848 0.139254 0.202449
O O1 0.346543 0.489985 0.671962
O O2 0.686221 0.940625 0.802276
O O3 0.724920 0.003701 0.088878
O O4 0.708607 0.178984 0.854582
O O5 0.108014 0.573915 0.094500
O O6 0.068088 0.762455 0.280589
O O7 0.000000 0.000000 0.000000
O O8 0.830215 0.706012 0.651471
O O9 0.718064 0.693701 0.374893
O O10 0.000000 0.500000 0.500000
O O11 0.635480 0.095898 0.284406
O O12 0.500000 0.000000 0.500000
O O13 0.923879 0.911881 0.414397
O O14 0.500000 0.500000 0.000000
#
# Coordination Sequence:
#
# PCOD9022570 Si02
#       6
#     2   2   2   2   2   2
#     4  11  22  42  71  92 132 181 228 269 341 401
#     4  10  22  39  62  98 137 165 218 283 330 386
#     4   9  19  40  67  89 136 174 213 274 326 396
#     4  11  21  42  69  98 135 177 225 276 328 404
#     4   9  20  42  61  92 131 170 224 270 325 407
#     4  10  23  42  66  96 136 172 223 285 333 399
#
# _framework density 22.567969000000002
#
# number of rings (size 3 to 8) (size 9 to 14) (size 15 to 20)
#    0.000    2.000    3.333    1.500    0.000    4.667 
#    3.000    0.000    3.667    0.000    0.000    0.000 
#    0.000    0.000    0.000    0.000    0.000    0.000 
#
# Total GULP energy -66867.387105 kJ/mol
# GULP energy per Si atom -5572.282259 kJ/mol
# Density = 2.251660 g / cm^3
# Si number density = 22.567969 Si / 1000 Ang^3
#
#
#
# Elastic Constant Matrix: (Units=GPa)
#
#
# Indices 1 2 3 4 5 6 
#
# 1 180.8595 48.1834 73.4381 -11.7319 5.5370 31.6147
# 2 48.1834 110.8710 29.7676 -0.0323 -16.9283 3.9588
# 3 73.4381 29.7676 92.5857 -10.5790 22.0873 18.2610
# 4 -11.7319 -0.0323 -10.5790 36.6099 7.8085 -8.8592
# 5 5.5370 -16.9283 22.0873 7.8085 55.5213 -4.2625
# 6 31.6147 3.9588 18.2610 -8.8592 -4.2625 28.4332
#
#
#
# Elastic Compliance Matrix: (Units=1/GPa)
#
#
# Indices 1 2 3 4 5 6 
#
# 1 0.009601 -0.002461 -0.005481 -0.000165 -0.000031 -0.006869
# 2 -0.002461 0.012162 -0.004610 -0.002470 0.006457 0.004202
# 3 -0.005481 -0.004610 0.021020 0.004892 -0.010431 -0.006803
# 4 -0.000165 -0.002470 0.004892 0.031601 -0.006649 0.006235
# 5 -0.000031 0.006457 -0.010431 -0.006649 0.025652 0.007609
# 6 -0.006869 0.004202 -0.006803 0.006235 0.007609 0.049675
#
#
# Mechanical properties :
#
#
# Convention : Reuss Voigt Hill
#
# Bulk Modulus (GPa) = 56.56233 76.34382 66.45307
# Shear Modulus (GPa) = 27.66917 39.64135 33.65526
#
# Velocity S-wave (km/s) = 3.50528 4.19565 3.86590
# Velocity P-wave (km/s) = 6.44206 7.57450 7.03112
#
# Compressibility (1/GPa) = 0.01767961
#
# Stress axis : x y z
#
# Youngs Moduli (GPa) = 104.15316 82.22506 47.57445
#
# Poissons Ratio (x) = 0.20232 0.26076
# Poissons Ratio (y) = 0.25628 0.21931
# Poissons Ratio (z) = 0.57087 0.37905
#
# Static dielectric constant tensor:
#      x y z
#    x 1.880570 -0.027050 0.032640 
#    y -0.027050 1.974080 -0.083990 
#    z 0.032640 -0.083990 1.862190 
# 
# From -- ./inp_files/445884.got.cif
#   From: 2010.05.17/outbox.cif.g08.bks.cpg/sg2_223_cif.got.tgz:445884.got - 2010.06.03 11:33:40.
