data_PCOD9022794
_publ_section_title
;
Structure prediction by ZEFSAII (Michael W. Deem and Ramdas Pophale) SiO2 
 PCOD9022794
Probable space group: P -1
;
_chemical_formula_sum "Si O2"
_cell_formula_units_Z 16
_cell_length_a 14.488012
_cell_length_b 15.996507
_cell_length_c 11.089261
_cell_angle_alpha 71.733046
_cell_angle_beta 29.271372
_cell_angle_gamma 51.495460
_cell_volume 786.577623
_symmetry_space_group_name_H-M "P -1"
_symmetry_group_IT_number 2
_symmetry_cell_setting 'triclinic'
loop_
_space_group_symop_operation_xyz
x,y,z
-x,-y,-z
loop_
_atom_site_type_symbol
_atom_site_label
_atom_site_fract_x
_atom_site_fract_y
_atom_site_fract_z
Si Si1 0.183224 0.094367 0.955062
Si Si2 0.719917 0.559261 0.226458
Si Si3 0.110821 0.705220 0.580345
Si Si4 0.596861 0.759907 0.092403
Si Si5 0.961758 0.978697 0.266500
Si Si6 0.177321 0.137020 0.670181
Si Si7 0.219837 0.848163 0.268988
Si Si8 0.668339 0.418857 0.172477
O O1 0.206552 0.134068 0.782706
O O2 0.503268 0.963685 0.698750
O O3 0.007067 0.214132 0.195498
O O4 0.035749 0.052726 0.118439
O O5 0.614661 0.670018 0.202195
O O6 0.779041 0.450628 0.130385
O O7 0.481988 0.609997 0.571314
O O8 0.000000 0.500000 0.000000
O O9 0.118604 0.786407 0.447965
O O10 0.418339 0.554549 0.322110
O O11 0.890965 0.709041 0.784781
O O12 0.503443 0.764851 0.062385
O O13 0.343427 0.909956 0.366961
O O14 0.928187 0.922196 0.222943
O O15 0.204579 0.862810 0.136726
O O16 0.929529 0.292690 0.851461
O O17 0.000000 0.000000 0.500000
#
# Coordination Sequence:
#
# PCOD9022794 Si02
#       8
#     2   2   2   2   2   2   2   2
#     4  11  22  40  63  90 125 163 204 256 307 371
#     4  11  21  36  63  91 123 166 204 251 309 362
#     4  12  21  40  66  93 122 159 209 259 308 359
#     4  11  21  36  63  93 120 154 211 260 302 357
#     4  11  22  41  62  88 123 163 209 258 309 356
#     4  11  25  38  59  93 131 164 196 246 321 383
#     4  10  22  39  64  92 118 157 216 272 299 345
#     4  11  23  38  59  93 131 160 200 254 308 375
#
# _framework density 20.341284999999999
#
# number of rings (size 3 to 8) (size 9 to 14) (size 15 to 20)
#    0.000    1.000    6.250    2.625    0.000    4.000 
#    0.000    0.625    0.000    1.500    0.000    0.000 
#    0.000    0.000    0.000    0.000    0.000    0.000 
#
# Total GULP energy -89364.880159 kJ/mol
# GULP energy per Si atom -5585.305010 kJ/mol
# Density = 2.029499 g / cm^3
# Si number density = 20.341285 Si / 1000 Ang^3
#
#
#
# Elastic Constant Matrix: (Units=GPa)
#
#
# Indices 1 2 3 4 5 6 
#
# 1 66.0141 13.3894 17.8897 3.8352 -28.1328 2.2921
# 2 13.3894 81.7895 33.8589 8.5680 -22.0460 0.1164
# 3 17.8897 33.8589 64.0478 21.8542 -28.7305 7.3268
# 4 3.8352 8.5680 21.8542 32.7017 2.5390 -7.6993
# 5 -28.1328 -22.0460 -28.7305 2.5390 30.5247 -6.3127
# 6 2.2921 0.1164 7.3268 -7.6993 -6.3127 32.4331
#
#
#
# Elastic Compliance Matrix: (Units=1/GPa)
#
#
# Indices 1 2 3 4 5 6 
#
# 1 0.034381 0.002729 0.024216 -0.026098 0.058041 -0.002809
# 2 0.002729 0.016767 -0.003636 -0.002677 0.011890 0.002247
# 3 0.024216 -0.003636 0.076466 -0.064014 0.093694 -0.015933
# 4 -0.026098 -0.002677 -0.064014 0.088772 -0.089492 0.019970
# 5 0.058041 0.011890 0.093694 -0.089492 0.188428 -0.009880
# 6 -0.002809 0.002247 -0.015933 0.019970 -0.009880 0.037440
#
#
# Mechanical properties :
#
#
# Convention : Reuss Voigt Hill
#
# Bulk Modulus (GPa) = 5.73943 38.01416 21.87679
# Shear Modulus (GPa) = 11.02021 28.91280 19.96651
#
# Velocity S-wave (km/s) = 2.33011 3.77422 3.13641
# Velocity P-wave (km/s) = 3.17284 6.14180 4.88818
#
# Compressibility (1/GPa) = 0.17423325
#
# Stress axis : x y z
#
# Youngs Moduli (GPa) = 29.08603 59.64018 13.07774
#
# Poissons Ratio (x) = -0.16278 -0.31670
# Poissons Ratio (y) = -0.07938 0.04755
# Poissons Ratio (z) = -0.70436 0.21685
#
# Static dielectric constant tensor:
#      x y z
#    x 1.729150 -0.020490 -0.024910 
#    y -0.020490 1.726570 0.011670 
#    z -0.024910 0.011670 1.744890 
# 
# From -- ./inp_files/454715.got.cif
#   From: 2010.05.17/outbox.cif.g08.bks.cpg/sg2_228_cif.got.tgz:454715.got - 2010.06.03 11:33:40.
