data_PCOD9022324
_publ_section_title
;
Structure prediction by ZEFSAII (Michael W. Deem and Ramdas Pophale) SiO2 
 PCOD9022324
Probable space group: P -1
;
_chemical_formula_sum "Si O2"
_cell_formula_units_Z 16
_cell_length_a 12.575240
_cell_length_b 10.385893
_cell_length_c 9.977502
_cell_angle_alpha 103.534967
_cell_angle_beta 128.813959
_cell_angle_gamma 43.971608
_cell_volume 645.740932
_symmetry_space_group_name_H-M "P -1"
_symmetry_group_IT_number 2
_symmetry_cell_setting 'triclinic'
loop_
_space_group_symop_operation_xyz
x,y,z
-x,-y,-z
loop_
_atom_site_type_symbol
_atom_site_label
_atom_site_fract_x
_atom_site_fract_y
_atom_site_fract_z
Si Si1 0.163790 0.384246 0.274499
Si Si2 0.309021 0.533883 0.872938
Si Si3 0.651077 0.748257 0.336895
Si Si4 0.382521 0.925252 0.581310
Si Si5 0.065921 0.723857 0.189386
Si Si6 0.447589 0.445323 0.246641
Si Si7 0.797162 0.947082 0.799770
Si Si8 0.884394 0.223188 0.472129
O O1 0.185155 0.410198 0.454486
O O2 0.393939 0.218607 0.350042
O O3 0.033388 0.587875 0.138754
O O4 0.115927 0.264866 0.209644
O O5 0.349851 0.353539 0.811027
O O6 0.125133 0.712254 0.670045
O O7 0.500000 0.500000 0.000000
O O8 0.291740 0.551683 0.023508
O O9 0.682116 0.882530 0.369114
O O10 0.428051 0.897439 0.269668
O O11 0.428756 0.783718 0.695406
O O12 0.241100 0.970334 0.359247
O O13 0.304814 0.570749 0.294279
O O14 0.014728 0.796176 0.317863
O O15 0.937070 0.898269 0.018914
O O16 0.635894 0.407223 0.358479
O O17 0.000000 0.000000 0.500000
#
# Coordination Sequence:
#
# PCOD9022324 Si02
#       8
#     2   2   2   2   2   2   2   2
#     4   8  15  32  55  88 120 155 193 239 288 349
#     4  10  22  39  61  81 120 158 201 239 292 353
#     4   9  16  34  60  87 120 161 191 235 296 346
#     4   8  17  34  58  89 124 151 189 247 293 345
#     4  11  20  36  62  89 118 156 194 248 297 336
#     4  10  23  41  60  87 122 154 194 247 301 347
#     4   9  18  29  59  94 119 147 201 239 284 354
#     4  11  25  43  62  84 116 157 205 244 290 358
#
# _framework density 24.777739
#
# number of rings (size 3 to 8) (size 9 to 14) (size 15 to 20)
#    0.000    2.500    1.250    2.250    3.500    1.500 
#    0.000    1.250    2.750    2.250    0.000    0.000 
#    0.000    0.000    0.000    0.000    0.000    0.000 
#
# Total GULP energy -89209.026536 kJ/mol
# GULP energy per Si atom -5575.564158 kJ/mol
# Density = 2.472134 g / cm^3
# Si number density = 24.777739 Si / 1000 Ang^3
#
#
#
# Elastic Constant Matrix: (Units=GPa)
#
#
# Indices 1 2 3 4 5 6 
#
# 1 41.1835 -7.4089 11.4288 -11.8330 -4.5552 -7.3947
# 2 -7.4089 58.6941 37.6224 3.2833 -13.9880 10.1207
# 3 11.4288 37.6224 135.7392 3.3977 -26.2148 9.2245
# 4 -11.8330 3.2833 3.3977 35.1228 2.4454 -3.5528
# 5 -4.5552 -13.9880 -26.2148 2.4454 34.1476 -5.5080
# 6 -7.3947 10.1207 9.2245 -3.5528 -5.5080 23.9939
#
#
#
# Elastic Compliance Matrix: (Units=1/GPa)
#
#
# Indices 1 2 3 4 5 6 
#
# 1 0.032543 0.005208 -0.004516 0.011868 0.004138 0.012276
# 2 0.005208 0.023422 -0.005550 -0.000775 0.005270 -0.005046
# 3 -0.004516 -0.005550 0.010468 -0.002596 0.004973 -0.002318
# 4 0.011868 -0.000775 -0.002596 0.033879 -0.001600 0.009632
# 5 0.004138 0.005270 0.004973 -0.001600 0.036790 0.005349
# 6 0.012276 -0.005046 -0.002318 0.009632 0.005349 0.051134
#
#
# Mechanical properties :
#
#
# Convention : Reuss Voigt Hill
#
# Bulk Modulus (GPa) = 17.63107 35.43348 26.53228
# Shear Modulus (GPa) = 23.05646 31.58449 27.32048
#
# Velocity S-wave (km/s) = 3.05377 3.57418 3.32418
# Velocity P-wave (km/s) = 4.42325 5.60041 5.04628
#
# Compressibility (1/GPa) = 0.05671804
#
# Stress axis : x y z
#
# Youngs Moduli (GPa) = 30.72814 42.69525 95.52515
#
# Poissons Ratio (x) = -0.22236 0.43136
# Poissons Ratio (y) = -0.16003 0.53018
# Poissons Ratio (z) = 0.13876 0.23697
#
# Static dielectric constant tensor:
#      x y z
#    x 2.035910 0.028060 0.025090 
#    y 0.028060 1.958030 0.020890 
#    z 0.025090 0.020890 2.042290 
# 
# From -- ./inp_files/223067.got.cif
#   From: 2010.05.17/outbox.cif.g08.bks.cpg/sg2_112_cif.got.tgz:223067.got - 2010.06.03 11:33:40.
