data_PCOD9022803
_publ_section_title
;
Structure prediction by ZEFSAII (Michael W. Deem and Ramdas Pophale) SiO2 
 PCOD9022803
Probable space group: P -1
;
_chemical_formula_sum "Si O2"
_cell_formula_units_Z 14
_cell_length_a 14.118302
_cell_length_b 13.576426
_cell_length_c 4.890306
_cell_angle_alpha 62.571025
_cell_angle_beta 125.338750
_cell_angle_gamma 131.849085
_cell_volume 565.260690
_symmetry_space_group_name_H-M "P -1"
_symmetry_group_IT_number 2
_symmetry_cell_setting 'triclinic'
loop_
_space_group_symop_operation_xyz
x,y,z
-x,-y,-z
loop_
_atom_site_type_symbol
_atom_site_label
_atom_site_fract_x
_atom_site_fract_y
_atom_site_fract_z
Si Si1 0.996405 0.785969 0.903898
Si Si2 0.571212 0.626749 0.154814
Si Si3 0.868272 0.512244 0.740322
Si Si4 0.736129 0.757735 0.744926
Si Si5 0.277863 0.873744 0.506621
Si Si6 0.313307 0.639715 0.864714
Si Si7 0.735793 0.993617 0.171906
O O1 0.916710 0.657432 0.742007
O O2 0.891960 0.800279 0.896529
O O3 0.098290 0.916769 0.727522
O O4 0.110989 0.781137 0.283614
O O5 0.643364 0.628823 0.556385
O O6 0.500000 0.500000 0.000000
O O7 0.692130 0.735416 0.014353
O O8 0.453739 0.652059 0.006588
O O9 0.807893 0.475395 0.382519
O O10 0.705898 0.861868 0.431084
O O11 0.000000 0.500000 0.000000
O O12 0.742307 0.405658 0.862699
O O13 0.331768 0.780015 0.664311
O O14 0.298517 0.926117 0.778606
O O15 0.329637 0.998521 0.230974
#
# Coordination Sequence:
#
# PCOD9022803 Si02
#       7
#     2   2   2   2   2   2   2
#     4  10  24  37  67  96 133 157 213 269 322 372
#     4  12  27  47  66  92 130 173 214 256 304 385
#     4  12  22  37  67 100 128 163 204 262 331 378
#     4  12  25  44  68  93 124 177 215 251 319 377
#     4  10  22  39  64  92 132 161 202 267 329 357
#     4  12  24  43  63  95 135 166 212 262 315 374
#     4  10  23  41  63  98 130 159 212 267 323 369
#
# _framework density 24.767332
#
# number of rings (size 3 to 8) (size 9 to 14) (size 15 to 20)
#    0.857    0.000    1.429    6.429    4.000    0.571 
#    0.000    4.286    0.000    0.000    0.000    0.000 
#    0.000    0.000    0.000    0.000    0.000    0.000 
#
# Total GULP energy -78414.959823 kJ/mol
# GULP energy per Si atom -5601.068559 kJ/mol
# Density = 2.471096 g / cm^3
# Si number density = 24.767332 Si / 1000 Ang^3
#
#
#
# Elastic Constant Matrix: (Units=GPa)
#
#
# Indices 1 2 3 4 5 6 
#
# 1 151.5845 20.2000 36.9658 -3.0327 8.3417 -21.0026
# 2 20.2000 50.9234 -3.3921 -12.8001 2.5411 -4.1505
# 3 36.9658 -3.3921 60.3157 -0.0202 -7.8463 -6.3012
# 4 -3.0327 -12.8001 -0.0202 37.2615 -5.9339 -2.2430
# 5 8.3417 2.5411 -7.8463 -5.9339 49.8334 -2.3688
# 6 -21.0026 -4.1505 -6.3012 -2.2430 -2.3688 28.7678
#
#
#
# Elastic Compliance Matrix: (Units=1/GPa)
#
#
# Indices 1 2 3 4 5 6 
#
# 1 0.009224 -0.003685 -0.005635 -0.000564 -0.002085 0.004753
# 2 -0.003685 0.023531 0.003970 0.008102 0.001116 0.002298
# 3 -0.005635 0.003970 0.020980 0.001697 0.004320 0.001542
# 4 -0.000564 0.008102 0.001697 0.030402 0.003750 0.003808
# 5 -0.002085 0.001116 0.004320 0.003750 0.021564 0.001653
# 6 0.004753 0.002298 0.001542 0.003808 0.001653 0.039333
#
#
# Mechanical properties :
#
#
# Convention : Reuss Voigt Hill
#
# Bulk Modulus (GPa) = 23.23707 41.15234 32.19470
# Shear Modulus (GPa) = 29.39779 37.10920 33.25350
#
# Velocity S-wave (km/s) = 3.44896 3.87500 3.66817
# Velocity P-wave (km/s) = 5.02623 6.05578 5.56487
#
# Compressibility (1/GPa) = 0.04303469
#
# Stress axis : x y z
#
# Youngs Moduli (GPa) = 108.41048 42.49631 47.66451
#
# Poissons Ratio (x) = 0.15659 0.26861
# Poissons Ratio (y) = 0.39946 -0.18921
# Poissons Ratio (z) = 0.61093 -0.16869
#
# Static dielectric constant tensor:
#      x y z
#    x 1.912430 0.065360 -0.004570 
#    y 0.065360 2.028080 -0.015370 
#    z -0.004570 -0.015370 1.929690 
# 
# From -- ./inp_files/94500.got.cif
#   From: 2010.05.17/outbox.cif.g08.bks.cpg/sg2_48_cif.got.tgz:94500.got - 2010.06.03 11:33:40.
