data_PCOD9022940
_publ_section_title
;
Structure prediction by ZEFSAII (Michael W. Deem and Ramdas Pophale) SiO2 
 PCOD9022940
Probable space group: P -1
;
_chemical_formula_sum "Si O2"
_cell_formula_units_Z 16
_cell_length_a 18.097406
_cell_length_b 21.133790
_cell_length_c 9.515088
_cell_angle_alpha 137.473344
_cell_angle_beta 50.109049
_cell_angle_gamma 161.592677
_cell_volume 747.595709
_symmetry_space_group_name_H-M "P -1"
_symmetry_group_IT_number 2
_symmetry_cell_setting 'triclinic'
loop_
_space_group_symop_operation_xyz
x,y,z
-x,-y,-z
loop_
_atom_site_type_symbol
_atom_site_label
_atom_site_fract_x
_atom_site_fract_y
_atom_site_fract_z
Si Si1 0.769902 0.138368 0.315195
Si Si2 0.637430 0.950563 0.631903
Si Si3 0.003034 0.873450 0.661120
Si Si4 0.250816 0.465258 0.351411
Si Si5 0.087001 0.785044 0.019333
Si Si6 0.321237 0.729348 0.400686
Si Si7 0.135022 0.211989 0.621281
Si Si8 0.510639 0.584917 0.001315
O O1 0.790476 0.267476 0.474743
O O2 0.011013 0.313047 0.378069
O O3 0.539262 0.915468 0.328272
O O4 0.744371 0.063561 0.075366
O O5 0.841410 0.078479 0.501455
O O6 0.481218 0.733081 0.551431
O O7 0.448794 0.831690 0.563992
O O8 0.774327 0.132158 0.878923
O O9 0.217153 0.132489 0.879516
O O10 0.876421 0.800151 0.554381
O O11 0.818619 0.677056 0.685956
O O12 0.333975 0.503768 0.158895
O O13 0.998429 0.809885 0.208991
O O14 0.869558 0.521664 0.811808
O O15 0.000000 0.000000 0.500000
O O16 0.391680 0.447804 0.775918
O O17 0.500000 0.500000 0.000000
#
# Coordination Sequence:
#
# PCOD9022940 Si02
#       8
#     2   2   2   2   2   2   2   2
#     4  11  23  41  68  96 131 167 217 268 317 382
#     4  10  22  39  65  92 127 169 211 261 313 379
#     4  10  22  41  63  90 129 168 208 262 323 374
#     4  11  22  42  65  94 129 172 213 262 321 384
#     4  11  23  42  68  92 128 176 210 263 327 384
#     4  11  23  44  65  96 130 170 215 269 318 376
#     4  11  22  41  66  92 127 165 212 266 317 375
#     4  11  22  42  67  89 126 169 213 267 322 379
#
# _framework density 21.401941999999998
#
# number of rings (size 3 to 8) (size 9 to 14) (size 15 to 20)
#    0.000    1.250    5.000    1.125    0.000    3.000 
#    0.000    1.875    0.000    0.000    0.000    0.000 
#    0.000    0.000    0.000    0.000    0.000    0.000 
#
# Total GULP energy -89398.167169 kJ/mol
# GULP energy per Si atom -5587.385448 kJ/mol
# Density = 2.135323 g / cm^3
# Si number density = 21.401942 Si / 1000 Ang^3
#
#
#
# Elastic Constant Matrix: (Units=GPa)
#
#
# Indices 1 2 3 4 5 6 
#
# 1 118.0291 38.2947 58.9233 16.3657 23.0137 -6.1668
# 2 38.2947 102.5992 39.2185 -2.9521 6.3544 -15.0005
# 3 58.9233 39.2185 115.7347 17.6250 33.5802 -0.3702
# 4 16.3657 -2.9521 17.6250 16.9153 12.1774 1.2576
# 5 23.0137 6.3544 33.5802 12.1774 38.3814 -2.8375
# 6 -6.1668 -15.0005 -0.3702 1.2576 -2.8375 39.1675
#
#
#
# Elastic Compliance Matrix: (Units=1/GPa)
#
#
# Indices 1 2 3 4 5 6 
#
# 1 0.012905 -0.003400 -0.003818 -0.008363 -0.001116 0.000881
# 2 -0.003400 0.013631 -0.004645 0.009298 0.001223 0.004431
# 3 -0.003818 -0.004645 0.015742 -0.007089 -0.008660 -0.002631
# 4 -0.008363 0.009298 -0.007089 0.090098 -0.019063 -0.002097
# 5 -0.001116 0.001223 -0.008660 -0.019063 0.040423 0.003751
# 6 0.000881 0.004431 -0.002631 -0.002097 0.003751 0.027681
#
#
# Mechanical properties :
#
#
# Convention : Reuss Voigt Hill
#
# Bulk Modulus (GPa) = 53.90059 67.69289 60.79674
# Shear Modulus (GPa) = 21.70236 32.22128 26.96182
#
# Velocity S-wave (km/s) = 3.18785 3.88433 3.55319
# Velocity P-wave (km/s) = 6.22812 7.19829 6.73070
#
# Compressibility (1/GPa) = 0.01855267
#
# Stress axis : x y z
#
# Youngs Moduli (GPa) = 77.49049 73.36344 63.52456
#
# Poissons Ratio (x) = 0.24943 0.24252
# Poissons Ratio (y) = 0.26347 0.29505
# Poissons Ratio (z) = 0.29584 0.34075
#
# Static dielectric constant tensor:
#      x y z
#    x 1.835750 0.023590 -0.008800 
#    y 0.023590 1.775000 -0.015370 
#    z -0.008800 -0.015370 1.782290 
# 
# From -- ./inp_files/337818.got.cif
#   From: 2010.05.17/outbox.cif.g08.bks.cpg/sg2_169_cif.got.tgz:337818.got - 2010.06.03 11:33:40.
