data_PCOD9022105
_publ_section_title
;
Structure prediction by ZEFSAII (Michael W. Deem and Ramdas Pophale) SiO2 
 PCOD9022105
Probable space group: P -1
;
_chemical_formula_sum "Si O2"
_cell_formula_units_Z 12
_cell_length_a 12.989003
_cell_length_b 8.786336
_cell_length_c 9.976930
_cell_angle_alpha 60.597727
_cell_angle_beta 145.656999
_cell_angle_gamma 106.314185
_cell_volume 541.373976
_symmetry_space_group_name_H-M "P -1"
_symmetry_group_IT_number 2
_symmetry_cell_setting 'triclinic'
loop_
_space_group_symop_operation_xyz
x,y,z
-x,-y,-z
loop_
_atom_site_type_symbol
_atom_site_label
_atom_site_fract_x
_atom_site_fract_y
_atom_site_fract_z
Si Si1 0.001608 0.939742 0.184138
Si Si2 0.633851 0.353321 0.298842
Si Si3 0.379039 0.142434 0.207601
Si Si4 0.972575 0.839139 0.634641
Si Si5 0.195859 0.456709 0.074531
Si Si6 0.763657 0.560957 0.576753
O O1 0.148910 0.746881 0.453862
O O2 0.052252 0.083953 0.275032
O O3 0.792732 0.926508 0.003367
O O4 0.000000 0.000000 0.000000
O O5 0.531262 0.191815 0.254905
O O6 0.645961 0.454376 0.409104
O O7 0.500000 0.500000 0.000000
O O8 0.500000 0.000000 0.500000
O O9 0.288009 0.324002 0.114279
O O10 0.800482 0.742195 0.469408
O O11 0.156195 0.667966 0.902614
O O12 0.000000 0.000000 0.500000
O O13 0.980585 0.438684 0.869248
O O14 0.297492 0.411832 0.346248
#
# Coordination Sequence:
#
# PCOD9022105 Si02
#       6
#     2   2   2   2   2   2
#     4  12  23  48  72  98 146 178 237 295 332 426
#     4  12  28  43  69 104 142 185 226 289 358 409
#     4  12  26  41  73 105 128 184 241 276 351 418
#     4  10  22  38  73 100 129 189 222 287 362 389
#     4   9  20  42  69  95 135 179 230 283 347 408
#     4   9  20  44  67  92 138 185 223 277 357 405
#
# _framework density 22.165824000000001
#
# number of rings (size 3 to 8) (size 9 to 14) (size 15 to 20)
#    1.000    0.333    3.333    2.000    4.667    1.333 
#    0.000    0.833    0.000    0.000    0.000    0.000 
#    0.000    0.000    0.000    0.000    0.000    0.000 
#
# Total GULP energy -66925.866408 kJ/mol
# GULP energy per Si atom -5577.155534 kJ/mol
# Density = 2.211537 g / cm^3
# Si number density = 22.165824 Si / 1000 Ang^3
#
#
#
# Elastic Constant Matrix: (Units=GPa)
#
#
# Indices 1 2 3 4 5 6 
#
# 1 11.0267 -4.3174 -2.8459 -0.6246 -4.4608 2.8321
# 2 -4.3174 78.1338 13.9028 -4.1936 -2.4165 13.1236
# 3 -2.8459 13.9028 94.6667 -8.3562 -6.0375 12.8809
# 4 -0.6246 -4.1936 -8.3562 54.4124 9.6464 -0.3641
# 5 -4.4608 -2.4165 -6.0375 9.6464 26.8698 -5.3094
# 6 2.8321 13.1236 12.8809 -0.3641 -5.3094 54.1813
#
#
#
# Elastic Compliance Matrix: (Units=1/GPa)
#
#
# Indices 1 2 3 4 5 6 
#
# 1 0.102971 0.006512 0.004032 -0.000872 0.017676 -0.006192
# 2 0.006512 0.014017 -0.001274 0.000736 0.001136 -0.003316
# 3 0.004032 -0.001274 0.011453 0.001303 0.002186 -0.002402
# 4 -0.000872 0.000736 0.001303 0.019881 -0.007122 -0.001007
# 5 0.017676 0.001136 0.002186 -0.007122 0.043800 0.002526
# 6 -0.006192 -0.003316 -0.002402 -0.001007 0.002526 0.020395
#
#
# Mechanical properties :
#
#
# Convention : Reuss Voigt Hill
#
# Bulk Modulus (GPa) = 6.80358 21.92290 14.36324
# Shear Modulus (GPa) = 20.57863 38.89856 29.73859
#
# Velocity S-wave (km/s) = 3.05026 4.19368 3.66682
# Velocity P-wave (km/s) = 3.93466 5.77591 4.94180
#
# Compressibility (1/GPa) = 0.14698151
#
# Stress axis : x y z
#
# Youngs Moduli (GPa) = 9.71145 71.34308 87.31354
#
# Poissons Ratio (x) = -0.46461 -0.35205
# Poissons Ratio (y) = -0.06324 0.11125
# Poissons Ratio (z) = -0.03916 0.09090
#
# Static dielectric constant tensor:
#      x y z
#    x 1.869930 0.044060 0.002020 
#    y 0.044060 1.815240 0.013010 
#    z 0.002020 0.013010 1.779400 
# 
# From -- ./inp_files/446856.got.cif
#   From: 2010.05.17/outbox.cif.g08.bks.cpg/sg2_224_cif.got.tgz:446856.got - 2010.06.03 11:33:40.
