data_PCOD9022580
_publ_section_title
;
Structure prediction by ZEFSAII (Michael W. Deem and Ramdas Pophale) SiO2 
 PCOD9022580
Probable space group: P -1
;
_chemical_formula_sum "Si O2"
_cell_formula_units_Z 15
_cell_length_a 8.221092
_cell_length_b 8.364321
_cell_length_c 12.218588
_cell_angle_alpha 116.694853
_cell_angle_beta 121.804500
_cell_angle_gamma 56.011080
_cell_volume 577.617260
_symmetry_space_group_name_H-M "P -1"
_symmetry_group_IT_number 2
_symmetry_cell_setting 'triclinic'
loop_
_space_group_symop_operation_xyz
x,y,z
-x,-y,-z
loop_
_atom_site_type_symbol
_atom_site_label
_atom_site_fract_x
_atom_site_fract_y
_atom_site_fract_z
Si Si1 0.500880 0.735170 0.353103
Si Si2 0.937425 0.539276 0.178038
Si Si3 0.147494 0.675526 0.741350
Si Si4 0.797431 0.017024 0.004359
Si Si5 0.148553 0.818524 0.566421
Si Si6 0.138680 0.657709 0.108605
Si Si7 0.500000 0.500000 0.500000
Si Si8 0.408593 0.047941 0.729183
O O1 0.679725 0.531775 0.304294
O O2 0.288335 0.760718 0.222003
O O3 0.477340 0.673707 0.449495
O O4 0.555935 0.906261 0.371124
O O5 0.998031 0.375007 0.242751
O O6 0.791478 0.754609 0.239441
O O7 0.130371 0.535360 0.173837
O O8 0.806266 0.472809 0.021385
O O9 0.258390 0.792156 0.881654
O O10 0.041964 0.799284 0.634570
O O11 0.607602 0.025068 0.865907
O O12 0.900129 0.823546 0.057036
O O13 0.000000 0.000000 0.000000
O O14 0.248174 0.616213 0.474560
O O15 0.354734 0.861481 0.675137
O O16 0.000000 0.000000 0.500000
#
# Coordination Sequence:
#
# PCOD9022580 Si02
#       8
#     2   2   2   2   2   2   1   2
#     4  10  22  44  66  96 137 183 226 290 338 411
#     4  10  22  39  63 101 134 183 217 270 345 420
#     4  10  22  44  65  97 142 180 225 280 343 415
#     4  12  22  38  65 107 139 179 219 277 346 423
#     4  11  27  49  72  99 136 186 240 298 343 402
#     4  11  22  37  65 103 143 177 222 273 345 419
#     4  10  26  48  70  96 134 182 240 296 348 392
#     4  11  24  44  69  99 139 181 226 282 354 413
#
# _framework density 25.968751000000001
#
# number of rings (size 3 to 8) (size 9 to 14) (size 15 to 20)
#    0.000    1.333    2.667    1.600    3.733    9.067 
#    2.400    2.000    0.000    0.000    0.000    0.000 
#    0.000    0.000    0.000    0.000    0.000    0.000 
#
# Total GULP energy -83697.141731 kJ/mol
# GULP energy per Si atom -5579.809449 kJ/mol
# Density = 2.590965 g / cm^3
# Si number density = 25.968751 Si / 1000 Ang^3
#
#
#
# Elastic Constant Matrix: (Units=GPa)
#
#
# Indices 1 2 3 4 5 6 
#
# 1 81.5223 8.9003 33.7521 -18.0843 -25.4392 33.9968
# 2 8.9003 51.7939 25.2207 -23.1830 -1.5682 22.4387
# 3 33.7521 25.2207 68.6867 -17.1660 -15.3318 20.9422
# 4 -18.0843 -23.1830 -17.1660 42.9597 5.5387 -9.4512
# 5 -25.4392 -1.5682 -15.3318 5.5387 53.9454 -17.7108
# 6 33.9968 22.4387 20.9422 -9.4512 -17.7108 43.6247
#
#
#
# Elastic Compliance Matrix: (Units=1/GPa)
#
#
# Indices 1 2 3 4 5 6 
#
# 1 0.024975 0.011917 -0.008038 0.009283 0.002782 -0.018593
# 2 0.011917 0.040474 -0.010236 0.018326 -0.005724 -0.023544
# 3 -0.008038 -0.010236 0.022323 0.000080 0.002908 0.002011
# 4 0.009283 0.018326 0.000080 0.035186 -0.001914 -0.009853
# 5 0.002782 -0.005724 0.002908 -0.001914 0.023498 0.008505
# 6 -0.018593 -0.023544 0.002011 -0.009853 0.008505 0.049876
#
#
# Mechanical properties :
#
#
# Convention : Reuss Voigt Hill
#
# Bulk Modulus (GPa) = 13.32335 37.52767 25.42551
# Shear Modulus (GPa) = 21.36151 37.04793 29.20472
#
# Velocity S-wave (km/s) = 2.87119 3.78118 3.35716
# Velocity P-wave (km/s) = 4.01663 5.79185 4.98392
#
# Compressibility (1/GPa) = 0.07505622
#
# Stress axis : x y z
#
# Youngs Moduli (GPa) = 40.04047 24.70751 44.79600
#
# Poissons Ratio (x) = -0.29444 0.36008
# Poissons Ratio (y) = -0.47716 0.45855
# Poissons Ratio (z) = 0.32185 0.25292
#
# Static dielectric constant tensor:
#      x y z
#    x 2.049860 0.051840 -0.050980 
#    y 0.051840 2.105860 0.034690 
#    z -0.050980 0.034690 2.144680 
# 
# From -- ./inp_files/383024.got.cif
#   From: 2010.05.17/outbox.cif.g08.bks.cpg/sg2_192_cif.got.tgz:383024.got - 2010.06.03 11:33:40.
