data_PCOD9022067
_publ_section_title
;
Structure prediction by ZEFSAII (Michael W. Deem and Ramdas Pophale) SiO2 
 PCOD9022067
Probable space group: P -1
;
_chemical_formula_sum "Si O2"
_cell_formula_units_Z 13
_cell_length_a 16.367652
_cell_length_b 7.945658
_cell_length_c 6.580264
_cell_angle_alpha 84.310685
_cell_angle_beta 69.220836
_cell_angle_gamma 133.534622
_cell_volume 500.045258
_symmetry_space_group_name_H-M "P -1"
_symmetry_group_IT_number 2
_symmetry_cell_setting 'triclinic'
loop_
_space_group_symop_operation_xyz
x,y,z
-x,-y,-z
loop_
_atom_site_type_symbol
_atom_site_label
_atom_site_fract_x
_atom_site_fract_y
_atom_site_fract_z
Si Si1 0.436257 0.059177 0.292627
Si Si2 0.052857 0.698172 0.108243
Si Si3 0.381661 0.456986 0.168991
Si Si4 0.000000 0.000000 0.000000
Si Si5 0.847112 0.726578 0.835051
Si Si6 0.180720 0.678195 0.298841
Si Si7 0.361116 0.577709 0.586395
O O1 0.515235 0.272354 0.381664
O O2 0.298022 0.913876 0.325048
O O3 0.399346 0.818176 0.433585
O O4 0.549065 0.258348 0.993190
O O5 0.185333 0.810617 0.085093
O O6 0.949126 0.532815 0.410369
O O7 0.000000 0.500000 0.000000
O O8 0.050454 0.879100 0.998147
O O9 0.238705 0.250162 0.192585
O O10 0.353919 0.429872 0.434590
O O11 0.500000 0.500000 0.000000
O O12 0.003961 0.989783 0.734466
O O13 0.813114 0.499606 0.784565
O O14 0.786411 0.620987 0.139769
#
# Coordination Sequence:
#
# PCOD9022067 Si02
#       7
#     2   2   2   1   2   2   2
#     4  10  22  38  70  94 126 178 223 276 347 405
#     4  11  26  48  69 107 141 183 241 295 345 423
#     4  11  25  43  61 102 141 176 228 286 344 417
#     4  12  26  48  72 102 142 190 236 288 364 404
#     4  11  25  44  69  98 137 182 231 289 344 419
#     4  11  24  46  71 103 140 178 239 293 348 427
#     4  10  22  42  67  98 131 175 232 281 339 414
#
# _framework density 25.997648999999999
#
# number of rings (size 3 to 8) (size 9 to 14) (size 15 to 20)
#    0.000    1.231    3.077    1.385    6.462    3.077 
#    2.769    0.000    0.000    0.000    0.000    0.000 
#    0.000    0.000    0.000    0.000    0.000    0.000 
#
# Total GULP energy -72430.873144 kJ/mol
# GULP energy per Si atom -5571.605626 kJ/mol
# Density = 2.593848 g / cm^3
# Si number density = 25.997649 Si / 1000 Ang^3
#
#
#
# Elastic Constant Matrix: (Units=GPa)
#
#
# Indices 1 2 3 4 5 6 
#
# 1 170.3983 41.8972 26.5621 25.8281 44.0637 -6.0915
# 2 41.8972 67.6412 10.6092 -0.3014 10.7882 -27.6914
# 3 26.5621 10.6092 95.0367 17.6633 -5.4346 -22.9378
# 4 25.8281 -0.3014 17.6633 37.3088 4.0389 0.1648
# 5 44.0637 10.7882 -5.4346 4.0389 46.6234 11.9239
# 6 -6.0915 -27.6914 -22.9378 0.1648 11.9239 38.0397
#
#
#
# Elastic Compliance Matrix: (Units=1/GPa)
#
#
# Indices 1 2 3 4 5 6 
#
# 1 0.010328 -0.005057 -0.001935 -0.005384 -0.008196 -0.000602
# 2 -0.005057 0.028755 0.003092 0.003031 -0.008041 0.024495
# 3 -0.001935 0.003092 0.014284 -0.005508 0.000598 0.010390
# 4 -0.005384 0.003031 -0.005508 0.033007 0.001553 -0.002607
# 5 -0.008196 -0.008041 0.000598 0.001553 0.035585 -0.017967
# 6 -0.000602 0.024495 0.010390 -0.002607 -0.017967 0.055931
#
#
# Mechanical properties :
#
#
# Convention : Reuss Voigt Hill
#
# Bulk Modulus (GPa) = 21.94592 54.57924 38.26258
# Shear Modulus (GPa) = 24.89080 41.32823 33.10951
#
# Velocity S-wave (km/s) = 3.09759 3.99142 3.57257
# Velocity P-wave (km/s) = 4.61012 6.50241 5.63625
#
# Compressibility (1/GPa) = 0.04556657
#
# Stress axis : x y z
#
# Youngs Moduli (GPa) = 96.82852 34.77690 70.00977
#
# Poissons Ratio (x) = 0.17585 0.13548
# Poissons Ratio (y) = 0.48962 -0.21647
# Poissons Ratio (z) = 0.18738 -0.10753
#
# Static dielectric constant tensor:
#      x y z
#    x 2.165620 -0.003070 0.067220 
#    y -0.003070 1.902550 0.084460 
#    z 0.067220 0.084460 2.104610 
# 
# From -- ./inp_files/42668.got.cif
#   From: 2010.05.17/outbox.cif.g08.bks.cpg/sg2_22_cif.got.tgz:42668.got - 2010.06.03 11:33:40.
