data_PCOD9022086
_publ_section_title
;
Structure prediction by ZEFSAII (Michael W. Deem and Ramdas Pophale) SiO2 
 PCOD9022086
Probable space group: P -1
;
_chemical_formula_sum "Si O2"
_cell_formula_units_Z 16
_cell_length_a 9.425818
_cell_length_b 13.602281
_cell_length_c 9.028690
_cell_angle_alpha 118.058058
_cell_angle_beta 83.778502
_cell_angle_gamma 56.504426
_cell_volume 737.763898
_symmetry_space_group_name_H-M "P -1"
_symmetry_group_IT_number 2
_symmetry_cell_setting 'triclinic'
loop_
_space_group_symop_operation_xyz
x,y,z
-x,-y,-z
loop_
_atom_site_type_symbol
_atom_site_label
_atom_site_fract_x
_atom_site_fract_y
_atom_site_fract_z
Si Si1 0.915697 0.293052 0.968966
Si Si2 0.875057 0.659197 0.214499
Si Si3 0.200863 0.866704 0.293604
Si Si4 0.418850 0.422839 0.411858
Si Si5 0.438375 0.851023 0.001088
Si Si6 0.762070 0.853733 0.933059
Si Si7 0.432596 0.343006 0.685806
Si Si8 0.993405 0.621824 0.506909
O O1 0.846429 0.211480 0.863712
O O2 0.080592 0.249883 0.806244
O O3 0.727794 0.475751 0.125691
O O4 0.034675 0.236399 0.068297
O O5 0.658673 0.725968 0.301866
O O6 0.966182 0.618667 0.336839
O O7 0.000000 0.500000 0.000000
O O8 0.366144 0.747685 0.313204
O O9 0.297643 0.905641 0.197316
O O10 0.000000 0.000000 0.500000
O O11 0.500000 0.500000 0.500000
O O12 0.505256 0.298938 0.182980
O O13 0.438402 0.344096 0.507731
O O14 0.198737 0.565609 0.484742
O O15 0.628554 0.827070 0.000480
O O16 0.343155 0.973571 0.964573
O O17 0.814344 0.782855 0.713034
O O18 0.000000 0.500000 0.500000
#
# Coordination Sequence:
#
# PCOD9022086 Si02
#       8
#     2   2   2   2   2   2   2   2
#     4  11  24  45  71 105 137 185 234 294 357 420
#     4  10  22  38  71 104 136 178 230 297 341 413
#     4  12  30  48  65  98 148 193 235 285 362 436
#     4  12  26  42  73 109 142 188 235 297 356 426
#     4  11  27  47  73 103 147 190 232 295 360 431
#     4  11  24  47  75 108 141 185 241 297 356 419
#     4  11  23  46  69 103 134 179 239 292 356 413
#     4  12  21  43  72 107 144 179 249 292 347 422
#
# _framework density 21.687156000000002
#
# number of rings (size 3 to 8) (size 9 to 14) (size 15 to 20)
#    0.000    0.750    3.750    2.625    8.750    0.500 
#    0.000    1.250    0.000    0.000    0.000    0.000 
#    0.000    0.000    0.000    0.000    0.000    0.000 
#
# Total GULP energy -89368.339580 kJ/mol
# GULP energy per Si atom -5585.521224 kJ/mol
# Density = 2.163779 g / cm^3
# Si number density = 21.687156 Si / 1000 Ang^3
#
#
#
# Elastic Constant Matrix: (Units=GPa)
#
#
# Indices 1 2 3 4 5 6 
#
# 1 139.1985 35.3123 47.5859 6.6124 -1.2334 -23.2576
# 2 35.3123 63.0283 34.0736 0.1795 -1.1077 -18.0880
# 3 47.5859 34.0736 113.3151 -16.0520 -14.1932 -6.3716
# 4 6.6124 0.1795 -16.0520 36.5528 -5.3222 0.5120
# 5 -1.2334 -1.1077 -14.1932 -5.3222 26.9658 -3.7103
# 6 -23.2576 -18.0880 -6.3716 0.5120 -3.7103 39.9332
#
#
#
# Elastic Compliance Matrix: (Units=1/GPa)
#
#
# Indices 1 2 3 4 5 6 
#
# 1 0.010001 -0.002255 -0.004111 -0.003955 -0.002028 0.004010
# 2 -0.002255 0.022609 -0.006022 -0.002720 -0.001803 0.007834
# 3 -0.004111 -0.006022 0.014510 0.008423 0.008573 -0.002118
# 4 -0.003955 -0.002720 0.008423 0.033336 0.010494 -0.001644
# 5 -0.002028 -0.001803 0.008573 0.010494 0.043957 0.003320
# 6 0.004010 0.007834 -0.002118 -0.001644 0.003320 0.030917
#
#
# Mechanical properties :
#
#
# Convention : Reuss Voigt Hill
#
# Bulk Modulus (GPa) = 44.75271 61.05395 52.90333
# Shear Modulus (GPa) = 26.65884 33.92835 30.29359
#
# Velocity S-wave (km/s) = 3.50986 3.95960 3.74149
# Velocity P-wave (km/s) = 6.09146 7.00841 6.56596
#
# Compressibility (1/GPa) = 0.02234501
#
# Stress axis : x y z
#
# Youngs Moduli (GPa) = 99.98930 44.22993 68.91808
#
# Poissons Ratio (x) = 0.09972 0.28330
# Poissons Ratio (y) = 0.22543 0.41505
# Poissons Ratio (z) = 0.41102 0.26637
#
# Static dielectric constant tensor:
#      x y z
#    x 1.799430 0.028440 0.012690 
#    y 0.028440 1.810230 -0.060180 
#    z 0.012690 -0.060180 1.849440 
# 
# From -- ./inp_files/208666.got.cif
#   From: 2010.05.17/outbox.cif.g08.bks.cpg/sg2_105_cif.got.tgz:208666.got - 2010.06.03 11:33:40.
