data_PCOD9022152
_publ_section_title
;
Structure prediction by ZEFSAII (Michael W. Deem and Ramdas Pophale) SiO2 
 PCOD9022152
Probable space group: P -1
;
_chemical_formula_sum "Si O2"
_cell_formula_units_Z 16
_cell_length_a 23.850584
_cell_length_b 13.080499
_cell_length_c 15.788143
_cell_angle_alpha 26.230964
_cell_angle_beta 153.022834
_cell_angle_gamma 155.347322
_cell_volume 827.493095
_symmetry_space_group_name_H-M "P -1"
_symmetry_group_IT_number 2
_symmetry_cell_setting 'triclinic'
loop_
_space_group_symop_operation_xyz
x,y,z
-x,-y,-z
loop_
_atom_site_type_symbol
_atom_site_label
_atom_site_fract_x
_atom_site_fract_y
_atom_site_fract_z
Si Si1 0.918718 0.594742 0.259313
Si Si2 0.338426 0.283371 0.298655
Si Si3 0.291877 0.609751 0.133853
Si Si4 0.384089 0.940004 0.759437
Si Si5 0.098431 0.904006 0.121109
Si Si6 0.067932 0.195854 0.365190
Si Si7 0.656453 0.729585 0.402407
Si Si8 0.034635 0.663243 0.038554
O O1 0.742549 0.380171 0.185243
O O2 0.000000 0.500000 0.500000
O O3 0.985699 0.638350 0.223017
O O4 0.963389 0.899208 0.120617
O O5 0.285307 0.453631 0.154436
O O6 0.498608 0.519763 0.305248
O O7 0.355999 0.095062 0.530574
O O8 0.236258 0.087958 0.231557
O O9 0.327788 0.448357 0.370992
O O10 0.438889 0.920240 0.103048
O O11 0.134372 0.548024 0.997405
O O12 0.344997 0.032496 0.725453
O O13 0.123048 0.828193 0.118283
O O14 0.099162 0.493037 0.213938
O O15 0.207502 0.182873 0.538809
O O16 0.000000 0.000000 0.500000
O O17 0.975953 0.151886 0.186850
#
# Coordination Sequence:
#
# PCOD9022152 Si02
#       8
#     2   2   2   2   2   2   2   2
#     4  11  22  33  52  84 123 156 182 211 271 351
#     4   9  16  35  54  85 119 147 174 221 281 340
#     4   8  15  32  57  83 116 145 178 226 280 322
#     4   9  17  32  57  86 114 149 181 221 273 333
#     4  11  23  35  52  82 122 150 180 223 282 335
#     4  10  22  40  61  82 100 141 201 238 276 320
#     4   8  17  32  60  82 110 144 187 235 271 318
#     4  10  22  39  58  82 112 145 182 240 281 323
#
# _framework density 19.335508000000001
#
# number of rings (size 3 to 8) (size 9 to 14) (size 15 to 20)
#    0.000    2.500    1.250    3.000    5.250    0.000 
#    2.250    2.500    0.000    0.750    0.000    0.000 
#    0.000    0.000    0.000    0.000    0.000    0.000 
#
# Total GULP energy -89229.788875 kJ/mol
# GULP energy per Si atom -5576.861805 kJ/mol
# Density = 1.929150 g / cm^3
# Si number density = 19.335508 Si / 1000 Ang^3
#
#
#
# Elastic Constant Matrix: (Units=GPa)
#
#
# Indices 1 2 3 4 5 6 
#
# 1 97.4727 26.0619 17.8236 7.6988 -20.3465 1.0576
# 2 26.0619 97.0221 13.4209 12.7876 -18.1180 4.2140
# 3 17.8236 13.4209 60.8033 4.6572 -26.1214 5.3011
# 4 7.6988 12.7876 4.6572 28.8988 1.8277 -8.8441
# 5 -20.3465 -18.1180 -26.1214 1.8277 32.7103 3.5707
# 6 1.0576 4.2140 5.3011 -8.8441 3.5707 33.7623
#
#
#
# Elastic Compliance Matrix: (Units=1/GPa)
#
#
# Indices 1 2 3 4 5 6 
#
# 1 0.012514 -0.001329 0.000534 -0.004007 0.007938 -0.002199
# 2 -0.001329 0.013444 0.002750 -0.008276 0.009854 -0.005278
# 3 0.000534 0.002750 0.028927 -0.010954 0.026724 -0.010598
# 4 -0.004007 -0.008276 -0.010954 0.047759 -0.020408 0.017548
# 5 0.007938 0.009854 0.026724 -0.020408 0.065407 -0.017938
# 6 -0.002199 -0.005278 -0.010598 0.017548 -0.017938 0.038504
#
#
# Mechanical properties :
#
#
# Convention : Reuss Voigt Hill
#
# Bulk Modulus (GPa) = 17.00866 41.10119 29.05492
# Shear Modulus (GPa) = 22.49766 32.27371 27.38569
#
# Velocity S-wave (km/s) = 3.41477 4.08995 3.76751
# Velocity P-wave (km/s) = 4.93591 6.60352 5.82966
#
# Compressibility (1/GPa) = 0.05879359
#
# Stress axis : x y z
#
# Youngs Moduli (GPa) = 79.90749 74.38296 34.56997
#
# Poissons Ratio (x) = 0.09889 -0.01846
# Poissons Ratio (y) = 0.10624 -0.09506
# Poissons Ratio (z) = -0.04266 -0.20453
#
# Static dielectric constant tensor:
#      x y z
#    x 1.683900 0.025620 -0.026230 
#    y 0.025620 1.702780 0.009690 
#    z -0.026230 0.009690 1.744360 
# 
# From -- ./inp_files/524097.got.cif
#   From: 2010.05.17/outbox.cif.g08.bks.cpg/sg2_263_cif.got.tgz:524097.got - 2010.06.03 11:33:40.
