data_PCOD9022257
_publ_section_title
;
Structure prediction by ZEFSAII (Michael W. Deem and Ramdas Pophale) SiO2 
 PCOD9022257
Probable space group: P -1
;
_chemical_formula_sum "Si O2"
_cell_formula_units_Z 14
_cell_length_a 6.435337
_cell_length_b 9.009609
_cell_length_c 13.318876
_cell_angle_alpha 91.778260
_cell_angle_beta 121.291356
_cell_angle_gamma 108.639221
_cell_volume 606.490079
_symmetry_space_group_name_H-M "P -1"
_symmetry_group_IT_number 2
_symmetry_cell_setting 'triclinic'
loop_
_space_group_symop_operation_xyz
x,y,z
-x,-y,-z
loop_
_atom_site_type_symbol
_atom_site_label
_atom_site_fract_x
_atom_site_fract_y
_atom_site_fract_z
Si Si1 0.084901 0.861461 0.651734
Si Si2 0.808935 0.312068 0.952813
Si Si3 0.856199 0.739595 0.796517
Si Si4 0.415785 0.393300 0.742374
Si Si5 0.569332 0.826963 0.447970
Si Si6 0.109430 0.658506 0.464654
Si Si7 0.664156 0.033340 0.767216
O O1 0.128518 0.785981 0.557835
O O2 0.947455 0.738708 0.704526
O O3 0.861740 0.927235 0.566205
O O4 0.383658 0.975085 0.756481
O O5 0.844427 0.199984 0.870174
O O6 0.528852 0.325198 0.861704
O O7 0.000000 0.500000 0.000000
O O8 0.892182 0.245884 0.072215
O O9 0.610657 0.577257 0.767114
O O10 0.778428 0.894687 0.793052
O O11 0.414997 0.285385 0.642600
O O12 0.113027 0.368014 0.675974
O O13 0.390904 0.709215 0.485566
O O14 0.414004 0.927083 0.362379
O O15 0.000000 0.500000 0.500000
#
# Coordination Sequence:
#
# PCOD9022257 Si02
#       7
#     2   2   2   2   2   2   2
#     4  11  23  36  58  91 126 159 196 240 300 359
#     4   9  21  43  65  84 115 158 202 250 300 351
#     4  11  22  39  62  89 123 158 199 251 296 345
#     4   9  20  39  62  89 121 159 201 245 295 350
#     4  10  22  39  60  88 126 162 195 243 297 353
#     4  11  21  37  63  93 123 159 202 242 292 358
#     4  11  23  39  62  90 119 157 201 245 299 359
#
# _framework density 23.083644
#
# number of rings (size 3 to 8) (size 9 to 14) (size 15 to 20)
#    0.000    1.714    0.000    4.286    0.000    8.571 
#    0.000    2.857    0.000   15.429    0.000    0.000 
#    0.000    0.000    0.000    0.000    0.000    0.000 
#
# Total GULP energy -78156.849015 kJ/mol
# GULP energy per Si atom -5582.632073 kJ/mol
# Density = 2.303110 g / cm^3
# Si number density = 23.083644 Si / 1000 Ang^3
#
#
#
# Elastic Constant Matrix: (Units=GPa)
#
#
# Indices 1 2 3 4 5 6 
#
# 1 60.9396 16.5069 20.9725 -2.6631 15.3178 13.9380
# 2 16.5069 99.5374 20.2486 -6.4564 8.6126 -8.2127
# 3 20.9725 20.2486 110.8683 -21.2212 20.7702 -5.1881
# 4 -2.6631 -6.4564 -21.2212 44.5531 -3.6632 -1.2906
# 5 15.3178 8.6126 20.7702 -3.6632 22.3877 -4.6947
# 6 13.9380 -8.2127 -5.1881 -1.2906 -4.6947 35.6547
#
#
#
# Elastic Compliance Matrix: (Units=1/GPa)
#
#
# Indices 1 2 3 4 5 6 
#
# 1 0.025335 -0.003535 -0.001847 -0.001689 -0.017332 -0.013330
# 2 -0.003535 0.011222 -0.001001 0.001051 0.000012 0.003861
# 3 -0.001847 -0.001001 0.012146 0.004865 -0.008549 0.001309
# 4 -0.001689 0.001051 0.004865 0.024962 0.000873 0.002629
# 5 -0.017332 0.000012 -0.008549 0.000873 0.067631 0.014471
# 6 -0.013330 0.003861 0.001309 0.002629 0.014471 0.036338
#
#
# Mechanical properties :
#
#
# Convention : Reuss Voigt Hill
#
# Bulk Modulus (GPa) = 27.82734 42.97790 35.40262
# Shear Modulus (GPa) = 24.70618 34.76024 29.73321
#
# Velocity S-wave (km/s) = 3.27508 3.88472 3.59285
# Velocity P-wave (km/s) = 5.13641 6.22737 5.70802
#
# Compressibility (1/GPa) = 0.03593588
#
# Stress axis : x y z
#
# Youngs Moduli (GPa) = 39.47171 89.10981 82.33191
#
# Poissons Ratio (x) = 0.31504 0.15205
# Poissons Ratio (y) = 0.13955 0.08244
# Poissons Ratio (z) = 0.07289 0.08922
#
# Static dielectric constant tensor:
#      x y z
#    x 1.858200 -0.017530 0.045600 
#    y -0.017530 1.956150 0.026660 
#    z 0.045600 0.026660 1.927400 
# 
# From -- ./inp_files/364895.got.cif
#   From: 2010.05.17/outbox.cif.g08.bks.cpg/sg2_183_cif.got.tgz:364895.got - 2010.06.03 11:33:40.
