data_PCOD9022661
_publ_section_title
;
Structure prediction by ZEFSAII (Michael W. Deem and Ramdas Pophale) SiO2 
 PCOD9022661
Probable space group: P -1
;
_chemical_formula_sum "Si O2"
_cell_formula_units_Z 14
_cell_length_a 9.262370
_cell_length_b 10.920421
_cell_length_c 14.215662
_cell_angle_alpha 149.539706
_cell_angle_beta 57.665776
_cell_angle_gamma 123.783723
_cell_volume 600.557628
_symmetry_space_group_name_H-M "P -1"
_symmetry_group_IT_number 2
_symmetry_cell_setting 'triclinic'
loop_
_space_group_symop_operation_xyz
x,y,z
-x,-y,-z
loop_
_atom_site_type_symbol
_atom_site_label
_atom_site_fract_x
_atom_site_fract_y
_atom_site_fract_z
Si Si1 0.738729 0.867222 0.525101
Si Si2 0.441407 0.238245 0.294756
Si Si3 0.601502 0.142975 0.472137
Si Si4 0.927591 0.575113 0.670466
Si Si5 0.323534 0.304700 0.959786
Si Si6 0.031404 0.606025 0.269949
Si Si7 0.695784 0.882657 0.947389
O O1 0.839467 0.122132 0.608773
O O2 0.705292 0.905689 0.674062
O O3 0.546735 0.791461 0.498627
O O4 0.852090 0.662037 0.328692
O O5 0.500000 0.500000 0.500000
O O6 0.367127 0.227350 0.207052
O O7 0.610898 0.118761 0.144535
O O8 0.740469 0.380897 0.613874
O O9 0.500000 0.000000 0.500000
O O10 0.691452 0.950294 0.259187
O O11 0.024692 0.500330 0.676963
O O12 0.897447 0.852816 0.857715
O O13 0.000000 0.500000 0.500000
O O14 0.154892 0.420685 0.074203
O O15 0.354338 0.246254 0.019223
O O16 0.500000 0.500000 0.000000
#
# Coordination Sequence:
#
# PCOD9022661 Si02
#       7
#     2   2   2   2   2   2   2
#     4  11  21  40  67  95 131 177 226 283 345 407
#     4  11  22  39  63  97 132 176 229 284 340 411
#     4  12  22  40  71  99 130 181 235 279 341 421
#     4  11  23  43  66  99 138 182 228 288 346 412
#     4  11  20  41  65  99 133 179 229 284 343 420
#     4  10  22  40  65  93 136 174 219 285 351 400
#     4  10  22  39  63  93 133 179 224 277 348 404
#
# _framework density 23.311668000000001
#
# number of rings (size 3 to 8) (size 9 to 14) (size 15 to 20)
#    0.000    1.143    4.286    2.571    0.000    0.000 
#    2.571    2.143    3.143    0.000    0.000    0.000 
#    0.000    0.000    0.000    0.000    0.000    0.000 
#
# Total GULP energy -78073.678235 kJ/mol
# GULP energy per Si atom -5576.691302 kJ/mol
# Density = 2.325861 g / cm^3
# Si number density = 23.311668 Si / 1000 Ang^3
#
#
#
# Elastic Constant Matrix: (Units=GPa)
#
#
# Indices 1 2 3 4 5 6 
#
# 1 108.8523 11.9985 67.4688 11.1389 -37.3859 -24.2007
# 2 11.9985 74.3176 26.3780 -20.6877 -4.9337 -20.2367
# 3 67.4688 26.3780 136.4753 -5.5365 -15.4783 -17.7867
# 4 11.1389 -20.6877 -5.5365 35.8427 -6.1022 3.6847
# 5 -37.3859 -4.9337 -15.4783 -6.1022 42.6405 1.7570
# 6 -24.2007 -20.2367 -17.7867 3.6847 1.7570 34.9201
#
#
#
# Elastic Compliance Matrix: (Units=1/GPa)
#
#
# Indices 1 2 3 4 5 6 
#
# 1 0.023370 0.002271 -0.008712 -0.005860 0.016222 0.012877
# 2 0.002271 0.020008 -0.002722 0.010079 0.004328 0.010501
# 3 -0.008712 -0.002722 0.011660 0.002562 -0.003281 -0.001781
# 4 -0.005860 0.010079 0.002562 0.036398 0.002203 -0.000866
# 5 0.016222 0.004328 -0.003281 0.002203 0.036888 0.009991
# 6 0.012877 0.010501 -0.001781 -0.000866 0.009991 0.042328
#
#
# Mechanical properties :
#
#
# Convention : Reuss Voigt Hill
#
# Bulk Modulus (GPa) = 27.23819 59.03730 43.13775
# Shear Modulus (GPa) = 24.84907 36.93398 30.89153
#
# Velocity S-wave (km/s) = 3.26843 3.98472 3.64421
# Velocity P-wave (km/s) = 5.09443 6.82281 6.02097
#
# Compressibility (1/GPa) = 0.03671316
#
# Stress axis : x y z
#
# Youngs Moduli (GPa) = 42.78934 49.98105 85.76266
#
# Poissons Ratio (x) = -0.11352 0.74718
# Poissons Ratio (y) = -0.09719 0.23341
# Poissons Ratio (z) = 0.37279 0.13603
#
# Static dielectric constant tensor:
#      x y z
#    x 2.001610 -0.088450 -0.061560 
#    y -0.088450 1.990070 0.024160 
#    z -0.061560 0.024160 1.931440 
# 
# From -- ./inp_files/499552.got.cif
#   From: 2010.05.17/outbox.cif.g08.bks.cpg/sg2_250_cif.got.tgz:499552.got - 2010.06.03 11:33:40.
