data_PCOD9022780
_publ_section_title
;
Structure prediction by ZEFSAII (Michael W. Deem and Ramdas Pophale) SiO2 
 PCOD9022780
Probable space group: P -1
;
_chemical_formula_sum "Si O2"
_cell_formula_units_Z 16
_cell_length_a 16.479271
_cell_length_b 13.547291
_cell_length_c 20.354445
_cell_angle_alpha 154.192096
_cell_angle_beta 153.817359
_cell_angle_gamma 43.246385
_cell_volume 794.692482
_symmetry_space_group_name_H-M "P -1"
_symmetry_group_IT_number 2
_symmetry_cell_setting 'triclinic'
loop_
_space_group_symop_operation_xyz
x,y,z
-x,-y,-z
loop_
_atom_site_type_symbol
_atom_site_label
_atom_site_fract_x
_atom_site_fract_y
_atom_site_fract_z
Si Si1 0.390295 0.392082 0.004971
Si Si2 0.727756 0.051319 0.438395
Si Si3 0.947890 0.868579 0.077752
Si Si4 0.402290 0.555567 0.366998
Si Si5 0.832319 0.582731 0.398735
Si Si6 0.155530 0.484748 0.012482
Si Si7 0.625942 0.296539 0.946157
Si Si8 0.182560 0.088328 0.135665
O O1 0.631953 0.484719 0.240078
O O2 0.287048 0.444064 0.025183
O O3 0.358388 0.552080 0.017536
O O4 0.298083 0.105553 0.741151
O O5 0.619037 0.242439 0.476957
O O6 0.959895 0.224837 0.725519
O O7 0.602343 0.843376 0.276323
O O8 0.730432 0.710633 0.857809
O O9 0.910309 0.949114 0.026619
O O10 0.073632 0.120355 0.358217
O O11 0.066848 0.689423 0.054588
O O12 0.636501 0.634349 0.568243
O O13 0.285774 0.565051 0.221409
O O14 0.756411 0.459192 0.198814
O O15 0.000000 0.500000 0.500000
O O16 0.701951 0.081701 0.863229
O O17 0.000000 0.000000 0.000000
#
# Coordination Sequence:
#
# PCOD9022780 Si02
#       8
#     2   2   2   2   2   2   2   2
#     4  11  24  38  66  92 129 159 204 261 310 363
#     4   9  19  40  60  86 121 163 199 249 304 369
#     4  11  23  41  65  89 128 165 206 254 311 374
#     4  10  24  39  66  91 121 165 216 249 304 375
#     4  11  23  40  65  94 120 166 213 251 305 373
#     4  11  24  39  63  99 123 157 208 264 312 352
#     4  10  22  39  64  91 121 166 214 242 307 381
#     4  11  23  41  62  90 129 163 202 263 313 362
#
# _framework density 20.133572999999998
#
# number of rings (size 3 to 8) (size 9 to 14) (size 15 to 20)
#    0.000    1.500    1.250    4.500   10.500    0.500 
#    0.000    0.000    0.000    1.500    0.000    0.000 
#    0.000    0.000    0.000    0.000    0.000    0.000 
#
# Total GULP energy -89360.328405 kJ/mol
# GULP energy per Si atom -5585.020525 kJ/mol
# Density = 2.008775 g / cm^3
# Si number density = 20.133573 Si / 1000 Ang^3
#
#
#
# Elastic Constant Matrix: (Units=GPa)
#
#
# Indices 1 2 3 4 5 6 
#
# 1 123.4795 37.3288 50.3216 -5.7581 18.6222 -9.0105
# 2 37.3288 75.7853 32.3836 -14.7296 -3.6517 1.0523
# 3 50.3216 32.3836 136.2887 5.2613 6.9326 -7.7280
# 4 -5.7581 -14.7296 5.2613 29.8018 -10.6678 -1.8013
# 5 18.6222 -3.6517 6.9326 -10.6678 22.0597 -2.4008
# 6 -9.0105 1.0523 -7.7280 -1.8013 -2.4008 27.0443
#
#
#
# Elastic Compliance Matrix: (Units=1/GPa)
#
#
# Indices 1 2 3 4 5 6 
#
# 1 0.013269 -0.007521 -0.002019 -0.005779 -0.014337 0.002479
# 2 -0.007521 0.023365 -0.004596 0.018029 0.020191 -0.001735
# 3 -0.002019 -0.004596 0.009739 -0.006040 -0.004880 0.001454
# 4 -0.005779 0.018029 -0.006040 0.055840 0.037054 0.002656
# 5 -0.014337 0.020191 -0.004880 0.037054 0.080518 0.002659
# 6 0.002479 -0.001735 0.001454 0.002656 0.002659 0.038698
#
#
# Mechanical properties :
#
#
# Convention : Reuss Voigt Hill
#
# Bulk Modulus (GPa) = 55.25083 63.95793 59.60438
# Shear Modulus (GPa) = 19.55157 30.14914 24.85035
#
# Velocity S-wave (km/s) = 3.11962 3.87390 3.51704
# Velocity P-wave (km/s) = 6.36221 7.20036 6.79422
#
# Compressibility (1/GPa) = 0.01809927
#
# Stress axis : x y z
#
# Youngs Moduli (GPa) = 75.36595 42.79912 102.68262
#
# Poissons Ratio (x) = 0.32191 0.20732
# Poissons Ratio (y) = 0.56685 0.47194
# Poissons Ratio (z) = 0.15217 0.19671
#
# Static dielectric constant tensor:
#      x y z
#    x 1.712020 -0.022970 0.017560 
#    y -0.022970 1.718100 0.004680 
#    z 0.017560 0.004680 1.744730 
# 
# From -- ./inp_files/331699.got.cif
#   From: 2010.05.17/outbox.cif.g08.bks.cpg/sg2_166_cif.got.tgz:331699.got - 2010.06.03 11:33:40.
