data_PCOD9022779
_publ_section_title
;
Structure prediction by ZEFSAII (Michael W. Deem and Ramdas Pophale) SiO2 
 PCOD9022779
Probable space group: P -1
;
_chemical_formula_sum "Si O2"
_cell_formula_units_Z 14
_cell_length_a 6.485868
_cell_length_b 11.731668
_cell_length_c 10.829639
_cell_angle_alpha 61.315952
_cell_angle_beta 121.219972
_cell_angle_gamma 121.337455
_cell_volume 576.379952
_symmetry_space_group_name_H-M "P -1"
_symmetry_group_IT_number 2
_symmetry_cell_setting 'triclinic'
loop_
_space_group_symop_operation_xyz
x,y,z
-x,-y,-z
loop_
_atom_site_type_symbol
_atom_site_label
_atom_site_fract_x
_atom_site_fract_y
_atom_site_fract_z
Si Si1 0.450181 0.461852 0.841084
Si Si2 0.709571 0.896568 0.443285
Si Si3 0.465316 0.361767 0.636846
Si Si4 0.722826 0.271164 0.089670
Si Si5 0.946118 0.269588 0.913279
Si Si6 0.688501 0.982243 0.858524
Si Si7 0.483344 0.219354 0.292494
O O1 0.356744 0.390379 0.717533
O O2 0.516333 0.625684 0.770268
O O3 0.220260 0.380326 0.903661
O O4 0.687717 0.415991 0.976925
O O5 0.711673 0.766114 0.432417
O O6 0.547310 0.843740 0.547441
O O7 0.546026 0.967467 0.277694
O O8 0.000000 0.000000 0.500000
O O9 0.500000 0.500000 0.500000
O O10 0.726555 0.329002 0.765225
O O11 0.453144 0.147962 0.028217
O O12 0.721353 0.250898 0.248369
O O13 0.921306 0.255106 0.061448
O O14 0.893607 0.119435 0.909909
O O15 0.730171 0.903494 0.789463
#
# Coordination Sequence:
#
# PCOD9022779 Si02
#       7
#     2   2   2   2   2   2   2
#     4  11  22  40  64  92 117 164 201 240 304 359
#     4  11  23  40  63  88 120 159 203 248 302 358
#     4  10  22  42  59  88 125 154 198 254 292 351
#     4   9  22  40  64  83 132 153 198 254 291 352
#     4  10  22  39  64  91 119 159 205 241 301 359
#     4   9  22  41  58  88 122 156 197 252 296 347
#     4  10  22  40  60  86 126 156 197 252 295 353
#
# _framework density 24.289532999999999
#
# number of rings (size 3 to 8) (size 9 to 14) (size 15 to 20)
#    0.857    1.143    1.429    1.286    2.000    4.000 
#    0.000    0.000    0.000    0.000    0.000    0.000 
#    0.000    0.000    0.000    0.000    0.000    0.000 
#
# Total GULP energy -78114.913811 kJ/mol
# GULP energy per Si atom -5579.636701 kJ/mol
# Density = 2.423425 g / cm^3
# Si number density = 24.289533 Si / 1000 Ang^3
#
#
#
# Elastic Constant Matrix: (Units=GPa)
#
#
# Indices 1 2 3 4 5 6 
#
# 1 90.1672 45.9727 24.1684 9.1501 -19.3831 -15.5533
# 2 45.9727 183.5269 27.6496 -4.9860 5.6122 -42.3895
# 3 24.1684 27.6496 69.1696 0.9177 -24.7046 -8.4561
# 4 9.1501 -4.9860 0.9177 42.6334 -7.3583 1.7339
# 5 -19.3831 5.6122 -24.7046 -7.3583 45.0161 8.7029
# 6 -15.5533 -42.3895 -8.4561 1.7339 8.7029 44.3282
#
#
#
# Elastic Compliance Matrix: (Units=1/GPa)
#
#
# Indices 1 2 3 4 5 6 
#
# 1 0.014903 -0.003585 -0.001761 -0.002676 0.005360 0.000517
# 2 -0.003585 0.008841 -0.003474 0.000539 -0.005949 0.007680
# 3 -0.001761 -0.003474 0.020262 0.001622 0.011524 -0.002401
# 4 -0.002676 0.000539 0.001622 0.024842 0.004097 -0.001890
# 5 0.005360 -0.005949 0.011524 0.004097 0.033886 -0.008423
# 6 0.000517 0.007680 -0.002401 -0.001890 -0.008423 0.031355
#
#
# Mechanical properties :
#
#
# Convention : Reuss Voigt Hill
#
# Bulk Modulus (GPa) = 37.92856 59.82723 48.87789
# Shear Modulus (GPa) = 31.14884 42.73372 36.94128
#
# Velocity S-wave (km/s) = 3.58494 4.19901 3.90407
# Velocity P-wave (km/s) = 5.72580 6.94213 6.36310
#
# Compressibility (1/GPa) = 0.02636536
#
# Stress axis : x y z
#
# Youngs Moduli (GPa) = 67.09842 113.11162 49.35273
#
# Poissons Ratio (x) = 0.40551 0.08692
# Poissons Ratio (y) = 0.24055 0.17147
# Poissons Ratio (z) = 0.11817 0.39300
#
# Static dielectric constant tensor:
#      x y z
#    x 1.982150 -0.024040 0.023010 
#    y -0.024040 1.961830 0.041390 
#    z 0.023010 0.041390 1.968350 
# 
# From -- ./inp_files/281585.got.cif
#   From: 2010.05.17/outbox.cif.g08.bks.cpg/sg2_141_cif.got.tgz:281585.got - 2010.06.03 11:33:40.
