data_PCOD9022608
_publ_section_title
;
Structure prediction by ZEFSAII (Michael W. Deem and Ramdas Pophale) SiO2 
 PCOD9022608
Probable space group: P -1
;
_chemical_formula_sum "Si O2"
_cell_formula_units_Z 14
_cell_length_a 5.521825
_cell_length_b 11.032108
_cell_length_c 19.493828
_cell_angle_alpha 146.994497
_cell_angle_beta 110.733901
_cell_angle_gamma 58.324724
_cell_volume 540.872664
_symmetry_space_group_name_H-M "P -1"
_symmetry_group_IT_number 2
_symmetry_cell_setting 'triclinic'
loop_
_space_group_symop_operation_xyz
x,y,z
-x,-y,-z
loop_
_atom_site_type_symbol
_atom_site_label
_atom_site_fract_x
_atom_site_fract_y
_atom_site_fract_z
Si Si1 0.823251 0.200814 0.967230
Si Si2 0.155871 0.487651 0.082018
Si Si3 0.239563 0.229316 0.672350
Si Si4 0.685007 0.283043 0.587261
Si Si5 0.181150 0.601623 0.485389
Si Si6 0.232995 0.928561 0.258529
Si Si7 0.121939 0.647270 0.746845
O O1 0.504542 0.331925 0.031607
O O2 0.780583 0.137446 0.853373
O O3 0.015807 0.353868 0.054587
O O4 0.004874 0.929962 0.889747
O O5 0.107983 0.771553 0.216116
O O6 0.000000 0.500000 0.000000
O O7 0.436524 0.179437 0.734984
O O8 0.229276 0.448924 0.726035
O O9 0.901868 0.294908 0.670736
O O10 0.376965 0.951558 0.521322
O O11 0.835044 0.237074 0.506699
O O12 0.408890 0.546919 0.682082
O O13 0.500000 0.500000 0.500000
O O14 0.107276 0.395925 0.344123
O O15 0.944208 0.782815 0.601349
#
# Coordination Sequence:
#
# PCOD9022608 Si02
#       7
#     2   2   2   2   2   2   2
#     4  11  26  45  73  96 137 176 226 286 343 386
#     4  10  24  47  69  99 130 180 229 282 336 391
#     4  10  23  39  62  97 128 181 220 263 338 404
#     4  10  22  39  63  90 144 177 213 264 339 415
#     4  11  25  37  64 106 134 168 218 279 343 398
#     4  11  23  43  69  97 131 170 234 274 323 412
#     4  11  24  43  62  95 143 170 214 277 346 400
#
# _framework density 25.884093
#
# number of rings (size 3 to 8) (size 9 to 14) (size 15 to 20)
#    0.000    1.429    1.429    3.000   14.000    2.286 
#    0.000    1.429    0.000    0.000    0.000    0.000 
#    0.000    0.000    0.000    0.000    0.000    0.000 
#
# Total GULP energy -78297.027634 kJ/mol
# GULP energy per Si atom -5592.644831 kJ/mol
# Density = 2.582518 g / cm^3
# Si number density = 25.884093 Si / 1000 Ang^3
#
#
#
# Elastic Constant Matrix: (Units=GPa)
#
#
# Indices 1 2 3 4 5 6 
#
# 1 110.5105 23.0200 39.4050 6.9213 -2.1734 -5.6250
# 2 23.0200 106.2821 35.4127 -3.5448 5.0420 -8.4069
# 3 39.4050 35.4127 111.5140 18.8494 14.9965 -3.2563
# 4 6.9213 -3.5448 18.8494 58.9305 -1.3218 2.3267
# 5 -2.1734 5.0420 14.9965 -1.3218 33.3070 3.5192
# 6 -5.6250 -8.4069 -3.2563 2.3267 3.5192 52.2023
#
#
#
# Elastic Compliance Matrix: (Units=1/GPa)
#
#
# Indices 1 2 3 4 5 6 
#
# 1 0.010698 -0.001156 -0.003712 -0.000106 0.002480 0.000573
# 2 -0.001156 0.010936 -0.003281 0.001782 -0.000328 0.001375
# 3 -0.003712 -0.003281 0.012775 -0.003993 -0.005702 0.000431
# 4 -0.000106 0.001782 -0.003993 0.018456 0.002354 -0.000955
# 5 0.002480 -0.000328 -0.005702 0.002354 0.033158 -0.002482
# 6 0.000573 0.001375 0.000431 -0.000955 -0.002482 0.019676
#
#
# Mechanical properties :
#
#
# Convention : Reuss Voigt Hill
#
# Bulk Modulus (GPa) = 55.21583 58.22023 56.71803
# Shear Modulus (GPa) = 39.05158 44.25256 41.65207
#
# Velocity S-wave (km/s) = 3.88843 4.13927 4.01581
# Velocity P-wave (km/s) = 6.44500 6.73693 6.59258
#
# Compressibility (1/GPa) = 0.01811075
#
# Stress axis : x y z
#
# Youngs Moduli (GPa) = 93.47658 91.43800 78.27543
#
# Poissons Ratio (x) = 0.10572 0.29056
# Poissons Ratio (y) = 0.10807 0.25685
# Poissons Ratio (z) = 0.34698 0.30004
#
# Static dielectric constant tensor:
#      x y z
#    x 2.093600 0.061930 0.004010 
#    y 0.061930 2.025710 -0.016740 
#    z 0.004010 -0.016740 2.075680 
# 
# From -- ./inp_files/583384.got.cif
#   From: 2010.05.17/outbox.cif.g08.bks.cpg/sg2_292_cif.got.tgz:583384.got - 2010.06.03 11:33:40.
