data_PCOD9022750
_publ_section_title
;
Structure prediction by ZEFSAII (Michael W. Deem and Ramdas Pophale) SiO2 
 PCOD9022750
Probable space group: P -1
;
_chemical_formula_sum "Si O2"
_cell_formula_units_Z 15
_cell_length_a 11.831842
_cell_length_b 5.329374
_cell_length_c 12.704770
_cell_angle_alpha 92.211554
_cell_angle_beta 56.152341
_cell_angle_gamma 109.630301
_cell_volume 615.273803
_symmetry_space_group_name_H-M "P -1"
_symmetry_group_IT_number 2
_symmetry_cell_setting 'triclinic'
loop_
_space_group_symop_operation_xyz
x,y,z
-x,-y,-z
loop_
_atom_site_type_symbol
_atom_site_label
_atom_site_fract_x
_atom_site_fract_y
_atom_site_fract_z
Si Si1 0.835348 0.362593 0.133287
Si Si2 0.758492 0.475816 0.392237
Si Si3 0.399216 0.982454 0.388906
Si Si4 0.500000 0.500000 0.500000
Si Si5 0.796883 0.726185 0.817069
Si Si6 0.827918 0.850731 0.048603
Si Si7 0.621063 0.094237 0.845439
Si Si8 0.916236 0.981819 0.436384
O O1 0.829119 0.365067 0.262251
O O2 0.762482 0.559795 0.129627
O O3 0.760624 0.062490 0.124933
O O4 0.000000 0.500000 0.000000
O O5 0.676209 0.658609 0.388028
O O6 0.874322 0.675666 0.412617
O O7 0.614123 0.273690 0.530021
O O8 0.489003 0.262495 0.405435
O O9 0.228695 0.953526 0.475698
O O10 0.433471 0.945421 0.248804
O O11 0.710665 0.413415 0.826406
O O12 0.720972 0.914083 0.804434
O O13 0.805768 0.797799 0.936369
O O14 0.965160 0.814183 0.697745
O O15 0.000000 0.000000 0.000000
O O16 0.500000 0.000000 0.000000
O O17 0.000000 0.000000 0.500000
#
# Coordination Sequence:
#
# PCOD9022750 Si02
#       8
#     2   2   2   1   2   2   2   2
#     4  10  22  39  64 101 145 187 233 298 367 431
#     4  11  25  44  73 107 150 195 248 313 378 456
#     4  11  26  47  77 106 151 196 259 309 385 446
#     4  10  26  48  70 104 144 200 258 304 374 436
#     4  12  26  47  77 110 149 199 249 309 388 440
#     4  10  22  40  64 104 147 188 232 292 365 444
#     4  12  29  53  74 108 148 205 257 310 367 461
#     4  11  23  42  73 112 148 186 243 313 380 454
#
# _framework density 24.379389
#
# number of rings (size 3 to 8) (size 9 to 14) (size 15 to 20)
#    0.000    1.067    1.333    4.000   11.200    3.200 
#    2.400    0.000    0.000    0.000    0.000    0.000 
#    0.000    0.000    0.000    0.000    0.000    0.000 
#
# Total GULP energy -83631.416617 kJ/mol
# GULP energy per Si atom -5575.427774 kJ/mol
# Density = 2.432390 g / cm^3
# Si number density = 24.379389 Si / 1000 Ang^3
#
#
#
# Elastic Constant Matrix: (Units=GPa)
#
#
# Indices 1 2 3 4 5 6 
#
# 1 73.5526 37.2105 35.0469 7.5734 8.2836 23.1278
# 2 37.2105 205.3784 60.1547 31.1865 20.5661 10.4323
# 3 35.0469 60.1547 166.9849 30.1922 24.3825 20.2146
# 4 7.5734 31.1865 30.1922 34.2311 12.6958 12.2572
# 5 8.2836 20.5661 24.3825 12.6958 44.0300 9.0474
# 6 23.1278 10.4323 20.2146 12.2572 9.0474 43.5530
#
#
#
# Elastic Compliance Matrix: (Units=1/GPa)
#
#
# Indices 1 2 3 4 5 6 
#
# 1 0.018686 -0.002772 -0.002510 0.003920 -0.000075 -0.009182
# 2 -0.002772 0.006359 -0.000956 -0.004661 -0.000967 0.001905
# 3 -0.002510 -0.000956 0.008078 -0.004776 -0.002094 -0.000409
# 4 0.003920 -0.004661 -0.004776 0.042486 -0.006232 -0.009411
# 5 -0.000075 -0.000967 -0.002094 -0.006232 0.026656 -0.002540
# 6 -0.009182 0.001905 -0.000409 -0.009411 -0.002540 0.030746
#
#
# Mechanical properties :
#
#
# Convention : Reuss Voigt Hill
#
# Bulk Modulus (GPa) = 48.42935 78.97113 63.70024
# Shear Modulus (GPa) = 32.81525 45.26305 39.03915
#
# Velocity S-wave (km/s) = 3.67280 4.31352 4.00599
# Velocity P-wave (km/s) = 6.15581 7.56779 6.89802
#
# Compressibility (1/GPa) = 0.02064864
#
# Stress axis : x y z
#
# Youngs Moduli (GPa) = 53.51715 157.25794 123.78709
#
# Poissons Ratio (x) = 0.43589 0.31066
# Poissons Ratio (y) = 0.14834 0.11831
# Poissons Ratio (z) = 0.13431 0.15030
#
# Static dielectric constant tensor:
#      x y z
#    x 1.553620 0.170950 -0.191060 
#    y 0.170950 1.790550 0.145180 
#    z -0.191060 0.145180 1.985730 
# 
# From -- ./inp_files/69555.got.cif
#   From: 2010.05.17/outbox.cif.g08.bks.cpg/sg2_35_cif.got.tgz:69555.got - 2010.06.03 11:33:40.
