data_PCOD9022318
_publ_section_title
;
Structure prediction by ZEFSAII (Michael W. Deem and Ramdas Pophale) SiO2 
 PCOD9022318
Probable space group: P -1
;
_chemical_formula_sum "Si O2"
_cell_formula_units_Z 16
_cell_length_a 10.053412
_cell_length_b 7.684072
_cell_length_c 13.667506
_cell_angle_alpha 56.605060
_cell_angle_beta 63.903337
_cell_angle_gamma 46.350228
_cell_volume 634.685260
_symmetry_space_group_name_H-M "P -1"
_symmetry_group_IT_number 2
_symmetry_cell_setting 'triclinic'
loop_
_space_group_symop_operation_xyz
x,y,z
-x,-y,-z
loop_
_atom_site_type_symbol
_atom_site_label
_atom_site_fract_x
_atom_site_fract_y
_atom_site_fract_z
Si Si1 0.979250 0.584393 0.593220
Si Si2 0.347139 0.608028 0.798031
Si Si3 0.502245 0.238436 0.459540
Si Si4 0.654156 0.986008 0.685406
Si Si5 0.961380 0.862261 0.203100
Si Si6 0.132402 0.809887 0.376195
Si Si7 0.669940 0.295544 0.937527
Si Si8 0.620800 0.879907 0.096591
O O1 0.099961 0.327080 0.700675
O O2 0.000000 0.500000 0.500000
O O3 0.010274 0.803832 0.502556
O O4 0.777567 0.725704 0.661909
O O5 0.357704 0.747267 0.656803
O O6 0.554094 0.414122 0.835884
O O7 0.285523 0.425921 0.845994
O O8 0.210205 0.838439 0.846385
O O9 0.547323 0.205684 0.569557
O O10 0.309654 0.511188 0.419674
O O11 0.500000 0.000000 0.500000
O O12 0.795361 0.018220 0.685637
O O13 0.514887 0.006508 0.801338
O O14 0.040249 0.865528 0.283162
O O15 0.139417 0.736822 0.115160
O O16 0.500000 0.500000 0.000000
O O17 0.730592 0.003499 0.024010
O O18 0.500000 0.000000 0.000000
#
# Coordination Sequence:
#
# PCOD9022318 Si02
#       8
#     2   2   2   2   2   2   2   2
#     4  10  22  39  60  98 140 179 224 278 348 422
#     4  11  24  44  68  99 138 178 229 287 349 421
#     4  12  23  39  68 102 141 181 224 283 359 425
#     4  12  23  41  69  98 141 184 233 286 351 421
#     4  11  22  44  68  96 139 181 227 292 350 407
#     4  11  21  40  62  99 140 179 223 280 351 423
#     4  11  24  44  71  96 134 186 239 287 341 403
#     4  10  23  45  68  97 134 181 234 285 339 405
#
# _framework density 25.209344999999999
#
# number of rings (size 3 to 8) (size 9 to 14) (size 15 to 20)
#    0.000    1.000    2.500    6.000    1.750    1.000 
#    0.000    0.000    0.000    0.000    0.000    0.000 
#    0.000    0.000    0.000    0.000    0.000    0.000 
#
# Total GULP energy -89458.949641 kJ/mol
# GULP energy per Si atom -5591.184353 kJ/mol
# Density = 2.515197 g / cm^3
# Si number density = 25.209345 Si / 1000 Ang^3
#
#
#
# Elastic Constant Matrix: (Units=GPa)
#
#
# Indices 1 2 3 4 5 6 
#
# 1 49.7557 -7.6287 15.3317 -6.1909 1.4431 6.5949
# 2 -7.6287 97.6217 24.8827 -2.2364 9.5364 -10.3560
# 3 15.3317 24.8827 148.0396 1.2038 -8.0181 3.9220
# 4 -6.1909 -2.2364 1.2038 41.8495 10.2728 -9.1618
# 5 1.4431 9.5364 -8.0181 10.2728 30.1487 -3.5702
# 6 6.5949 -10.3560 3.9220 -9.1618 -3.5702 39.9167
#
#
#
# Elastic Compliance Matrix: (Units=1/GPa)
#
#
# Indices 1 2 3 4 5 6 
#
# 1 0.022387 0.002823 -0.003011 0.004177 -0.004438 -0.002109
# 2 0.002823 0.012096 -0.002727 0.003162 -0.005387 0.003184
# 3 -0.003011 -0.002727 0.007765 -0.001939 0.003603 -0.001096
# 4 0.004177 0.003162 -0.001939 0.028686 -0.010787 0.005940
# 5 -0.004438 -0.005387 0.003603 -0.010787 0.039726 0.000059
# 6 -0.002109 0.003184 -0.001096 0.005940 0.000059 0.027703
#
#
# Mechanical properties :
#
#
# Convention : Reuss Voigt Hill
#
# Bulk Modulus (GPa) = 27.46074 40.06539 33.76306
# Shear Modulus (GPa) = 31.98306 39.90508 35.94407
#
# Velocity S-wave (km/s) = 3.56574 3.98294 3.78010
# Velocity P-wave (km/s) = 5.27915 6.08928 5.69863
#
# Compressibility (1/GPa) = 0.03641562
#
# Stress axis : x y z
#
# Youngs Moduli (GPa) = 44.66909 82.67409 128.78069
#
# Poissons Ratio (x) = -0.23335 0.38781
# Poissons Ratio (y) = -0.12608 0.35121
# Poissons Ratio (z) = 0.13452 0.22547
#
# Static dielectric constant tensor:
#      x y z
#    x 2.074020 0.015140 -0.020230 
#    y 0.015140 2.022860 0.004210 
#    z -0.020230 0.004210 2.101190 
# 
# From -- ./inp_files/515027.got.cif
#   From: 2010.05.17/outbox.cif.g08.bks.cpg/sg2_258_cif.got.tgz:515027.got - 2010.06.03 11:33:40.
