data_PCOD9022992
_publ_section_title
;
Structure prediction by ZEFSAII (Michael W. Deem and Ramdas Pophale) SiO2 
 PCOD9022992
Probable space group: P -1
;
_chemical_formula_sum "Si O2"
_cell_formula_units_Z 12
_cell_length_a 5.065356
_cell_length_b 8.362128
_cell_length_c 12.245297
_cell_angle_alpha 99.685736
_cell_angle_beta 116.546707
_cell_angle_gamma 87.774064
_cell_volume 456.989266
_symmetry_space_group_name_H-M "P -1"
_symmetry_group_IT_number 2
_symmetry_cell_setting 'triclinic'
loop_
_space_group_symop_operation_xyz
x,y,z
-x,-y,-z
loop_
_atom_site_type_symbol
_atom_site_label
_atom_site_fract_x
_atom_site_fract_y
_atom_site_fract_z
Si Si1 0.369052 0.682590 0.180038
Si Si2 0.333929 0.982764 0.760492
Si Si3 0.316042 0.125844 0.548571
Si Si4 0.177341 0.419686 0.429180
Si Si5 0.949993 0.868299 0.880803
Si Si6 0.856770 0.478890 0.149168
O O1 0.482969 0.847936 0.161452
O O2 0.489637 0.734479 0.330749
O O3 0.539654 0.538632 0.135313
O O4 0.034858 0.620488 0.132264
O O5 0.192019 0.027225 0.621478
O O6 0.595411 0.853822 0.789159
O O7 0.113299 0.940805 0.812131
O O8 0.167382 0.233524 0.441940
O O9 0.500000 0.000000 0.500000
O O10 0.500000 0.500000 0.500000
O O11 0.000000 0.500000 0.500000
O O12 0.027747 0.453472 0.291401
O O13 0.094261 0.696856 0.914549
O O14 0.000000 0.000000 0.000000
#
# Coordination Sequence:
#
# PCOD9022992 Si02
#       6
#     2   2   2   2   2   2
#     4  10  23  42  66  91 137 171 209 261 323 375
#     4  10  23  45  65  97 135 161 220 270 320 393
#     4  10  22  39  65  95 135 175 213 254 322 386
#     4  12  21  38  61  94 129 172 210 250 310 387
#     4  12  26  46  71  95 124 171 223 280 336 375
#     4  12  22  44  64  96 133 171 219 269 307 390
#
# _framework density 26.258821000000001
#
# number of rings (size 3 to 8) (size 9 to 14) (size 15 to 20)
#    1.000    0.000    3.333    3.500    0.000    2.667 
#    0.000    8.333    0.000    0.000    0.000    0.000 
#    0.000    0.000    0.000    0.000    0.000    0.000 
#
# Total GULP energy -67143.624520 kJ/mol
# GULP energy per Si atom -5595.302043 kJ/mol
# Density = 2.619906 g / cm^3
# Si number density = 26.258821 Si / 1000 Ang^3
#
#
#
# Elastic Constant Matrix: (Units=GPa)
#
#
# Indices 1 2 3 4 5 6 
#
# 1 162.9127 42.3357 37.7889 -11.0146 -35.5795 3.2950
# 2 42.3357 137.0562 16.7003 -2.1988 -23.7433 -0.2595
# 3 37.7889 16.7003 106.7643 -8.1236 -32.7363 10.6973
# 4 -11.0146 -2.1988 -8.1236 41.3870 -9.1977 -7.7449
# 5 -35.5795 -23.7433 -32.7363 -9.1977 42.5277 -3.9782
# 6 3.2950 -0.2595 10.6973 -7.7449 -3.9782 66.4361
#
#
#
# Elastic Compliance Matrix: (Units=1/GPa)
#
#
# Indices 1 2 3 4 5 6 
#
# 1 0.008271 -0.001283 -0.000450 0.003620 0.006685 0.000479
# 2 -0.001283 0.008399 0.000519 0.001246 0.004324 0.000417
# 3 -0.000450 0.000519 0.013310 0.004825 0.011120 -0.000891
# 4 0.003620 0.001246 0.004825 0.029936 0.014230 0.003390
# 5 0.006685 0.004324 0.011120 0.014230 0.043359 0.002150
# 6 0.000479 0.000417 -0.000891 0.003390 0.002150 0.015697
#
#
# Mechanical properties :
#
#
# Convention : Reuss Voigt Hill
#
# Bulk Modulus (GPa) = 36.29302 66.70923 51.50112
# Shear Modulus (GPa) = 38.28950 50.73071 44.51010
#
# Velocity S-wave (km/s) = 3.82273 4.40016 4.12157
# Velocity P-wave (km/s) = 5.77370 7.16065 6.50425
#
# Compressibility (1/GPa) = 0.02755351
#
# Stress axis : x y z
#
# Youngs Moduli (GPa) = 120.90411 119.05953 75.12989
#
# Poissons Ratio (x) = 0.15275 0.03378
# Poissons Ratio (y) = 0.15512 -0.03900
# Poissons Ratio (z) = 0.05436 -0.06180
#
# Static dielectric constant tensor:
#      x y z
#    x 2.165880 -0.189980 -0.853000 
#    y -0.189980 2.248790 1.287420 
#    z -0.853000 1.287420 9.786550 
# 
# From -- ./inp_files/360357.got.cif
#   From: 2010.05.17/outbox.cif.g08.bks.cpg/sg2_181_cif.got.tgz:360357.got - 2010.06.03 11:33:40.
