data_PCOD9022902
_publ_section_title
;
Structure prediction by ZEFSAII (Michael W. Deem and Ramdas Pophale) SiO2 
 PCOD9022902
Probable space group: P -1
;
_chemical_formula_sum "Si O2"
_cell_formula_units_Z 16
_cell_length_a 8.838103
_cell_length_b 12.364147
_cell_length_c 18.955874
_cell_angle_alpha 38.641724
_cell_angle_beta 45.150180
_cell_angle_gamma 74.384064
_cell_volume 707.495992
_symmetry_space_group_name_H-M "P -1"
_symmetry_group_IT_number 2
_symmetry_cell_setting 'triclinic'
loop_
_space_group_symop_operation_xyz
x,y,z
-x,-y,-z
loop_
_atom_site_type_symbol
_atom_site_label
_atom_site_fract_x
_atom_site_fract_y
_atom_site_fract_z
Si Si1 0.687734 0.603883 0.122288
Si Si2 0.936226 0.786022 0.667974
Si Si3 0.670151 0.503111 0.026297
Si Si4 0.779555 0.205996 0.059694
Si Si5 0.272033 0.979660 0.132422
Si Si6 0.368591 0.410121 0.463082
Si Si7 0.847160 0.428067 0.358447
Si Si8 0.340543 0.769709 0.345739
O O1 0.719375 0.507511 0.090526
O O2 0.450426 0.423110 0.347384
O O3 0.969567 0.740308 0.004859
O O4 0.651836 0.780012 0.016998
O O5 0.636585 0.579254 0.840645
O O6 0.156241 0.755164 0.589196
O O7 0.882655 0.738084 0.794065
O O8 0.000000 0.000000 0.500000
O O9 0.673789 0.319550 0.079060
O O10 0.557450 0.951906 0.238778
O O11 0.908013 0.338982 0.876476
O O12 0.276736 0.890056 0.252538
O O13 0.949905 0.793122 0.311100
O O14 0.500000 0.000000 0.000000
O O15 0.575872 0.402591 0.445581
O O16 0.428854 0.644093 0.338903
O O17 0.903219 0.417593 0.426892
#
# Coordination Sequence:
#
# PCOD9022902 Si02
#       8
#     2   2   2   2   2   2   2   2
#     4  11  25  44  70  99 141 183 223 285 340 407
#     4  10  22  39  65 102 135 180 228 277 340 394
#     4  10  23  41  68 101 139 176 231 279 333 405
#     4  10  24  46  68 103 135 183 232 274 342 399
#     4  12  28  44  67 102 138 179 230 280 347 408
#     4  11  26  47  66 103 136 182 228 279 346 404
#     4  10  24  41  68  97 137 175 225 279 331 405
#     4  12  25  42  73  96 136 180 227 285 335 410
#
# _framework density 22.61497
#
# number of rings (size 3 to 8) (size 9 to 14) (size 15 to 20)
#    0.000    1.250    1.250    2.625   10.500    2.000 
#    0.000    0.000    0.000    9.000    0.000    0.000 
#    0.000    0.000    0.000    0.000    0.000    0.000 
#
# Total GULP energy -89427.675368 kJ/mol
# GULP energy per Si atom -5589.229711 kJ/mol
# Density = 2.256350 g / cm^3
# Si number density = 22.614970 Si / 1000 Ang^3
#
#
#
# Elastic Constant Matrix: (Units=GPa)
#
#
# Indices 1 2 3 4 5 6 
#
# 1 50.6844 5.5871 18.9764 11.5159 13.9522 -17.1556
# 2 5.5871 59.8498 29.2283 15.4896 1.6582 0.4459
# 3 18.9764 29.2283 81.8913 11.8763 12.8105 -1.6048
# 4 11.5159 15.4896 11.8763 32.8726 0.7137 11.1974
# 5 13.9522 1.6582 12.8105 0.7137 53.0659 7.0472
# 6 -17.1556 0.4459 -1.6048 11.1974 7.0472 38.6067
#
#
#
# Elastic Compliance Matrix: (Units=1/GPa)
#
#
# Indices 1 2 3 4 5 6 
#
# 1 0.037831 0.004692 -0.004890 -0.021992 -0.011952 0.025114
# 2 0.004692 0.022801 -0.007371 -0.011393 -0.000670 0.004942
# 3 -0.004890 -0.007371 0.016376 -0.000382 -0.002316 -0.000873
# 4 -0.021992 -0.011393 -0.000382 0.052471 0.009048 -0.026527
# 5 -0.011952 -0.000670 -0.002316 0.009048 0.024095 -0.012422
# 6 0.025114 0.004942 -0.000873 -0.026527 -0.012422 0.046930
#
#
# Mechanical properties :
#
#
# Convention : Reuss Voigt Hill
#
# Bulk Modulus (GPa) = 16.16300 33.33433 24.74866
# Shear Modulus (GPa) = 21.16273 34.15128 27.65700
#
# Velocity S-wave (km/s) = 3.06238 3.89024 3.50087
# Velocity P-wave (km/s) = 4.43472 5.91190 5.22577
#
# Compressibility (1/GPa) = 0.06186970
#
# Stress axis : x y z
#
# Youngs Moduli (GPa) = 26.43347 43.85818 61.06493
#
# Poissons Ratio (x) = -0.20579 0.29860
# Poissons Ratio (y) = -0.12403 0.45013
# Poissons Ratio (z) = 0.12926 0.32329
#
# Static dielectric constant tensor:
#      x y z
#    x 1.824910 0.015740 0.018280 
#    y 0.015740 1.859360 0.024920 
#    z 0.018280 0.024920 1.897320 
# 
# From -- ./inp_files/447903.got.cif
#   From: 2010.05.17/outbox.cif.g08.bks.cpg/sg2_224_cif.got.tgz:447903.got - 2010.06.03 11:33:40.
