data_PCOD9022370
_publ_section_title
;
Structure prediction by ZEFSAII (Michael W. Deem and Ramdas Pophale) SiO2 
 PCOD9022370
Probable space group: P -1
;
_chemical_formula_sum "Si O2"
_cell_formula_units_Z 16
_cell_length_a 8.021942
_cell_length_b 15.613161
_cell_length_c 11.038734
_cell_angle_alpha 49.261412
_cell_angle_beta 60.986844
_cell_angle_gamma 37.916185
_cell_volume 642.418352
_symmetry_space_group_name_H-M "P -1"
_symmetry_group_IT_number 2
_symmetry_cell_setting 'triclinic'
loop_
_space_group_symop_operation_xyz
x,y,z
-x,-y,-z
loop_
_atom_site_type_symbol
_atom_site_label
_atom_site_fract_x
_atom_site_fract_y
_atom_site_fract_z
Si Si1 0.663483 0.499666 0.038734
Si Si2 0.018456 0.443775 0.267306
Si Si3 0.089505 0.856582 0.300268
Si Si4 0.213323 0.191823 0.246373
Si Si5 0.443012 0.328578 0.489478
Si Si6 0.526368 0.249875 0.938614
Si Si7 0.970393 0.671643 0.380823
Si Si8 0.250005 0.931054 0.559510
O O1 0.848820 0.508452 0.890898
O O2 0.500000 0.500000 0.000000
O O3 0.459135 0.664378 0.037719
O O4 0.899645 0.327460 0.183225
O O5 0.176678 0.271612 0.312324
O O6 0.706297 0.588048 0.206022
O O7 0.008661 0.426499 0.426447
O O8 0.319849 0.741200 0.431803
O O9 0.227059 0.870001 0.131043
O O10 0.988975 0.786278 0.329876
O O11 0.847204 0.015354 0.317533
O O12 0.324897 0.022358 0.396027
O O13 0.403148 0.186429 0.096423
O O14 0.254990 0.518476 0.359578
O O15 0.295595 0.271820 0.640140
O O16 0.540846 0.250327 0.392588
O O17 0.000000 0.000000 0.500000
#
# Coordination Sequence:
#
# PCOD9022370 Si02
#       8
#     2   2   2   2   2   2   2   2
#     4   9  19  32  57  92 122 153 206 260 294 363
#     4   9  17  34  56  87 115 154 205 240 301 362
#     4  11  21  39  63  90 125 161 200 254 308 369
#     4   9  18  38  58  80 121 167 192 244 313 361
#     4  10  24  37  56  98 124 157 207 259 303 368
#     4   9  19  34  59  85 118 160 203 238 305 368
#     4  11  21  37  64  92 121 157 207 265 302 347
#     4  10  22  39  61  90 123 162 209 244 310 377
#
# _framework density 24.905888999999998
#
# number of rings (size 3 to 8) (size 9 to 14) (size 15 to 20)
#    0.000    2.250    2.500    1.875    0.000    5.500 
#    0.000    2.500    2.750    0.750    0.000    0.000 
#    0.000    0.000    0.000    0.000    0.000    0.000 
#
# Total GULP energy -89296.873934 kJ/mol
# GULP energy per Si atom -5581.054621 kJ/mol
# Density = 2.484920 g / cm^3
# Si number density = 24.905889 Si / 1000 Ang^3
#
#
#
# Elastic Constant Matrix: (Units=GPa)
#
#
# Indices 1 2 3 4 5 6 
#
# 1 107.6106 29.8446 3.6565 -1.1051 -4.6598 20.0459
# 2 29.8446 150.6016 46.2928 38.8130 -5.9623 16.7853
# 3 3.6565 46.2928 95.0352 17.3427 -9.0208 7.0820
# 4 -1.1051 38.8130 17.3427 37.4113 -4.4146 9.8387
# 5 -4.6598 -5.9623 -9.0208 -4.4146 30.3310 -2.4139
# 6 20.0459 16.7853 7.0820 9.8387 -2.4139 29.6453
#
#
#
# Elastic Compliance Matrix: (Units=1/GPa)
#
#
# Indices 1 2 3 4 5 6 
#
# 1 0.011726 -0.002990 0.000772 0.005404 0.001586 -0.008085
# 2 -0.002990 0.010777 -0.003423 -0.009751 -0.000785 -0.000090
# 3 0.000772 -0.003423 0.012830 -0.001815 0.002933 -0.000808
# 4 0.005404 -0.009751 -0.001815 0.041172 0.003484 -0.011080
# 5 0.001586 -0.000785 0.002933 0.003484 0.034464 0.000321
# 6 -0.008085 -0.000090 -0.000808 -0.011080 0.000321 0.043146
#
#
# Mechanical properties :
#
#
# Convention : Reuss Voigt Hill
#
# Bulk Modulus (GPa) = 41.57732 56.98170 49.27951
# Shear Modulus (GPa) = 28.83287 37.70773 33.27030
#
# Velocity S-wave (km/s) = 3.40615 3.89525 3.65888
# Velocity P-wave (km/s) = 5.67443 6.56956 6.13833
#
# Compressibility (1/GPa) = 0.02405157
#
# Stress axis : x y z
#
# Youngs Moduli (GPa) = 85.28087 92.79345 77.94331
#
# Poissons Ratio (x) = 0.27743 -0.06019
# Poissons Ratio (y) = 0.25497 0.26678
# Poissons Ratio (z) = -0.06585 0.31761
#
# Static dielectric constant tensor:
#      x y z
#    x 2.171740 -0.151050 -0.053430 
#    y -0.151050 2.154990 0.038600 
#    z -0.053430 0.038600 1.887300 
# 
# From -- ./inp_files/398743.got.cif
#   From: 2010.05.17/outbox.cif.g08.bks.cpg/sg2_200_cif.got.tgz:398743.got - 2010.06.03 11:33:40.
