data_PCOD9022744
_publ_section_title
;
Structure prediction by ZEFSAII (Michael W. Deem and Ramdas Pophale) SiO2 
 PCOD9022744
Probable space group: P -1
;
_chemical_formula_sum "Si O2"
_cell_formula_units_Z 14
_cell_length_a 15.777476
_cell_length_b 24.975620
_cell_length_c 5.173896
_cell_angle_alpha 102.434197
_cell_angle_beta 84.684296
_cell_angle_gamma 161.979503
_cell_volume 571.935609
_symmetry_space_group_name_H-M "P -1"
_symmetry_group_IT_number 2
_symmetry_cell_setting 'triclinic'
loop_
_space_group_symop_operation_xyz
x,y,z
-x,-y,-z
loop_
_atom_site_type_symbol
_atom_site_label
_atom_site_fract_x
_atom_site_fract_y
_atom_site_fract_z
Si Si1 0.292536 0.201713 0.483226
Si Si2 0.146353 0.524468 0.257530
Si Si3 0.448509 0.905487 0.828071
Si Si4 0.281208 0.721733 0.298708
Si Si5 0.682671 0.722366 0.959344
Si Si6 0.681084 0.593414 0.296405
Si Si7 0.175035 0.945893 0.824327
O O1 0.564687 0.331392 0.612545
O O2 0.285315 0.209125 0.188128
O O3 0.326713 0.276566 0.728332
O O4 0.000000 0.000000 0.500000
O O5 0.235224 0.642478 0.423791
O O6 0.863910 0.315032 0.221934
O O7 0.035914 0.462044 0.927676
O O8 0.417826 0.864213 0.500064
O O9 0.500000 0.000000 0.000000
O O10 0.723012 0.040979 0.009526
O O11 0.517697 0.842868 0.154759
O O12 0.360085 0.497137 0.766692
O O13 0.962918 0.857239 0.941635
O O14 0.500000 0.500000 0.500000
O O15 0.994522 0.812131 0.489827
O O16 0.500000 0.500000 0.000000
#
# Coordination Sequence:
#
# PCOD9022744 Si02
#       7
#     2   2   2   2   2   2   2
#     4  12  27  44  71 107 145 190 242 303 363 437
#     4  10  25  45  71 104 139 193 241 303 365 435
#     4  11  26  43  72 105 137 185 239 309 365 425
#     4  10  23  47  73  98 140 191 247 298 366 436
#     4  11  25  44  69 105 145 193 235 302 369 432
#     4  10  22  39  64 100 138 185 234 286 357 430
#     4  10  24  41  70 102 136 188 237 295 362 442
#
# _framework density 24.478280999999999
#
# number of rings (size 3 to 8) (size 9 to 14) (size 15 to 20)
#    0.000    1.429    0.000    3.429   12.000    3.429 
#    0.000    0.000    0.000    0.000    0.000    0.000 
#    0.000    0.000    0.000    0.000    0.000    0.000 
#
# Total GULP energy -77968.694540 kJ/mol
# GULP energy per Si atom -5569.192467 kJ/mol
# Density = 2.442257 g / cm^3
# Si number density = 24.478281 Si / 1000 Ang^3
#
#
#
# Elastic Constant Matrix: (Units=GPa)
#
#
# Indices 1 2 3 4 5 6 
#
# 1 117.7274 21.4727 21.2436 16.8953 12.1803 4.8735
# 2 21.4727 51.1753 10.4577 -1.1430 15.2603 2.6407
# 3 21.2436 10.4577 100.1856 11.0719 8.7138 -0.9780
# 4 16.8953 -1.1430 11.0719 40.0041 1.5210 0.0197
# 5 12.1803 15.2603 8.7138 1.5210 52.7190 14.5147
# 6 4.8735 2.6407 -0.9780 0.0197 14.5147 34.0082
#
#
#
# Elastic Compliance Matrix: (Units=1/GPa)
#
#
# Indices 1 2 3 4 5 6 
#
# 1 0.010098 -0.003829 -0.001251 -0.004003 -0.000653 -0.000905
# 2 -0.003829 0.023234 -0.001395 0.002896 -0.006047 0.001284
# 3 -0.001251 -0.001395 0.010791 -0.002448 -0.001343 0.001173
# 4 -0.004003 0.002896 -0.002448 0.027464 -0.000423 0.000443
# 5 -0.000653 -0.006047 -0.001343 -0.000423 0.023750 -0.009612
# 6 -0.000905 0.001284 0.001173 0.000443 -0.009612 0.033570
#
#
# Mechanical properties :
#
#
# Convention : Reuss Voigt Hill
#
# Bulk Modulus (GPa) = 32.07947 41.71515 36.89731
# Shear Modulus (GPa) = 32.84089 39.74056 36.29073
#
# Velocity S-wave (km/s) = 3.66681 4.03364 3.85459
# Velocity P-wave (km/s) = 5.57324 6.22675 5.90904
#
# Compressibility (1/GPa) = 0.03117258
#
# Stress axis : x y z
#
# Youngs Moduli (GPa) = 99.03112 43.04017 92.66877
#
# Poissons Ratio (x) = 0.16481 0.11594
# Poissons Ratio (y) = 0.37921 0.12926
# Poissons Ratio (z) = 0.12390 0.06004
#
# Static dielectric constant tensor:
#      x y z
#    x 2.129700 0.091800 -0.074470 
#    y 0.091800 2.971900 0.633640 
#    z -0.074470 0.633640 2.616970 
# 
# From -- ./inp_files/101218.got.cif
#   From: 2010.05.17/outbox.cif.g08.bks.cpg/sg2_51_cif.got.tgz:101218.got - 2010.06.03 11:33:40.
