data_PCOD9022237
_publ_section_title
;
Structure prediction by ZEFSAII (Michael W. Deem and Ramdas Pophale) SiO2 
 PCOD9022237
Probable space group: P -1
;
_chemical_formula_sum "Si O2"
_cell_formula_units_Z 12
_cell_length_a 17.844512
_cell_length_b 4.958969
_cell_length_c 5.617148
_cell_angle_alpha 92.370590
_cell_angle_beta 93.508990
_cell_angle_gamma 65.387179
_cell_volume 450.985612
_symmetry_space_group_name_H-M "P -1"
_symmetry_group_IT_number 2
_symmetry_cell_setting 'triclinic'
loop_
_space_group_symop_operation_xyz
x,y,z
-x,-y,-z
loop_
_atom_site_type_symbol
_atom_site_label
_atom_site_fract_x
_atom_site_fract_y
_atom_site_fract_z
Si Si1 0.703397 0.389710 0.178167
Si Si2 0.423213 0.600915 0.162843
Si Si3 0.371679 0.162860 0.436270
Si Si4 0.871678 0.162867 0.436269
Si Si5 0.203398 0.389703 0.178169
Si Si6 0.076787 0.399078 0.837159
O O1 0.635000 0.673323 0.310047
O O2 0.776305 0.215401 0.370065
O O3 0.655396 0.229311 0.022246
O O4 0.749999 0.500005 1.000000
O O5 0.405399 0.336795 0.265132
O O6 0.423841 0.818369 0.382608
O O7 0.500000 0.500000 0.000000
O O8 0.276306 0.215395 0.370068
O O9 0.864999 0.326683 0.689952
O O10 0.905398 0.336805 0.265132
O O11 0.923841 0.818377 0.382604
O O12 0.155397 0.229304 0.022250
O O13 0.000000 0.500000 0.000000
#
# Coordination Sequence:
#
# PCOD9022237 Si02
#       6
#     2   2   2   2   2   2
#     4   9  21  39  61  84 113 149 191 234 277 333
#     4  11  23  38  58  86 117 148 186 233 283 334
#     4  10  22  39  60  84 112 151 191 229 279 335
#     4  10  22  39  60  84 112 151 191 229 279 335
#     4   9  21  39  61  84 113 149 191 234 277 333
#     4  11  23  38  58  86 117 148 186 233 283 334
#
# _framework density 26.608384999999998
#
# number of rings (size 3 to 8) (size 9 to 14) (size 15 to 20)
#    0.000    2.000    0.000    2.000    0.000   20.000 
#    0.000    0.000    0.000    0.000    0.000    0.000 
#    0.000    0.000    0.000    0.000    0.000    0.000 
#
# Total GULP energy -67193.665773 kJ/mol
# GULP energy per Si atom -5599.472148 kJ/mol
# Density = 2.654782 g / cm^3
# Si number density = 26.608385 Si / 1000 Ang^3
#
#
#
# Elastic Constant Matrix: (Units=GPa)
#
#
# Indices 1 2 3 4 5 6 
#
# 1 132.7249 38.5917 41.0801 -0.2917 -29.6199 5.1462
# 2 38.5917 95.3051 10.5055 23.8427 -14.1207 24.6637
# 3 41.0801 10.5055 124.1303 36.1459 -20.8386 6.1268
# 4 -0.2917 23.8427 36.1459 49.8463 -1.1932 -8.1939
# 5 -29.6199 -14.1207 -20.8386 -1.1932 49.3986 -3.5976
# 6 5.1462 24.6637 6.1268 -8.1939 -3.5976 35.4195
#
#
#
# Elastic Compliance Matrix: (Units=1/GPa)
#
#
# Indices 1 2 3 4 5 6 
#
# 1 0.012205 -0.008140 -0.005970 0.009601 0.003250 0.007479
# 2 -0.008140 0.024403 0.008553 -0.021434 0.003591 -0.021883
# 3 -0.005970 0.008553 0.015575 -0.017182 0.004195 -0.011331
# 4 0.009601 -0.021434 -0.017182 0.047152 -0.004517 0.026952
# 5 0.003250 0.003591 0.004195 -0.004517 0.024717 -0.002233
# 6 0.007479 -0.021883 -0.011331 0.026952 -0.002233 0.050353
#
#
# Mechanical properties :
#
#
# Convention : Reuss Voigt Hill
#
# Bulk Modulus (GPa) = 24.34862 59.16830 41.75846
# Shear Modulus (GPa) = 25.09932 44.39840 34.74886
#
# Velocity S-wave (km/s) = 3.07463 4.08927 3.61769
# Velocity P-wave (km/s) = 4.66637 6.67691 5.76004
#
# Compressibility (1/GPa) = 0.04107008
#
# Stress axis : x y z
#
# Youngs Moduli (GPa) = 81.93168 40.97796 64.20647
#
# Poissons Ratio (x) = 0.33356 0.38329
# Poissons Ratio (y) = 0.66692 -0.54916
# Poissons Ratio (z) = 0.48910 -0.35048
#
# Static dielectric constant tensor:
#      x y z
#    x 2.054150 -0.130240 0.069830 
#    y -0.130240 2.143640 -0.031220 
#    z 0.069830 -0.031220 2.045960 
# 
# From -- ./inp_files/10121.got.cif
#   From: 2010.05.17/outbox.cif.g08.bks.cpg/sg2_6_cif.got.tgz:10121.got - 2010.06.03 11:33:40.
