data_PCOD9022967
_publ_section_title
;
Structure prediction by ZEFSAII (Michael W. Deem and Ramdas Pophale) SiO2 
 PCOD9022967
Probable space group: P -1
;
_chemical_formula_sum "Si O2"
_cell_formula_units_Z 14
_cell_length_a 11.351053
_cell_length_b 16.463495
_cell_length_c 8.989875
_cell_angle_alpha 75.225157
_cell_angle_beta 100.287588
_cell_angle_gamma 33.839820
_cell_volume 623.010050
_symmetry_space_group_name_H-M "P -1"
_symmetry_group_IT_number 2
_symmetry_cell_setting 'triclinic'
loop_
_space_group_symop_operation_xyz
x,y,z
-x,-y,-z
loop_
_atom_site_type_symbol
_atom_site_label
_atom_site_fract_x
_atom_site_fract_y
_atom_site_fract_z
Si Si1 0.216909 0.150029 0.560294
Si Si2 0.674939 0.758193 0.282705
Si Si3 0.837045 0.476069 0.065199
Si Si4 0.382033 0.497099 0.565441
Si Si5 0.774062 0.093990 0.793909
Si Si6 0.218016 0.294795 0.997861
Si Si7 0.343416 0.680786 0.958429
O O1 0.352711 0.150934 0.645463
O O2 0.044008 0.281273 0.305850
O O3 0.972481 0.280311 0.571063
O O4 0.491740 0.906577 0.733716
O O5 0.396527 0.872565 0.179833
O O6 0.000000 0.500000 0.500000
O O7 0.688252 0.788393 0.107713
O O8 0.494241 0.664382 0.922585
O O9 0.953896 0.407819 0.955601
O O10 0.867421 0.551818 0.095106
O O11 0.500000 0.500000 0.500000
O O12 0.504711 0.334488 0.586938
O O13 0.539293 0.399091 0.808604
O O14 0.000000 0.000000 0.000000
O O15 0.978847 0.927697 0.781186
O O16 0.500000 0.500000 0.000000
#
# Coordination Sequence:
#
# PCOD9022967 Si02
#       7
#     2   2   2   2   2   2   2
#     4  11  23  40  66  97 128 166 219 272 323 382
#     4  12  22  42  66  99 130 157 222 277 316 375
#     4  10  23  44  61  92 134 168 215 262 326 392
#     4  10  22  39  65  94 128 168 219 268 322 390
#     4  10  22  42  69  89 129 178 208 264 335 382
#     4  11  23  39  68  93 125 174 206 266 333 386
#     4  10  23  42  63  90 130 172 213 266 323 386
#
# _framework density 22.471550000000001
#
# number of rings (size 3 to 8) (size 9 to 14) (size 15 to 20)
#    0.000    1.429    2.857    2.571    8.000    1.143 
#    0.000    0.714    0.000    0.000    0.000    0.000 
#    0.000    0.000    0.000    0.000    0.000    0.000 
#
# Total GULP energy -78196.426748 kJ/mol
# GULP energy per Si atom -5585.459053 kJ/mol
# Density = 2.242040 g / cm^3
# Si number density = 22.471550 Si / 1000 Ang^3
#
#
#
# Elastic Constant Matrix: (Units=GPa)
#
#
# Indices 1 2 3 4 5 6 
#
# 1 116.6714 48.7188 14.8796 16.4577 -9.0531 -43.7874
# 2 48.7188 132.5146 20.6948 -5.3667 -11.0393 -26.9546
# 3 14.8796 20.6948 43.8676 -9.6715 -8.6763 -9.4118
# 4 16.4577 -5.3667 -9.6715 20.9309 1.8817 -2.3217
# 5 -9.0531 -11.0393 -8.6763 1.8817 30.9200 1.1547
# 6 -43.7874 -26.9546 -9.4118 -2.3217 1.1547 48.2695
#
#
#
# Elastic Compliance Matrix: (Units=1/GPa)
#
#
# Indices 1 2 3 4 5 6 
#
# 1 0.017855 -0.003721 -0.004552 -0.016004 0.003133 0.012387
# 2 -0.003721 0.009909 -0.001591 0.004811 0.001633 0.002040
# 3 -0.004552 -0.001591 0.030217 0.016811 0.005497 0.001551
# 4 -0.016004 0.004811 0.016811 0.068990 -0.002256 -0.005182
# 5 0.003133 0.001633 0.005497 -0.002256 0.035377 0.003871
# 6 0.012387 0.002040 0.001551 -0.005182 0.003871 0.033053
#
#
# Mechanical properties :
#
#
# Convention : Reuss Voigt Hill
#
# Bulk Modulus (GPa) = 26.14235 51.29334 38.71784
# Shear Modulus (GPa) = 21.94141 33.94143 27.94142
#
# Velocity S-wave (km/s) = 3.12814 3.89063 3.53003
# Velocity P-wave (km/s) = 4.97050 6.56187 5.82082
#
# Compressibility (1/GPa) = 0.03825211
#
# Stress axis : x y z
#
# Youngs Moduli (GPa) = 56.00689 100.92247 33.09404
#
# Poissons Ratio (x) = 0.37553 0.15064
# Poissons Ratio (y) = 0.20840 0.05266
# Poissons Ratio (z) = 0.25494 0.16058
#
# Static dielectric constant tensor:
#      x y z
#    x 1.808820 -0.008070 0.033200 
#    y -0.008070 1.886860 -0.052940 
#    z 0.033200 -0.052940 1.867510 
# 
# From -- ./inp_files/189530.got.cif
#   From: 2010.05.17/outbox.cif.g08.bks.cpg/sg2_95_cif.got.tgz:189530.got - 2010.06.03 11:33:40.
