data_PCOD9022083
_publ_section_title
;
Structure prediction by ZEFSAII (Michael W. Deem and Ramdas Pophale) SiO2 
 PCOD9022083
Probable space group: P -1
;
_chemical_formula_sum "Si O2"
_cell_formula_units_Z 15
_cell_length_a 11.540776
_cell_length_b 8.934603
_cell_length_c 13.027973
_cell_angle_alpha 45.473287
_cell_angle_beta 59.876894
_cell_angle_gamma 41.072020
_cell_volume 628.186215
_symmetry_space_group_name_H-M "P -1"
_symmetry_group_IT_number 2
_symmetry_cell_setting 'triclinic'
loop_
_space_group_symop_operation_xyz
x,y,z
-x,-y,-z
loop_
_atom_site_type_symbol
_atom_site_label
_atom_site_fract_x
_atom_site_fract_y
_atom_site_fract_z
Si Si1 0.214020 0.429808 0.222110
Si Si2 0.856636 0.487232 0.023583
Si Si3 0.071575 0.074616 0.759156
Si Si4 0.959349 0.781541 0.512512
Si Si5 0.420150 0.684195 0.295011
Si Si6 0.531381 0.189383 0.336020
Si Si7 0.760022 0.350551 0.430859
Si Si8 0.500000 0.000000 0.000000
O O1 0.185170 0.242110 0.385308
O O2 0.395868 0.337497 0.229055
O O3 0.206692 0.398367 0.119763
O O4 0.047217 0.740792 0.180686
O O5 0.925266 0.177926 0.134968
O O6 0.676982 0.670877 0.080830
O O7 0.000000 0.500000 0.000000
O O8 0.270281 0.965789 0.717956
O O9 0.980683 0.274043 0.604060
O O10 0.119987 0.582811 0.615367
O O11 0.868397 0.097049 0.426112
O O12 0.482976 0.422651 0.325754
O O13 0.571294 0.598842 0.350631
O O14 0.265911 0.762285 0.400710
O O15 0.378682 0.922566 0.127707
O O16 0.500000 0.000000 0.500000
#
# Coordination Sequence:
#
# PCOD9022083 Si02
#       8
#     2   2   2   2   2   2   2   1
#     4  12  28  46  75 109 146 196 237 298 370 436
#     4  12  31  51  75 107 146 192 249 304 363 435
#     4  12  26  50  73 108 150 193 242 298 370 436
#     4  11  22  42  70 109 137 188 239 297 360 429
#     4  11  23  44  66 105 139 193 233 305 358 428
#     4  12  25  46  72 106 149 192 247 295 360 442
#     4  10  22  38  71 101 147 176 247 297 359 418
#     4  12  26  48  74 104 142 190 244 298 370 420
#
# _framework density 23.878270000000001
#
# number of rings (size 3 to 8) (size 9 to 14) (size 15 to 20)
#    0.000    0.533    4.000    2.400   11.200    2.667 
#    0.000    0.000    0.000    0.000    0.000    0.000 
#    0.000    0.000    0.000    0.000    0.000    0.000 
#
# Total GULP energy -83717.282870 kJ/mol
# GULP energy per Si atom -5581.152191 kJ/mol
# Density = 2.382392 g / cm^3
# Si number density = 23.878270 Si / 1000 Ang^3
#
#
#
# Elastic Constant Matrix: (Units=GPa)
#
#
# Indices 1 2 3 4 5 6 
#
# 1 160.7580 40.1531 22.4290 4.9264 8.2459 -17.8459
# 2 40.1531 96.5189 -1.9672 3.8870 -4.1693 -6.4579
# 3 22.4290 -1.9672 75.3391 -2.2988 -8.5419 12.8115
# 4 4.9264 3.8870 -2.2988 31.8721 7.8710 -9.6658
# 5 8.2459 -4.1693 -8.5419 7.8710 32.9357 -5.2568
# 6 -17.8459 -6.4579 12.8115 -9.6658 -5.2568 32.0056
#
#
#
# Elastic Compliance Matrix: (Units=1/GPa)
#
#
# Indices 1 2 3 4 5 6 
#
# 1 0.008282 -0.003339 -0.003752 0.001189 -0.002903 0.005328
# 2 -0.003339 0.011980 0.001626 -0.001627 0.003152 -0.000069
# 3 -0.003752 0.001626 0.016272 -0.002039 0.004552 -0.008145
# 4 0.001189 -0.001627 -0.002039 0.036519 -0.008026 0.010862
# 5 -0.002903 0.003152 0.004552 -0.008026 0.034661 0.000464
# 6 0.005328 -0.000069 -0.008145 0.010862 0.000464 0.040819
#
#
# Mechanical properties :
#
#
# Convention : Reuss Voigt Hill
#
# Bulk Modulus (GPa) = 39.05465 50.42732 44.74098
# Shear Modulus (GPa) = 29.76281 37.49609 33.62945
#
# Velocity S-wave (km/s) = 3.53432 3.96700 3.75690
# Velocity P-wave (km/s) = 5.74861 6.49208 6.13163
#
# Compressibility (1/GPa) = 0.02560515
#
# Stress axis : x y z
#
# Youngs Moduli (GPa) = 120.74667 83.47417 61.45637
#
# Poissons Ratio (x) = 0.27868 0.23056
# Poissons Ratio (y) = 0.40312 -0.09994
# Poissons Ratio (z) = 0.45300 -0.13574
#
# Static dielectric constant tensor:
#      x y z
#    x 1.938180 0.024660 -0.022230 
#    y 0.024660 1.849490 0.026120 
#    z -0.022230 0.026120 1.870930 
# 
# From -- ./inp_files/418847.got.cif
#   From: 2010.05.17/outbox.cif.g08.bks.cpg/sg2_210_cif.got.tgz:418847.got - 2010.06.03 11:33:40.
