data_PCOD9022078
_publ_section_title
;
Structure prediction by ZEFSAII (Michael W. Deem and Ramdas Pophale) SiO2 
 PCOD9022078
Probable space group: P -1
;
_chemical_formula_sum "Si O2"
_cell_formula_units_Z 16
_cell_length_a 20.357371
_cell_length_b 9.352099
_cell_length_c 9.149691
_cell_angle_alpha 54.710919
_cell_angle_beta 147.265864
_cell_angle_gamma 122.970083
_cell_volume 762.139273
_symmetry_space_group_name_H-M "P -1"
_symmetry_group_IT_number 2
_symmetry_cell_setting 'triclinic'
loop_
_space_group_symop_operation_xyz
x,y,z
-x,-y,-z
loop_
_atom_site_type_symbol
_atom_site_label
_atom_site_fract_x
_atom_site_fract_y
_atom_site_fract_z
Si Si1 0.356012 0.404300 0.595345
Si Si2 0.008340 0.656939 0.042145
Si Si3 0.799134 0.360132 0.330758
Si Si4 0.821627 0.447392 0.992371
Si Si5 0.376952 0.044291 0.168666
Si Si6 0.370194 0.455142 0.906019
Si Si7 0.896827 0.107145 0.173065
Si Si8 0.370243 0.001074 0.839586
O O1 0.319313 0.537847 0.323673
O O2 0.307110 0.473720 0.618346
O O3 0.329302 0.196379 0.631057
O O4 0.500345 0.428525 0.891886
O O5 0.101283 0.641401 0.356500
O O6 0.051319 0.831275 0.925691
O O7 0.000000 0.500000 0.000000
O O8 0.881374 0.622323 0.913541
O O9 0.713413 0.496528 0.149535
O O10 0.724450 0.163898 0.295116
O O11 0.843241 0.430194 0.213437
O O12 0.879399 0.283718 0.127586
O O13 0.500000 0.000000 0.500000
O O14 0.390601 0.254176 0.064518
O O15 0.244198 0.987199 0.030127
O O16 0.376112 0.974953 0.041404
O O17 0.000000 0.000000 0.500000
O O18 0.500000 0.000000 0.000000
#
# Coordination Sequence:
#
# PCOD9022078 Si02
#       8
#     2   2   2   2   2   2   2   2
#     4  10  22  43  68 100 139 187 235 278 355 426
#     4  10  25  45  71  93 135 180 235 282 352 422
#     4  12  24  44  70 104 140 180 235 295 360 415
#     4  11  24  44  70  97 138 185 234 294 348 420
#     4  11  25  43  71 104 143 186 241 286 348 434
#     4  10  22  38  70  99 138 187 232 283 349 425
#     4  11  25  45  73 103 141 187 239 294 353 426
#     4  11  24  43  69 104 150 178 227 302 358 414
#
# _framework density 20.993539999999999
#
# number of rings (size 3 to 8) (size 9 to 14) (size 15 to 20)
#    0.000    1.250    2.500    2.625    8.750    1.500 
#    0.000    1.250    0.000    0.000    0.000    0.000 
#    0.000    0.000    0.000    0.000    0.000    0.000 
#
# Total GULP energy -89212.380160 kJ/mol
# GULP energy per Si atom -5575.773760 kJ/mol
# Density = 2.094576 g / cm^3
# Si number density = 20.993540 Si / 1000 Ang^3
#
#
#
# Elastic Constant Matrix: (Units=GPa)
#
#
# Indices 1 2 3 4 5 6 
#
# 1 101.9266 29.8032 38.8758 -7.1339 -12.2031 12.2224
# 2 29.8032 64.1107 48.2394 6.8816 -7.4002 -0.6274
# 3 38.8758 48.2394 143.2992 -8.9122 -16.4532 -0.3326
# 4 -7.1339 6.8816 -8.9122 28.9001 1.5377 -1.3350
# 5 -12.2031 -7.4002 -16.4532 1.5377 35.5929 1.1369
# 6 12.2224 -0.6274 -0.3326 -1.3350 1.1369 40.3473
#
#
#
# Elastic Compliance Matrix: (Units=1/GPa)
#
#
# Indices 1 2 3 4 5 6 
#
# 1 0.012846 -0.005187 -0.001203 0.003708 0.002735 -0.003936
# 2 -0.005187 0.024666 -0.007447 -0.009391 0.000263 0.001575
# 3 -0.001203 -0.007447 0.010399 0.004562 0.002636 0.000411
# 4 0.003708 -0.009391 0.004562 0.039178 -0.000268 0.000072
# 5 0.002735 0.000263 0.002636 -0.000268 0.030371 -0.001667
# 6 -0.003936 0.001575 0.000411 0.000072 -0.001667 0.026054
#
#
# Mechanical properties :
#
#
# Convention : Reuss Voigt Hill
#
# Bulk Modulus (GPa) = 49.41397 60.35257 54.88327
# Shear Modulus (GPa) = 28.10043 33.79594 30.94819
#
# Velocity S-wave (km/s) = 3.66256 4.01662 3.84367
# Velocity P-wave (km/s) = 6.44008 7.09377 6.77481
#
# Compressibility (1/GPa) = 0.02023719
#
# Stress axis : x y z
#
# Youngs Moduli (GPa) = 77.84808 40.54136 96.16375
#
# Poissons Ratio (x) = 0.21028 0.11572
# Poissons Ratio (y) = 0.40379 0.71609
# Poissons Ratio (z) = 0.09368 0.30189
#
# Static dielectric constant tensor:
#      x y z
#    x 1.843890 0.048570 0.009960 
#    y 0.048570 1.798820 0.157480 
#    z 0.009960 0.157480 2.173660 
# 
# From -- ./inp_files/343467.got.cif
#   From: 2010.05.17/outbox.cif.g08.bks.cpg/sg2_172_cif.got.tgz:343467.got - 2010.06.03 11:33:40.
