data_PCOD9022060
_publ_section_title
;
Structure prediction by ZEFSAII (Michael W. Deem and Ramdas Pophale) SiO2 
 PCOD9022060
Probable space group: P -1
;
_chemical_formula_sum "Si O2"
_cell_formula_units_Z 16
_cell_length_a 15.423981
_cell_length_b 9.678788
_cell_length_c 8.695590
_cell_angle_alpha 93.703348
_cell_angle_beta 80.869799
_cell_angle_gamma 143.949242
_cell_volume 749.723372
_symmetry_space_group_name_H-M "P -1"
_symmetry_group_IT_number 2
_symmetry_cell_setting 'triclinic'
loop_
_space_group_symop_operation_xyz
x,y,z
-x,-y,-z
loop_
_atom_site_type_symbol
_atom_site_label
_atom_site_fract_x
_atom_site_fract_y
_atom_site_fract_z
Si Si1 0.720326 0.392399 0.203395
Si Si2 0.730479 0.217966 0.490093
Si Si3 0.056708 0.220706 0.052746
Si Si4 0.621282 0.019507 0.044055
Si Si5 0.800661 0.090615 0.234669
Si Si6 0.448587 0.208664 0.267137
Si Si7 0.695359 0.433107 0.731767
Si Si8 0.474441 0.539590 0.347422
O O1 0.692261 0.263923 0.353919
O O2 0.626938 0.413711 0.242714
O O3 0.646106 0.213143 0.070899
O O4 0.884084 0.630923 0.110518
O O5 0.751199 0.365239 0.622758
O O6 0.838678 0.242362 0.378200
O O7 0.615080 0.961073 0.582351
O O8 0.188787 0.377440 0.154062
O O9 0.928585 0.146771 0.164034
O O10 0.000000 0.000000 0.000000
O O11 0.763911 0.138139 0.101202
O O12 0.468639 0.795943 0.163323
O O13 0.616960 0.953436 0.872588
O O14 0.639562 0.808802 0.281068
O O15 0.420713 0.334974 0.255505
O O16 0.652645 0.504765 0.633012
O O17 0.500000 0.500000 0.500000
#
# Coordination Sequence:
#
# PCOD9022060 Si02
#       8
#     2   2   2   2   2   2   2   2
#     4  11  22  41  69 102 135 178 223 286 343 393
#     4  11  23  41  71 101 133 172 231 290 334 400
#     4  12  27  47  67  95 147 186 224 273 345 420
#     4  10  22  38  70 103 131 170 235 291 329 395
#     4  10  25  43  65 102 139 178 225 276 348 401
#     4  12  20  36  69 103 134 167 227 284 340 389
#     4  11  24  44  70 103 134 183 233 277 340 403
#     4  11  23  40  69 106 139 174 222 290 344 396
#
# _framework density 21.341203
#
# number of rings (size 3 to 8) (size 9 to 14) (size 15 to 20)
#    0.000    1.000    3.750    3.000    3.500    3.500 
#    0.000    3.750    0.000    0.000    0.000    0.000 
#    0.000    0.000    0.000    0.000    0.000    0.000 
#
# Total GULP energy -89102.700445 kJ/mol
# GULP energy per Si atom -5568.918778 kJ/mol
# Density = 2.129263 g / cm^3
# Si number density = 21.341203 Si / 1000 Ang^3
#
#
#
# Elastic Constant Matrix: (Units=GPa)
#
#
# Indices 1 2 3 4 5 6 
#
# 1 112.8223 38.6425 31.2939 3.6226 -22.0284 -13.2617
# 2 38.6425 84.6830 35.8349 16.7599 -9.6728 -13.1028
# 3 31.2939 35.8349 100.8951 9.9309 -10.1753 -6.0727
# 4 3.6226 16.7599 9.9309 27.4763 -9.0976 -4.7490
# 5 -22.0284 -9.6728 -10.1753 -9.0976 37.6053 2.8742
# 6 -13.2617 -13.1028 -6.0727 -4.7490 2.8742 31.5834
#
#
#
# Elastic Compliance Matrix: (Units=1/GPa)
#
#
# Indices 1 2 3 4 5 6 
#
# 1 0.012409 -0.004563 -0.001835 0.004472 0.006448 0.003051
# 2 -0.004563 0.017631 -0.003944 -0.008643 -0.001562 0.003483
# 3 -0.001835 -0.003944 0.012092 -0.001509 0.000847 -0.000386
# 4 0.004472 -0.008643 -0.001509 0.045871 0.010786 0.003918
# 5 0.006448 -0.001562 0.000847 0.010786 0.032740 0.000865
# 6 0.003051 0.003483 -0.000386 0.003918 0.000865 0.034824
#
#
# Mechanical properties :
#
#
# Convention : Reuss Voigt Hill
#
# Bulk Modulus (GPa) = 46.62242 56.66032 51.64137
# Shear Modulus (GPa) = 27.26297 32.17495 29.71896
#
# Velocity S-wave (km/s) = 3.57806 3.88705 3.73575
# Velocity P-wave (km/s) = 6.24209 6.83761 6.54663
#
# Compressibility (1/GPa) = 0.02144891
#
# Stress axis : x y z
#
# Youngs Moduli (GPa) = 80.58636 56.71927 82.70054
#
# Poissons Ratio (x) = 0.25880 0.15172
# Poissons Ratio (y) = 0.36770 0.32616
# Poissons Ratio (z) = 0.14784 0.22370
#
# Static dielectric constant tensor:
#      x y z
#    x 2.024520 -0.207970 -0.132970 
#    y -0.207970 1.964250 0.115760 
#    z -0.132970 0.115760 1.946870 
# 
# From -- ./inp_files/298804.got.cif
#   From: 2010.05.17/outbox.cif.g08.bks.cpg/sg2_150_cif.got.tgz:298804.got - 2010.06.03 11:33:40.
