data_PCOD9022890
_publ_section_title
;
Structure prediction by ZEFSAII (Michael W. Deem and Ramdas Pophale) SiO2 
 PCOD9022890
Probable space group: P -1
;
_chemical_formula_sum "Si O2"
_cell_formula_units_Z 16
_cell_length_a 11.467666
_cell_length_b 11.816231
_cell_length_c 13.117182
_cell_angle_alpha 72.700733
_cell_angle_beta 123.232227
_cell_angle_gamma 57.730329
_cell_volume 693.348289
_symmetry_space_group_name_H-M "P -1"
_symmetry_group_IT_number 2
_symmetry_cell_setting 'triclinic'
loop_
_space_group_symop_operation_xyz
x,y,z
-x,-y,-z
loop_
_atom_site_type_symbol
_atom_site_label
_atom_site_fract_x
_atom_site_fract_y
_atom_site_fract_z
Si Si1 0.454533 0.136483 0.361930
Si Si2 0.214574 0.948588 0.141037
Si Si3 0.036557 0.348810 0.929175
Si Si4 0.602077 0.370200 0.273275
Si Si5 0.226987 0.997882 0.615669
Si Si6 0.418337 0.163277 0.995222
Si Si7 0.701925 0.270600 0.585739
Si Si8 0.632182 0.207840 0.953942
O O1 0.741291 0.966588 0.489296
O O2 0.269492 0.377097 0.259090
O O3 0.500000 0.000000 0.500000
O O4 0.257393 0.233803 0.149900
O O5 0.302118 0.852840 0.323648
O O6 0.441343 0.765288 0.207065
O O7 0.072114 0.181363 0.995628
O O8 0.000000 0.000000 0.000000
O O9 0.135340 0.332395 0.873866
O O10 0.570924 0.269471 0.225942
O O11 0.605055 0.346489 0.402359
O O12 0.392954 0.633766 0.079165
O O13 0.913140 0.188157 0.440087
O O14 0.343786 0.995409 0.760521
O O15 0.431823 0.276877 0.910214
O O16 0.500000 0.000000 0.000000
O O17 0.500000 0.500000 0.500000
O O18 0.032219 0.071556 0.795435
#
# Coordination Sequence:
#
# PCOD9022890 Si02
#       8
#     2   2   2   2   2   2   2   2
#     4  10  24  44  66  94 133 180 225 272 339 398
#     4  10  22  39  65 100 134 171 222 276 346 399
#     4  10  23  44  66  98 133 173 228 278 327 412
#     4  11  24  45  67 101 142 174 229 289 337 418
#     4  10  25  45  65 100 138 177 234 285 337 409
#     4  11  22  45  71  93 137 180 227 280 338 409
#     4  11  23  41  68 102 139 174 222 286 345 407
#     4  11  23  41  69 100 133 185 224 273 356 397
#
# _framework density 23.076426000000001
#
# number of rings (size 3 to 8) (size 9 to 14) (size 15 to 20)
#    0.000    1.500    3.750    0.000    7.000    0.500 
#    0.000    1.875    0.000    0.000    0.000    0.000 
#    0.000    0.000    0.000    0.000    0.000    0.000 
#
# Total GULP energy -89447.716671 kJ/mol
# GULP energy per Si atom -5590.482292 kJ/mol
# Density = 2.302390 g / cm^3
# Si number density = 23.076426 Si / 1000 Ang^3
#
#
#
# Elastic Constant Matrix: (Units=GPa)
#
#
# Indices 1 2 3 4 5 6 
#
# 1 177.3369 55.9598 30.8828 -3.7951 -22.9993 -25.3480
# 2 55.9598 134.0777 32.3972 -6.0735 2.1751 -2.9171
# 3 30.8828 32.3972 39.6286 -1.4953 -1.9068 -4.9519
# 4 -3.7951 -6.0735 -1.4953 30.1856 4.4273 -5.4278
# 5 -22.9993 2.1751 -1.9068 4.4273 32.5028 2.2788
# 6 -25.3480 -2.9171 -4.9519 -5.4278 2.2788 51.2007
#
#
#
# Elastic Compliance Matrix: (Units=1/GPa)
#
#
# Indices 1 2 3 4 5 6 
#
# 1 0.008303 -0.002593 -0.003655 0.000129 0.005580 0.003375
# 2 -0.002593 0.010227 -0.006552 0.001672 -0.003060 -0.001021
# 3 -0.003655 -0.006552 0.033566 0.000121 -0.000271 0.001088
# 4 0.000129 0.001672 0.000121 0.034968 -0.005064 0.004103
# 5 0.005580 -0.003060 -0.000271 -0.005064 0.035563 0.000442
# 6 0.003375 -0.001021 0.001088 0.004103 0.000442 0.021664
#
#
# Mechanical properties :
#
#
# Convention : Reuss Voigt Hill
#
# Bulk Modulus (GPa) = 37.74173 65.50251 51.62212
# Shear Modulus (GPa) = 27.97640 38.23139 33.10389
#
# Velocity S-wave (km/s) = 3.48564 4.07471 3.79163
# Velocity P-wave (km/s) = 5.70878 7.11227 6.44882
#
# Compressibility (1/GPa) = 0.02649587
#
# Stress axis : x y z
#
# Youngs Moduli (GPa) = 120.44362 97.78095 29.79182
#
# Poissons Ratio (x) = 0.25358 0.10889
# Poissons Ratio (y) = 0.31235 0.19518
# Poissons Ratio (z) = 0.44024 0.64061
#
# Static dielectric constant tensor:
#      x y z
#    x 1.913130 -0.002920 -0.008830 
#    y -0.002920 1.885800 0.023630 
#    z -0.008830 0.023630 1.888790 
# 
# From -- ./inp_files/428216.got.cif
#   From: 2010.05.17/outbox.cif.g08.bks.cpg/sg2_215_cif.got.tgz:428216.got - 2010.06.03 11:33:40.
