data_PCOD9022821
_publ_section_title
;
Structure prediction by ZEFSAII (Michael W. Deem and Ramdas Pophale) SiO2 
 PCOD9022821
Probable space group: P -1
;
_chemical_formula_sum "Si O2"
_cell_formula_units_Z 12
_cell_length_a 9.620490
_cell_length_b 12.438385
_cell_length_c 9.070935
_cell_angle_alpha 42.914576
_cell_angle_beta 97.636990
_cell_angle_gamma 124.492681
_cell_volume 526.768100
_symmetry_space_group_name_H-M "P -1"
_symmetry_group_IT_number 2
_symmetry_cell_setting 'triclinic'
loop_
_space_group_symop_operation_xyz
x,y,z
-x,-y,-z
loop_
_atom_site_type_symbol
_atom_site_label
_atom_site_fract_x
_atom_site_fract_y
_atom_site_fract_z
Si Si1 0.865894 0.940240 0.726695
Si Si2 0.802583 0.584562 0.587506
Si Si3 0.724275 0.147013 0.344957
Si Si4 0.344358 0.373719 0.233221
Si Si5 0.679287 0.543101 0.291477
Si Si6 0.995836 0.570585 0.151751
O O1 0.843608 0.803687 0.720228
O O2 0.774470 0.025656 0.559592
O O3 0.747670 0.768149 0.016680
O O4 0.068323 0.160021 0.604875
O O5 0.678351 0.483176 0.822070
O O6 0.683185 0.524423 0.485159
O O7 0.924509 0.519973 0.657852
O O8 0.846296 0.382722 0.200399
O O9 0.500000 0.000000 0.500000
O O10 0.818858 0.210549 0.129920
O O11 0.462586 0.348705 0.387156
O O12 0.500000 0.500000 0.000000
O O13 0.858473 0.576108 0.222994
#
# Coordination Sequence:
#
# PCOD9022821 Si02
#       6
#     2   2   2   2   2   2
#     4  10  23  38  65  91 120 160 217 254 307 368
#     4  11  23  42  62  91 130 166 202 260 324 373
#     4  10  22  39  64  94 126 165 214 265 306 369
#     4  10  23  37  65  91 121 161 216 257 306 371
#     4  11  23  41  63  93 128 163 205 263 319 372
#     4  10  24  38  65  92 127 168 213 254 318 377
#
# _framework density 22.780419999999999
#
# number of rings (size 3 to 8) (size 9 to 14) (size 15 to 20)
#    0.000    1.667    0.000    3.000   21.000    0.000 
#    0.000    0.000    0.000    4.000    0.000    0.000 
#    0.000    0.000    0.000    0.000    0.000    0.000 
#
# Total GULP energy -66838.030177 kJ/mol
# GULP energy per Si atom -5569.835848 kJ/mol
# Density = 2.272857 g / cm^3
# Si number density = 22.780420 Si / 1000 Ang^3
#
#
#
# Elastic Constant Matrix: (Units=GPa)
#
#
# Indices 1 2 3 4 5 6 
#
# 1 121.3558 23.1469 20.2967 6.2030 -5.8765 10.8537
# 2 23.1469 76.5630 25.1542 23.0863 12.5711 25.5810
# 3 20.2967 25.1542 71.1340 3.5187 5.6713 8.1951
# 4 6.2030 23.0863 3.5187 33.0289 8.7487 2.7365
# 5 -5.8765 12.5711 5.6713 8.7487 27.4314 1.2264
# 6 10.8537 25.5810 8.1951 2.7365 1.2264 40.0115
#
#
#
# Elastic Compliance Matrix: (Units=1/GPa)
#
#
# Indices 1 2 3 4 5 6 
#
# 1 0.009302 -0.002252 -0.002030 -0.000893 0.003762 -0.000722
# 2 -0.002252 0.025129 -0.005572 -0.013914 -0.005819 -0.013184
# 3 -0.002030 -0.005572 0.016573 0.003076 -0.002315 0.000579
# 4 -0.000893 -0.013914 0.003076 0.041454 -0.007936 0.005916
# 5 0.003762 -0.005819 -0.002315 -0.007936 0.042829 0.002404
# 6 -0.000722 -0.013184 0.000579 0.005916 0.002404 0.033020
#
#
# Mechanical properties :
#
#
# Convention : Reuss Voigt Hill
#
# Bulk Modulus (GPa) = 31.95497 45.13872 38.54684
# Shear Modulus (GPa) = 25.19545 33.45802 29.32674
#
# Velocity S-wave (km/s) = 3.32929 3.83654 3.59188
# Velocity P-wave (km/s) = 5.36998 6.28356 5.84465
#
# Compressibility (1/GPa) = 0.03129404
#
# Stress axis : x y z
#
# Youngs Moduli (GPa) = 107.50697 39.79511 60.33794
#
# Poissons Ratio (x) = 0.08964 0.12250
# Poissons Ratio (y) = 0.24216 0.33622
# Poissons Ratio (z) = 0.21826 0.22175
#
# Static dielectric constant tensor:
#      x y z
#    x 1.964630 0.012540 -0.112830 
#    y 0.012540 1.893440 -0.082420 
#    z -0.112830 -0.082420 2.101960 
# 
# From -- ./inp_files/146582.got.cif
#   From: 2010.05.17/outbox.cif.g08.bks.cpg/sg2_74_cif.got.tgz:146582.got - 2010.06.03 11:33:40.
