data_PCOD9022104
_publ_section_title
;
Structure prediction by ZEFSAII (Michael W. Deem and Ramdas Pophale) SiO2 
 PCOD9022104
Probable space group: P -1
;
_chemical_formula_sum "Si O2"
_cell_formula_units_Z 11
_cell_length_a 9.249163
_cell_length_b 9.330190
_cell_length_c 7.937834
_cell_angle_alpha 61.877301
_cell_angle_beta 103.255894
_cell_angle_gamma 62.083485
_cell_volume 435.848015
_symmetry_space_group_name_H-M "P -1"
_symmetry_group_IT_number 2
_symmetry_cell_setting 'triclinic'
loop_
_space_group_symop_operation_xyz
x,y,z
-x,-y,-z
loop_
_atom_site_type_symbol
_atom_site_label
_atom_site_fract_x
_atom_site_fract_y
_atom_site_fract_z
Si Si1 0.694853 0.752517 0.651201
Si Si2 0.934644 0.177595 0.741187
Si Si3 0.000000 0.500000 0.500000
Si Si4 0.526075 0.402703 0.342669
Si Si5 0.118814 0.517158 0.821267
Si Si6 0.757439 0.216101 0.179697
O O1 0.621822 0.633713 0.627532
O O2 0.878063 0.679777 0.622072
O O3 0.500000 0.000000 0.500000
O O4 0.804286 0.654429 0.915794
O O5 0.003035 0.313014 0.702145
O O6 0.699093 0.322913 0.561406
O O7 0.057341 0.024521 0.695643
O O8 0.000000 0.000000 0.000000
O O9 0.805825 0.580761 0.288212
O O10 0.639614 0.242680 0.296547
O O11 0.398746 0.642021 0.093569
O O12 0.169668 0.656502 0.824536
#
# Coordination Sequence:
#
# PCOD9022104 Si02
#       6
#     2   2   1   2   2   2
#     4  10  22  38  72  99 134 181 239 282 340 419
#     4  12  28  46  73 102 146 188 228 291 361 407
#     4  12  28  46  68 108 146 182 232 294 350 422
#     4  10  22  43  72 103 131 184 247 281 335 430
#     4  10  23  45  67 100 143 179 230 292 344 414
#     4  10  22  47  74  95 136 193 233 283 349 417
#
# _framework density 25.238156
#
# number of rings (size 3 to 8) (size 9 to 14) (size 15 to 20)
#    0.000    1.455    1.818    1.636   12.727    0.727 
#    0.000    1.818    0.000    0.000    0.000    0.000 
#    0.000    0.000    0.000    0.000    0.000    0.000 
#
# Total GULP energy -61316.450086 kJ/mol
# GULP energy per Si atom -5574.222735 kJ/mol
# Density = 2.518071 g / cm^3
# Si number density = 25.238156 Si / 1000 Ang^3
#
#
#
# Elastic Constant Matrix: (Units=GPa)
#
#
# Indices 1 2 3 4 5 6 
#
# 1 150.6001 12.6018 48.2682 -9.2141 7.2743 18.0978
# 2 12.6018 66.5001 19.4735 0.0743 11.0344 17.4887
# 3 48.2682 19.4735 164.5303 1.9127 12.5310 19.8137
# 4 -9.2141 0.0743 1.9127 29.4122 -0.4143 9.4865
# 5 7.2743 11.0344 12.5310 -0.4143 52.6643 -2.9512
# 6 18.0978 17.4887 19.8137 9.4865 -2.9512 37.9796
#
#
#
# Elastic Compliance Matrix: (Units=1/GPa)
#
#
# Indices 1 2 3 4 5 6 
#
# 1 0.007978 0.000224 -0.001865 0.003889 -0.000897 -0.003972
# 2 0.000224 0.018345 -0.000849 0.002981 -0.004164 -0.009179
# 3 -0.001865 -0.000849 0.007135 -0.000264 -0.001403 -0.002485
# 4 0.003889 0.002981 -0.000264 0.039415 -0.001520 -0.013051
# 5 -0.000897 -0.004164 -0.001403 -0.001520 0.020590 0.005056
# 6 -0.003972 -0.009179 -0.002485 -0.013051 0.005056 0.037399
#
#
# Mechanical properties :
#
#
# Convention : Reuss Voigt Hill
#
# Bulk Modulus (GPa) = 35.11671 60.25751 47.68711
# Shear Modulus (GPa) = 34.40294 44.09701 39.24998
#
# Velocity S-wave (km/s) = 3.69607 4.18453 3.94786
# Velocity P-wave (km/s) = 5.67088 6.87564 6.30212
#
# Compressibility (1/GPa) = 0.02847647
#
# Stress axis : x y z
#
# Youngs Moduli (GPa) = 125.34649 54.50957 140.15538
#
# Poissons Ratio (x) = -0.01219 0.26145
# Poissons Ratio (y) = -0.02803 0.11900
# Poissons Ratio (z) = 0.23383 0.04628
#
# Static dielectric constant tensor:
#      x y z
#    x 2.108040 -0.032640 0.021330 
#    y -0.032640 1.574650 -0.152880 
#    z 0.021330 -0.152880 1.947690 
# 
# From -- ./inp_files/153095.got.cif
#   From: 2010.05.17/outbox.cif.g08.bks.cpg/sg2_77_cif.got.tgz:153095.got - 2010.06.03 11:33:40.
