data_PCOD9022614
_publ_section_title
;
Structure prediction by ZEFSAII (Michael W. Deem and Ramdas Pophale) SiO2 
 PCOD9022614
Probable space group: P -1
;
_chemical_formula_sum "Si O2"
_cell_formula_units_Z 14
_cell_length_a 11.262971
_cell_length_b 23.359862
_cell_length_c 7.181983
_cell_angle_alpha 44.158998
_cell_angle_beta 42.687392
_cell_angle_gamma 27.307657
_cell_volume 575.064345
_symmetry_space_group_name_H-M "P -1"
_symmetry_group_IT_number 2
_symmetry_cell_setting 'triclinic'
loop_
_space_group_symop_operation_xyz
x,y,z
-x,-y,-z
loop_
_atom_site_type_symbol
_atom_site_label
_atom_site_fract_x
_atom_site_fract_y
_atom_site_fract_z
Si Si1 0.476861 0.322314 0.853007
Si Si2 0.374976 0.126334 0.757052
Si Si3 0.576053 0.381100 0.253553
Si Si4 0.786443 0.546768 0.788994
Si Si5 0.058430 0.172752 0.694113
Si Si6 0.302732 0.926091 0.846856
Si Si7 0.920949 0.727533 0.905821
O O1 0.412022 0.408401 0.560616
O O2 0.753669 0.256992 0.786911
O O3 0.260886 0.391819 0.105243
O O4 0.529260 0.214229 0.955593
O O5 0.110837 0.197217 0.772455
O O6 0.580887 0.088841 0.454126
O O7 0.293576 0.213197 0.821848
O O8 0.500000 0.000000 0.000000
O O9 0.493189 0.356269 0.232179
O O10 0.882614 0.274485 0.220227
O O11 0.500000 0.500000 0.000000
O O12 0.000000 0.500000 0.500000
O O13 0.892666 0.417173 0.017663
O O14 0.167334 0.197899 0.355465
O O15 0.248500 0.024287 0.808983
O O16 0.000000 0.000000 0.000000
#
# Coordination Sequence:
#
# PCOD9022614 Si02
#       7
#     2   2   2   2   2   2   2
#     4  10  22  42  64  91 130 169 201 261 321 366
#     4  12  23  39  67  93 123 165 215 258 310 367
#     4   9  21  40  62  89 124 163 213 253 302 376
#     4  11  23  39  61  94 128 163 209 254 315 373
#     4  10  22  42  65  93 122 164 211 260 311 367
#     4  10  22  42  61  90 131 161 204 258 314 372
#     4  10  22  39  63  91 124 159 211 257 303 374
#
# _framework density 24.345101
#
# number of rings (size 3 to 8) (size 9 to 14) (size 15 to 20)
#    0.000    1.714    1.429    2.143    0.000    9.143 
#    2.571    1.429    0.000    0.000    0.000    0.000 
#    0.000    0.000    0.000    0.000    0.000    0.000 
#
# Total GULP energy -78247.223845 kJ/mol
# GULP energy per Si atom -5589.087417 kJ/mol
# Density = 2.428969 g / cm^3
# Si number density = 24.345101 Si / 1000 Ang^3
#
#
#
# Elastic Constant Matrix: (Units=GPa)
#
#
# Indices 1 2 3 4 5 6 
#
# 1 58.8041 13.0893 24.3950 -7.8878 14.1761 0.1098
# 2 13.0893 57.5339 23.5349 4.1643 12.8206 11.1894
# 3 24.3950 23.5349 149.4350 5.3044 17.2240 6.9668
# 4 -7.8878 4.1643 5.3044 43.0847 -0.4383 3.9845
# 5 14.1761 12.8206 17.2240 -0.4383 44.6124 7.3728
# 6 0.1098 11.1894 6.9668 3.9845 7.3728 38.7717
#
#
#
# Elastic Compliance Matrix: (Units=1/GPa)
#
#
# Indices 1 2 3 4 5 6 
#
# 1 0.020490 -0.003201 -0.002510 0.004152 -0.004882 0.001818
# 2 -0.003201 0.020778 -0.002068 -0.001933 -0.003386 -0.004773
# 3 -0.002510 -0.002068 0.007661 -0.001185 -0.001518 -0.000362
# 4 0.004152 -0.001933 -0.001185 0.024472 0.000231 -0.001800
# 5 -0.004882 -0.003386 -0.001518 0.000231 0.026144 -0.003732
# 6 0.001818 -0.004773 -0.000362 -0.001800 -0.003732 0.028124
#
#
# Mechanical properties :
#
#
# Convention : Reuss Voigt Hill
#
# Bulk Modulus (GPa) = 29.96741 43.09014 36.52878
# Shear Modulus (GPa) = 32.39344 38.94402 35.66873
#
# Velocity S-wave (km/s) = 3.65169 4.00392 3.83185
# Velocity P-wave (km/s) = 5.48780 6.25406 5.88342
#
# Compressibility (1/GPa) = 0.03336958
#
# Stress axis : x y z
#
# Youngs Moduli (GPa) = 48.80461 48.12764 130.52620
#
# Poissons Ratio (x) = 0.15406 0.32766
# Poissons Ratio (y) = 0.15623 0.26999
# Poissons Ratio (z) = 0.12251 0.09955
#
# Static dielectric constant tensor:
#      x y z
#    x 2.009320 -0.056660 -0.040410 
#    y -0.056660 1.954240 0.023410 
#    z -0.040410 0.023410 1.939050 
# 
# From -- ./inp_files/84143.got.cif
#   From: 2010.05.17/outbox.cif.g08.bks.cpg/sg2_43_cif.got.tgz:84143.got - 2010.06.03 11:33:40.
