data_PCOD9022806
_publ_section_title
;
Structure prediction by ZEFSAII (Michael W. Deem and Ramdas Pophale) SiO2 
 PCOD9022806
Probable space group: P -1
;
_chemical_formula_sum "Si O2"
_cell_formula_units_Z 16
_cell_length_a 25.907119
_cell_length_b 25.589710
_cell_length_c 18.028563
_cell_angle_alpha 160.014162
_cell_angle_beta 159.555397
_cell_angle_gamma 11.110321
_cell_volume 766.931944
_symmetry_space_group_name_H-M "P -1"
_symmetry_group_IT_number 2
_symmetry_cell_setting 'triclinic'
loop_
_space_group_symop_operation_xyz
x,y,z
-x,-y,-z
loop_
_atom_site_type_symbol
_atom_site_label
_atom_site_fract_x
_atom_site_fract_y
_atom_site_fract_z
Si Si1 0.097836 0.489552 0.390987
Si Si2 0.522875 0.851868 0.108724
Si Si3 0.868564 0.364145 0.673038
Si Si4 0.840171 0.840330 0.360998
Si Si5 0.217868 0.687710 0.905580
Si Si6 0.571773 0.076170 0.088277
Si Si7 0.789022 0.117768 0.172822
Si Si8 0.294398 0.685812 0.176627
O O1 0.145476 0.584749 0.639190
O O2 0.841986 0.605727 0.224420
O O3 0.008934 0.638967 0.391640
O O4 0.367028 0.150846 0.294967
O O5 0.485446 0.816002 0.928059
O O6 0.374816 0.874967 0.999563
O O7 0.577611 0.684491 0.734010
O O8 0.858814 0.189406 0.421621
O O9 0.969997 0.330214 0.683762
O O10 0.105691 0.212578 0.846359
O O11 0.734586 0.104974 0.583287
O O12 0.586358 0.946753 0.149541
O O13 0.500000 0.500000 0.000000
O O14 0.236541 0.675763 0.003351
O O15 0.000000 0.000000 0.000000
O O16 0.590104 0.373567 0.186558
O O17 0.065485 0.828870 0.117701
#
# Coordination Sequence:
#
# PCOD9022806 Si02
#       8
#     2   2   2   2   2   2   2   2
#     4  11  24  42  67  98 128 169 209 260 328 382
#     4  11  25  45  65  89 130 176 220 263 310 375
#     4  11  23  38  61  92 125 168 214 268 320 373
#     4  10  22  39  64  92 136 158 210 261 340 382
#     4  12  24  42  69 104 137 158 204 261 319 396
#     4  11  23  38  61  92 125 168 214 268 320 373
#     4  11  25  45  65  89 130 176 220 263 310 375
#     4  11  24  42  67  98 128 169 209 260 328 382
#
# _framework density 20.862345999999999
#
# number of rings (size 3 to 8) (size 9 to 14) (size 15 to 20)
#    0.000    1.000    1.250    6.000    3.500    5.000 
#    0.000    3.750    0.000    0.000    0.000    0.000 
#    0.000    0.000    0.000    0.000    0.000    0.000 
#
# Total GULP energy -89621.724066 kJ/mol
# GULP energy per Si atom -5601.357754 kJ/mol
# Density = 2.081486 g / cm^3
# Si number density = 20.862346 Si / 1000 Ang^3
#
#
#
# Elastic Constant Matrix: (Units=GPa)
#
#
# Indices 1 2 3 4 5 6 
#
# 1 50.0687 -12.5108 34.2308 -4.5970 0.9694 -5.3793
# 2 -12.5108 72.7695 -6.8951 -0.1920 -5.2502 -2.1167
# 3 34.2308 -6.8951 72.5841 -2.0902 -22.3574 1.4435
# 4 -4.5970 -0.1920 -2.0902 28.6684 -1.9806 1.0495
# 5 0.9694 -5.2502 -22.3574 -1.9806 28.1279 -3.9118
# 6 -5.3793 -2.1167 1.4435 1.0495 -3.9118 30.1735
#
#
#
# Elastic Compliance Matrix: (Units=1/GPa)
#
#
# Indices 1 2 3 4 5 6 
#
# 1 0.037804 0.003172 -0.023132 0.002940 -0.018109 0.005619
# 2 0.003172 0.014726 0.001068 0.000876 0.003830 0.002014
# 3 -0.023132 0.001068 0.033210 0.000673 0.027143 -0.002142
# 4 0.002940 0.000876 0.000673 0.035630 0.003066 -0.000289
# 5 -0.018109 0.003830 0.027143 0.003066 0.059140 0.003302
# 6 0.005619 0.002014 -0.002142 -0.000289 0.003302 0.034825
#
#
# Mechanical properties :
#
#
# Convention : Reuss Voigt Hill
#
# Bulk Modulus (GPa) = 20.85257 25.00800 22.93028
# Shear Modulus (GPa) = 18.58000 29.43380 24.00690
#
# Velocity S-wave (km/s) = 2.98753 3.76021 3.39592
# Velocity P-wave (km/s) = 4.68161 5.55567 5.13726
#
# Compressibility (1/GPa) = 0.04795573
#
# Stress axis : x y z
#
# Youngs Moduli (GPa) = 26.45193 67.90824 30.11108
#
# Poissons Ratio (x) = -0.21543 0.69654
# Poissons Ratio (y) = -0.08391 -0.03214
# Poissons Ratio (z) = 0.61189 -0.07250
#
# Static dielectric constant tensor:
#      x y z
#    x 1.741130 0.002780 -0.002480 
#    y 0.002780 1.717230 0.000170 
#    z -0.002480 0.000170 1.744050 
# 
# From -- ./inp_files/538866.got.cif
#   From: 2010.05.17/outbox.cif.g08.bks.cpg/sg2_270_cif.got.tgz:538866.got - 2010.06.03 11:33:40.
