data_PCOD9022325
_publ_section_title
;
Structure prediction by ZEFSAII (Michael W. Deem and Ramdas Pophale) SiO2 
 PCOD9022325
Probable space group: P -1
;
_chemical_formula_sum "Si O2"
_cell_formula_units_Z 16
_cell_length_a 7.775132
_cell_length_b 5.705042
_cell_length_c 24.799144
_cell_angle_alpha 93.847482
_cell_angle_beta 38.125619
_cell_angle_gamma 80.642688
_cell_volume 634.844562
_symmetry_space_group_name_H-M "P -1"
_symmetry_group_IT_number 2
_symmetry_cell_setting 'triclinic'
loop_
_space_group_symop_operation_xyz
x,y,z
-x,-y,-z
loop_
_atom_site_type_symbol
_atom_site_label
_atom_site_fract_x
_atom_site_fract_y
_atom_site_fract_z
Si Si1 0.226723 0.900883 0.857785
Si Si2 0.683510 0.754711 0.984489
Si Si3 0.349961 0.185243 0.628739
Si Si4 0.778377 0.284247 0.336474
Si Si5 0.391031 0.882914 0.166746
Si Si6 0.224313 0.618829 0.421478
Si Si7 0.928343 0.703135 0.183719
Si Si8 0.350537 0.606234 0.277909
O O1 0.320951 0.065882 0.880337
O O2 0.084489 0.051409 0.841717
O O3 0.537969 0.689148 0.762824
O O4 0.986195 0.782844 0.933793
O O5 0.800260 0.526424 0.910483
O O6 0.489725 0.739931 0.084106
O O7 0.500000 0.000000 0.000000
O O8 0.248059 0.449582 0.625097
O O9 0.678841 0.169371 0.568337
O O10 0.141196 0.248773 0.735423
O O11 0.327886 0.923328 0.610302
O O12 0.544327 0.386968 0.346583
O O13 0.113349 0.141225 0.232018
O O14 0.292248 0.739356 0.237061
O O15 0.134375 0.686975 0.383014
O O16 0.000000 0.500000 0.500000
O O17 0.635572 0.659702 0.232139
#
# Coordination Sequence:
#
# PCOD9022325 Si02
#       8
#     2   2   2   2   2   2   2   2
#     4  10  22  39  61  83 127 172 217 267 328 382
#     4  11  24  38  57  91 125 168 229 278 319 371
#     4   9  20  37  64  90 130 164 213 264 319 381
#     4  10  22  39  65  94 128 173 216 262 325 392
#     4  11  24  39  61  88 128 175 215 269 327 386
#     4   9  20  40  69 101 128 164 213 269 325 396
#     4   9  19  36  57  85 115 167 213 267 312 375
#     4   9  20  38  62  87 124 164 212 258 329 390
#
# _framework density 25.203019999999999
#
# number of rings (size 3 to 8) (size 9 to 14) (size 15 to 20)
#    0.750    1.500    0.000    1.875    7.000    6.500 
#    0.000    0.625    0.000    1.500    0.000    0.000 
#    0.000    0.000    0.000    0.000    0.000    0.000 
#
# Total GULP energy -89291.307822 kJ/mol
# GULP energy per Si atom -5580.706739 kJ/mol
# Density = 2.514566 g / cm^3
# Si number density = 25.203020 Si / 1000 Ang^3
#
#
#
# Elastic Constant Matrix: (Units=GPa)
#
#
# Indices 1 2 3 4 5 6 
#
# 1 111.4082 20.4893 25.9040 -3.7066 -2.8297 5.2615
# 2 20.4893 115.3441 17.5155 -6.1500 3.6790 10.1718
# 3 25.9040 17.5155 93.2594 -18.0509 -6.1761 -2.9406
# 4 -3.7066 -6.1500 -18.0509 33.8826 1.1795 -14.1317
# 5 -2.8297 3.6790 -6.1761 1.1795 27.4461 -1.7423
# 6 5.2615 10.1718 -2.9406 -14.1317 -1.7423 40.9455
#
#
#
# Elastic Compliance Matrix: (Units=1/GPa)
#
#
# Indices 1 2 3 4 5 6 
#
# 1 0.009903 -0.001284 -0.002778 -0.001308 0.000524 -0.001582
# 2 -0.001284 0.009416 -0.001672 -0.000288 -0.001916 -0.002475
# 3 -0.002778 -0.001672 0.013847 0.008709 0.002990 0.004900
# 4 -0.001308 -0.000288 0.008709 0.040068 0.001077 0.014740
# 5 0.000524 -0.001916 0.002990 0.001077 0.037537 0.002592
# 6 -0.001582 -0.002475 0.004900 0.014740 0.002592 0.030790
#
#
# Mechanical properties :
#
#
# Convention : Reuss Voigt Hill
#
# Bulk Modulus (GPa) = 46.09038 49.75881 47.92460
# Shear Modulus (GPa) = 31.19915 37.52838 34.36377
#
# Velocity S-wave (km/s) = 3.52222 3.86300 3.69654
# Velocity P-wave (km/s) = 5.90497 6.29945 6.10540
#
# Compressibility (1/GPa) = 0.02169650
#
# Stress axis : x y z
#
# Youngs Moduli (GPa) = 100.98429 106.20456 72.21993
#
# Poissons Ratio (x) = 0.13638 0.20060
# Poissons Ratio (y) = 0.12968 0.12078
# Poissons Ratio (z) = 0.28050 0.17761
#
# Static dielectric constant tensor:
#      x y z
#    x 2.053590 0.043660 -0.065350 
#    y 0.043660 2.078930 -0.014250 
#    z -0.065350 -0.014250 2.012950 
# 
# From -- ./inp_files/616335.got.cif
#   From: 2010.05.17/outbox.cif.g08.bks.cpg/sg2_309_cif.got.tgz:616335.got - 2010.06.03 11:33:40.
