data_PCOD9022115
_publ_section_title
;
Structure prediction by ZEFSAII (Michael W. Deem and Ramdas Pophale) SiO2 
 PCOD9022115
Probable space group: P -1
;
_chemical_formula_sum "Si O2"
_cell_formula_units_Z 16
_cell_length_a 14.434188
_cell_length_b 5.225555
_cell_length_c 11.974468
_cell_angle_alpha 104.768889
_cell_angle_beta 89.021393
_cell_angle_gamma 75.857740
_cell_volume 843.845576
_symmetry_space_group_name_H-M "P -1"
_symmetry_group_IT_number 2
_symmetry_cell_setting 'triclinic'
loop_
_space_group_symop_operation_xyz
x,y,z
-x,-y,-z
loop_
_atom_site_type_symbol
_atom_site_label
_atom_site_fract_x
_atom_site_fract_y
_atom_site_fract_z
Si Si1 0.260263 0.827006 0.195568
Si Si2 0.628406 0.717108 0.743664
Si Si3 0.585424 0.093886 0.135844
Si Si4 0.714886 0.374878 0.285041
Si Si5 0.676860 0.478931 0.053467
Si Si6 0.118834 0.709008 0.551900
Si Si7 0.433898 0.294489 0.503744
Si Si8 0.893364 0.868735 0.598773
O O1 0.324205 0.586673 0.245483
O O2 0.312786 0.066656 0.199790
O O3 0.163072 0.971288 0.277411
O O4 0.254906 0.673368 0.062350
O O5 0.520321 0.823060 0.803361
O O6 0.623817 0.715716 0.609551
O O7 0.660677 0.137412 0.234292
O O8 0.599983 0.305163 0.064396
O O9 0.620276 0.785252 0.058928
O O10 0.729813 0.475042 0.170982
O O11 0.808933 0.295651 0.348688
O O12 0.636958 0.598262 0.380607
O O13 0.135793 0.410989 0.460565
O O14 0.008117 0.790310 0.602289
O O15 0.130549 0.929397 0.484413
O O16 0.500000 0.500000 0.500000
O O17 0.500000 0.000000 0.500000
#
# Coordination Sequence:
#
# PCOD9022115 Si02
#       8
#     2   2   2   2   2   2   2   2
#     4  12  24  39  61  83 124 149 206 238 293 335
#     4  12  24  38  59  89 113 168 190 244 296 337
#     4  10  22  39  54  85 120 152 211 224 287 341
#     4  10  23  38  61  83 120 156 192 237 292 347
#     4  10  23  39  56  84 118 162 196 246 271 346
#     4  10  22  40  69  86 119 146 193 234 309 351
#     4  12  22  36  56  83 120 145 187 243 284 340
#     4  10  22  42  61  96 112 149 188 250 289 359
#
# _framework density 18.960816000000001
#
# number of rings (size 3 to 8) (size 9 to 14) (size 15 to 20)
#    0.750    0.500    1.250    5.250    1.750    3.000 
#    0.000    0.625    0.000    0.750    0.000    0.000 
#    0.000    0.000    0.000    0.000    0.000    0.000 
#
# Total GULP energy -89377.607145 kJ/mol
# GULP energy per Si atom -5586.100447 kJ/mol
# Density = 1.891766 g / cm^3
# Si number density = 18.960816 Si / 1000 Ang^3
#
#
#
# Elastic Constant Matrix: (Units=GPa)
#
#
# Indices 1 2 3 4 5 6 
#
# 1 58.7617 38.2796 31.6353 5.2046 -4.7111 -13.4551
# 2 38.2796 116.8917 33.4717 15.5223 -4.9003 8.6156
# 3 31.6353 33.4717 133.3565 15.9260 -14.1330 -22.8735
# 4 5.2046 15.5223 15.9260 32.1370 -6.4741 1.6893
# 5 -4.7111 -4.9003 -14.1330 -6.4741 21.5591 1.6367
# 6 -13.4551 8.6156 -22.8735 1.6893 1.6367 21.1535
#
#
#
# Elastic Compliance Matrix: (Units=1/GPa)
#
#
# Indices 1 2 3 4 5 6 
#
# 1 0.030117 -0.011524 0.000074 -0.000163 0.002156 0.023777
# 2 -0.011524 0.015003 -0.003761 -0.002838 -0.001121 -0.017194
# 3 0.000074 -0.003761 0.011841 -0.003876 0.004672 0.014331
# 4 -0.000163 -0.002838 -0.003876 0.036444 0.008230 -0.006686
# 5 0.002156 -0.001121 0.004672 0.008230 0.051968 0.002202
# 6 0.023777 -0.017194 0.014331 -0.006686 0.002202 0.085260
#
#
# Mechanical properties :
#
#
# Convention : Reuss Voigt Hill
#
# Bulk Modulus (GPa) = 37.67962 57.30920 47.49441
# Shear Modulus (GPa) = 18.52532 28.67814 23.60173
#
# Velocity S-wave (km/s) = 3.12914 3.89330 3.53195
# Velocity P-wave (km/s) = 5.74203 7.10641 6.46034
#
# Compressibility (1/GPa) = 0.02653955
#
# Stress axis : x y z
#
# Youngs Moduli (GPa) = 33.20384 66.65307 84.45236
#
# Poissons Ratio (x) = 0.76814 -0.00628
# Poissons Ratio (y) = 0.38265 0.31760
# Poissons Ratio (z) = -0.00247 0.25067
#
# Static dielectric constant tensor:
#      x y z
#    x 1.646010 0.018010 0.014750 
#    y 0.018010 1.645130 -0.006010 
#    z 0.014750 -0.006010 1.682970 
# 
# From -- ./inp_files/442169.got.cif
#   From: 2010.05.17/outbox.cif.g08.bks.cpg/sg2_222_cif.got.tgz:442169.got - 2010.06.03 11:33:40.
