data_PCOD9022973
_publ_section_title
;
Structure prediction by ZEFSAII (Michael W. Deem and Ramdas Pophale) SiO2 
 PCOD9022973
Probable space group: P -1
;
_chemical_formula_sum "Si O2"
_cell_formula_units_Z 16
_cell_length_a 19.043683
_cell_length_b 8.104235
_cell_length_c 9.045486
_cell_angle_alpha 47.560382
_cell_angle_beta 120.529588
_cell_angle_gamma 130.224851
_cell_volume 780.132424
_symmetry_space_group_name_H-M "P -1"
_symmetry_group_IT_number 2
_symmetry_cell_setting 'triclinic'
loop_
_space_group_symop_operation_xyz
x,y,z
-x,-y,-z
loop_
_atom_site_type_symbol
_atom_site_label
_atom_site_fract_x
_atom_site_fract_y
_atom_site_fract_z
Si Si1 0.186036 0.245235 0.201765
Si Si2 0.696995 0.994076 0.457067
Si Si3 0.784627 0.198560 0.108127
Si Si4 0.103335 0.074662 0.521273
Si Si5 0.547674 0.102817 0.144906
Si Si6 0.369858 0.986971 0.199740
Si Si7 0.295326 0.337955 0.998412
Si Si8 0.742928 0.437866 0.458979
O O1 0.116232 0.064427 0.362696
O O2 0.281028 0.237992 0.354678
O O3 0.178495 0.501122 0.044788
O O4 0.197912 0.207054 0.062415
O O5 0.736289 0.098970 0.273999
O O6 0.591766 0.941719 0.367154
O O7 0.751620 0.228008 0.490464
O O8 0.861503 0.103736 0.249595
O O9 0.706212 0.086403 0.966759
O O10 0.170926 0.365350 0.470914
O O11 0.000000 0.000000 0.500000
O O12 0.471561 0.107490 0.169373
O O13 0.634429 0.379520 0.042626
O O14 0.500000 0.000000 0.000000
O O15 0.340795 0.733581 0.417268
O O16 0.350229 0.178729 0.161204
O O17 0.278834 0.391721 0.780015
#
# Coordination Sequence:
#
# PCOD9022973 Si02
#       8
#     2   2   2   2   2   2   2   2
#     4  11  21  43  67  91 129 178 200 260 337 383
#     4  10  22  39  65  94 130 171 217 255 312 384
#     4  11  21  42  68  89 129 170 206 260 335 380
#     4  11  26  44  69 102 123 157 220 271 325 402
#     4  11  22  40  62  97 133 173 225 265 302 367
#     4  12  22  40  64  95 132 178 215 262 318 369
#     4  11  23  41  65  93 135 172 218 261 313 382
#     4  11  22  41  68  90 129 168 213 264 327 373
#
# _framework density 20.509338
#
# number of rings (size 3 to 8) (size 9 to 14) (size 15 to 20)
#    0.000    1.000    7.500    0.375    0.000    2.500 
#    2.250    4.375    0.000    0.000    0.000    0.000 
#    0.000    0.000    0.000    0.000    0.000    0.000 
#
# Total GULP energy -89139.383298 kJ/mol
# GULP energy per Si atom -5571.211456 kJ/mol
# Density = 2.046266 g / cm^3
# Si number density = 20.509338 Si / 1000 Ang^3
#
#
#
# Elastic Constant Matrix: (Units=GPa)
#
#
# Indices 1 2 3 4 5 6 
#
# 1 132.0835 10.6352 34.2838 -2.5771 9.9318 6.3994
# 2 10.6352 26.1438 2.1454 3.0285 1.4875 -3.8885
# 3 34.2838 2.1454 114.9537 -17.9969 2.4648 0.2018
# 4 -2.5771 3.0285 -17.9969 14.4849 -3.7433 -3.6741
# 5 9.9318 1.4875 2.4648 -3.7433 39.1600 -0.4361
# 6 6.3994 -3.8885 0.2018 -3.6741 -0.4361 20.6375
#
#
#
# Elastic Compliance Matrix: (Units=1/GPa)
#
#
# Indices 1 2 3 4 5 6 
#
# 1 0.008943 -0.003503 -0.003020 -0.003030 -0.002279 -0.003991
# 2 -0.003503 0.042034 -0.001196 -0.009418 -0.001452 0.007310
# 3 -0.003020 -0.001196 0.012093 0.016040 0.001622 0.003483
# 4 -0.003030 -0.009418 0.016040 0.097054 0.009578 0.016489
# 5 -0.002279 -0.001452 0.001622 0.009578 0.027013 0.002693
# 6 -0.003991 0.007310 0.003483 0.016489 0.002693 0.054029
#
#
# Mechanical properties :
#
#
# Convention : Reuss Voigt Hill
#
# Bulk Modulus (GPa) = 20.99477 40.81220 30.90349
# Shear Modulus (GPa) = 18.34995 29.93090 24.14043
#
# Velocity S-wave (km/s) = 2.99442 3.82433 3.43453
# Velocity P-wave (km/s) = 4.71321 6.28038 5.55236
#
# Compressibility (1/GPa) = 0.04763090
#
# Stress axis : x y z
#
# Youngs Moduli (GPa) = 111.82474 23.79021 82.69583
#
# Poissons Ratio (x) = 0.08333 0.24976
# Poissons Ratio (y) = 0.39171 0.09891
# Poissons Ratio (z) = 0.33774 0.02845
#
# Static dielectric constant tensor:
#      x y z
#    x 1.744800 -0.066600 -0.024670 
#    y -0.066600 1.745040 0.007870 
#    z -0.024670 0.007870 1.811980 
# 
# From -- ./inp_files/208514.got.cif
#   From: 2010.05.17/outbox.cif.g08.bks.cpg/sg2_105_cif.got.tgz:208514.got - 2010.06.03 11:33:40.
