data_PCOD9022908
_publ_section_title
;
Structure prediction by ZEFSAII (Michael W. Deem and Ramdas Pophale) SiO2 
 PCOD9022908
Probable space group: P -1
;
_chemical_formula_sum "Si O2"
_cell_formula_units_Z 16
_cell_length_a 16.403108
_cell_length_b 10.259081
_cell_length_c 23.059785
_cell_angle_alpha 140.756673
_cell_angle_beta 159.491999
_cell_angle_gamma 31.761070
_cell_volume 710.544839
_symmetry_space_group_name_H-M "P -1"
_symmetry_group_IT_number 2
_symmetry_cell_setting 'triclinic'
loop_
_space_group_symop_operation_xyz
x,y,z
-x,-y,-z
loop_
_atom_site_type_symbol
_atom_site_label
_atom_site_fract_x
_atom_site_fract_y
_atom_site_fract_z
Si Si1 0.194567 0.243199 0.401191
Si Si2 0.061391 0.936754 0.735907
Si Si3 0.568706 0.477319 0.604797
Si Si4 0.024948 0.510645 0.270397
Si Si5 0.767667 0.458605 0.964767
Si Si6 0.800224 0.740573 0.909301
Si Si7 0.186356 0.559176 0.605051
Si Si8 0.492566 0.006866 0.088056
O O1 0.995753 0.372688 0.257579
O O2 0.206095 0.454627 0.517800
O O3 0.048847 0.164967 0.323947
O O4 0.500000 0.000000 0.500000
O O5 0.041853 0.846817 0.628050
O O6 0.374975 0.864403 0.927709
O O7 0.878751 0.228653 0.727635
O O8 0.500000 0.500000 0.500000
O O9 0.340301 0.437650 0.464951
O O10 0.587944 0.691953 0.718455
O O11 0.824456 0.809788 0.242041
O O12 0.951790 0.438526 0.135848
O O13 0.512924 0.427576 0.796335
O O14 0.620453 0.729551 0.927185
O O15 0.993006 0.259463 0.999385
O O16 0.624759 0.957256 0.912756
O O17 0.000000 0.500000 0.000000
O O18 0.000000 0.500000 0.500000
#
# Coordination Sequence:
#
# PCOD9022908 Si02
#       8
#     2   2   2   2   2   2   2   2
#     4  11  26  45  68  94 133 185 225 277 331 402
#     4  11  22  46  70  88 143 179 222 276 341 397
#     4  12  23  39  67 102 142 171 222 280 342 405
#     4  12  25  42  67 105 132 181 229 279 341 398
#     4  11  22  44  72 100 139 176 224 275 349 403
#     4  10  22  39  65 104 137 179 216 268 353 404
#     4  10  25  45  70  96 131 184 230 268 335 407
#     4  11  24  41  72 106 133 177 222 291 337 396
#
# _framework density 22.517931999999998
#
# number of rings (size 3 to 8) (size 9 to 14) (size 15 to 20)
#    0.000    1.000    6.250    0.375    7.000    2.000 
#    0.000    0.625    0.000    0.000    0.000    0.000 
#    0.000    0.000    0.000    0.000    0.000    0.000 
#
# Total GULP energy -89225.211945 kJ/mol
# GULP energy per Si atom -5576.575747 kJ/mol
# Density = 2.246668 g / cm^3
# Si number density = 22.517932 Si / 1000 Ang^3
#
#
#
# Elastic Constant Matrix: (Units=GPa)
#
#
# Indices 1 2 3 4 5 6 
#
# 1 121.2971 30.3697 33.1356 2.7414 -2.3702 -23.3171
# 2 30.3697 55.9318 6.5652 8.4032 -12.7829 -19.8907
# 3 33.1356 6.5652 90.2820 8.3058 7.7774 -4.5782
# 4 2.7414 8.4032 8.3058 23.8061 -0.6780 -5.1600
# 5 -2.3702 -12.7829 7.7774 -0.6780 44.5798 2.3898
# 6 -23.3171 -19.8907 -4.5782 -5.1600 2.3898 37.7358
#
#
#
# Elastic Compliance Matrix: (Units=1/GPa)
#
#
# Indices 1 2 3 4 5 6 
#
# 1 0.011193 -0.004489 -0.003772 0.002571 -0.000234 0.004459
# 2 -0.004489 0.026261 0.000265 -0.006535 0.006621 0.009788
# 3 -0.003772 0.000265 0.013008 -0.004499 -0.002405 -0.001076
# 4 0.002571 -0.006535 -0.004499 0.046435 -0.000459 0.003977
# 5 -0.000234 0.006621 -0.002405 -0.000459 0.024654 0.001430
# 6 0.004459 0.009788 -0.001076 0.003977 0.001430 0.034737
#
#
# Mechanical properties :
#
#
# Convention : Reuss Voigt Hill
#
# Bulk Modulus (GPa) = 29.01036 45.29463 37.15250
# Shear Modulus (GPa) = 27.20792 34.38704 30.79748
#
# Velocity S-wave (km/s) = 3.47980 3.91205 3.70224
# Velocity P-wave (km/s) = 5.39041 6.36899 5.90003
#
# Compressibility (1/GPa) = 0.03447044
#
# Stress axis : x y z
#
# Youngs Moduli (GPa) = 89.34163 38.07930 76.87545
#
# Poissons Ratio (x) = 0.17093 0.28997
# Poissons Ratio (y) = 0.40104 -0.02038
# Poissons Ratio (z) = 0.33699 -0.01009
#
# Static dielectric constant tensor:
#      x y z
#    x 2.419200 0.187640 0.846810 
#    y 0.187640 2.163810 0.322450 
#    z 0.846810 0.322450 3.080220 
# 
# From -- ./inp_files/613131.got.cif
#   From: 2010.05.17/outbox.cif.g08.bks.cpg/sg2_307_cif.got.tgz:613131.got - 2010.06.03 11:33:40.
