data_PCOD9022917
_publ_section_title
;
Structure prediction by ZEFSAII (Michael W. Deem and Ramdas Pophale) SiO2 
 PCOD9022917
Probable space group: P -1
;
_chemical_formula_sum "Si O2"
_cell_formula_units_Z 14
_cell_length_a 12.267580
_cell_length_b 24.127724
_cell_length_c 15.148023
_cell_angle_alpha 159.956716
_cell_angle_beta 26.723750
_cell_angle_gamma 151.055978
_cell_volume 671.907597
_symmetry_space_group_name_H-M "P -1"
_symmetry_group_IT_number 2
_symmetry_cell_setting 'triclinic'
loop_
_space_group_symop_operation_xyz
x,y,z
-x,-y,-z
loop_
_atom_site_type_symbol
_atom_site_label
_atom_site_fract_x
_atom_site_fract_y
_atom_site_fract_z
Si Si1 0.898197 0.583948 0.872186
Si Si2 0.439646 0.726049 0.150321
Si Si3 0.088132 0.461145 0.724374
Si Si4 0.294413 0.016768 0.802413
Si Si5 0.378032 0.815277 0.841278
Si Si6 0.524515 0.761305 0.849795
Si Si7 0.380637 0.546616 0.287005
O O1 0.836421 0.489666 0.683113
O O2 0.023657 0.481026 0.697406
O O3 0.082486 0.764579 0.999577
O O4 0.638273 0.596496 0.120846
O O5 0.582169 0.829608 0.121197
O O6 0.178178 0.597132 0.122517
O O7 0.358157 0.856032 0.471043
O O8 0.609374 0.623004 0.923365
O O9 0.265604 0.639467 0.886576
O O10 0.254660 0.329082 0.421571
O O11 0.418868 0.065257 0.880084
O O12 0.000000 0.000000 0.000000
O O13 0.508442 0.779561 0.783989
O O14 0.392054 0.686993 0.561289
O O15 0.500000 0.000000 0.000000
#
# Coordination Sequence:
#
# PCOD9022917 Si02
#       7
#     2   2   2   2   2   2   2
#     4   9  21  42  65  92 120 167 211 257 307 359
#     4  10  23  39  63  96 121 164 218 248 318 367
#     4   9  19  40  62  94 120 160 214 245 313 370
#     4  11  23  41  60  93 132 161 203 266 307 371
#     4  11  25  42  60  96 126 167 207 250 320 371
#     4  10  22  39  65  89 127 166 201 263 313 364
#     4  10  22  42  67  90 121 165 215 259 299 374
#
# _framework density 20.836198
#
# number of rings (size 3 to 8) (size 9 to 14) (size 15 to 20)
#    0.000    2.000    1.429    0.429    6.000    5.714 
#    5.143    0.000    0.000    0.000    0.000    0.000 
#    0.000    0.000    0.000    0.000    0.000    0.000 
#
# Total GULP energy -78197.869180 kJ/mol
# GULP energy per Si atom -5585.562084 kJ/mol
# Density = 2.078877 g / cm^3
# Si number density = 20.836198 Si / 1000 Ang^3
#
#
#
# Elastic Constant Matrix: (Units=GPa)
#
#
# Indices 1 2 3 4 5 6 
#
# 1 126.6317 58.9251 37.0664 4.7908 8.4942 21.8059
# 2 58.9251 124.9742 25.0142 15.6133 -6.1429 -2.3225
# 3 37.0664 25.0142 52.9400 7.7560 6.5136 2.1391
# 4 4.7908 15.6133 7.7560 25.3890 -2.1558 0.5978
# 5 8.4942 -6.1429 6.5136 -2.1558 30.5123 0.8942
# 6 21.8059 -2.3225 2.1391 0.5978 0.8942 27.2047
#
#
#
# Elastic Compliance Matrix: (Units=1/GPa)
#
#
# Indices 1 2 3 4 5 6 
#
# 1 0.015250 -0.006574 -0.007144 0.003341 -0.003451 -0.012183
# 2 -0.006574 0.012371 -0.001134 -0.005835 0.003963 0.006413
# 3 -0.007144 -0.001134 0.025715 -0.006266 -0.004286 0.003886
# 4 0.003341 -0.005835 -0.006266 0.044559 0.002490 -0.003745
# 5 -0.003451 0.003963 -0.004286 0.002490 0.035558 0.002218
# 6 -0.012183 0.006413 0.003886 -0.003745 0.002218 0.046775
#
#
# Mechanical properties :
#
#
# Convention : Reuss Voigt Hill
#
# Bulk Modulus (GPa) = 42.31513 60.72859 51.52186
# Shear Modulus (GPa) = 22.95573 28.85722 25.90647
#
# Velocity S-wave (km/s) = 3.32282 3.72554 3.52993
# Velocity P-wave (km/s) = 5.92234 6.90762 6.43387
#
# Compressibility (1/GPa) = 0.02363221
#
# Stress axis : x y z
#
# Youngs Moduli (GPa) = 65.57361 80.83242 38.88719
#
# Poissons Ratio (x) = 0.53139 0.27781
# Poissons Ratio (y) = 0.43108 0.04411
# Poissons Ratio (z) = 0.46845 0.09170
#
# Static dielectric constant tensor:
#      x y z
#    x 1.753380 -0.003390 0.010610 
#    y -0.003390 1.775330 -0.020710 
#    z 0.010610 -0.020710 1.735960 
# 
# From -- ./inp_files/337560.got.cif
#   From: 2010.05.17/outbox.cif.g08.bks.cpg/sg2_169_cif.got.tgz:337560.got - 2010.06.03 11:33:40.
