data_PCOD9022977
_publ_section_title
;
Structure prediction by ZEFSAII (Michael W. Deem and Ramdas Pophale) SiO2 
 PCOD9022977
Probable space group: P -1
;
_chemical_formula_sum "Si O2"
_cell_formula_units_Z 16
_cell_length_a 5.679213
_cell_length_b 19.560514
_cell_length_c 10.522625
_cell_angle_alpha 33.614927
_cell_angle_beta 92.946821
_cell_angle_gamma 96.436307
_cell_volume 641.184858
_symmetry_space_group_name_H-M "P -1"
_symmetry_group_IT_number 2
_symmetry_cell_setting 'triclinic'
loop_
_space_group_symop_operation_xyz
x,y,z
-x,-y,-z
loop_
_atom_site_type_symbol
_atom_site_label
_atom_site_fract_x
_atom_site_fract_y
_atom_site_fract_z
Si Si1 0.061452 0.195839 0.934284
Si Si2 0.425238 0.798192 0.780145
Si Si3 0.860146 0.350539 0.486138
Si Si4 0.940746 0.854014 0.699567
Si Si5 0.593877 0.552683 0.117060
Si Si6 0.508900 0.872746 0.278767
Si Si7 0.779258 0.656552 0.699326
Si Si8 0.469266 0.926808 0.856337
O O1 0.028096 0.309253 0.665066
O O2 0.078416 0.216852 0.054431
O O3 0.807412 0.105621 0.055026
O O4 0.307134 0.144373 0.982350
O O5 0.164561 0.810798 0.701475
O O6 0.445262 0.881836 0.779306
O O7 0.678345 0.841747 0.655974
O O8 0.446449 0.651876 0.025576
O O9 0.754182 0.475482 0.327629
O O10 0.667464 0.232088 0.633887
O O11 0.983148 0.370708 0.320874
O O12 0.000000 0.000000 0.500000
O O13 0.419783 0.443164 0.216302
O O14 0.749155 0.623430 0.897906
O O15 0.728828 0.795373 0.438695
O O16 0.441200 0.932619 0.317426
O O17 0.500000 0.000000 0.000000
#
# Coordination Sequence:
#
# PCOD9022977 Si02
#       8
#     2   2   2   2   2   2   2   2
#     4  10  22  39  65  94 136 172 222 271 337 400
#     4  10  23  44  68  96 134 176 225 278 338 403
#     4  11  23  41  68  94 133 179 227 290 335 403
#     4  10  22  42  67  99 138 180 219 273 338 413
#     4  10  24  45  66  95 130 180 238 283 339 403
#     4  11  22  38  65  98 137 174 220 277 351 410
#     4  10  24  43  67  95 131 178 235 286 341 403
#     4  10  22  41  64  99 138 171 218 273 341 414
#
# _framework density 24.953804000000002
#
# number of rings (size 3 to 8) (size 9 to 14) (size 15 to 20)
#    0.000    1.750    1.250    1.500    5.250    5.000 
#    2.250    5.000    0.000    0.000    0.000    0.000 
#    0.000    0.000    0.000    0.000    0.000    0.000 
#
# Total GULP energy -89178.110649 kJ/mol
# GULP energy per Si atom -5573.631916 kJ/mol
# Density = 2.489701 g / cm^3
# Si number density = 24.953804 Si / 1000 Ang^3
#
#
#
# Elastic Constant Matrix: (Units=GPa)
#
#
# Indices 1 2 3 4 5 6 
#
# 1 167.6089 11.8354 51.6183 -9.7785 20.5290 -9.6267
# 2 11.8354 66.9377 48.5062 0.1972 15.1674 -9.8156
# 3 51.6183 48.5062 129.8150 -24.6211 28.2512 -7.8196
# 4 -9.7785 0.1972 -24.6211 33.4669 -5.4604 12.9880
# 5 20.5290 15.1674 28.2512 -5.4604 49.6947 0.5301
# 6 -9.6267 -9.8156 -7.8196 12.9880 0.5301 30.0967
#
#
#
# Elastic Compliance Matrix: (Units=1/GPa)
#
#
# Indices 1 2 3 4 5 6 
#
# 1 0.007150 0.002033 -0.003363 -0.001831 -0.001894 0.002900
# 2 0.002033 0.025275 -0.011187 -0.012905 -0.003736 0.011622
# 3 -0.003363 -0.011187 0.015854 0.012628 -0.002758 -0.006006
# 4 -0.001831 -0.012905 0.012628 0.047818 0.003008 -0.022202
# 5 -0.001894 -0.003736 -0.002758 0.003008 0.023989 -0.004261
# 6 0.002900 0.011622 -0.006006 -0.022202 -0.004261 0.046040
#
#
# Mechanical properties :
#
#
# Convention : Reuss Voigt Hill
#
# Bulk Modulus (GPa) = 43.02045 65.36462 54.19254
# Shear Modulus (GPa) = 25.13704 39.47844 32.30774
#
# Velocity S-wave (km/s) = 3.17731 3.98183 3.60210
# Velocity P-wave (km/s) = 5.54417 6.88412 6.25016
#
# Compressibility (1/GPa) = 0.02324476
#
# Stress axis : x y z
#
# Youngs Moduli (GPa) = 139.85629 39.56455 63.07585
#
# Poissons Ratio (x) = -0.08042 0.21213
# Poissons Ratio (y) = -0.28428 0.70562
# Poissons Ratio (z) = 0.47034 0.44260
#
# Static dielectric constant tensor:
#      x y z
#    x 2.009400 -0.005470 -0.028190 
#    y -0.005470 2.011270 0.043240 
#    z -0.028190 0.043240 2.095580 
# 
# From -- ./inp_files/83236.got.cif
#   From: 2010.05.17/outbox.cif.g08.bks.cpg/sg2_42_cif.got.tgz:83236.got - 2010.06.03 11:33:40.
