data_PCOD9022884
_publ_section_title
;
Structure prediction by ZEFSAII (Michael W. Deem and Ramdas Pophale) SiO2 
 PCOD9022884
Probable space group: P -1
;
_chemical_formula_sum "Si O2"
_cell_formula_units_Z 16
_cell_length_a 19.770111
_cell_length_b 9.070532
_cell_length_c 23.194801
_cell_angle_alpha 44.195867
_cell_angle_beta 159.584048
_cell_angle_gamma 146.256349
_cell_volume 763.119770
_symmetry_space_group_name_H-M "P -1"
_symmetry_group_IT_number 2
_symmetry_cell_setting 'triclinic'
loop_
_space_group_symop_operation_xyz
x,y,z
-x,-y,-z
loop_
_atom_site_type_symbol
_atom_site_label
_atom_site_fract_x
_atom_site_fract_y
_atom_site_fract_z
Si Si1 0.297247 0.274867 0.058232
Si Si2 0.909551 0.822934 0.201660
Si Si3 0.393718 0.847804 0.230313
Si Si4 0.984526 0.247769 0.577012
Si Si5 0.131371 0.761319 0.225822
Si Si6 0.044089 0.647585 0.902061
Si Si7 0.714831 0.239277 0.525876
Si Si8 0.821166 0.720413 0.399052
O O1 0.519835 0.546719 0.196268
O O2 0.357869 0.068239 0.159153
O O3 0.274064 0.333306 0.956707
O O4 0.030982 0.147345 0.911854
O O5 0.844528 0.665926 0.254036
O O6 0.173814 0.902842 0.368560
O O7 0.937586 0.088648 0.164485
O O8 0.210381 0.581141 0.199393
O O9 0.688077 0.990819 0.426874
O O10 0.281947 0.750338 0.103739
O O11 0.000000 0.500000 0.500000
O O12 0.071681 0.195002 0.603954
O O13 0.981665 0.506472 0.132912
O O14 0.183311 0.672293 0.351938
O O15 0.407224 0.018537 0.347169
O O16 0.818635 0.493484 0.494497
O O17 0.000000 0.000000 0.500000
#
# Coordination Sequence:
#
# PCOD9022884 Si02
#       8
#     2   2   2   2   2   2   2   2
#     4  10  22  44  64  94 128 167 206 259 319 371
#     4  10  22  42  68  95 123 164 212 261 315 369
#     4  10  22  42  64  96 128 159 212 261 314 371
#     4  12  23  43  67  88 122 176 210 253 313 375
#     4  10  22  39  67  94 126 168 203 261 320 371
#     4  10  22  39  65 100 125 157 211 269 310 366
#     4  10  22  44  62  92 130 165 211 253 320 376
#     4  12  27  43  62  93 128 167 213 260 305 376
#
# _framework density 20.966564000000002
#
# number of rings (size 3 to 8) (size 9 to 14) (size 15 to 20)
#    0.000    1.500    2.500    1.500    3.500    4.500 
#    6.750    2.500    0.000    0.000    0.000    0.000 
#    0.000    0.000    0.000    0.000    0.000    0.000 
#
# Total GULP energy -89344.674454 kJ/mol
# GULP energy per Si atom -5584.042153 kJ/mol
# Density = 2.091884 g / cm^3
# Si number density = 20.966564 Si / 1000 Ang^3
#
#
#
# Elastic Constant Matrix: (Units=GPa)
#
#
# Indices 1 2 3 4 5 6 
#
# 1 102.4660 8.4589 22.1045 -4.7486 -30.9794 -11.0142
# 2 8.4589 45.3882 8.4189 -0.8281 -21.5884 -0.5997
# 3 22.1045 8.4189 52.7568 8.1093 -8.1537 2.8890
# 4 -4.7486 -0.8281 8.1093 26.8451 -1.5228 -12.0034
# 5 -30.9794 -21.5884 -8.1537 -1.5228 46.2410 -0.9446
# 6 -11.0142 -0.5997 2.8890 -12.0034 -0.9446 30.8142
#
#
#
# Elastic Compliance Matrix: (Units=1/GPa)
#
#
# Indices 1 2 3 4 5 6 
#
# 1 0.016766 0.004782 -0.008260 0.011583 0.012630 0.011759
# 2 0.004782 0.030376 -0.005709 0.007210 0.016741 0.006157
# 3 -0.008260 -0.005709 0.025515 -0.014646 -0.004413 -0.011296
# 4 0.011583 0.007210 -0.014646 0.057215 0.011006 0.028279
# 5 0.012630 0.016741 -0.004413 0.011006 0.037706 0.010697
# 6 0.011759 0.006157 -0.011296 0.028279 0.010697 0.049178
#
#
# Mechanical properties :
#
#
# Convention : Reuss Voigt Hill
#
# Bulk Modulus (GPa) = 18.42254 30.95283 24.68768
# Shear Modulus (GPa) = 19.74535 31.55529 25.65032
#
# Velocity S-wave (km/s) = 3.07213 3.88368 3.50150
# Velocity P-wave (km/s) = 4.62490 5.90810 5.30544
#
# Compressibility (1/GPa) = 0.05428134
#
# Stress axis : x y z
#
# Youngs Moduli (GPa) = 59.64506 32.92098 39.19332
#
# Poissons Ratio (x) = -0.15741 0.32374
# Poissons Ratio (y) = -0.28519 0.22375
# Poissons Ratio (z) = 0.49268 0.18794
#
# Static dielectric constant tensor:
#      x y z
#    x 1.896220 -0.007160 -0.036350 
#    y -0.007160 1.730830 0.000660 
#    z -0.036350 0.000660 1.796510 
# 
# From -- ./inp_files/295732.got.cif
#   From: 2010.05.17/outbox.cif.g08.bks.cpg/sg2_148_cif.got.tgz:295732.got - 2010.06.03 11:33:40.
