data_PCOD9022517
_publ_section_title
;
Structure prediction by ZEFSAII (Michael W. Deem and Ramdas Pophale) SiO2 
 PCOD9022517
Probable space group: P -1
;
_chemical_formula_sum "Si O2"
_cell_formula_units_Z 12
_cell_length_a 19.194062
_cell_length_b 7.249359
_cell_length_c 11.223893
_cell_angle_alpha 95.941964
_cell_angle_beta 23.768561
_cell_angle_gamma 96.698068
_cell_volume 625.133996
_symmetry_space_group_name_H-M "P -1"
_symmetry_group_IT_number 2
_symmetry_cell_setting 'triclinic'
loop_
_space_group_symop_operation_xyz
x,y,z
-x,-y,-z
loop_
_atom_site_type_symbol
_atom_site_label
_atom_site_fract_x
_atom_site_fract_y
_atom_site_fract_z
Si Si1 0.674956 0.209094 0.339706
Si Si2 0.272668 0.953910 0.245271
Si Si3 0.177628 0.417810 0.760519
Si Si4 0.684360 0.001062 0.083119
Si Si5 0.432431 0.304374 0.148452
Si Si6 0.909645 0.898294 0.932709
O O1 0.705951 0.414735 0.350708
O O2 0.502872 0.101210 0.651854
O O3 0.660197 0.180686 0.217437
O O4 0.840282 0.090296 0.105919
O O5 0.107447 0.915477 0.585151
O O6 0.355347 0.157487 0.162399
O O7 0.411404 0.800941 0.042662
O O8 0.227766 0.952079 0.175986
O O9 0.285293 0.339153 0.477866
O O10 0.133203 0.262156 0.917854
O O11 0.000000 0.500000 0.000000
O O12 0.796007 0.876590 0.987553
O O13 0.500000 0.500000 0.000000
#
# Coordination Sequence:
#
# PCOD9022517 Si02
#       6
#     2   2   2   2   2   2
#     4   9  21  40  62  90 120 153 206 244 298 354
#     4  11  22  42  62  87 128 155 202 250 295 364
#     4  12  24  40  63  91 123 156 206 249 296 361
#     4   9  20  42  63  90 119 160 200 247 304 348
#     4  11  25  40  62  90 120 166 200 244 304 354
#     4  10  22  39  62  93 116 161 197 247 309 344
#
# _framework density 19.195885000000001
#
# number of rings (size 3 to 8) (size 9 to 14) (size 15 to 20)
#    1.000    0.667    0.000    4.500    0.000    6.000 
#    3.000    0.833    0.000    0.000    0.000    0.000 
#    0.000    0.000    0.000    0.000    0.000    0.000 
#
# Total GULP energy -66962.467603 kJ/mol
# GULP energy per Si atom -5580.205634 kJ/mol
# Density = 1.915219 g / cm^3
# Si number density = 19.195885 Si / 1000 Ang^3
#
#
#
# Elastic Constant Matrix: (Units=GPa)
#
#
# Indices 1 2 3 4 5 6 
#
# 1 70.0381 35.5322 25.1040 5.4627 15.6779 -3.1956
# 2 35.5322 95.2327 31.3768 7.9534 16.8225 -0.0559
# 3 25.1040 31.3768 108.8762 15.7309 -3.3107 -11.8645
# 4 5.4627 7.9534 15.7309 20.2253 -3.2379 -5.0463
# 5 15.6779 16.8225 -3.3107 -3.2379 23.3904 -1.8151
# 6 -3.1956 -0.0559 -11.8645 -5.0463 -1.8151 22.0966
#
#
#
# Elastic Compliance Matrix: (Units=1/GPa)
#
#
# Indices 1 2 3 4 5 6 
#
# 1 0.020483 -0.004154 -0.003484 -0.003220 -0.011728 -0.000618
# 2 -0.004154 0.015338 -0.003540 -0.004806 -0.009752 -0.004361
# 3 -0.003484 -0.003540 0.012535 -0.004994 0.006399 0.005603
# 4 -0.003220 -0.004806 -0.004994 0.061386 0.014340 0.012038
# 5 -0.011728 -0.009752 0.006399 0.014340 0.061296 0.010025
# 6 -0.000618 -0.004361 0.005603 0.012038 0.010025 0.051736
#
#
# Mechanical properties :
#
#
# Convention : Reuss Voigt Hill
#
# Bulk Modulus (GPa) = 38.46234 50.90811 44.68522
# Shear Modulus (GPa) = 19.70081 25.28473 22.49277
#
# Velocity S-wave (km/s) = 3.20707 3.63326 3.42680
# Velocity P-wave (km/s) = 5.81326 6.64670 6.24390
#
# Compressibility (1/GPa) = 0.02599946
#
# Stress axis : x y z
#
# Youngs Moduli (GPa) = 48.82203 65.19680 79.77671
#
# Poissons Ratio (x) = 0.27082 0.27797
# Poissons Ratio (y) = 0.20280 0.28240
# Poissons Ratio (z) = 0.17011 0.23079
#
# Static dielectric constant tensor:
#      x y z
#    x 1.674940 0.005470 -0.016830 
#    y 0.005470 1.640130 0.001700 
#    z -0.016830 0.001700 1.666180 
# 
# From -- ./inp_files/48631.got.cif
#   From: 2010.05.17/outbox.cif.g08.bks.cpg/sg2_25_cif.got.tgz:48631.got - 2010.06.03 11:33:40.
