data_PCOD9022103
_publ_section_title
;
Structure prediction by ZEFSAII (Michael W. Deem and Ramdas Pophale) SiO2 
 PCOD9022103
Probable space group: P -1
;
_chemical_formula_sum "Si O2"
_cell_formula_units_Z 15
_cell_length_a 8.930098
_cell_length_b 9.440087
_cell_length_c 18.701458
_cell_angle_alpha 49.799415
_cell_angle_beta 120.021692
_cell_angle_gamma 78.938935
_cell_volume 654.450383
_symmetry_space_group_name_H-M "P -1"
_symmetry_group_IT_number 2
_symmetry_cell_setting 'triclinic'
loop_
_space_group_symop_operation_xyz
x,y,z
-x,-y,-z
loop_
_atom_site_type_symbol
_atom_site_label
_atom_site_fract_x
_atom_site_fract_y
_atom_site_fract_z
Si Si1 0.750480 0.812530 0.242251
Si Si2 0.751069 0.201970 0.035038
Si Si3 0.634840 0.752700 0.379952
Si Si4 0.000000 0.000000 0.000000
Si Si5 0.932623 0.714221 0.857562
Si Si6 0.212673 0.142770 0.372138
Si Si7 0.385812 0.595020 0.605669
Si Si8 0.230968 0.547587 0.720006
O O1 0.610416 0.913893 0.253892
O O2 0.623552 0.761093 0.176581
O O3 0.063946 0.482517 0.437923
O O4 0.761593 0.003696 0.147597
O O5 0.876418 0.268647 0.086774
O O6 0.433683 0.483743 0.843342
O O7 0.919002 0.051646 0.049711
O O8 0.619845 0.563607 0.401360
O O9 0.388248 0.975924 0.303555
O O10 0.688484 0.344336 0.795020
O O11 0.951285 0.634254 0.806258
O O12 0.000000 0.500000 0.000000
O O13 0.032043 0.294322 0.350376
O O14 0.500000 0.000000 0.500000
O O15 0.284426 0.870717 0.459531
O O16 0.184729 0.708568 0.586295
#
# Coordination Sequence:
#
# PCOD9022103 Si02
#       8
#     2   2   2   1   2   2   2   2
#     4  10  22  42  71 101 127 173 225 282 335 399
#     4  11  24  43  71  97 136 179 222 283 336 406
#     4  10  22  44  68  96 133 169 226 283 337 402
#     4  10  22  38  72  98 130 168 224 286 332 398
#     4  12  29  45  65 101 140 184 223 285 340 395
#     4  12  28  43  70 100 138 185 230 278 333 410
#     4  10  22  44  69  99 131 179 223 280 343 394
#     4  10  24  43  67 104 134 177 221 277 341 407
#
# _framework density 22.919993999999999
#
# number of rings (size 3 to 8) (size 9 to 14) (size 15 to 20)
#    0.000    1.333    1.333    2.400    9.333    1.600 
#    7.200    0.000    0.000    0.000    0.000    0.000 
#    0.000    0.000    0.000    0.000    0.000    0.000 
#
# Total GULP energy -83664.187624 kJ/mol
# GULP energy per Si atom -5577.612508 kJ/mol
# Density = 2.286783 g / cm^3
# Si number density = 22.919994 Si / 1000 Ang^3
#
#
#
# Elastic Constant Matrix: (Units=GPa)
#
#
# Indices 1 2 3 4 5 6 
#
# 1 95.1082 22.4361 9.7764 8.1298 -7.0840 -5.2777
# 2 22.4361 41.7513 0.9044 14.2837 -8.0575 -6.0288
# 3 9.7764 0.9044 50.1708 16.2799 -10.1166 2.3178
# 4 8.1298 14.2837 16.2799 22.6113 0.4885 6.0076
# 5 -7.0840 -8.0575 -10.1166 0.4885 47.6258 -3.6817
# 6 -5.2777 -6.0288 2.3178 6.0076 -3.6817 41.5776
#
#
#
# Elastic Compliance Matrix: (Units=1/GPa)
#
#
# Indices 1 2 3 4 5 6 
#
# 1 0.012376 -0.007319 -0.003041 0.002272 -0.000040 0.000347
# 2 -0.007319 0.045153 0.015395 -0.040290 0.011128 0.011567
# 3 -0.003041 0.015395 0.033097 -0.034226 0.009985 0.005831
# 4 0.002272 -0.040290 -0.034226 0.099006 -0.016263 -0.019391
# 5 -0.000040 0.011128 0.009985 -0.016263 0.025600 0.005669
# 6 0.000347 0.011567 0.005831 -0.019391 0.005669 0.028751
#
#
# Mechanical properties :
#
#
# Convention : Reuss Voigt Hill
#
# Bulk Modulus (GPa) = 9.93095 28.14043 19.03569
# Shear Modulus (GPa) = 18.69315 32.62383 25.65849
#
# Velocity S-wave (km/s) = 2.85894 3.77686 3.34949
# Velocity P-wave (km/s) = 3.90389 5.59678 4.82515
#
# Compressibility (1/GPa) = 0.10069532
#
# Stress axis : x y z
#
# Youngs Moduli (GPa) = 80.80379 22.14714 30.21415
#
# Poissons Ratio (x) = 0.16210 0.09188
# Poissons Ratio (y) = 0.59144 -0.46516
# Poissons Ratio (z) = 0.24573 -0.34096
#
# Static dielectric constant tensor:
#      x y z
#    x 1.856700 0.014700 0.010660 
#    y 0.014700 1.855000 0.004480 
#    z 0.010660 0.004480 1.861410 
# 
# From -- ./inp_files/205360.got.cif
#   From: 2010.05.17/outbox.cif.g08.bks.cpg/sg2_103_cif.got.tgz:205360.got - 2010.06.03 11:33:40.
