data_PCOD9022047
_publ_section_title
;
Structure prediction by ZEFSAII (Michael W. Deem and Ramdas Pophale) SiO2 
 PCOD9022047
Probable space group: P -1
;
_chemical_formula_sum "Si O2"
_cell_formula_units_Z 16
_cell_length_a 22.017199
_cell_length_b 11.175736
_cell_length_c 8.361432
_cell_angle_alpha 125.200310
_cell_angle_beta 32.925355
_cell_angle_gamma 137.099340
_cell_volume 757.135108
_symmetry_space_group_name_H-M "P -1"
_symmetry_group_IT_number 2
_symmetry_cell_setting 'triclinic'
loop_
_space_group_symop_operation_xyz
x,y,z
-x,-y,-z
loop_
_atom_site_type_symbol
_atom_site_label
_atom_site_fract_x
_atom_site_fract_y
_atom_site_fract_z
Si Si1 0.481417 0.124063 0.358552
Si Si2 0.860990 0.526146 0.173667
Si Si3 0.089648 0.554171 0.503859
Si Si4 0.734966 0.527769 0.115400
Si Si5 0.736623 0.145254 0.149756
Si Si6 0.035372 0.889512 0.223725
Si Si7 0.747339 0.875328 0.331748
Si Si8 0.704817 0.076889 0.797082
O O1 0.601420 0.330007 0.263358
O O2 0.366636 0.109592 0.490452
O O3 0.403268 0.029019 0.620787
O O4 0.553632 0.025887 0.071992
O O5 0.809422 0.555457 0.141821
O O6 0.754103 0.325272 0.311165
O O7 0.908720 0.693797 0.307782
O O8 0.992458 0.522560 0.838801
O O9 0.201704 0.762014 0.405271
O O10 0.000000 0.500000 0.500000
O O11 0.169571 0.462266 0.231519
O O12 0.708809 0.678269 0.263969
O O13 0.855382 0.132178 0.945855
O O14 0.744769 0.151132 0.945141
O O15 0.000000 0.000000 0.500000
O O16 0.111956 0.998513 0.975923
O O17 0.741860 0.937563 0.570152
#
# Coordination Sequence:
#
# PCOD9022047 Si02
#       8
#     2   2   2   2   2   2   2   2
#     4  10  22  44  62  94 131 162 216 263 314 366
#     4  11  21  41  64  94 123 167 218 247 315 379
#     4   9  17  35  60  92 117 155 210 261 289 370
#     4  10  22  38  69  90 129 164 214 262 311 369
#     4  11  23  41  68  91 128 169 208 264 309 379
#     4  11  27  42  60  96 139 160 200 264 328 377
#     4  11  24  40  63  96 126 170 207 264 317 373
#     4  11  20  38  68  92 121 167 218 257 305 372
#
# _framework density 21.132293000000001
#
# number of rings (size 3 to 8) (size 9 to 14) (size 15 to 20)
#    0.000    1.500    5.000    1.500    3.500    0.500 
#    0.000    3.125    0.000    0.000    0.000    0.000 
#    0.000    0.000    0.000    0.000    0.000    0.000 
#
# Total GULP energy -89342.776408 kJ/mol
# GULP energy per Si atom -5583.923525 kJ/mol
# Density = 2.108420 g / cm^3
# Si number density = 21.132293 Si / 1000 Ang^3
#
#
#
# Elastic Constant Matrix: (Units=GPa)
#
#
# Indices 1 2 3 4 5 6 
#
# 1 44.6896 15.6173 8.5506 -0.3470 1.5352 2.9942
# 2 15.6173 114.6779 56.0262 24.9465 9.3068 0.7150
# 3 8.5506 56.0262 86.4383 13.1547 1.5488 1.1827
# 4 -0.3470 24.9465 13.1547 38.9357 2.7718 3.0325
# 5 1.5352 9.3068 1.5488 2.7718 15.5607 0.6877
# 6 2.9942 0.7150 1.1827 3.0325 0.6877 32.4394
#
#
#
# Elastic Compliance Matrix: (Units=1/GPa)
#
#
# Indices 1 2 3 4 5 6 
#
# 1 0.023924 -0.003626 -0.000415 0.002901 -0.000562 -0.002372
# 2 -0.003626 0.015334 -0.008469 -0.006592 -0.006844 0.001067
# 3 -0.000415 -0.008469 0.017131 -0.000583 0.003524 -0.000420
# 4 0.002901 -0.006592 -0.000583 0.030469 -0.001584 -0.002916
# 5 -0.000562 -0.006844 0.003524 -0.001584 0.068399 -0.001228
# 6 -0.002372 0.001067 -0.000420 -0.002916 -0.001228 0.031336
#
#
# Mechanical properties :
#
#
# Convention : Reuss Voigt Hill
#
# Bulk Modulus (GPa) = 31.87968 45.13265 38.50616
# Shear Modulus (GPa) = 22.51538 28.42796 25.47167
#
# Velocity S-wave (km/s) = 3.26766 3.67173 3.47557
# Velocity P-wave (km/s) = 5.41806 6.27527 5.86235
#
# Compressibility (1/GPa) = 0.03136794
#
# Stress axis : x y z
#
# Youngs Moduli (GPa) = 41.79916 65.21393 58.37418
#
# Poissons Ratio (x) = 0.23645 0.02425
# Poissons Ratio (y) = 0.15156 0.49438
# Poissons Ratio (z) = 0.01737 0.55231
#
# Static dielectric constant tensor:
#      x y z
#    x 1.812390 0.024290 0.030640 
#    y 0.024290 1.772470 -0.006410 
#    z 0.030640 -0.006410 1.777390 
# 
# From -- ./inp_files/278023.got.cif
#   From: 2010.05.17/outbox.cif.g08.bks.cpg/sg2_140_cif.got.tgz:278023.got - 2010.06.03 11:33:40.
