data_PCOD9022322
_publ_section_title
;
Structure prediction by ZEFSAII (Michael W. Deem and Ramdas Pophale) SiO2 
 PCOD9022322
Probable space group: P -1
;
_chemical_formula_sum "Si O2"
_cell_formula_units_Z 16
_cell_length_a 9.279313
_cell_length_b 9.801966
_cell_length_c 15.357948
_cell_angle_alpha 75.737777
_cell_angle_beta 142.341880
_cell_angle_gamma 92.087865
_cell_volume 796.899317
_symmetry_space_group_name_H-M "P -1"
_symmetry_group_IT_number 2
_symmetry_cell_setting 'triclinic'
loop_
_space_group_symop_operation_xyz
x,y,z
-x,-y,-z
loop_
_atom_site_type_symbol
_atom_site_label
_atom_site_fract_x
_atom_site_fract_y
_atom_site_fract_z
Si Si1 0.946747 0.677142 0.262785
Si Si2 0.650730 0.599497 0.507760
Si Si3 0.929834 0.094734 0.581593
Si Si4 0.375622 0.878834 0.734178
Si Si5 0.870331 0.813274 0.693688
Si Si6 0.837767 0.899777 0.855406
Si Si7 0.440629 0.671857 0.959180
Si Si8 0.838322 0.224565 0.821667
O O1 0.103115 0.514638 0.390522
O O2 0.028274 0.791727 0.345460
O O3 0.028096 0.700164 0.198442
O O4 0.655884 0.700068 0.118082
O O5 0.500000 0.500000 0.500000
O O6 0.734056 0.710482 0.594405
O O7 0.450126 0.696163 0.331615
O O8 0.754120 0.163230 0.407007
O O9 0.834679 0.966712 0.602100
O O10 0.184219 0.010107 0.670901
O O11 0.607443 0.926778 0.804539
O O12 0.450558 0.749257 0.859168
O O13 0.781881 0.841504 0.745305
O O14 0.162949 0.738017 0.848156
O O15 0.892487 0.055538 0.844437
O O16 0.051884 0.785712 0.027744
O O17 0.500000 0.500000 0.000000
#
# Coordination Sequence:
#
# PCOD9022322 Si02
#       8
#     2   2   2   2   2   2   2   2
#     4  11  21  43  67  93 129 177 215 264 322 388
#     4  10  23  40  60  95 133 169 211 265 319 385
#     4  10  23  42  68  99 125 171 221 267 323 377
#     4  10  23  41  66  94 135 164 215 275 316 383
#     4  11  23  41  70  97 126 176 218 261 324 389
#     4  11  22  39  67  99 132 164 215 273 324 375
#     4  11  23  45  65  91 133 176 214 261 324 388
#     4  10  22  39  61 100 134 163 212 274 324 375
#
# _framework density 20.077819000000002
#
# number of rings (size 3 to 8) (size 9 to 14) (size 15 to 20)
#    0.000    1.500    3.750    0.750    3.500    5.000 
#    2.250    3.750    0.000    0.000    0.000    0.000 
#    0.000    0.000    0.000    0.000    0.000    0.000 
#
# Total GULP energy -89363.762673 kJ/mol
# GULP energy per Si atom -5585.235167 kJ/mol
# Density = 2.003212 g / cm^3
# Si number density = 20.077819 Si / 1000 Ang^3
#
#
#
# Elastic Constant Matrix: (Units=GPa)
#
#
# Indices 1 2 3 4 5 6 
#
# 1 54.5524 2.3530 19.0569 2.2108 -1.4570 -2.5868
# 2 2.3530 80.7971 31.1795 19.5038 -7.9211 -6.2626
# 3 19.0569 31.1795 134.1973 -2.4997 4.7650 -6.0426
# 4 2.2108 19.5038 -2.4997 29.7146 1.3123 3.0801
# 5 -1.4570 -7.9211 4.7650 1.3123 19.3994 11.1724
# 6 -2.5868 -6.2626 -6.0426 3.0801 11.1724 8.2072
#
#
#
# Elastic Compliance Matrix: (Units=1/GPa)
#
#
# Indices 1 2 3 4 5 6 
#
# 1 0.019862 0.002080 -0.002538 -0.004350 -0.005207 0.014700
# 2 0.002080 0.018814 -0.004003 -0.014814 -0.001511 0.019682
# 3 -0.002538 -0.004003 0.012618 -0.000336 -0.037520 0.056638
# 4 -0.004350 -0.014814 -0.000336 0.050899 0.040308 -0.086895
# 5 -0.005207 -0.001511 -0.037520 0.040308 0.385426 -0.570221
# 6 0.014700 0.019682 0.056638 -0.086895 -0.570221 0.992040
#
#
# Mechanical properties :
#
#
# Convention : Reuss Voigt Hill
#
# Bulk Modulus (GPa) = 23.59986 41.63619 32.61803
# Shear Modulus (GPa) = 3.32733 25.92807 14.62770
#
# Velocity S-wave (km/s) = 1.28873 3.59747 2.70210
# Velocity P-wave (km/s) = 3.74087 6.16751 5.10060
#
# Compressibility (1/GPa) = 0.04237313
#
# Stress axis : x y z
#
# Youngs Moduli (GPa) = 50.34690 53.15179 79.24953
#
# Poissons Ratio (x) = -0.11056 0.20114
# Poissons Ratio (y) = -0.10472 0.31721
# Poissons Ratio (z) = 0.12778 0.21275
#
# Static dielectric constant tensor:
#      x y z
#    x 1.714770 0.030120 0.034910 
#    y 0.030120 1.700060 -0.008810 
#    z 0.034910 -0.008810 1.747900 
# 
# From -- ./inp_files/209252.got.cif
#   From: 2010.05.17/outbox.cif.g08.bks.cpg/sg2_105_cif.got.tgz:209252.got - 2010.06.03 11:33:40.
