data_PCOD9022635
_publ_section_title
;
Structure prediction by ZEFSAII (Michael W. Deem and Ramdas Pophale) SiO2 
 PCOD9022635
Probable space group: P -1
;
_chemical_formula_sum "Si O2"
_cell_formula_units_Z 16
_cell_length_a 15.979236
_cell_length_b 9.250319
_cell_length_c 8.051647
_cell_angle_alpha 48.375329
_cell_angle_beta 73.048228
_cell_angle_gamma 107.356273
_cell_volume 617.523645
_symmetry_space_group_name_H-M "P -1"
_symmetry_group_IT_number 2
_symmetry_cell_setting 'triclinic'
loop_
_space_group_symop_operation_xyz
x,y,z
-x,-y,-z
loop_
_atom_site_type_symbol
_atom_site_label
_atom_site_fract_x
_atom_site_fract_y
_atom_site_fract_z
Si Si1 0.414887 0.213004 0.982333
Si Si2 0.754201 0.492476 0.071147
Si Si3 0.840840 0.680341 0.383069
Si Si4 0.165063 0.754930 0.351813
Si Si5 0.289054 0.937939 0.776614
Si Si6 0.945297 0.021522 0.749136
Si Si7 0.359633 0.463975 0.201283
Si Si8 0.534936 0.269011 0.546267
O O1 0.497608 0.320492 0.014394
O O2 0.478609 0.182383 0.827160
O O3 0.426868 0.450266 0.725357
O O4 0.274867 0.954996 0.262163
O O5 0.773584 0.316376 0.108117
O O6 0.653975 0.325546 0.402786
O O7 0.875074 0.780081 0.844903
O O8 0.684951 0.527551 0.954689
O O9 0.877704 0.529776 0.402051
O O10 0.704472 0.490266 0.664391
O O11 0.871531 0.878428 0.072944
O O12 0.921087 0.833923 0.384264
O O13 0.067788 0.770931 0.434977
O O14 0.221220 0.857979 0.053843
O O15 0.307620 0.174524 0.501150
O O16 0.422827 0.058831 0.649496
#
# Coordination Sequence:
#
# PCOD9022635 Si02
#       8
#     2   2   2   2   2   2   2   2
#     4   9  19  37  66  93 127 169 201 259 309 376
#     4  12  23  41  62  96 128 170 207 258 319 372
#     4  11  24  44  69  93 118 171 220 259 315 369
#     4  11  20  44  68  95 123 167 215 257 314 374
#     4  10  22  39  63  92 133 167 203 255 316 376
#     4  11  25  44  69  91 125 161 222 272 299 370
#     4  11  23  41  62  95 136 166 202 259 320 377
#     4   9  18  37  60  89 130 166 205 249 306 367
#
# _framework density 25.909935999999998
#
# number of rings (size 3 to 8) (size 9 to 14) (size 15 to 20)
#    0.000    1.500    3.750    2.250    0.000    4.000 
#    4.500    0.625    0.000    0.000    0.000    0.000 
#    0.000    0.000    0.000    0.000    0.000    0.000 
#
# Total GULP energy -89702.613829 kJ/mol
# GULP energy per Si atom -5606.413364 kJ/mol
# Density = 2.585096 g / cm^3
# Si number density = 25.909936 Si / 1000 Ang^3
#
#
#
# Elastic Constant Matrix: (Units=GPa)
#
#
# Indices 1 2 3 4 5 6 
#
# 1 78.3463 44.2281 9.8206 -14.5169 14.2350 9.5148
# 2 44.2281 122.7304 9.3728 -26.3281 1.2342 0.8281
# 3 9.8206 9.3728 42.0280 -3.1151 6.6206 -8.2878
# 4 -14.5169 -26.3281 -3.1151 42.9545 -3.9413 1.1145
# 5 14.2350 1.2342 6.6206 -3.9413 38.3382 -8.4787
# 6 9.5148 0.8281 -8.2878 1.1145 -8.4787 42.3397
#
#
#
# Elastic Compliance Matrix: (Units=1/GPa)
#
#
# Indices 1 2 3 4 5 6 
#
# 1 0.019101 -0.006114 -0.003010 0.001959 -0.007574 -0.006330
# 2 -0.006114 0.011485 -0.000930 0.005135 0.002902 0.001413
# 3 -0.003010 -0.000930 0.026104 -0.000033 -0.002176 0.005369
# 4 0.001959 0.005135 -0.000033 0.027269 0.001713 -0.000922
# 5 -0.007574 0.002902 -0.002176 0.001713 0.030986 0.007379
# 6 -0.006330 0.001413 0.005369 -0.000922 0.007379 0.027566
#
#
# Mechanical properties :
#
#
# Convention : Reuss Voigt Hill
#
# Bulk Modulus (GPa) = 27.33681 41.10527 34.22104
# Shear Modulus (GPa) = 28.60192 36.70538 32.65365
#
# Velocity S-wave (km/s) = 3.32610 3.76793 3.55389
# Velocity P-wave (km/s) = 5.03232 5.90160 5.48421
#
# Compressibility (1/GPa) = 0.03658072
#
# Stress axis : x y z
#
# Youngs Moduli (GPa) = 52.35430 87.06735 38.30893
#
# Poissons Ratio (x) = 0.53236 0.11529
# Poissons Ratio (y) = 0.32011 0.03564
# Poissons Ratio (z) = 0.15757 0.08101
#
# Static dielectric constant tensor:
#      x y z
#    x 1.971600 0.008810 0.031070 
#    y 0.008810 2.063850 0.029110 
#    z 0.031070 0.029110 2.033690 
# 
# From -- ./inp_files/187935.got.cif
#   From: 2010.05.17/outbox.cif.g08.bks.cpg/sg2_94_cif.got.tgz:187935.got - 2010.06.03 11:33:40.
