data_PCOD9022095
_publ_section_title
;
Structure prediction by ZEFSAII (Michael W. Deem and Ramdas Pophale) SiO2 
 PCOD9022095
Probable space group: P -1
;
_chemical_formula_sum "Si O2"
_cell_formula_units_Z 15
_cell_length_a 8.357559
_cell_length_b 16.195892
_cell_length_c 9.957612
_cell_angle_alpha 51.312507
_cell_angle_beta 45.183015
_cell_angle_gamma 45.104793
_cell_volume 655.112569
_symmetry_space_group_name_H-M "P -1"
_symmetry_group_IT_number 2
_symmetry_cell_setting 'triclinic'
loop_
_space_group_symop_operation_xyz
x,y,z
-x,-y,-z
loop_
_atom_site_type_symbol
_atom_site_label
_atom_site_fract_x
_atom_site_fract_y
_atom_site_fract_z
Si Si1 0.010028 0.373844 0.585978
Si Si2 0.170868 0.946971 0.085078
Si Si3 0.716889 0.980488 0.502463
Si Si4 0.450882 0.754282 0.668078
Si Si5 0.000000 0.500000 0.000000
Si Si6 0.268210 0.221757 0.108095
Si Si7 0.927098 0.806676 0.036326
Si Si8 0.534826 0.482411 0.160437
O O1 0.706032 0.419857 0.708665
O O2 0.000000 0.500000 0.500000
O O3 0.246129 0.305099 0.412434
O O4 0.095204 0.280306 0.753690
O O5 0.986907 0.937186 0.313404
O O6 0.427918 0.824294 0.037316
O O7 0.237837 0.052330 0.978539
O O8 0.000000 0.000000 0.000000
O O9 0.746619 0.878880 0.690191
O O10 0.500000 0.000000 0.500000
O O11 0.634316 0.113535 0.475025
O O12 0.441788 0.649328 0.691754
O O13 0.225286 0.780383 0.882246
O O14 0.784555 0.488782 0.046207
O O15 0.123963 0.355836 0.110692
O O16 0.156046 0.218545 0.031850
O O17 0.500000 0.500000 0.000000
#
# Coordination Sequence:
#
# PCOD9022095 Si02
#       8
#     2   2   2   2   1   2   2   2
#     4  10  22  38  72 103 137 191 247 292 359 455
#     4  11  25  44  74 104 139 192 244 303 373 440
#     4  11  25  43  72 106 138 187 249 311 367 440
#     4  10  22  41  69 105 138 186 254 291 377 435
#     4  12  28  44  74 106 150 200 242 300 374 450
#     4  12  26  48  70 105 153 186 245 309 368 445
#     4  11  23  45  69 107 143 190 240 306 386 426
#     4  11  22  44  69  99 144 204 242 298 368 442
#
# _framework density 22.896829
#
# number of rings (size 3 to 8) (size 9 to 14) (size 15 to 20)
#    0.000    1.067    4.000    1.200    3.733    3.200 
#    0.000    0.667    0.000    0.000    0.000    0.000 
#    0.000    0.000    0.000    0.000    0.000    0.000 
#
# Total GULP energy -83516.446118 kJ/mol
# GULP energy per Si atom -5567.763075 kJ/mol
# Density = 2.284472 g / cm^3
# Si number density = 22.896829 Si / 1000 Ang^3
#
#
#
# Elastic Constant Matrix: (Units=GPa)
#
#
# Indices 1 2 3 4 5 6 
#
# 1 114.1247 26.6119 39.0215 -11.2135 -15.1254 -5.6866
# 2 26.6119 98.4985 69.1939 -17.9643 -2.3287 -16.7287
# 3 39.0215 69.1939 124.7249 -21.4697 -7.9221 -5.4916
# 4 -11.2135 -17.9643 -21.4697 52.5389 2.7022 -19.0112
# 5 -15.1254 -2.3287 -7.9221 2.7022 18.3534 -3.3262
# 6 -5.6866 -16.7287 -5.4916 -19.0112 -3.3262 26.7892
#
#
#
# Elastic Compliance Matrix: (Units=1/GPa)
#
#
# Indices 1 2 3 4 5 6 
#
# 1 0.011226 0.000272 -0.002360 0.002982 0.008785 0.005276
# 2 0.000272 0.022152 -0.009594 0.010792 0.000873 0.019691
# 3 -0.002360 -0.009594 0.014293 0.001012 0.002397 -0.002546
# 4 0.002982 0.010792 0.001012 0.035633 0.005088 0.033499
# 5 0.008785 0.000873 0.002397 0.005088 0.064759 0.014553
# 6 0.005276 0.019691 -0.002546 0.033499 0.014553 0.075802
#
#
# Mechanical properties :
#
#
# Convention : Reuss Voigt Hill
#
# Bulk Modulus (GPa) = 41.13959 67.44473 54.29216
# Shear Modulus (GPa) = 19.58245 33.03769 26.31007
#
# Velocity S-wave (km/s) = 2.92763 3.80267 3.39347
# Velocity P-wave (km/s) = 5.42535 6.98572 6.25438
#
# Compressibility (1/GPa) = 0.02430749
#
# Stress axis : x y z
#
# Youngs Moduli (GPa) = 89.08038 45.14288 69.96531
#
# Poissons Ratio (x) = -0.01229 0.16509
# Poissons Ratio (y) = -0.02426 0.67127
# Poissons Ratio (z) = 0.21019 0.43311
#
# Static dielectric constant tensor:
#      x y z
#    x 1.827670 -0.017980 -0.035650 
#    y -0.017980 1.894000 0.076190 
#    z -0.035650 0.076190 1.967560 
# 
# From -- ./inp_files/401767.got.cif
#   From: 2010.05.17/outbox.cif.g08.bks.cpg/sg2_201_cif.got.tgz:401767.got - 2010.06.03 11:33:40.
