data_PCOD9022655
_publ_section_title
;
Structure prediction by ZEFSAII (Michael W. Deem and Ramdas Pophale) SiO2 
 PCOD9022655
Probable space group: P -1
;
_chemical_formula_sum "Si O2"
_cell_formula_units_Z 16
_cell_length_a 6.888955
_cell_length_b 7.995593
_cell_length_c 18.231302
_cell_angle_alpha 90.397260
_cell_angle_beta 133.963146
_cell_angle_gamma 82.638557
_cell_volume 712.107751
_symmetry_space_group_name_H-M "P -1"
_symmetry_group_IT_number 2
_symmetry_cell_setting 'triclinic'
loop_
_space_group_symop_operation_xyz
x,y,z
-x,-y,-z
loop_
_atom_site_type_symbol
_atom_site_label
_atom_site_fract_x
_atom_site_fract_y
_atom_site_fract_z
Si Si1 0.894499 0.602218 0.067262
Si Si2 0.028658 0.247549 0.616192
Si Si3 0.121852 0.620846 0.663196
Si Si4 0.437631 0.908467 0.690779
Si Si5 0.726066 0.918594 0.921309
Si Si6 0.577767 0.460580 0.875922
Si Si7 0.734646 0.812040 0.171373
Si Si8 0.555093 0.830579 0.562715
O O1 0.841798 0.698200 0.129874
O O2 0.208464 0.526550 0.133174
O O3 0.811602 0.738302 0.981224
O O4 0.706918 0.469993 0.990389
O O5 0.119479 0.431332 0.630257
O O6 0.040959 0.198045 0.706403
O O7 0.720616 0.249732 0.510403
O O8 0.232309 0.089576 0.633390
O O9 0.261984 0.756991 0.655988
O O10 0.300509 0.588023 0.785078
O O11 0.813319 0.704358 0.599349
O O12 0.629510 0.911098 0.812085
O O13 0.604611 0.877861 0.659777
O O14 0.448498 0.007221 0.891347
O O15 0.000000 0.000000 0.000000
O O16 0.495303 0.276806 0.849270
O O17 0.500000 0.000000 0.500000
#
# Coordination Sequence:
#
# PCOD9022655 Si02
#       8
#     2   2   2   2   2   2   2   2
#     4  11  21  38  64  91 132 175 214 261 327 395
#     4  10  24  47  68 102 137 176 232 279 343 407
#     4  11  24  46  71 102 136 174 231 281 340 409
#     4  11  25  48  70  98 143 178 221 291 336 402
#     4  11  22  41  64  98 133 174 224 265 334 400
#     4  10  22  40  60  96 131 168 218 266 324 399
#     4  10  22  39  63  93 130 169 217 274 318 391
#     4  12  26  47  74 101 133 180 229 284 351 407
#
# _framework density 22.468513000000002
#
# number of rings (size 3 to 8) (size 9 to 14) (size 15 to 20)
#    0.000    1.250    3.750    1.500    0.000    4.500 
#    2.250    0.000    0.000    0.000    0.000    0.000 
#    0.000    0.000    0.000    0.000    0.000    0.000 
#
# Total GULP energy -89351.803829 kJ/mol
# GULP energy per Si atom -5584.487739 kJ/mol
# Density = 2.241737 g / cm^3
# Si number density = 22.468513 Si / 1000 Ang^3
#
#
#
# Elastic Constant Matrix: (Units=GPa)
#
#
# Indices 1 2 3 4 5 6 
#
# 1 45.1238 20.0439 17.0805 4.1907 -7.0932 -2.6574
# 2 20.0439 108.7913 9.8233 -8.9745 5.4562 0.2214
# 3 17.0805 9.8233 88.8190 2.8087 12.9519 -4.6656
# 4 4.1907 -8.9745 2.8087 35.4173 -7.6840 6.4228
# 5 -7.0932 5.4562 12.9519 -7.6840 30.9400 5.6540
# 6 -2.6574 0.2214 -4.6656 6.4228 5.6540 23.8759
#
#
#
# Elastic Compliance Matrix: (Units=1/GPa)
#
#
# Indices 1 2 3 4 5 6 
#
# 1 0.028617 -0.005376 -0.006196 -0.002275 0.009466 0.000395
# 2 -0.005376 0.010538 0.000040 0.003008 -0.002181 -0.000981
# 3 -0.006196 0.000040 0.014145 -0.003279 -0.009097 0.005110
# 4 -0.002275 0.003008 -0.003279 0.034267 0.011167 -0.012784
# 5 0.009466 -0.002181 -0.009097 0.011167 0.044040 -0.014137
# 6 0.000395 -0.000981 0.005110 -0.012784 -0.014137 0.049722
#
#
# Mechanical properties :
#
#
# Convention : Reuss Voigt Hill
#
# Bulk Modulus (GPa) = 33.07440 37.40328 35.23884
# Shear Modulus (GPa) = 23.31294 31.09909 27.20601
#
# Velocity S-wave (km/s) = 3.22465 3.72441 3.48350
# Velocity P-wave (km/s) = 5.34946 5.93111 5.64778
#
# Compressibility (1/GPa) = 0.03023487
#
# Stress axis : x y z
#
# Youngs Moduli (GPa) = 34.94397 94.89142 70.69784
#
# Poissons Ratio (x) = 0.51015 0.43807
# Poissons Ratio (y) = 0.18787 -0.00281
# Poissons Ratio (z) = 0.21652 -0.00378
#
# Static dielectric constant tensor:
#      x y z
#    x 1.814880 0.054480 0.028550 
#    y 0.054480 1.919040 0.035620 
#    z 0.028550 0.035620 1.924740 
# 
# From -- ./inp_files/504446.got.cif
#   From: 2010.05.17/outbox.cif.g08.bks.cpg/sg2_253_cif.got.tgz:504446.got - 2010.06.03 11:33:40.
