data_PCOD9022210
_publ_section_title
;
Structure prediction by ZEFSAII (Michael W. Deem and Ramdas Pophale) SiO2 
 PCOD9022210
Probable space group: P -1
;
_chemical_formula_sum "Si O2"
_cell_formula_units_Z 10
_cell_length_a 10.845673
_cell_length_b 11.570125
_cell_length_c 5.450085
_cell_angle_alpha 68.019775
_cell_angle_beta 86.505469
_cell_angle_gamma 132.616920
_cell_volume 414.227421
_symmetry_space_group_name_H-M "P -1"
_symmetry_group_IT_number 2
_symmetry_cell_setting 'triclinic'
loop_
_space_group_symop_operation_xyz
x,y,z
-x,-y,-z
loop_
_atom_site_type_symbol
_atom_site_label
_atom_site_fract_x
_atom_site_fract_y
_atom_site_fract_z
Si Si1 0.325699 0.773050 0.191977
Si Si2 0.779716 0.323056 0.221383
Si Si3 0.147601 0.847032 0.374073
Si Si4 0.327457 0.247183 0.964652
Si Si5 0.750271 0.670577 0.587863
O O1 0.300730 0.676612 0.520854
O O2 0.149888 0.736962 0.262021
O O3 0.321874 0.708813 0.981885
O O4 0.500000 0.000000 0.000000
O O5 0.754513 0.155280 0.412966
O O6 0.000000 0.500000 0.000000
O O7 0.935940 0.727820 0.543856
O O8 0.268099 0.057789 0.115403
O O9 0.550271 0.446942 0.774077
O O10 0.238259 0.244234 0.736776
O O11 0.255396 0.248148 0.231856
#
# Coordination Sequence:
#
# PCOD9022210 Si02
#       5
#     2   2   2   2   2
#     4  10  23  41  61  89 123 162 208 255 307 364
#     4  10  23  41  61  89 123 162 208 255 307 364
#     4  10  24  36  68  86 122 160 208 238 322 348
#     4  10  22  39  59  90 124 156 199 250 300 365
#     4  10  22  39  59  90 124 156 199 250 300 365
#
# _framework density 24.14133
#
# number of rings (size 3 to 8) (size 9 to 14) (size 15 to 20)
#    1.200    0.800    0.000    2.400    5.600    1.600 
#    0.000    0.000    0.000    0.000    0.000    0.000 
#    0.000    0.000    0.000    0.000    0.000    0.000 
#
# Total GULP energy -55846.172282 kJ/mol
# GULP energy per Si atom -5584.617228 kJ/mol
# Density = 2.408638 g / cm^3
# Si number density = 24.141330 Si / 1000 Ang^3
#
#
#
# Elastic Constant Matrix: (Units=GPa)
#
#
# Indices 1 2 3 4 5 6 
#
# 1 85.9008 8.2769 8.8055 13.0932 10.0838 -8.8491
# 2 8.2769 72.8522 62.9235 27.0790 9.1068 2.7596
# 3 8.8055 62.9235 144.8111 35.9623 4.5449 -1.1014
# 4 13.0932 27.0790 35.9623 58.9493 4.8055 7.3908
# 5 10.0838 9.1068 4.5449 4.8055 32.4042 -13.2533
# 6 -8.8491 2.7596 -1.1014 7.3908 -13.2533 21.8110
#
#
#
# Elastic Compliance Matrix: (Units=1/GPa)
#
#
# Indices 1 2 3 4 5 6 
#
# 1 0.012919 -0.000658 0.000447 -0.003512 -0.000936 0.005968
# 2 -0.000658 0.024752 -0.009577 -0.003819 -0.007852 -0.007359
# 3 0.000447 -0.009577 0.011961 -0.004015 0.003783 0.005656
# 4 -0.003512 -0.003819 -0.004015 0.024090 -0.006188 -0.013067
# 5 -0.000936 -0.007852 0.003783 -0.006188 0.046484 0.031147
# 6 0.005968 -0.007359 0.005656 -0.013067 0.031147 0.072841
#
#
# Mechanical properties :
#
#
# Convention : Reuss Voigt Hill
#
# Bulk Modulus (GPa) = 33.26869 51.50843 42.38856
# Shear Modulus (GPa) = 22.45766 37.53678 29.99722
#
# Velocity S-wave (km/s) = 3.05332 3.94747 3.52883
# Velocity P-wave (km/s) = 5.12261 6.49301 5.84809
#
# Compressibility (1/GPa) = 0.03005829
#
# Stress axis : x y z
#
# Youngs Moduli (GPa) = 77.40586 40.40004 83.60633
#
# Poissons Ratio (x) = 0.02656 -0.03738
# Poissons Ratio (y) = 0.05090 0.80066
# Poissons Ratio (z) = -0.03461 0.38689
#
# Static dielectric constant tensor:
#      x y z
#    x 1.904950 0.008950 -0.046860 
#    y 0.008950 1.964750 0.056640 
#    z -0.046860 0.056640 2.012020 
# 
# From -- ./inp_files/20632.got.cif
#   From: 2010.05.17/outbox.cif.g08.bks.cpg/sg2_11_cif.got.tgz:20632.got - 2010.06.03 11:33:40.
