data_PCOD9022144
_publ_section_title
;
Structure prediction by ZEFSAII (Michael W. Deem and Ramdas Pophale) SiO2 
 PCOD9022144
Probable space group: P -1
;
_chemical_formula_sum "Si O2"
_cell_formula_units_Z 14
_cell_length_a 8.423103
_cell_length_b 11.096753
_cell_length_c 12.325550
_cell_angle_alpha 63.353841
_cell_angle_beta 131.049254
_cell_angle_gamma 121.556591
_cell_volume 730.430614
_symmetry_space_group_name_H-M "P -1"
_symmetry_group_IT_number 2
_symmetry_cell_setting 'triclinic'
loop_
_space_group_symop_operation_xyz
x,y,z
-x,-y,-z
loop_
_atom_site_type_symbol
_atom_site_label
_atom_site_fract_x
_atom_site_fract_y
_atom_site_fract_z
Si Si1 0.263848 0.811309 0.267941
Si Si2 0.282969 0.877055 0.993364
Si Si3 0.552690 0.611419 0.814667
Si Si4 0.161912 0.581157 0.944201
Si Si5 0.134917 0.067947 0.143138
Si Si6 0.041265 0.488835 0.700155
Si Si7 0.434946 0.587714 0.530377
O O1 0.297870 0.837261 0.143515
O O2 0.437543 0.740855 0.422925
O O3 0.028054 0.681577 0.235669
O O4 0.259001 0.953994 0.267636
O O5 0.261421 0.741965 0.963502
O O6 0.059572 0.920486 0.869560
O O7 0.500000 0.000000 0.000000
O O8 0.689943 0.771327 0.852922
O O9 0.289921 0.563201 0.740383
O O10 0.571571 0.605587 0.694750
O O11 0.656062 0.497707 0.955888
O O12 0.030193 0.561826 0.780947
O O13 0.000000 0.500000 0.000000
O O14 0.000000 0.000000 0.000000
O O15 0.831591 0.493669 0.533252
O O16 0.500000 0.500000 0.500000
#
# Coordination Sequence:
#
# PCOD9022144 Si02
#       7
#     2   2   2   2   2   2   2
#     4   9  21  41  56  84 129 154 199 250 303 356
#     4  11  23  35  60  89 121 162 203 252 307 355
#     4  12  23  38  69  90 121 167 207 244 310 370
#     4  12  20  38  60  93 122 155 210 258 302 351
#     4  10  22  39  57  88 126 158 198 252 305 357
#     4  10  23  38  63  92 122 159 205 256 297 366
#     4  10  22  42  65  89 125 159 202 258 307 359
#
# _framework density 19.166777
#
# number of rings (size 3 to 8) (size 9 to 14) (size 15 to 20)
#    0.857    0.571    2.857    3.429    6.000    0.571 
#    0.000    0.000    0.000    1.714    0.000    0.000 
#    0.000    0.000    0.000    0.000    0.000    0.000 
#
# Total GULP energy -78034.611178 kJ/mol
# GULP energy per Si atom -5573.900798 kJ/mol
# Density = 1.912315 g / cm^3
# Si number density = 19.166777 Si / 1000 Ang^3
#
#
#
# Elastic Constant Matrix: (Units=GPa)
#
#
# Indices 1 2 3 4 5 6 
#
# 1 75.8205 43.7794 0.1750 4.9189 13.8921 3.8856
# 2 43.7794 171.7808 20.1271 7.8453 10.7077 -9.4946
# 3 0.1750 20.1271 65.2317 4.6466 -3.3497 -10.3522
# 4 4.9189 7.8453 4.6466 29.6477 -5.4727 8.6692
# 5 13.8921 10.7077 -3.3497 -5.4727 30.4077 3.3466
# 6 3.8856 -9.4946 -10.3522 8.6692 3.3466 31.2285
#
#
#
# Elastic Compliance Matrix: (Units=1/GPa)
#
#
# Indices 1 2 3 4 5 6 
#
# 1 0.016930 -0.003968 0.000770 -0.002610 -0.006543 -0.001632
# 2 -0.003968 0.007408 -0.001734 -0.002214 -0.001712 0.002969
# 3 0.000770 -0.001734 0.017154 -0.003999 0.000758 0.006092
# 4 -0.002610 -0.002214 -0.003999 0.041520 0.010582 -0.014334
# 5 -0.006543 -0.001712 0.000758 0.010582 0.039192 -0.006593
# 6 -0.001632 0.002969 0.006092 -0.014334 -0.006593 0.039833
#
#
# Mechanical properties :
#
#
# Convention : Reuss Voigt Hill
#
# Bulk Modulus (GPa) = 31.61845 48.99956 40.30901
# Shear Modulus (GPa) = 27.40573 34.84021 31.12297
#
# Velocity S-wave (km/s) = 3.78545 4.26812 4.03401
# Velocity P-wave (km/s) = 5.96979 7.06466 6.54018
#
# Compressibility (1/GPa) = 0.03162710
#
# Stress axis : x y z
#
# Youngs Moduli (GPa) = 59.06582 134.99252 58.29712
#
# Poissons Ratio (x) = 0.53567 -0.04488
# Poissons Ratio (y) = 0.23438 0.10109
# Poissons Ratio (z) = -0.04547 0.23407
#
# Static dielectric constant tensor:
#      x y z
#    x 1.685940 -0.004550 0.021320 
#    y -0.004550 1.637610 -0.009110 
#    z 0.021320 -0.009110 1.721780 
# 
# From -- ./inp_files/490854.got.cif
#   From: 2010.05.17/outbox.cif.g08.bks.cpg/sg2_246_cif.got.tgz:490854.got - 2010.06.03 11:33:40.
