data_PCOD9022361
_publ_section_title
;
Structure prediction by ZEFSAII (Michael W. Deem and Ramdas Pophale) SiO2 
 PCOD9022361
Probable space group: P -1
;
_chemical_formula_sum "Si O2"
_cell_formula_units_Z 14
_cell_length_a 14.043854
_cell_length_b 6.447226
_cell_length_c 9.493882
_cell_angle_alpha 53.198190
_cell_angle_beta 90.127128
_cell_angle_gamma 73.568878
_cell_volume 643.489380
_symmetry_space_group_name_H-M "P -1"
_symmetry_group_IT_number 2
_symmetry_cell_setting 'triclinic'
loop_
_space_group_symop_operation_xyz
x,y,z
-x,-y,-z
loop_
_atom_site_type_symbol
_atom_site_label
_atom_site_fract_x
_atom_site_fract_y
_atom_site_fract_z
Si Si1 0.945014 0.948476 0.379550
Si Si2 0.436628 0.819420 0.392571
Si Si3 0.454552 0.786638 0.728232
Si Si4 0.110558 0.543864 0.333625
Si Si5 0.764257 0.076365 0.827064
Si Si6 0.855651 0.490558 0.970404
Si Si7 0.665075 0.344812 0.978296
O O1 0.874452 0.771051 0.495976
O O2 0.022684 0.748061 0.348303
O O3 0.894338 0.240661 0.182422
O O4 0.000000 0.000000 0.500000
O O5 0.500000 0.500000 0.500000
O O6 0.416961 0.879755 0.534036
O O7 0.332962 0.890577 0.280401
O O8 0.507138 0.993912 0.280546
O O9 0.558662 0.517438 0.831324
O O10 0.369369 0.730311 0.842108
O O11 0.202120 0.659843 0.305899
O O12 0.087802 0.573273 0.153915
O O13 0.729691 0.090785 0.983560
O O14 0.851480 0.785652 0.909021
O O15 0.738930 0.517282 0.927782
#
# Coordination Sequence:
#
# PCOD9022361 Si02
#       7
#     2   2   2   2   2   2   2
#     4  11  25  46  72 101 129 172 218 267 336 404
#     4  11  22  38  62  91 128 171 219 268 322 376
#     4  10  22  39  61  89 126 171 219 269 314 377
#     4  10  25  45  70  97 136 169 218 268 334 399
#     4  11  23  41  67  97 132 174 220 268 327 387
#     4  11  24  44  67  98 136 172 217 276 329 392
#     4  10  22  40  61  89 128 169 216 268 322 375
#
# _framework density 21.756381000000001
#
# number of rings (size 3 to 8) (size 9 to 14) (size 15 to 20)
#    0.000    1.429    2.857    1.286    0.000   12.000 
#    0.000    0.000    0.000    0.000    0.000    0.000 
#    0.000    0.000    0.000    0.000    0.000    0.000 
#
# Total GULP energy -78219.390377 kJ/mol
# GULP energy per Si atom -5587.099313 kJ/mol
# Density = 2.170686 g / cm^3
# Si number density = 21.756381 Si / 1000 Ang^3
#
#
#
# Elastic Constant Matrix: (Units=GPa)
#
#
# Indices 1 2 3 4 5 6 
#
# 1 65.4516 33.0986 21.1278 8.0952 -16.6593 8.8828
# 2 33.0986 129.0335 42.7589 -6.6086 -4.4603 9.8735
# 3 21.1278 42.7589 91.4463 1.1202 -10.1262 1.0568
# 4 8.0952 -6.6086 1.1202 31.4900 -1.3449 -7.4877
# 5 -16.6593 -4.4603 -10.1262 -1.3449 31.2300 -0.1383
# 6 8.8828 9.8735 1.0568 -7.4877 -0.1383 26.3638
#
#
#
# Elastic Compliance Matrix: (Units=1/GPa)
#
#
# Indices 1 2 3 4 5 6 
#
# 1 0.023144 -0.004794 -0.001722 -0.008402 0.010704 -0.008264
# 2 -0.004794 0.010515 -0.004082 0.003187 -0.002248 -0.001265
# 3 -0.001722 -0.004082 0.013549 -0.000426 0.002880 0.001460
# 4 -0.008402 0.003187 -0.000426 0.037410 -0.002500 0.012266
# 5 0.010704 -0.002248 0.002880 -0.002500 0.038221 -0.003390
# 6 -0.008264 -0.001265 0.001460 0.012266 -0.003390 0.044597
#
#
# Mechanical properties :
#
#
# Convention : Reuss Voigt Hill
#
# Bulk Modulus (GPa) = 38.44416 53.32244 45.88330
# Shear Modulus (GPa) = 25.34180 30.41316 27.87748
#
# Velocity S-wave (km/s) = 3.41662 3.74290 3.58347
# Velocity P-wave (km/s) = 5.76828 6.57580 6.18523
#
# Compressibility (1/GPa) = 0.02601175
#
# Stress axis : x y z
#
# Youngs Moduli (GPa) = 43.20782 95.10379 73.80494
#
# Poissons Ratio (x) = 0.45594 0.12707
# Poissons Ratio (y) = 0.20714 0.30129
# Poissons Ratio (z) = 0.07439 0.38824
#
# Static dielectric constant tensor:
#      x y z
#    x 1.798640 -0.001100 -0.002550 
#    y -0.001100 1.812580 -0.015720 
#    z -0.002550 -0.015720 1.776360 
# 
# From -- ./inp_files/40109.got.cif
#   From: 2010.05.17/outbox.cif.g08.bks.cpg/sg2_21_cif.got.tgz:40109.got - 2010.06.03 11:33:40.
