data_PCOD9022943
_publ_section_title
;
Structure prediction by ZEFSAII (Michael W. Deem and Ramdas Pophale) SiO2 
 PCOD9022943
Probable space group: P -1
;
_chemical_formula_sum "Si O2"
_cell_formula_units_Z 14
_cell_length_a 13.407032
_cell_length_b 9.662277
_cell_length_c 7.527305
_cell_angle_alpha 113.937099
_cell_angle_beta 39.735307
_cell_angle_gamma 123.933983
_cell_volume 516.653559
_symmetry_space_group_name_H-M "P -1"
_symmetry_group_IT_number 2
_symmetry_cell_setting 'triclinic'
loop_
_space_group_symop_operation_xyz
x,y,z
-x,-y,-z
loop_
_atom_site_type_symbol
_atom_site_label
_atom_site_fract_x
_atom_site_fract_y
_atom_site_fract_z
Si Si1 0.830418 0.176448 0.160347
Si Si2 0.455585 0.690477 0.309865
Si Si3 0.698149 0.708057 0.677276
Si Si4 0.683252 0.162783 0.993707
Si Si5 0.674063 0.882268 0.448817
Si Si6 0.972236 0.709763 0.553148
Si Si7 0.104813 0.466236 0.086632
O O1 0.685274 0.235239 0.454349
O O2 0.762464 0.106527 0.023701
O O3 0.009573 0.340205 0.994297
O O4 0.826956 0.038572 0.230152
O O5 0.369108 0.491382 0.349558
O O6 0.583513 0.770983 0.341557
O O7 0.552152 0.729425 0.008218
O O8 0.720935 0.790904 0.497159
O O9 0.868309 0.775570 0.600983
O O10 0.479995 0.076524 0.234657
O O11 0.728759 0.361500 0.073131
O O12 0.822231 0.176900 0.659823
O O13 0.881015 0.647830 0.833259
O O14 0.972556 0.541629 0.376886
#
# Coordination Sequence:
#
# PCOD9022943 Si02
#       7
#     2   2   2   2   2   2   2
#     4  11  21  42  63  97 125 166 213 262 311 382
#     4  10  22  39  65  92 129 166 218 255 310 378
#     4  11  23  40  64  96 131 166 207 267 316 374
#     4   9  19  37  66  89 119 166 214 261 297 370
#     4  11  25  41  65  98 132 162 210 264 325 366
#     4   9  20  38  62  93 123 155 223 257 309 364
#     4   9  19  36  65  91 118 164 217 253 304 373
#
# _framework density 27.097462
#
# number of rings (size 3 to 8) (size 9 to 14) (size 15 to 20)
#    0.857    1.143    1.429    2.571    6.000    0.571 
#    5.143    1.429    0.000    0.000    0.000    0.000 
#    0.000    0.000    0.000    0.000    0.000    0.000 
#
# Total GULP energy -78367.266048 kJ/mol
# GULP energy per Si atom -5597.661861 kJ/mol
# Density = 2.703579 g / cm^3
# Si number density = 27.097462 Si / 1000 Ang^3
#
#
#
# Elastic Constant Matrix: (Units=GPa)
#
#
# Indices 1 2 3 4 5 6 
#
# 1 108.2468 40.7437 14.0712 -20.9801 12.1540 -17.4975
# 2 40.7437 106.4957 34.7873 -33.6953 9.1095 -2.9008
# 3 14.0712 34.7873 86.4048 -9.6638 1.6781 -17.1019
# 4 -20.9801 -33.6953 -9.6638 50.2539 -6.7478 5.6658
# 5 12.1540 9.1095 1.6781 -6.7478 31.4699 -17.3953
# 6 -17.4975 -2.9008 -17.1019 5.6658 -17.3953 40.5432
#
#
#
# Elastic Compliance Matrix: (Units=1/GPa)
#
#
# Indices 1 2 3 4 5 6 
#
# 1 0.011819 -0.004075 0.000861 0.001775 -0.000430 0.004740
# 2 -0.004075 0.015475 -0.005816 0.007659 -0.004275 -0.006010
# 3 0.000861 -0.005816 0.015309 -0.000888 0.005188 0.008764
# 4 0.001775 0.007659 -0.000888 0.026049 0.001622 -0.002005
# 5 -0.000430 -0.004275 0.005188 0.001622 0.044654 0.020630
# 6 0.004740 -0.006010 0.008764 -0.002005 0.020630 0.039109
#
#
# Mechanical properties :
#
#
# Convention : Reuss Voigt Hill
#
# Bulk Modulus (GPa) = 40.74756 53.37239 47.05997
# Shear Modulus (GPa) = 27.98671 38.55639 33.27155
#
# Velocity S-wave (km/s) = 3.21723 3.77620 3.50787
# Velocity P-wave (km/s) = 5.37316 6.22512 5.81476
#
# Compressibility (1/GPa) = 0.02454135
#
# Stress axis : x y z
#
# Youngs Moduli (GPa) = 84.61207 64.62206 65.31939
#
# Poissons Ratio (x) = 0.26336 -0.05625
# Poissons Ratio (y) = 0.34483 0.37992
# Poissons Ratio (z) = -0.07286 0.37586
#
# Static dielectric constant tensor:
#      x y z
#    x 2.097840 0.040430 0.029550 
#    y 0.040430 2.119320 0.028110 
#    z 0.029550 0.028110 2.096020 
# 
# From -- ./inp_files/298655.got.cif
#   From: 2010.05.17/outbox.cif.g08.bks.cpg/sg2_150_cif.got.tgz:298655.got - 2010.06.03 11:33:40.
