data_PCOD9022682
_publ_section_title
;
Structure prediction by ZEFSAII (Michael W. Deem and Ramdas Pophale) SiO2 
 PCOD9022682
Probable space group: P -1
;
_chemical_formula_sum "Si O2"
_cell_formula_units_Z 14
_cell_length_a 12.152257
_cell_length_b 14.944593
_cell_length_c 12.495687
_cell_angle_alpha 150.543786
_cell_angle_beta 33.662300
_cell_angle_gamma 134.733493
_cell_volume 616.755303
_symmetry_space_group_name_H-M "P -1"
_symmetry_group_IT_number 2
_symmetry_cell_setting 'triclinic'
loop_
_space_group_symop_operation_xyz
x,y,z
-x,-y,-z
loop_
_atom_site_type_symbol
_atom_site_label
_atom_site_fract_x
_atom_site_fract_y
_atom_site_fract_z
Si Si1 0.436521 0.482228 0.291637
Si Si2 0.686643 0.123856 0.102366
Si Si3 0.729269 0.135673 0.418195
Si Si4 0.678792 0.662343 0.123014
Si Si5 0.868002 0.002625 0.392915
Si Si6 0.853952 0.727957 0.831652
Si Si7 0.362813 0.828662 0.058333
O O1 0.364857 0.687979 0.597609
O O2 0.606496 0.498353 0.080144
O O3 0.255996 0.380698 0.282148
O O4 0.532336 0.362866 0.186551
O O5 0.519576 0.982721 0.108093
O O6 0.693146 0.170121 0.019041
O O7 0.901592 0.027271 0.856264
O O8 0.525500 0.240779 0.657976
O O9 0.916876 0.241392 0.340110
O O10 0.750795 0.098579 0.488393
O O11 0.750977 0.934530 0.138467
O O12 0.786257 0.802294 0.256940
O O13 0.818072 0.634122 0.877524
O O14 0.821177 0.112732 0.653608
#
# Coordination Sequence:
#
# PCOD9022682 Si02
#       7
#     2   2   2   2   2   2   2
#     4  12  24  43  70 100 139 175 219 278 336 393
#     4  11  26  46  72 100 129 173 231 282 336 389
#     4  10  22  40  66  97 133 179 224 264 322 401
#     4  11  23  39  63  97 139 178 218 265 328 402
#     4  11  22  44  72  96 134 179 224 274 333 396
#     4  10  22  39  63  94 135 174 222 261 324 392
#     4  11  24  49  71  96 133 176 222 285 337 395
#
# _framework density 22.699439999999999
#
# number of rings (size 3 to 8) (size 9 to 14) (size 15 to 20)
#    0.000    1.143    1.429    5.571    6.000    0.571 
#    7.714    0.714    0.000    0.000    0.000    0.000 
#    0.000    0.000    0.000    0.000    0.000    0.000 
#
# Total GULP energy -78474.851857 kJ/mol
# GULP energy per Si atom -5605.346561 kJ/mol
# Density = 2.264778 g / cm^3
# Si number density = 22.699440 Si / 1000 Ang^3
#
#
#
# Elastic Constant Matrix: (Units=GPa)
#
#
# Indices 1 2 3 4 5 6 
#
# 1 41.7367 20.3908 -7.9443 9.9105 8.5868 -2.6162
# 2 20.3908 92.3562 33.6390 -5.0671 4.5953 -1.7934
# 3 -7.9443 33.6390 61.9065 17.4341 8.8981 1.8131
# 4 9.9105 -5.0671 17.4341 31.1211 -0.4707 -1.2161
# 5 8.5868 4.5953 8.8981 -0.4707 26.2688 5.6526
# 6 -2.6162 -1.7934 1.8131 -1.2161 5.6526 34.6808
#
#
#
# Elastic Compliance Matrix: (Units=1/GPa)
#
#
# Indices 1 2 3 4 5 6 
#
# 1 0.070991 -0.034564 0.048591 -0.055804 -0.035670 0.004885
# 2 -0.034564 0.032088 -0.034556 0.035832 0.018216 -0.000854
# 3 0.048591 -0.034556 0.061477 -0.055950 -0.032081 0.001932
# 4 -0.055804 0.035832 -0.055950 0.087511 0.032863 -0.001719
# 5 -0.035670 0.018216 -0.032081 0.032863 0.059864 -0.008676
# 6 0.004885 -0.000854 0.001932 -0.001719 -0.008676 0.030412
#
#
# Mechanical properties :
#
#
# Convention : Reuss Voigt Hill
#
# Bulk Modulus (GPa) = 8.09726 32.01893 20.05810
# Shear Modulus (GPa) = 11.77670 28.40840 20.09255
#
# Velocity S-wave (km/s) = 2.28021 3.54150 2.97839
# Velocity P-wave (km/s) = 3.24151 5.55510 4.54789
#
# Compressibility (1/GPa) = 0.12349856
#
# Stress axis : x y z
#
# Youngs Moduli (GPa) = 14.08625 31.16404 16.26619
#
# Poissons Ratio (x) = 1.07716 -0.79039
# Poissons Ratio (y) = 0.48688 0.56210
# Poissons Ratio (z) = -0.68447 1.07691
#
# Static dielectric constant tensor:
#      x y z
#    x 1.793360 -0.019710 0.011060 
#    y -0.019710 1.841520 0.000860 
#    z 0.011060 0.000860 1.867310 
# 
# From -- ./inp_files/433409.got.cif
#   From: 2010.05.17/outbox.cif.g08.bks.cpg/sg2_217_cif.got.tgz:433409.got - 2010.06.03 11:33:40.
