data_PCOD9022637
_publ_section_title
;
Structure prediction by ZEFSAII (Michael W. Deem and Ramdas Pophale) SiO2 
 PCOD9022637
Probable space group: P -1
;
_chemical_formula_sum "Si O2"
_cell_formula_units_Z 16
_cell_length_a 5.009339
_cell_length_b 12.488332
_cell_length_c 21.548917
_cell_angle_alpha 33.741446
_cell_angle_beta 92.018819
_cell_angle_gamma 78.869349
_cell_volume 685.662373
_symmetry_space_group_name_H-M "P -1"
_symmetry_group_IT_number 2
_symmetry_cell_setting 'triclinic'
loop_
_space_group_symop_operation_xyz
x,y,z
-x,-y,-z
loop_
_atom_site_type_symbol
_atom_site_label
_atom_site_fract_x
_atom_site_fract_y
_atom_site_fract_z
Si Si1 0.089990 0.026636 0.573460
Si Si2 0.643099 0.442144 0.220775
Si Si3 0.421965 0.267952 0.415786
Si Si4 0.386748 0.209520 0.859274
Si Si5 0.996325 0.005934 0.222808
Si Si6 0.452418 0.082213 0.260297
Si Si7 0.681600 0.450920 0.960280
Si Si8 0.840664 0.303346 0.733388
O O1 0.252892 0.114939 0.481650
O O2 0.750407 0.167854 0.494040
O O3 0.123707 0.787211 0.684314
O O4 0.306638 0.016599 0.637017
O O5 0.438816 0.378302 0.297484
O O6 0.742848 0.594945 0.188384
O O7 0.490069 0.552700 0.102450
O O8 0.247484 0.449716 0.376636
O O9 0.633677 0.243359 0.805826
O O10 0.160529 0.195748 0.815112
O O11 0.500000 0.000000 0.000000
O O12 0.669748 0.040200 0.223367
O O13 0.208350 0.994448 0.287411
O O14 0.946079 0.224862 0.080826
O O15 0.149799 0.797244 0.284679
O O16 0.274625 0.331810 0.151313
O O17 0.500000 0.500000 0.000000
#
# Coordination Sequence:
#
# PCOD9022637 Si02
#       8
#     2   2   2   2   2   2   2   2
#     4  11  23  42  65  92 126 163 211 268 313 359
#     4  10  22  39  66  96 125 166 209 250 317 381
#     4  11  23  42  62  91 127 166 210 267 310 357
#     4  11  23  41  61  93 129 165 207 257 307 373
#     4  11  21  41  63  89 125 167 202 253 313 372
#     4  10  22  39  63  93 122 160 211 256 308 373
#     4   9  20  39  63  94 127 160 200 253 311 376
#     4  11  24  41  62  90 126 167 212 258 308 371
#
# _framework density 23.335101999999999
#
# number of rings (size 3 to 8) (size 9 to 14) (size 15 to 20)
#    0.000    1.500    0.000    5.250    0.000    4.000 
#    0.000   17.500    0.000    0.000    0.000    0.000 
#    0.000    0.000    0.000    0.000    0.000    0.000 
#
# Total GULP energy -89391.787880 kJ/mol
# GULP energy per Si atom -5586.986743 kJ/mol
# Density = 2.328199 g / cm^3
# Si number density = 23.335102 Si / 1000 Ang^3
#
#
#
# Elastic Constant Matrix: (Units=GPa)
#
#
# Indices 1 2 3 4 5 6 
#
# 1 80.6763 -14.6443 11.9144 4.8268 11.0879 9.8238
# 2 -14.6443 83.0258 10.5820 7.0808 5.5681 8.0291
# 3 11.9144 10.5820 85.8735 9.9082 5.7067 -1.5195
# 4 4.8268 7.0808 9.9082 33.7207 5.6643 10.6919
# 5 11.0879 5.5681 5.7067 5.6643 36.6426 -0.4799
# 6 9.8238 8.0291 -1.5195 10.6919 -0.4799 31.1741
#
#
#
# Elastic Compliance Matrix: (Units=1/GPa)
#
#
# Indices 1 2 3 4 5 6 
#
# 1 0.014793 0.003772 -0.002359 0.000496 -0.004837 -0.005993
# 2 0.003772 0.013670 -0.001995 -0.000910 -0.002826 -0.004538
# 3 -0.002359 -0.001995 0.012754 -0.003963 -0.000314 0.003233
# 4 0.000496 -0.000910 -0.003963 0.035742 -0.005083 -0.012452
# 5 -0.004837 -0.002826 -0.000314 -0.005083 0.030077 0.004443
# 6 -0.005993 -0.004538 0.003233 -0.012452 0.004443 0.039632
#
#
# Mechanical properties :
#
#
# Convention : Reuss Voigt Hill
#
# Bulk Modulus (GPa) = 24.96807 29.47554 27.22181
# Shear Modulus (GPa) = 31.02062 36.42237 33.72150
#
# Velocity S-wave (km/s) = 3.64999 3.95503 3.80557
# Velocity P-wave (km/s) = 5.33725 5.78923 5.56783
#
# Compressibility (1/GPa) = 0.04005115
#
# Stress axis : x y z
#
# Youngs Moduli (GPa) = 67.59928 73.15283 78.40940
#
# Poissons Ratio (x) = -0.27590 0.18497
# Poissons Ratio (y) = -0.25495 0.15644
# Poissons Ratio (z) = 0.15947 0.14596
#
# Static dielectric constant tensor:
#      x y z
#    x 1.866210 -0.041230 -0.031640 
#    y -0.041230 1.925870 0.013730 
#    z -0.031640 0.013730 1.894030 
# 
# From -- ./inp_files/583017.got.cif
#   From: 2010.05.17/outbox.cif.g08.bks.cpg/sg2_292_cif.got.tgz:583017.got - 2010.06.03 11:33:40.
