data_PCOD9022421
_publ_section_title
;
Structure prediction by ZEFSAII (Michael W. Deem and Ramdas Pophale) SiO2 
 PCOD9022421
Probable space group: P -1
;
_chemical_formula_sum "Si O2"
_cell_formula_units_Z 15
_cell_length_a 6.132567
_cell_length_b 5.410029
_cell_length_c 21.895400
_cell_angle_alpha 82.705768
_cell_angle_beta 57.515253
_cell_angle_gamma 86.015334
_cell_volume 607.810412
_symmetry_space_group_name_H-M "P -1"
_symmetry_group_IT_number 2
_symmetry_cell_setting 'triclinic'
loop_
_space_group_symop_operation_xyz
x,y,z
-x,-y,-z
loop_
_atom_site_type_symbol
_atom_site_label
_atom_site_fract_x
_atom_site_fract_y
_atom_site_fract_z
Si Si1 0.290439 0.263428 0.132548
Si Si2 0.238434 0.817446 0.478397
Si Si3 0.720122 0.878143 0.054280
Si Si4 0.569369 0.421017 0.794766
Si Si5 0.481306 0.595111 0.337783
Si Si6 0.948339 0.929792 0.261262
Si Si7 0.500000 0.500000 0.000000
Si Si8 0.738633 0.173805 0.390315
O O1 0.424684 0.330711 0.173885
O O2 0.262332 0.498802 0.086199
O O3 0.508870 0.104335 0.067808
O O4 0.030009 0.130350 0.192790
O O5 0.263050 0.644394 0.420507
O O6 0.211136 0.710576 0.554328
O O7 0.502090 0.978878 0.436568
O O8 0.000000 0.000000 0.500000
O O9 0.642713 0.760185 0.135799
O O10 0.677102 0.658941 0.018888
O O11 0.000000 0.000000 0.000000
O O12 0.574824 0.472833 0.720770
O O13 0.842994 0.286252 0.771095
O O14 0.655461 0.386952 0.349913
O O15 0.659652 0.838791 0.298167
O O16 0.966164 0.029859 0.325328
#
# Coordination Sequence:
#
# PCOD9022421 Si02
#       8
#     2   2   2   2   2   2   1   2
#     4  10  22  43  63  92 128 169 218 274 334 401
#     4  10  22  40  63  91 131 174 214 271 334 394
#     4  10  23  43  63  96 132 174 219 284 336 414
#     4  10  23  41  62  95 129 171 224 268 340 403
#     4  11  23  39  65  97 126 173 222 273 334 399
#     4  10  22  41  62  89 131 171 215 277 330 396
#     4  10  22  40  66  94 126 174 222 268 346 396
#     4  10  22  39  61  96 127 167 224 270 330 398
#
# _framework density 24.678747999999999
#
# number of rings (size 3 to 8) (size 9 to 14) (size 15 to 20)
#    0.000    1.867    0.000    2.400    1.867    9.067 
#    9.600    0.000    0.000    0.000    0.000    0.000 
#    0.000    0.000    0.000    0.000    0.000    0.000 
#
# Total GULP energy -83591.263674 kJ/mol
# GULP energy per Si atom -5572.750912 kJ/mol
# Density = 2.462258 g / cm^3
# Si number density = 24.678748 Si / 1000 Ang^3
#
#
#
# Elastic Constant Matrix: (Units=GPa)
#
#
# Indices 1 2 3 4 5 6 
#
# 1 21.6600 7.2876 32.5699 23.2608 15.1280 0.9289
# 2 7.2876 48.8706 24.7208 23.9422 1.5120 21.3076
# 3 32.5699 24.7208 148.0934 36.2252 24.7429 12.9815
# 4 23.2608 23.9422 36.2252 34.3745 10.6712 6.1217
# 5 15.1280 1.5120 24.7429 10.6712 48.1678 6.0791
# 6 0.9289 21.3076 12.9815 6.1217 6.0791 27.0684
#
#
#
# Elastic Compliance Matrix: (Units=1/GPa)
#
#
# Indices 1 2 3 4 5 6 
#
# 1 0.452141 0.117560 -0.025372 -0.342681 -0.056009 -0.005810
# 2 0.117560 0.082484 -0.005430 -0.123148 -0.004713 -0.037450
# 3 -0.025372 -0.005430 0.010995 0.009591 0.000675 -0.002448
# 4 -0.342681 -0.123148 0.009591 0.322409 0.032112 0.023972
# 5 -0.056009 -0.004713 0.000675 0.032112 0.032198 -0.009185
# 6 -0.005810 -0.037450 -0.002448 0.023972 -0.009185 0.064438
#
#
# Mechanical properties :
#
#
# Convention : Reuss Voigt Hill
#
# Bulk Modulus (GPa) = 1.39056 38.64228 20.01642
# Shear Modulus (GPa) = 4.85032 32.19184 18.52108
#
# Velocity S-wave (km/s) = 1.40344 3.61562 2.74247
# Velocity P-wave (km/s) = 1.78631 5.75520 4.26106
#
# Compressibility (1/GPa) = 0.71913679
#
# Stress axis : x y z
#
# Youngs Moduli (GPa) = 2.21170 12.12355 90.95309
#
# Poissons Ratio (x) = -1.42525 2.30764
# Poissons Ratio (y) = -0.26001 0.49389
# Poissons Ratio (z) = 0.05611 0.06583
#
# Static dielectric constant tensor:
#      x y z
#    x 1.637800 0.445940 -0.247430 
#    y 0.445940 1.549840 0.400800 
#    z -0.247430 0.400800 1.730370 
# 
# From -- ./inp_files/10373.got.cif
#   From: 2010.05.17/outbox.cif.g08.bks.cpg/sg2_6_cif.got.tgz:10373.got - 2010.06.03 11:33:40.
