data_PCOD9022772
_publ_section_title
;
Structure prediction by ZEFSAII (Michael W. Deem and Ramdas Pophale) SiO2 
 PCOD9022772
Probable space group: P -1
;
_chemical_formula_sum "Si O2"
_cell_formula_units_Z 14
_cell_length_a 15.263294
_cell_length_b 5.916897
_cell_length_c 15.114530
_cell_angle_alpha 83.596199
_cell_angle_beta 150.137482
_cell_angle_gamma 88.124160
_cell_volume 651.900674
_symmetry_space_group_name_H-M "P -1"
_symmetry_group_IT_number 2
_symmetry_cell_setting 'triclinic'
loop_
_space_group_symop_operation_xyz
x,y,z
-x,-y,-z
loop_
_atom_site_type_symbol
_atom_site_label
_atom_site_fract_x
_atom_site_fract_y
_atom_site_fract_z
Si Si1 0.961116 0.746792 0.011114
Si Si2 0.096165 0.017424 0.449068
Si Si3 0.827017 0.352765 0.314020
Si Si4 0.403970 0.242862 0.672201
Si Si5 0.805907 0.276051 0.610401
Si Si6 0.533789 0.934434 0.635549
Si Si7 0.528030 0.746644 0.076634
O O1 0.087712 0.689017 0.210724
O O2 0.745143 0.802358 0.837576
O O3 0.000000 0.500000 0.000000
O O4 0.000000 0.000000 0.000000
O O5 0.098234 0.812878 0.530231
O O6 0.065838 0.926878 0.329160
O O7 0.297704 0.053471 0.618751
O O8 0.961602 0.257217 0.355613
O O9 0.746499 0.621350 0.262048
O O10 0.633168 0.323786 0.113742
O O11 0.258421 0.485955 0.512041
O O12 0.513921 0.272666 0.854848
O O13 0.499237 0.147947 0.667190
O O14 0.618904 0.204031 0.471257
O O15 0.500000 0.000000 0.500000
O O16 0.500000 0.000000 0.000000
#
# Coordination Sequence:
#
# PCOD9022772 Si02
#       7
#     2   2   2   2   2   2   2
#     4  12  28  49  76 109 141 188 246 296 371 444
#     4  10  22  42  63  98 131 182 234 293 355 427
#     4  10  22  39  64  89 136 179 234 288 356 424
#     4  11  24  42  66  99 137 183 237 295 362 428
#     4  11  25  46  71 101 148 181 242 299 358 440
#     4  11  25  47  74 102 141 188 235 300 369 432
#     4  11  22  40  61  94 133 181 231 291 354 429
#
# _framework density 21.475663999999998
#
# number of rings (size 3 to 8) (size 9 to 14) (size 15 to 20)
#    0.000    1.143    4.286    0.857    6.000    2.857 
#    2.571    0.000    0.000    0.000    0.000    0.000 
#    0.000    0.000    0.000    0.000    0.000    0.000 
#
# Total GULP energy -77988.973641 kJ/mol
# GULP energy per Si atom -5570.640974 kJ/mol
# Density = 2.142678 g / cm^3
# Si number density = 21.475664 Si / 1000 Ang^3
#
#
#
# Elastic Constant Matrix: (Units=GPa)
#
#
# Indices 1 2 3 4 5 6 
#
# 1 98.1128 45.5632 27.0966 -13.7055 9.5976 -12.7111
# 2 45.5632 81.5165 32.0693 -8.0448 -0.2151 -20.8328
# 3 27.0966 32.0693 90.5655 1.4232 4.2710 0.4225
# 4 -13.7055 -8.0448 1.4232 30.9177 0.0222 6.4739
# 5 9.5976 -0.2151 4.2710 0.0222 38.1200 -13.7541
# 6 -12.7111 -20.8328 0.4225 6.4739 -13.7541 37.6349
#
#
#
# Elastic Compliance Matrix: (Units=1/GPa)
#
#
# Indices 1 2 3 4 5 6 
#
# 1 0.015171 -0.007726 -0.001676 0.005123 -0.004244 -0.001566
# 2 -0.007726 0.022066 -0.005897 0.000010 0.007164 0.012288
# 3 -0.001676 -0.005897 0.013818 -0.001928 -0.002853 -0.004697
# 4 0.005123 0.000010 -0.001928 0.035869 -0.003095 -0.005544
# 5 -0.004244 0.007164 -0.002853 -0.003095 0.033152 0.015213
# 6 -0.001566 0.012288 -0.004697 -0.005544 0.015213 0.039410
#
#
# Mechanical properties :
#
#
# Convention : Reuss Voigt Hill
#
# Bulk Modulus (GPa) = 48.88563 53.29479 51.09021
# Shear Modulus (GPa) = 25.39280 32.36556 28.87918
#
# Velocity S-wave (km/s) = 3.44233 3.88633 3.67105
# Velocity P-wave (km/s) = 6.21387 6.70882 6.46608
#
# Compressibility (1/GPa) = 0.02045591
#
# Stress axis : x y z
#
# Youngs Moduli (GPa) = 65.91436 45.31777 72.36760
#
# Poissons Ratio (x) = 0.35014 0.12131
# Poissons Ratio (y) = 0.50927 0.42678
# Poissons Ratio (z) = 0.11050 0.26726
#
# Static dielectric constant tensor:
#      x y z
#    x 2.250530 -1.920020 -0.229930 
#    y -1.920020 9.997640 0.999670 
#    z -0.229930 0.999670 1.838200 
# 
# From -- ./inp_files/34997.got.cif
#   From: 2010.05.17/outbox.cif.g08.bks.cpg/sg2_18_cif.got.tgz:34997.got - 2010.06.03 11:33:40.
