data_PCOD9022432
_publ_section_title
;
Structure prediction by ZEFSAII (Michael W. Deem and Ramdas Pophale) SiO2 
 PCOD9022432
Probable space group: P -1
;
_chemical_formula_sum "Si O2"
_cell_formula_units_Z 16
_cell_length_a 8.154906
_cell_length_b 16.043267
_cell_length_c 5.937833
_cell_angle_alpha 63.208556
_cell_angle_beta 73.435314
_cell_angle_gamma 62.082538
_cell_volume 610.051734
_symmetry_space_group_name_H-M "P -1"
_symmetry_group_IT_number 2
_symmetry_cell_setting 'triclinic'
loop_
_space_group_symop_operation_xyz
x,y,z
-x,-y,-z
loop_
_atom_site_type_symbol
_atom_site_label
_atom_site_fract_x
_atom_site_fract_y
_atom_site_fract_z
Si Si1 0.701955 0.567672 0.910024
Si Si2 0.239766 0.063385 0.148878
Si Si3 0.432603 0.819205 0.409859
Si Si4 0.631434 0.427615 0.728555
Si Si5 0.516672 0.836120 0.846027
Si Si6 0.840506 0.972238 0.205895
Si Si7 0.070031 0.795201 0.668064
Si Si8 0.046299 0.614241 0.662705
O O1 0.667542 0.498575 0.815069
O O2 0.847207 0.611002 0.696603
O O3 0.496917 0.624314 0.039412
O O4 0.823964 0.494863 0.151348
O O5 0.350635 0.105548 0.219778
O O6 0.023284 0.142136 0.149127
O O7 0.307191 0.942106 0.298213
O O8 0.278111 0.069064 0.863697
O O9 0.553514 0.794371 0.624643
O O10 0.284361 0.768515 0.570318
O O11 0.516362 0.788732 0.158530
O O12 0.500000 0.500000 0.500000
O O13 0.832144 0.364844 0.611028
O O14 0.310004 0.920557 0.789941
O O15 0.952178 0.884633 0.436459
O O16 0.000000 0.000000 0.000000
O O17 0.024994 0.697637 0.761064
#
# Coordination Sequence:
#
# PCOD9022432 Si02
#       8
#     2   2   2   2   2   2   2   2
#     4   9  19  41  69  90 126 170 203 255 323 394
#     4  11  23  37  60  86 120 167 219 267 322 383
#     4  11  22  41  62  87 121 172 220 267 325 387
#     4   9  18  38  71  94 121 165 210 249 318 401
#     4  11  23  39  66  85 118 170 226 274 323 385
#     4  11  20  38  60  83 116 166 216 265 325 380
#     4  12  24  37  60  90 124 162 213 269 322 384
#     4  10  22  39  61  99 127 163 212 261 322 385
#
# _framework density 26.227284999999998
#
# number of rings (size 3 to 8) (size 9 to 14) (size 15 to 20)
#    0.000    1.500    3.750    3.375    1.750    1.000 
#    2.250    2.500    0.000    0.000    0.000    0.000 
#    0.000    0.000    0.000    0.000    0.000    0.000 
#
# Total GULP energy -89233.215796 kJ/mol
# GULP energy per Si atom -5577.075987 kJ/mol
# Density = 2.616759 g / cm^3
# Si number density = 26.227285 Si / 1000 Ang^3
#
#
#
# Elastic Constant Matrix: (Units=GPa)
#
#
# Indices 1 2 3 4 5 6 
#
# 1 146.6203 31.6561 64.8322 3.7457 -7.1293 27.0910
# 2 31.6561 58.6422 27.8487 18.3277 -15.0859 -2.2936
# 3 64.8322 27.8487 168.2665 -12.1935 59.9961 38.8653
# 4 3.7457 18.3277 -12.1935 60.4213 -41.5756 -25.4016
# 5 -7.1293 -15.0859 59.9961 -41.5756 148.2197 71.6790
# 6 27.0910 -2.2936 38.8653 -25.4016 71.6790 86.8500
#
#
#
# Elastic Compliance Matrix: (Units=1/GPa)
#
#
# Indices 1 2 3 4 5 6 
#
# 1 0.010248 -0.002932 -0.003798 0.000302 0.004220 -0.004969
# 2 -0.002932 0.022925 -0.003801 -0.006204 0.002181 -0.000394
# 3 -0.003798 -0.003801 0.009558 0.000416 -0.004721 0.000825
# 4 0.000302 -0.006204 0.000416 0.022537 0.004266 0.002626
# 5 0.004220 0.002181 -0.004721 0.004266 0.015416 -0.010621
# 6 -0.004969 -0.000394 0.000825 0.002626 -0.010621 0.022218
#
#
# Mechanical properties :
#
#
# Convention : Reuss Voigt Hill
#
# Bulk Modulus (GPa) = 46.14760 69.13366 57.64063
# Shear Modulus (GPa) = 38.11329 75.71101 56.91215
#
# Velocity S-wave (km/s) = 3.81621 5.37866 4.66334
# Velocity P-wave (km/s) = 6.08699 8.06163 7.14288
#
# Compressibility (1/GPa) = 0.02166960
#
# Stress axis : x y z
#
# Youngs Moduli (GPa) = 97.57624 43.62107 104.62020
#
# Poissons Ratio (x) = 0.12788 0.39740
# Poissons Ratio (y) = 0.28606 0.39764
# Poissons Ratio (z) = 0.37064 0.16580
#
# Static dielectric constant tensor:
#      x y z
#    x 2.054380 0.018020 0.009430 
#    y 0.018020 2.044160 0.016130 
#    z 0.009430 0.016130 2.016400 
# 
# From -- ./inp_files/43604.got.cif
#   From: 2010.05.17/outbox.cif.g08.bks.cpg/sg2_22_cif.got.tgz:43604.got - 2010.06.03 11:33:40.
