data_PCOD9022165
_publ_section_title
;
Structure prediction by ZEFSAII (Michael W. Deem and Ramdas Pophale) SiO2 
 PCOD9022165
Probable space group: P -1
;
_chemical_formula_sum "Si O2"
_cell_formula_units_Z 16
_cell_length_a 15.363972
_cell_length_b 6.617348
_cell_length_c 12.337172
_cell_angle_alpha 73.251116
_cell_angle_beta 43.450026
_cell_angle_gamma 91.431458
_cell_volume 772.022445
_symmetry_space_group_name_H-M "P -1"
_symmetry_group_IT_number 2
_symmetry_cell_setting 'triclinic'
loop_
_space_group_symop_operation_xyz
x,y,z
-x,-y,-z
loop_
_atom_site_type_symbol
_atom_site_label
_atom_site_fract_x
_atom_site_fract_y
_atom_site_fract_z
Si Si1 0.164397 0.606705 0.337000
Si Si2 0.723185 0.116298 0.029643
Si Si3 0.618417 0.609642 0.792543
Si Si4 0.721963 0.130223 0.584776
Si Si5 0.419484 0.748924 0.657687
Si Si6 0.968526 0.209213 0.952641
Si Si7 0.176012 0.655484 0.736371
Si Si8 0.489741 0.637470 0.294494
O O1 0.240726 0.425620 0.302246
O O2 0.208189 0.751383 0.386307
O O3 0.000000 0.500000 0.500000
O O4 0.232168 0.757127 0.145817
O O5 0.642270 0.222342 0.172205
O O6 0.861610 0.143604 0.962733
O O7 0.629732 0.852990 0.139216
O O8 0.555395 0.472133 0.764077
O O9 0.642647 0.871337 0.719987
O O10 0.500000 0.500000 0.000000
O O11 0.814713 0.155304 0.391719
O O12 0.623493 0.250198 0.604427
O O13 0.302528 0.644513 0.691872
O O14 0.500523 0.576907 0.616458
O O15 0.500000 0.000000 0.500000
O O16 0.904919 0.291480 0.099408
O O17 0.102794 0.422463 0.774780
O O18 0.000000 0.000000 0.000000
#
# Coordination Sequence:
#
# PCOD9022165 Si02
#       8
#     2   2   2   2   2   2   2   2
#     4  11  25  43  65  96 130 171 218 266 322 386
#     4  11  23  40  63  92 126 164 214 267 322 382
#     4  11  23  42  65  90 127 170 215 267 322 380
#     4  11  24  41  64  92 126 166 211 262 319 383
#     4  11  23  39  62  94 128 162 210 269 324 383
#     4  10  22  40  63  86 120 165 205 254 317 381
#     4  10  22  39  58  88 123 159 206 255 313 383
#     4  11  22  38  63  92 124 163 208 262 323 383
#
# _framework density 20.724786000000002
#
# number of rings (size 3 to 8) (size 9 to 14) (size 15 to 20)
#    0.000    1.250    0.000    6.000    0.000    9.500 
#    0.000    1.250    0.000    0.000    0.000    0.000 
#    0.000    0.000    0.000    0.000    0.000    0.000 
#
# Total GULP energy -89227.409353 kJ/mol
# GULP energy per Si atom -5576.713085 kJ/mol
# Density = 2.067762 g / cm^3
# Si number density = 20.724786 Si / 1000 Ang^3
#
#
#
# Elastic Constant Matrix: (Units=GPa)
#
#
# Indices 1 2 3 4 5 6 
#
# 1 137.6194 59.3081 49.2223 -3.1722 -4.2277 2.2674
# 2 59.3081 90.6537 20.8431 -20.0540 -2.2558 -9.3706
# 3 49.2223 20.8431 92.0169 -16.6060 15.2521 3.3501
# 4 -3.1722 -20.0540 -16.6060 32.1831 5.5235 1.8447
# 5 -4.2277 -2.2558 15.2521 5.5235 39.2670 -5.6108
# 6 2.2674 -9.3706 3.3501 1.8447 -5.6108 28.5000
#
#
#
# Elastic Compliance Matrix: (Units=1/GPa)
#
#
# Indices 1 2 3 4 5 6 
#
# 1 0.014216 -0.009625 -0.007920 -0.009465 0.005137 -0.001741
# 2 -0.009625 0.020068 0.003135 0.013213 -0.002142 0.005718
# 3 -0.007920 0.003135 0.018466 0.012623 -0.010095 -0.003314
# 4 -0.009465 0.013213 0.012623 0.047056 -0.012040 -0.001802
# 5 0.005137 -0.002142 -0.010095 -0.012040 0.032549 0.007261
# 6 -0.001741 0.005718 -0.003314 -0.001802 0.007261 0.039042
#
#
# Mechanical properties :
#
#
# Convention : Reuss Voigt Hill
#
# Bulk Modulus (GPa) = 41.79133 64.33746 53.06440
# Shear Modulus (GPa) = 24.01604 32.71779 28.36691
#
# Velocity S-wave (km/s) = 3.40782 3.97757 3.70367
# Velocity P-wave (km/s) = 5.97436 7.22536 6.62944
#
# Compressibility (1/GPa) = 0.02392841
#
# Stress axis : x y z
#
# Youngs Moduli (GPa) = 70.34555 49.83029 54.15289
#
# Poissons Ratio (x) = 0.47962 0.42890
# Poissons Ratio (y) = 0.67708 -0.16974
# Poissons Ratio (z) = 0.55715 -0.15620
#
# Static dielectric constant tensor:
#      x y z
#    x 1.717090 -0.018690 -0.131080 
#    y -0.018690 1.773980 0.120810 
#    z -0.131080 0.120810 1.776460 
# 
# From -- ./inp_files/82969.got.cif
#   From: 2010.05.17/outbox.cif.g08.bks.cpg/sg2_42_cif.got.tgz:82969.got - 2010.06.03 11:33:40.
