data_PCOD9022049
_publ_section_title
;
Structure prediction by ZEFSAII (Michael W. Deem and Ramdas Pophale) SiO2 
 PCOD9022049
Probable space group: P -1
;
_chemical_formula_sum "Si O2"
_cell_formula_units_Z 12
_cell_length_a 5.140012
_cell_length_b 12.277386
_cell_length_c 9.500573
_cell_angle_alpha 107.475902
_cell_angle_beta 61.176526
_cell_angle_gamma 79.964935
_cell_volume 463.072156
_symmetry_space_group_name_H-M "P -1"
_symmetry_group_IT_number 2
_symmetry_cell_setting 'triclinic'
loop_
_space_group_symop_operation_xyz
x,y,z
-x,-y,-z
loop_
_atom_site_type_symbol
_atom_site_label
_atom_site_fract_x
_atom_site_fract_y
_atom_site_fract_z
Si Si1 0.417094 0.376678 0.460356
Si Si2 0.256005 0.484587 0.808667
Si Si3 0.372200 0.901130 0.055089
Si Si4 0.846619 0.891566 0.372356
Si Si5 0.995626 0.761987 0.997020
Si Si6 0.918391 0.286657 0.501817
O O1 0.500000 0.500000 0.500000
O O2 0.161025 0.423098 0.675877
O O3 0.731471 0.269467 0.403766
O O4 0.807027 0.663611 0.598280
O O5 0.615314 0.388169 0.701804
O O6 0.000000 0.500000 0.000000
O O7 0.241133 0.623986 0.846738
O O8 0.683361 0.793353 0.996351
O O9 0.118125 0.940444 0.265694
O O10 0.185185 0.853471 0.969686
O O11 0.500000 0.000000 0.000000
O O12 0.877691 0.790330 0.201347
O O13 0.925469 0.825639 0.476413
O O14 0.500000 0.000000 0.500000
#
# Coordination Sequence:
#
# PCOD9022049 Si02
#       6
#     2   2   2   2   2   2
#     4  10  23  42  62  93 135 165 211 258 332 388
#     4  10  22  38  69  96 129 164 213 269 326 383
#     4  10  23  44  64  91 132 167 223 269 321 381
#     4  10  24  43  66  94 131 171 222 266 322 389
#     4  10  23  39  67  93 128 162 223 261 329 379
#     4  10  23  40  67  92 131 168 215 260 329 382
#
# _framework density 25.913889000000001
#
# number of rings (size 3 to 8) (size 9 to 14) (size 15 to 20)
#    2.000    0.000    0.000    3.000    4.667    2.000 
#    3.000    0.000    0.000    0.000    0.000    0.000 
#    0.000    0.000    0.000    0.000    0.000    0.000 
#
# Total GULP energy -66929.596533 kJ/mol
# GULP energy per Si atom -5577.466378 kJ/mol
# Density = 2.585491 g / cm^3
# Si number density = 25.913889 Si / 1000 Ang^3
#
#
#
# Elastic Constant Matrix: (Units=GPa)
#
#
# Indices 1 2 3 4 5 6 
#
# 1 146.0547 27.0899 30.9419 7.2871 -26.0466 0.2550
# 2 27.0899 121.7301 14.1918 12.1796 -25.0688 -2.1726
# 3 30.9419 14.1918 76.8114 27.2036 -26.2909 8.5565
# 4 7.2871 12.1796 27.2036 42.5318 7.2251 -11.2102
# 5 -26.0466 -25.0688 -26.2909 7.2251 49.5602 -5.5562
# 6 0.2550 -2.1726 8.5565 -11.2102 -5.5562 35.3987
#
#
#
# Elastic Compliance Matrix: (Units=1/GPa)
#
#
# Indices 1 2 3 4 5 6 
#
# 1 0.007962 -0.000990 -0.002359 0.000247 0.002500 0.000923
# 2 -0.000990 0.010152 0.003394 -0.006424 0.007229 -0.001090
# 3 -0.002359 0.003394 0.031012 -0.027078 0.019441 -0.012794
# 4 0.000247 -0.006424 -0.027078 0.051486 -0.022875 0.018864
# 5 0.002500 0.007229 0.019441 -0.022875 0.038177 -0.005526
# 6 0.000923 -0.001090 -0.012794 0.018864 -0.005526 0.036375
#
#
# Mechanical properties :
#
#
# Convention : Reuss Voigt Hill
#
# Bulk Modulus (GPa) = 20.31906 54.33815 37.32861
# Shear Modulus (GPa) = 26.11260 43.65630 34.88445
#
# Velocity S-wave (km/s) = 3.17782 4.10892 3.67300
# Velocity P-wave (km/s) = 4.61766 6.59737 5.69421
#
# Compressibility (1/GPa) = 0.04921488
#
# Stress axis : x y z
#
# Youngs Moduli (GPa) = 125.59614 98.50647 32.24597
#
# Poissons Ratio (x) = 0.09755 0.07607
# Poissons Ratio (y) = 0.12438 -0.10945
# Poissons Ratio (z) = 0.29628 -0.33434
#
# Static dielectric constant tensor:
#      x y z
#    x 1.912710 -0.155950 0.207410 
#    y -0.155950 1.603950 0.341890 
#    z 0.207410 0.341890 1.751710 
# 
# From -- ./inp_files/366278.got.cif
#   From: 2010.05.17/outbox.cif.g08.bks.cpg/sg2_184_cif.got.tgz:366278.got - 2010.06.03 11:33:40.
