data_PCOD9022934
_publ_section_title
;
Structure prediction by ZEFSAII (Michael W. Deem and Ramdas Pophale) SiO2 
 PCOD9022934
Probable space group: P -1
;
_chemical_formula_sum "Si O2"
_cell_formula_units_Z 12
_cell_length_a 12.116929
_cell_length_b 13.288977
_cell_length_c 8.941383
_cell_angle_alpha 149.276997
_cell_angle_beta 56.529046
_cell_angle_gamma 135.321743
_cell_volume 509.981244
_symmetry_space_group_name_H-M "P -1"
_symmetry_group_IT_number 2
_symmetry_cell_setting 'triclinic'
loop_
_space_group_symop_operation_xyz
x,y,z
-x,-y,-z
loop_
_atom_site_type_symbol
_atom_site_label
_atom_site_fract_x
_atom_site_fract_y
_atom_site_fract_z
Si Si1 0.827121 0.869028 0.891521
Si Si2 0.752693 0.249567 0.355535
Si Si3 0.596649 0.115632 0.773062
Si Si4 0.574424 0.717303 0.107881
Si Si5 0.972194 0.549128 0.829644
Si Si6 0.883266 0.620109 0.284434
O O1 0.826259 0.764848 0.598855
O O2 0.692267 0.688514 0.877171
O O3 0.786694 0.061108 0.150254
O O4 0.000000 0.000000 0.000000
O O5 0.834484 0.449089 0.679440
O O6 0.864227 0.344962 0.248950
O O7 0.561827 0.090332 0.283711
O O8 0.541123 0.242201 0.858659
O O9 0.653048 0.961167 0.454378
O O10 0.736927 0.343351 0.043126
O O11 0.500000 0.500000 0.000000
O O12 0.980233 0.364398 0.694969
O O13 0.943479 0.690418 0.158640
#
# Coordination Sequence:
#
# PCOD9022934 Si02
#       6
#     2   2   2   2   2   2
#     4  11  23  40  62  92 128 168 212 267 315 381
#     4  10  22  43  66  90 126 173 212 252 326 386
#     4  10  23  43  65  94 132 166 210 271 313 378
#     4  10  23  42  67  94 127 174 212 253 326 386
#     4  10  22  39  65  92 123 173 209 255 322 386
#     4  11  23  40  62  95 132 160 211 272 316 369
#
# _framework density 23.530276000000001
#
# number of rings (size 3 to 8) (size 9 to 14) (size 15 to 20)
#    0.000    1.667    1.667    3.000    4.667    5.333 
#    3.000    0.000    0.000    0.000    0.000    0.000 
#    0.000    0.000    0.000    0.000    0.000    0.000 
#
# Total GULP energy -66933.548458 kJ/mol
# GULP energy per Si atom -5577.795705 kJ/mol
# Density = 2.347672 g / cm^3
# Si number density = 23.530276 Si / 1000 Ang^3
#
#
#
# Elastic Constant Matrix: (Units=GPa)
#
#
# Indices 1 2 3 4 5 6 
#
# 1 43.8425 36.8418 13.5575 5.9219 12.7649 3.2880
# 2 36.8418 183.0848 53.0183 -42.7523 21.7596 10.3923
# 3 13.5575 53.0183 116.3723 -34.5027 16.7434 4.7843
# 4 5.9219 -42.7523 -34.5027 47.8205 1.5162 -2.5206
# 5 12.7649 21.7596 16.7434 1.5162 30.5315 -0.9631
# 6 3.2880 10.3923 4.7843 -2.5206 -0.9631 35.4134
#
#
#
# Elastic Compliance Matrix: (Units=1/GPa)
#
#
# Indices 1 2 3 4 5 6 
#
# 1 0.034881 -0.008591 -0.003529 -0.014436 -0.005853 -0.001427
# 2 -0.008591 0.010156 0.000094 0.010263 -0.004257 -0.001581
# 3 -0.003529 0.000094 0.012824 0.009921 -0.006145 -0.000893
# 4 -0.014436 0.010263 0.009921 0.039284 -0.008685 -0.000452
# 5 -0.005853 -0.004257 -0.006145 -0.008685 0.042135 0.003151
# 6 -0.001427 -0.001581 -0.000893 -0.000452 0.003151 0.029008
#
#
# Mechanical properties :
#
#
# Convention : Reuss Voigt Hill
#
# Bulk Modulus (GPa) = 29.57824 61.12610 45.35217
# Shear Modulus (GPa) = 24.55686 38.74523 31.65104
#
# Velocity S-wave (km/s) = 3.23403 4.06225 3.67157
# Velocity P-wave (km/s) = 5.15197 6.93084 6.10653
#
# Compressibility (1/GPa) = 0.03380864
#
# Stress axis : x y z
#
# Youngs Moduli (GPa) = 28.66909 98.46722 77.98070
#
# Poissons Ratio (x) = 0.84597 0.27517
# Poissons Ratio (y) = 0.24631 -0.00736
# Poissons Ratio (z) = 0.10117 -0.00930
#
# Static dielectric constant tensor:
#      x y z
#    x 1.895770 0.016480 0.000390 
#    y 0.016480 2.247120 -0.053170 
#    z 0.000390 -0.053170 1.921620 
# 
# From -- ./inp_files/209609.got.cif
#   From: 2010.05.17/outbox.cif.g08.bks.cpg/sg2_105_cif.got.tgz:209609.got - 2010.06.03 11:33:40.
