data_PCOD9022296
_publ_section_title
;
Structure prediction by ZEFSAII (Michael W. Deem and Ramdas Pophale) SiO2 
 PCOD9022296
Probable space group: P -1
;
_chemical_formula_sum "Si O2"
_cell_formula_units_Z 12
_cell_length_a 10.958214
_cell_length_b 7.215298
_cell_length_c 10.022482
_cell_angle_alpha 95.985018
_cell_angle_beta 119.382188
_cell_angle_gamma 127.763017
_cell_volume 441.727067
_symmetry_space_group_name_H-M "P -1"
_symmetry_group_IT_number 2
_symmetry_cell_setting 'triclinic'
loop_
_space_group_symop_operation_xyz
x,y,z
-x,-y,-z
loop_
_atom_site_type_symbol
_atom_site_label
_atom_site_fract_x
_atom_site_fract_y
_atom_site_fract_z
Si Si1 0.321709 0.804439 0.728083
Si Si2 0.226410 0.151168 0.706996
Si Si3 0.097785 0.128978 0.913446
Si Si4 0.189767 0.628418 0.933064
Si Si5 0.255158 0.770018 0.402862
Si Si6 0.683656 0.725648 0.508955
O O1 0.217144 0.609720 0.788101
O O2 0.239808 0.658400 0.530071
O O3 0.261385 0.962693 0.714485
O O4 0.582914 0.043538 0.886178
O O5 0.262965 0.240375 0.887696
O O6 0.383962 0.383507 0.687532
O O7 0.000000 0.000000 0.500000
O O8 0.166987 0.415042 0.982533
O O9 0.892102 0.845756 0.695326
O O10 0.000000 0.000000 0.000000
O O11 0.961153 0.502142 0.815161
O O12 0.500000 0.000000 0.500000
O O13 0.244718 0.983921 0.427371
O O14 0.500000 0.500000 0.500000
#
# Coordination Sequence:
#
# PCOD9022296 Si02
#       6
#     2   2   2   2   2   2
#     4  10  22  43  65  89 130 170 213 265 317 390
#     4   9  20  40  64  90 122 171 213 257 324 377
#     4  10  22  39  60  92 128 160 208 271 313 381
#     4  10  23  43  61  94 127 167 216 260 323 386
#     4  10  22  39  63  91 126 166 208 265 317 380
#     4   9  20  38  59  88 122 161 211 254 315 383
#
# _framework density 27.166094000000001
#
# number of rings (size 3 to 8) (size 9 to 14) (size 15 to 20)
#    0.000    2.333    0.000    1.500    4.667    5.333 
#   12.000    0.000    0.000    0.000    0.000    0.000 
#    0.000    0.000    0.000    0.000    0.000    0.000 
#
# Total GULP energy -66878.322667 kJ/mol
# GULP energy per Si atom -5573.193556 kJ/mol
# Density = 2.710426 g / cm^3
# Si number density = 27.166094 Si / 1000 Ang^3
#
#
#
# Elastic Constant Matrix: (Units=GPa)
#
#
# Indices 1 2 3 4 5 6 
#
# 1 91.8018 33.0180 51.1297 0.2610 -5.3137 15.0244
# 2 33.0180 194.5203 47.4397 -39.3832 -10.0507 28.6311
# 3 51.1297 47.4397 139.6775 -12.8421 -12.9584 25.5093
# 4 0.2610 -39.3832 -12.8421 65.1968 30.0002 0.0463
# 5 -5.3137 -10.0507 -12.9584 30.0002 48.4900 -4.7772
# 6 15.0244 28.6311 25.5093 0.0463 -4.7772 46.1233
#
#
#
# Elastic Compliance Matrix: (Units=1/GPa)
#
#
# Indices 1 2 3 4 5 6 
#
# 1 0.014295 -0.001622 -0.004612 -0.002658 0.001550 -0.000936
# 2 -0.001622 0.007122 -0.000907 0.005330 -0.002603 -0.003666
# 3 -0.004612 -0.000907 0.009948 0.000949 0.001050 -0.003329
# 4 -0.002658 0.005330 0.000949 0.025829 -0.015364 -0.004585
# 5 0.001550 -0.002603 0.001050 -0.015364 0.030404 0.003695
# 6 -0.000936 -0.003666 -0.003329 -0.004585 0.003695 0.026490
#
#
# Mechanical properties :
#
#
# Convention : Reuss Voigt Hill
#
# Bulk Modulus (GPa) = 58.53511 76.57492 67.55501
# Shear Modulus (GPa) = 37.29585 51.58950 44.44268
#
# Velocity S-wave (km/s) = 3.70926 4.36253 4.04909
# Velocity P-wave (km/s) = 6.31971 7.32287 6.83970
#
# Compressibility (1/GPa) = 0.01708376
#
# Stress axis : x y z
#
# Youngs Moduli (GPa) = 69.95254 140.41835 100.52123
#
# Poissons Ratio (x) = 0.22778 0.46356
# Poissons Ratio (y) = 0.11347 0.09116
# Poissons Ratio (z) = 0.32259 0.12735
#
# Static dielectric constant tensor:
#      x y z
#    x 2.426620 0.189940 0.083060 
#    y 0.189940 2.224130 -0.019810 
#    z 0.083060 -0.019810 2.222100 
# 
# From -- ./inp_files/234855.got.cif
#   From: 2010.05.17/outbox.cif.g08.bks.cpg/sg2_118_cif.got.tgz:234855.got - 2010.06.03 11:33:40.
