data_PCOD9022506
_publ_section_title
;
Structure prediction by ZEFSAII (Michael W. Deem and Ramdas Pophale) SiO2 
 PCOD9022506
Probable space group: P -1
;
_chemical_formula_sum "Si O2"
_cell_formula_units_Z 16
_cell_length_a 15.220979
_cell_length_b 10.356138
_cell_length_c 12.406080
_cell_angle_alpha 48.576567
_cell_angle_beta 43.795837
_cell_angle_gamma 24.844104
_cell_volume 568.500644
_symmetry_space_group_name_H-M "P -1"
_symmetry_group_IT_number 2
_symmetry_cell_setting 'triclinic'
loop_
_space_group_symop_operation_xyz
x,y,z
-x,-y,-z
loop_
_atom_site_type_symbol
_atom_site_label
_atom_site_fract_x
_atom_site_fract_y
_atom_site_fract_z
Si Si1 0.666982 0.960022 0.410251
Si Si2 0.811308 0.871159 0.694228
Si Si3 0.303608 0.629941 0.033360
Si Si4 0.522642 0.008594 0.724910
Si Si5 0.060694 0.682713 0.785144
Si Si6 0.561322 0.454557 0.266623
Si Si7 0.867416 0.809842 0.106631
Si Si8 0.000141 0.878829 0.340048
O O1 0.700274 0.871509 0.552813
O O2 0.532236 0.292749 0.337079
O O3 0.500000 0.000000 0.500000
O O4 0.868855 0.737913 0.267815
O O5 0.654412 0.888425 0.785969
O O6 0.637639 0.226578 0.672021
O O7 0.973188 0.766002 0.516240
O O8 0.940051 0.711111 0.781901
O O9 0.380872 0.498240 0.917759
O O10 0.137967 0.979980 0.975735
O O11 0.500000 0.500000 0.000000
O O12 0.177046 0.640807 0.218814
O O13 0.367403 0.014637 0.832066
O O14 0.325305 0.377509 0.692998
O O15 0.947562 0.997685 0.716215
O O16 0.029053 0.636017 0.956224
O O17 0.768735 0.186716 0.312177
#
# Coordination Sequence:
#
# PCOD9022506 Si02
#       8
#     2   2   2   2   2   2   2   2
#     4   9  19  36  64  85 116 162 204 246 301 359
#     4  12  24  38  63  97 125 160 202 256 309 362
#     4  10  22  39  62  92 122 160 208 256 303 359
#     4  11  21  41  64  87 126 162 204 249 306 370
#     4  11  23  39  60  92 125 160 206 251 307 361
#     4  11  19  37  62  91 123 163 204 248 310 362
#     4   9  21  39  63  86 120 168 203 249 306 360
#     4  11  21  38  60  91 124 159 206 253 306 363
#
# _framework density 28.144207999999999
#
# number of rings (size 3 to 8) (size 9 to 14) (size 15 to 20)
#    0.000    1.500    2.500    3.750    0.000    2.500 
#    0.000    0.000    8.250    4.500    0.000    0.000 
#    0.000    0.000    0.000    0.000    0.000    0.000 
#
# Total GULP energy -89555.076819 kJ/mol
# GULP energy per Si atom -5597.192301 kJ/mol
# Density = 2.808015 g / cm^3
# Si number density = 28.144208 Si / 1000 Ang^3
#
#
#
# Elastic Constant Matrix: (Units=GPa)
#
#
# Indices 1 2 3 4 5 6 
#
# 1 134.9375 8.3464 31.8851 -5.0410 3.3567 -3.8881
# 2 8.3464 63.1982 33.8260 0.7085 4.0731 -11.3007
# 3 31.8851 33.8260 193.9325 -11.1847 25.4695 9.4746
# 4 -5.0410 0.7085 -11.1847 42.4482 10.5929 0.7729
# 5 3.3567 4.0731 25.4695 10.5929 43.4300 -9.1198
# 6 -3.8881 -11.3007 9.4746 0.7729 -9.1198 52.1602
#
#
#
# Elastic Compliance Matrix: (Units=1/GPa)
#
#
# Indices 1 2 3 4 5 6 
#
# 1 0.007763 -0.000222 -0.001273 0.000525 0.000205 0.000790
# 2 -0.000222 0.018730 -0.003870 -0.001974 0.002091 0.005139
# 3 -0.001273 -0.003870 0.007040 0.003094 -0.005083 -0.003147
# 4 0.000525 -0.001974 0.003094 0.026715 -0.008792 -0.002884
# 5 0.000205 0.002091 -0.005083 -0.008792 0.029336 0.006651
# 6 0.000790 0.005139 -0.003147 -0.002884 0.006651 0.022121
#
#
# Mechanical properties :
#
#
# Convention : Reuss Voigt Hill
#
# Bulk Modulus (GPa) = 43.85188 60.02034 51.93611
# Shear Modulus (GPa) = 38.45091 48.80838 43.62965
#
# Velocity S-wave (km/s) = 3.70024 4.16892 3.94155
# Velocity P-wave (km/s) = 5.81985 6.67424 6.26163
#
# Compressibility (1/GPa) = 0.02280404
#
# Stress axis : x y z
#
# Youngs Moduli (GPa) = 128.82305 53.38961 142.03554
#
# Poissons Ratio (x) = 0.01184 0.18080
# Poissons Ratio (y) = 0.02857 0.54968
# Poissons Ratio (z) = 0.16398 0.20662
#
# Static dielectric constant tensor:
#      x y z
#    x 2.265800 0.073390 -0.018770 
#    y 0.073390 2.317170 -0.067830 
#    z -0.018770 -0.067830 2.155380 
# 
# From -- ./inp_files/427741.got.cif
#   From: 2010.05.17/outbox.cif.g08.bks.cpg/sg2_214_cif.got.tgz:427741.got - 2010.06.03 11:33:40.
