data_PCOD9022241
_publ_section_title
;
Structure prediction by ZEFSAII (Michael W. Deem and Ramdas Pophale) SiO2 
 PCOD9022241
Probable space group: P -1
;
_chemical_formula_sum "Si O2"
_cell_formula_units_Z 16
_cell_length_a 9.157263
_cell_length_b 11.814591
_cell_length_c 7.639364
_cell_angle_alpha 98.504649
_cell_angle_beta 127.939248
_cell_angle_gamma 66.225700
_cell_volume 590.764602
_symmetry_space_group_name_H-M "P -1"
_symmetry_group_IT_number 2
_symmetry_cell_setting 'triclinic'
loop_
_space_group_symop_operation_xyz
x,y,z
-x,-y,-z
loop_
_atom_site_type_symbol
_atom_site_label
_atom_site_fract_x
_atom_site_fract_y
_atom_site_fract_z
Si Si1 0.170476 0.766555 0.712529
Si Si2 0.501544 0.666570 0.469691
Si Si3 0.193434 0.035364 0.152876
Si Si4 0.823706 0.631639 0.225449
Si Si5 0.447524 0.893594 0.022114
Si Si6 0.558002 0.525708 0.830785
Si Si7 0.961841 0.237676 0.749674
Si Si8 0.171070 0.243210 0.384423
O O1 0.253931 0.873152 0.807717
O O2 0.353603 0.637210 0.770982
O O3 0.014253 0.808461 0.444720
O O4 0.062809 0.742551 0.799261
O O5 0.588942 0.568539 0.669400
O O6 0.486631 0.596490 0.263594
O O7 0.264724 0.744102 0.360326
O O8 0.658533 0.731335 0.590476
O O9 0.243616 0.091059 0.379873
O O10 0.122848 0.147928 0.982542
O O11 0.385328 0.924133 0.185743
O O12 0.000000 0.000000 0.000000
O O13 0.868126 0.651771 0.464817
O O14 0.996697 0.637225 0.223791
O O15 0.632314 0.764184 0.091676
O O16 0.739660 0.530562 0.081530
O O17 0.500000 0.000000 0.000000
#
# Coordination Sequence:
#
# PCOD9022241 Si02
#       8
#     2   2   2   2   2   2   2   2
#     4   9  21  41  61  88 122 154 202 242 295 370
#     4  10  22  39  65  93 118 153 200 254 298 349
#     4  12  25  40  59  89 124 159 199 251 296 343
#     4  10  22  41  61  86 123 158 202 243 295 367
#     4  11  22  39  64  87 116 166 198 243 300 358
#     4   9  20  42  66  88 118 159 199 242 305 360
#     4  10  22  39  60  86 122 158 197 245 294 359
#     4  11  24  39  58  90 124 156 199 250 295 347
#
# _framework density 27.083548
#
# number of rings (size 3 to 8) (size 9 to 14) (size 15 to 20)
#    0.000    1.750    2.500    0.750    5.250    3.500 
#    0.000    2.500    0.000    0.000    0.000    0.000 
#    0.000    0.000    0.000    0.000    0.000    0.000 
#
# Total GULP energy -89230.272543 kJ/mol
# GULP energy per Si atom -5576.892034 kJ/mol
# Density = 2.702190 g / cm^3
# Si number density = 27.083548 Si / 1000 Ang^3
#
#
#
# Elastic Constant Matrix: (Units=GPa)
#
#
# Indices 1 2 3 4 5 6 
#
# 1 170.4145 34.3640 32.6712 20.1832 39.5826 7.8183
# 2 34.3640 68.1344 24.6749 31.2065 7.4060 14.5117
# 3 32.6712 24.6749 139.6542 25.7995 22.7437 19.1529
# 4 20.1832 31.2065 25.7995 49.6364 12.7112 3.0347
# 5 39.5826 7.4060 22.7437 12.7112 45.0334 19.4222
# 6 7.8183 14.5117 19.1529 3.0347 19.4222 29.9735
#
#
#
# Elastic Compliance Matrix: (Units=1/GPa)
#
#
# Indices 1 2 3 4 5 6 
#
# 1 0.009033 -0.006016 -0.000902 0.002827 -0.010628 0.007733
# 2 -0.006016 0.028550 0.000075 -0.017948 0.014076 -0.019605
# 3 -0.000902 0.000075 0.008797 -0.003821 -0.000572 -0.004665
# 4 0.002827 -0.017948 -0.003821 0.034983 -0.014479 0.016234
# 5 -0.010628 0.014076 -0.000572 -0.014479 0.047967 -0.033293
# 6 0.007733 -0.019605 -0.004665 0.016234 -0.033293 0.063748
#
#
# Mechanical properties :
#
#
# Convention : Reuss Voigt Hill
#
# Bulk Modulus (GPa) = 30.58653 62.40258 46.49455
# Shear Modulus (GPa) = 22.97148 44.02821 33.49985
#
# Velocity S-wave (km/s) = 2.91550 4.03630 3.52079
# Velocity P-wave (km/s) = 4.75935 6.69426 5.80795
#
# Compressibility (1/GPa) = 0.03269414
#
# Stress axis : x y z
#
# Youngs Moduli (GPa) = 110.70422 35.02635 113.67291
#
# Poissons Ratio (x) = 0.21071 0.10257
# Poissons Ratio (y) = 0.66597 -0.00854
# Poissons Ratio (z) = 0.09989 -0.00263
#
# Static dielectric constant tensor:
#      x y z
#    x 2.157710 -0.017220 -0.082500 
#    y -0.017220 2.143720 -0.003440 
#    z -0.082500 -0.003440 2.248550 
# 
# From -- ./inp_files/208502.got.cif
#   From: 2010.05.17/outbox.cif.g08.bks.cpg/sg2_105_cif.got.tgz:208502.got - 2010.06.03 11:33:40.
