data_PCOD9022996
_publ_section_title
;
Structure prediction by ZEFSAII (Michael W. Deem and Ramdas Pophale) SiO2 
 PCOD9022996
Probable space group: P -1
;
_chemical_formula_sum "Si O2"
_cell_formula_units_Z 16
_cell_length_a 7.846339
_cell_length_b 20.078346
_cell_length_c 11.313700
_cell_angle_alpha 131.521309
_cell_angle_beta 56.659214
_cell_angle_gamma 85.857179
_cell_volume 798.347645
_symmetry_space_group_name_H-M "P -1"
_symmetry_group_IT_number 2
_symmetry_cell_setting 'triclinic'
loop_
_space_group_symop_operation_xyz
x,y,z
-x,-y,-z
loop_
_atom_site_type_symbol
_atom_site_label
_atom_site_fract_x
_atom_site_fract_y
_atom_site_fract_z
Si Si1 0.237422 0.449071 0.977460
Si Si2 0.557317 0.403051 0.251203
Si Si3 0.124689 0.131843 0.423320
Si Si4 0.277673 0.344839 0.417629
Si Si5 0.039863 0.341400 0.272901
Si Si6 0.293826 0.143487 0.124501
Si Si7 0.534037 0.284963 0.891240
Si Si8 0.971476 0.358114 0.885267
O O1 0.936993 0.564172 0.290782
O O2 0.276511 0.517283 0.950808
O O3 0.199197 0.366707 0.829798
O O4 0.455228 0.367272 0.903547
O O5 0.516707 0.345590 0.304710
O O6 0.273986 0.549481 0.529343
O O7 0.549241 0.344051 0.067819
O O8 0.840917 0.371083 0.077083
O O9 0.854778 0.154671 0.592160
O O10 0.085691 0.238365 0.630065
O O11 0.426798 0.996417 0.179196
O O12 0.128109 0.146645 0.298040
O O13 0.086400 0.396466 0.430579
O O14 0.389523 0.210171 0.222132
O O15 0.107177 0.228789 0.182668
O O16 0.287780 0.289851 0.023978
#
# Coordination Sequence:
#
# PCOD9022996 Si02
#       8
#     2   2   2   2   2   2   2   2
#     4  11  19  34  49  74 105 131 151 206 255 292
#     4  10  17  31  51  80  96 124 167 203 245 290
#     4  10  20  34  50  77  95 131 171 200 236 293
#     4   9  16  31  52  74  99 126 157 205 249 281
#     4   9  16  30  50  78 100 123 156 213 242 279
#     4   9  19  32  53  74  99 126 165 214 239 273
#     4  10  18  30  53  73  97 126 168 203 244 284
#     4  10  23  31  48  75 107 130 157 196 252 300
#
# _framework density 20.041395000000001
#
# number of rings (size 3 to 8) (size 9 to 14) (size 15 to 20)
#    0.750    1.500    3.750    0.750    1.750    2.000 
#    0.000    0.000    0.000    5.250    0.000    0.000 
#    0.000    0.000    0.000    0.000    0.000    0.000 
#
# Total GULP energy -89109.865770 kJ/mol
# GULP energy per Si atom -5569.366611 kJ/mol
# Density = 1.999578 g / cm^3
# Si number density = 20.041395 Si / 1000 Ang^3
#
#
#
# Elastic Constant Matrix: (Units=GPa)
#
#
# Indices 1 2 3 4 5 6 
#
# 1 25.6192 -11.7442 4.4302 -2.1685 7.9972 4.7406
# 2 -11.7442 45.1034 14.5109 -2.8382 -6.6994 1.8932
# 3 4.4302 14.5109 107.1836 -3.9245 -8.7206 5.7842
# 4 -2.1685 -2.8382 -3.9245 26.9228 2.7537 1.2978
# 5 7.9972 -6.6994 -8.7206 2.7537 15.9413 -4.6036
# 6 4.7406 1.8932 5.7842 1.2978 -4.6036 16.8412
#
#
#
# Elastic Compliance Matrix: (Units=1/GPa)
#
#
# Indices 1 2 3 4 5 6 
#
# 1 0.066534 0.015186 -0.006078 0.011754 -0.041161 -0.030505
# 2 0.015186 0.027822 -0.003950 0.003962 -0.000657 -0.006531
# 3 -0.006078 -0.003950 0.010686 -0.000131 0.007407 0.000520
# 4 0.011754 0.003962 -0.000131 0.040481 -0.014405 -0.010766
# 5 -0.041161 -0.000657 0.007407 -0.014405 0.100532 0.037707
# 6 -0.030505 -0.006531 0.000520 -0.010766 0.037707 0.079657
#
#
# Mechanical properties :
#
#
# Convention : Reuss Voigt Hill
#
# Bulk Modulus (GPa) = 8.66873 21.36666 15.01769
# Shear Modulus (GPa) = 14.13029 23.32167 18.72598
#
# Velocity S-wave (km/s) = 2.65817 3.41497 3.06005
# Velocity P-wave (km/s) = 3.70890 5.12189 4.47156
#
# Compressibility (1/GPa) = 0.11535712
#
# Stress axis : x y z
#
# Youngs Moduli (GPa) = 15.02991 35.94240 93.58340
#
# Poissons Ratio (x) = -0.54583 0.56883
# Poissons Ratio (y) = -0.22825 0.36969
# Poissons Ratio (z) = 0.09136 0.14199
#
# Static dielectric constant tensor:
#      x y z
#    x 1.779630 0.016310 -0.007840 
#    y 0.016310 1.770060 -0.036810 
#    z -0.007840 -0.036810 1.691100 
# 
# From -- ./inp_files/284228.got.cif
#   From: 2010.05.17/outbox.cif.g08.bks.cpg/sg2_143_cif.got.tgz:284228.got - 2010.06.03 11:33:40.
