data_PCOD9022435
_publ_section_title
;
Structure prediction by ZEFSAII (Michael W. Deem and Ramdas Pophale) SiO2 
 PCOD9022435
Probable space group: P -1
;
_chemical_formula_sum "Si O2"
_cell_formula_units_Z 16
_cell_length_a 9.626855
_cell_length_b 14.646811
_cell_length_c 6.924662
_cell_angle_alpha 68.531956
_cell_angle_beta 59.910413
_cell_angle_gamma 44.812497
_cell_volume 595.334333
_symmetry_space_group_name_H-M "P -1"
_symmetry_group_IT_number 2
_symmetry_cell_setting 'triclinic'
loop_
_space_group_symop_operation_xyz
x,y,z
-x,-y,-z
loop_
_atom_site_type_symbol
_atom_site_label
_atom_site_fract_x
_atom_site_fract_y
_atom_site_fract_z
Si Si1 0.497819 0.965564 0.250119
Si Si2 0.852424 0.299666 0.798226
Si Si3 0.176698 0.336536 0.651517
Si Si4 0.101336 0.054077 0.301768
Si Si5 0.508851 0.294578 0.160464
Si Si6 0.348106 0.404325 0.772395
Si Si7 0.254371 0.660544 0.610249
Si Si8 0.224634 0.991836 0.830030
O O1 0.659380 0.812983 0.279870
O O2 0.261897 0.022713 0.382126
O O3 0.563079 0.028432 0.289481
O O4 0.500000 0.000000 0.000000
O O5 0.787759 0.337201 0.590906
O O6 0.968315 0.355368 0.733217
O O7 0.643121 0.343930 0.025182
O O8 0.027693 0.141356 0.801730
O O9 0.298259 0.347553 0.386711
O O10 0.829947 0.584721 0.227158
O O11 0.944769 0.206781 0.261885
O O12 0.000000 0.000000 0.500000
O O13 0.187517 0.987022 0.087912
O O14 0.694224 0.142849 0.205898
O O15 0.434904 0.316080 0.970434
O O16 0.284164 0.540545 0.764726
O O17 0.543079 0.347574 0.529413
#
# Coordination Sequence:
#
# PCOD9022435 Si02
#       8
#     2   2   2   2   2   2   2   2
#     4   9  20  37  61  96 138 174 219 282 344 418
#     4  10  24  43  63 109 138 170 237 300 335 427
#     4  11  24  43  75  99 139 191 229 285 365 405
#     4  11  21  35  67 102 131 182 223 274 360 412
#     4  11  24  44  72 104 140 186 235 285 353 420
#     4  10  23  49  65  98 141 185 237 290 336 418
#     4  10  23  43  71  96 141 182 231 292 345 409
#     4  10  22  39  61  99 142 167 221 293 344 420
#
# _framework density 26.875654000000001
#
# number of rings (size 3 to 8) (size 9 to 14) (size 15 to 20)
#    0.000    1.750    0.000    4.125    7.000    1.500 
#    2.250    2.500    0.000    0.000    0.000    0.000 
#    0.000    0.000    0.000    0.000    0.000    0.000 
#
# Total GULP energy -89582.760345 kJ/mol
# GULP energy per Si atom -5598.922522 kJ/mol
# Density = 2.681448 g / cm^3
# Si number density = 26.875654 Si / 1000 Ang^3
#
#
#
# Elastic Constant Matrix: (Units=GPa)
#
#
# Indices 1 2 3 4 5 6 
#
# 1 161.4986 11.8690 37.6992 9.3802 -43.5304 -12.0731
# 2 11.8690 84.9385 23.2344 -27.0137 -10.0662 21.8183
# 3 37.6992 23.2344 162.9278 5.3429 -22.4317 -0.3788
# 4 9.3802 -27.0137 5.3429 42.5026 -8.4280 -2.3917
# 5 -43.5304 -10.0662 -22.4317 -8.4280 38.3896 5.2738
# 6 -12.0731 21.8183 -0.3788 -2.3917 5.2738 35.2001
#
#
#
# Elastic Compliance Matrix: (Units=1/GPa)
#
#
# Indices 1 2 3 4 5 6 
#
# 1 0.009109 -0.000590 -0.000713 -0.000315 0.009406 0.002052
# 2 -0.000590 0.022190 -0.002307 0.015538 0.009177 -0.014300
# 3 -0.000713 -0.002307 0.006990 -0.001709 0.002183 0.000817
# 4 -0.000315 0.015538 -0.001709 0.035509 0.011765 -0.009108
# 5 0.009406 0.009177 0.002183 0.011765 0.044112 -0.008248
# 6 0.002052 -0.014300 0.000817 -0.009108 -0.008248 0.038602
#
#
# Mechanical properties :
#
#
# Convention : Reuss Voigt Hill
#
# Bulk Modulus (GPa) = 32.18829 61.66336 46.92583
# Shear Modulus (GPa) = 28.72088 45.65594 37.18841
#
# Velocity S-wave (km/s) = 3.27258 4.12610 3.72388
# Velocity P-wave (km/s) = 5.12664 6.75969 5.99899
#
# Compressibility (1/GPa) = 0.03106720
#
# Stress axis : x y z
#
# Youngs Moduli (GPa) = 109.78267 45.06631 143.05568
#
# Poissons Ratio (x) = 0.02660 0.10205
# Poissons Ratio (y) = 0.06480 0.33005
# Poissons Ratio (z) = 0.07832 0.10397
#
# Static dielectric constant tensor:
#      x y z
#    x 2.094810 -0.054890 -0.051150 
#    y -0.054890 2.051020 0.076460 
#    z -0.051150 0.076460 2.226990 
# 
# From -- ./inp_files/282874.got.cif
#   From: 2010.05.17/outbox.cif.g08.bks.cpg/sg2_142_cif.got.tgz:282874.got - 2010.06.03 11:33:40.
