data_PCOD9022332
_publ_section_title
;
Structure prediction by ZEFSAII (Michael W. Deem and Ramdas Pophale) SiO2 
 PCOD9022332
Probable space group: P -1
;
_chemical_formula_sum "Si O2"
_cell_formula_units_Z 16
_cell_length_a 11.473877
_cell_length_b 8.152734
_cell_length_c 12.450087
_cell_angle_alpha 105.906380
_cell_angle_beta 44.131775
_cell_angle_gamma 127.099318
_cell_volume 619.769042
_symmetry_space_group_name_H-M "P -1"
_symmetry_group_IT_number 2
_symmetry_cell_setting 'triclinic'
loop_
_space_group_symop_operation_xyz
x,y,z
-x,-y,-z
loop_
_atom_site_type_symbol
_atom_site_label
_atom_site_fract_x
_atom_site_fract_y
_atom_site_fract_z
Si Si1 0.561147 0.119697 0.742021
Si Si2 0.081184 0.579956 0.307256
Si Si3 0.725501 0.278107 0.014514
Si Si4 0.396008 0.164087 0.501299
Si Si5 0.002753 0.918421 0.366074
Si Si6 0.688191 0.744191 0.960205
Si Si7 0.179763 0.526796 0.796641
Si Si8 0.101648 0.811125 0.769042
O O1 0.790403 0.336449 0.653879
O O2 0.561073 0.983259 0.621987
O O3 0.407377 0.182864 0.876482
O O4 0.485455 0.952140 0.861744
O O5 0.250215 0.651631 0.110556
O O6 0.920026 0.330758 0.344569
O O7 0.997497 0.714897 0.360580
O O8 0.945808 0.307874 0.897166
O O9 0.739433 0.426940 0.126670
O O10 0.301970 0.053267 0.658385
O O11 0.207415 0.147127 0.566052
O O12 0.620054 0.396814 0.393371
O O13 0.199709 0.101518 0.192913
O O14 0.000000 0.000000 0.500000
O O15 0.886318 0.781654 0.898286
O O16 0.500000 0.500000 0.000000
O O17 0.132630 0.695629 0.822948
#
# Coordination Sequence:
#
# PCOD9022332 Si02
#       8
#     2   2   2   2   2   2   2   2
#     4  11  20  35  62  88 119 153 196 240 305 356
#     4  11  20  35  62  88 119 153 196 240 305 356
#     4   9  19  34  58  90 109 147 198 258 276 352
#     4  10  22  39  61  85 122 160 195 246 299 357
#     4  11  23  38  59  92 123 154 197 248 301 359
#     4  11  23  38  59  92 123 154 197 248 301 359
#     4   9  19  38  62  80 115 157 206 234 304 339
#     4  10  22  39  61  85 122 160 195 246 299 357
#
# _framework density 25.816068000000001
#
# number of rings (size 3 to 8) (size 9 to 14) (size 15 to 20)
#    0.000    1.750    3.750    0.750    0.000    1.500 
#    2.250    5.000    5.500    0.000    0.000    0.000 
#    0.000    0.000    0.000    0.000    0.000    0.000 
#
# Total GULP energy -89266.232078 kJ/mol
# GULP energy per Si atom -5579.139505 kJ/mol
# Density = 2.575731 g / cm^3
# Si number density = 25.816068 Si / 1000 Ang^3
#
#
#
# Elastic Constant Matrix: (Units=GPa)
#
#
# Indices 1 2 3 4 5 6 
#
# 1 71.6186 4.7361 26.8236 15.7736 -17.6971 -11.0415
# 2 4.7361 73.6159 43.4207 4.8050 -15.1005 7.2221
# 3 26.8236 43.4207 129.8172 -15.1785 -20.4739 -7.8877
# 4 15.7736 4.8050 -15.1785 58.0303 2.6685 -11.2215
# 5 -17.6971 -15.1005 -20.4739 2.6685 41.6747 10.7449
# 6 -11.0415 7.2221 -7.8877 -11.2215 10.7449 39.6875
#
#
#
# Elastic Compliance Matrix: (Units=1/GPa)
#
#
# Indices 1 2 3 4 5 6 
#
# 1 0.018888 0.003673 -0.004798 -0.007124 0.007561 -0.000428
# 2 0.003673 0.020799 -0.007769 -0.006726 0.007859 -0.008337
# 3 -0.004798 -0.007769 0.012198 0.005983 -0.000349 0.004290
# 4 -0.007124 -0.006726 0.005983 0.023261 -0.006256 0.008702
# 5 0.007561 0.007859 -0.000349 -0.006256 0.032879 -0.010066
# 6 -0.000428 -0.008337 0.004290 0.008702 -0.010066 0.032633
#
#
# Mechanical properties :
#
#
# Convention : Reuss Voigt Hill
#
# Bulk Modulus (GPa) = 29.32785 47.22360 38.27573
# Shear Modulus (GPa) = 29.44423 41.21659 35.33041
#
# Velocity S-wave (km/s) = 3.38085 4.00002 3.70340
# Velocity P-wave (km/s) = 5.15996 6.29806 5.75720
#
# Compressibility (1/GPa) = 0.03409728
#
# Stress axis : x y z
#
# Youngs Moduli (GPa) = 52.94327 48.07861 81.97882
#
# Poissons Ratio (x) = -0.17657 0.39330
# Poissons Ratio (y) = -0.19443 0.63691
# Poissons Ratio (z) = 0.25400 0.37353
#
# Static dielectric constant tensor:
#      x y z
#    x 2.028980 0.023400 0.013430 
#    y 0.023400 2.129930 0.016350 
#    z 0.013430 0.016350 2.096050 
# 
# From -- ./inp_files/187904.got.cif
#   From: 2010.05.17/outbox.cif.g08.bks.cpg/sg2_94_cif.got.tgz:187904.got - 2010.06.03 11:33:40.
