data_PCOD9022385
_publ_section_title
;
Structure prediction by ZEFSAII (Michael W. Deem and Ramdas Pophale) SiO2 
 PCOD9022385
Probable space group: P -1
;
_chemical_formula_sum "Si O2"
_cell_formula_units_Z 14
_cell_length_a 8.423641
_cell_length_b 7.958552
_cell_length_c 8.992171
_cell_angle_alpha 74.683085
_cell_angle_beta 91.676396
_cell_angle_gamma 82.211026
_cell_volume 574.721290
_symmetry_space_group_name_H-M "P -1"
_symmetry_group_IT_number 2
_symmetry_cell_setting 'triclinic'
loop_
_space_group_symop_operation_xyz
x,y,z
-x,-y,-z
loop_
_atom_site_type_symbol
_atom_site_label
_atom_site_fract_x
_atom_site_fract_y
_atom_site_fract_z
Si Si1 0.663417 0.337825 0.492799
Si Si2 0.818874 0.242197 0.940729
Si Si3 0.147553 0.376830 0.457800
Si Si4 0.513150 0.621388 0.236903
Si Si5 0.027286 0.873445 0.347177
Si Si6 0.680306 0.894116 0.030901
Si Si7 0.078778 0.252230 0.174066
O O1 0.708608 0.519928 0.522382
O O2 0.578723 0.416642 0.322449
O O3 0.000000 0.500000 0.500000
O O4 0.825704 0.203817 0.520589
O O5 0.641712 0.350081 0.882657
O O6 0.933759 0.320013 0.041889
O O7 0.787572 0.046194 0.039424
O O8 0.025052 0.078406 0.285236
O O9 0.132423 0.191677 0.579113
O O10 0.119459 0.369490 0.283849
O O11 0.441499 0.722987 0.362144
O O12 0.657354 0.720723 0.163211
O O13 0.087105 0.789575 0.207391
O O14 0.761307 0.817869 0.898256
O O15 0.500000 0.000000 0.000000
#
# Coordination Sequence:
#
# PCOD9022385 Si02
#       7
#     2   2   2   2   2   2   2
#     4   9  19  35  62  83 124 170 213 240 311 378
#     4   9  19  34  62  97 125 154 211 261 315 377
#     4  10  22  39  61  91 128 168 210 258 318 369
#     4   9  18  36  61  85 121 176 200 249 314 373
#     4   9  18  36  60  91 123 159 200 261 316 370
#     4   9  18  34  62  93 130 162 199 260 326 370
#     4  11  21  36  65 101 122 156 213 267 312 379
#
# _framework density 24.359632999999999
#
# number of rings (size 3 to 8) (size 9 to 14) (size 15 to 20)
#    0.000    2.571    0.000    3.000    4.000    0.000 
#    0.000    7.143   31.429    9.429    0.000    0.000 
#    0.000    0.000    0.000    0.000    0.000    0.000 
#
# Total GULP energy -78156.874711 kJ/mol
# GULP energy per Si atom -5582.633908 kJ/mol
# Density = 2.430419 g / cm^3
# Si number density = 24.359633 Si / 1000 Ang^3
#
#
#
# Elastic Constant Matrix: (Units=GPa)
#
#
# Indices 1 2 3 4 5 6 
#
# 1 89.2602 19.7008 56.8162 8.2641 8.3140 -8.1084
# 2 19.7008 52.7917 31.1040 -18.4400 9.1536 -0.6243
# 3 56.8162 31.1040 104.8853 0.7984 -13.7174 7.4085
# 4 8.2641 -18.4400 0.7984 40.8334 9.4120 0.7549
# 5 8.3140 9.1536 -13.7174 9.4120 41.2495 -21.1400
# 6 -8.1084 -0.6243 7.4085 0.7549 -21.1400 41.9674
#
#
#
# Elastic Compliance Matrix: (Units=1/GPa)
#
#
# Indices 1 2 3 4 5 6 
#
# 1 0.019597 -0.000746 -0.011282 -0.002934 -0.005236 0.003182
# 2 -0.000746 0.039918 -0.014052 0.024095 -0.023723 -0.009453
# 3 -0.011282 -0.014052 0.021760 -0.008043 0.015293 0.001618
# 4 -0.002934 0.024095 -0.008043 0.041499 -0.022459 -0.010848
# 5 -0.005236 -0.023723 0.015293 -0.022459 0.052432 0.022751
# 6 0.003182 -0.009453 0.001618 -0.010848 0.022751 0.035672
#
#
# Mechanical properties :
#
#
# Convention : Reuss Voigt Hill
#
# Bulk Modulus (GPa) = 34.34587 51.35324 42.84956
# Shear Modulus (GPa) = 18.33219 34.09781 26.21500
#
# Velocity S-wave (km/s) = 2.74627 3.74541 3.28406
# Velocity P-wave (km/s) = 4.91793 6.31119 5.65762
#
# Compressibility (1/GPa) = 0.02911558
#
# Stress axis : x y z
#
# Youngs Moduli (GPa) = 51.02703 25.05132 45.95610
#
# Poissons Ratio (x) = 0.01868 0.51848
# Poissons Ratio (y) = 0.03805 0.64579
# Poissons Ratio (z) = 0.57569 0.35203
#
# Static dielectric constant tensor:
#      x y z
#    x 2.015950 0.015500 0.011080 
#    y 0.015500 2.026470 -0.104670 
#    z 0.011080 -0.104670 2.007810 
# 
# From -- ./inp_files/171215.got.cif
#   From: 2010.05.17/outbox.cif.g08.bks.cpg/sg2_86_cif.got.tgz:171215.got - 2010.06.03 11:33:40.
