data_PCOD9022024
_publ_section_title
;
Structure prediction by ZEFSAII (Michael W. Deem and Ramdas Pophale) SiO2 
 PCOD9022024
Probable space group: P -1
;
_chemical_formula_sum "Si O2"
_cell_formula_units_Z 15
_cell_length_a 9.968136
_cell_length_b 9.804642
_cell_length_c 8.109304
_cell_angle_alpha 54.765105
_cell_angle_beta 99.710834
_cell_angle_gamma 113.074692
_cell_volume 593.819469
_symmetry_space_group_name_H-M "P -1"
_symmetry_group_IT_number 2
_symmetry_cell_setting 'triclinic'
loop_
_space_group_symop_operation_xyz
x,y,z
-x,-y,-z
loop_
_atom_site_type_symbol
_atom_site_label
_atom_site_fract_x
_atom_site_fract_y
_atom_site_fract_z
Si Si1 0.938194 0.883137 0.405996
Si Si2 0.945168 0.775797 0.024923
Si Si3 0.693393 0.497618 0.304046
Si Si4 0.136110 0.739196 0.384978
Si Si5 0.000000 0.500000 0.000000
Si Si6 0.632653 0.663628 0.621399
Si Si7 0.413960 0.079427 0.298329
Si Si8 0.322891 0.649779 0.964265
O O1 0.764145 0.784042 0.449067
O O2 0.017874 0.739547 0.500428
O O3 0.000000 0.000000 0.500000
O O4 0.996408 0.024198 0.170792
O O5 0.788782 0.704691 0.137955
O O6 0.060552 0.741228 0.195368
O O7 0.926719 0.636301 0.968835
O O8 0.805603 0.420471 0.466293
O O9 0.536443 0.418372 0.413371
O O10 0.656347 0.409197 0.176702
O O11 0.275267 0.918799 0.315512
O O12 0.164819 0.661282 0.931259
O O13 0.640902 0.787070 0.698858
O O14 0.668199 0.492762 0.803016
O O15 0.500000 0.000000 0.500000
O O16 0.531455 0.173602 0.115701
#
# Coordination Sequence:
#
# PCOD9022024 Si02
#       8
#     2   2   2   2   1   2   2   2
#     4  12  26  42  71 104 139 175 233 288 342 405
#     4  11  27  45  72  96 141 183 234 280 350 411
#     4  10  22  43  68  95 138 181 226 275 350 409
#     4  12  25  44  70 103 141 180 226 287 349 409
#     4  10  24  42  70  96 128 182 236 276 332 406
#     4  11  23  40  68 100 136 180 230 281 331 415
#     4  11  21  38  69 102 135 181 226 276 345 414
#     4  10  22  38  68  97 137 176 234 272 342 408
#
# _framework density 25.260204000000002
#
# number of rings (size 3 to 8) (size 9 to 14) (size 15 to 20)
#    0.000    1.067    4.000    4.000   11.200    0.000 
#    0.000    3.333    0.000    0.000    0.000    0.000 
#    0.000    0.000    0.000    0.000    0.000    0.000 
#
# Total GULP energy -83770.328170 kJ/mol
# GULP energy per Si atom -5584.688545 kJ/mol
# Density = 2.520271 g / cm^3
# Si number density = 25.260204 Si / 1000 Ang^3
#
#
#
# Elastic Constant Matrix: (Units=GPa)
#
#
# Indices 1 2 3 4 5 6 
#
# 1 185.5816 49.5907 53.8891 -21.5032 -37.4498 42.5025
# 2 49.5907 74.1403 36.0584 -19.4977 -22.7965 28.7764
# 3 53.8891 36.0584 105.7621 -17.5073 -6.3654 19.7763
# 4 -21.5032 -19.4977 -17.5073 42.7982 16.7032 -15.3742
# 5 -37.4498 -22.7965 -6.3654 16.7032 47.7950 -9.7053
# 6 42.5025 28.7764 19.7763 -15.3742 -9.7053 49.9152
#
#
#
# Elastic Compliance Matrix: (Units=1/GPa)
#
#
# Indices 1 2 3 4 5 6 
#
# 1 0.008571 -0.001126 -0.002963 -0.001190 0.005219 -0.004826
# 2 -0.001126 0.022322 -0.004773 0.002124 0.006752 -0.008052
# 3 -0.002963 -0.004773 0.012815 0.003278 -0.003948 0.000440
# 4 -0.001190 0.002124 0.003278 0.030824 -0.008989 0.006237
# 5 0.005219 0.006752 -0.003948 -0.008989 0.030099 -0.003689
# 6 -0.004826 -0.008052 0.000440 0.006237 -0.003689 0.029815
#
#
# Mechanical properties :
#
#
# Convention : Reuss Voigt Hill
#
# Bulk Modulus (GPa) = 38.48746 71.61782 55.05264
# Shear Modulus (GPa) = 31.08806 43.16475 37.12640
#
# Velocity S-wave (km/s) = 3.51196 4.13825 3.83790
# Velocity P-wave (km/s) = 5.63157 7.15871 6.44056
#
# Compressibility (1/GPa) = 0.02598249
#
# Stress axis : x y z
#
# Youngs Moduli (GPa) = 116.67738 44.79800 78.03216
#
# Poissons Ratio (x) = 0.05046 0.23124
# Poissons Ratio (y) = 0.13141 0.37246
# Poissons Ratio (z) = 0.34576 0.21383
#
# Static dielectric constant tensor:
#      x y z
#    x 1.901680 0.120420 -0.132060 
#    y 0.120420 1.975210 0.119520 
#    z -0.132060 0.119520 1.948410 
# 
# From -- ./inp_files/174491.got.cif
#   From: 2010.05.17/outbox.cif.g08.bks.cpg/sg2_88_cif.got.tgz:174491.got - 2010.06.03 11:33:40.
