data_PCOD9022116
_publ_section_title
;
Structure prediction by ZEFSAII (Michael W. Deem and Ramdas Pophale) SiO2 
 PCOD9022116
Probable space group: P -1
;
_chemical_formula_sum "Si O2"
_cell_formula_units_Z 14
_cell_length_a 7.836385
_cell_length_b 10.028829
_cell_length_c 13.762975
_cell_angle_alpha 146.690518
_cell_angle_beta 75.773120
_cell_angle_gamma 101.443568
_cell_volume 575.721485
_symmetry_space_group_name_H-M "P -1"
_symmetry_group_IT_number 2
_symmetry_cell_setting 'triclinic'
loop_
_space_group_symop_operation_xyz
x,y,z
-x,-y,-z
loop_
_atom_site_type_symbol
_atom_site_label
_atom_site_fract_x
_atom_site_fract_y
_atom_site_fract_z
Si Si1 0.109364 0.381951 0.541698
Si Si2 0.278898 0.729811 0.859039
Si Si3 0.541976 0.891842 0.191902
Si Si4 0.859623 0.710593 0.305216
Si Si5 0.634291 0.815153 0.773826
Si Si6 0.735200 0.183409 0.494302
Si Si7 0.268768 0.583082 0.163171
O O1 0.146205 0.647675 0.742317
O O2 0.159185 0.227101 0.538703
O O3 0.235567 0.327542 0.401798
O O4 0.910087 0.309669 0.505520
O O5 0.235152 0.548879 0.844101
O O6 0.478023 0.674379 0.762161
O O7 0.265400 0.009527 0.059674
O O8 0.472749 0.999095 0.167150
O O9 0.600850 0.110870 0.386064
O O10 0.390481 0.737996 0.170335
O O11 0.700292 0.700058 0.034932
O O12 0.786690 0.924385 0.379701
O O13 0.065248 0.658946 0.227818
O O14 0.674872 0.349838 0.693945
#
# Coordination Sequence:
#
# PCOD9022116 Si02
#       7
#     2   2   2   2   2   2   2
#     4   9  20  36  66  85 108 151 198 238 274 338
#     4   9  23  37  65  82 110 151 202 241 269 332
#     4  11  25  34  59  87 122 154 180 233 298 348
#     4   9  20  38  61  85 113 150 194 235 276 334
#     4  11  21  42  58  87 113 152 196 236 284 333
#     4  11  21  38  60  90 118 147 185 242 292 331
#     4  10  22  39  54  90 119 152 189 230 289 344
#
# _framework density 24.317315000000001
#
# number of rings (size 3 to 8) (size 9 to 14) (size 15 to 20)
#    0.857    1.143    0.000    4.286    6.000    1.714 
#    0.000    1.429    0.000    0.000    0.000    0.000 
#    0.000    0.000    0.000    0.000    0.000    0.000 
#
# Total GULP energy -78353.346151 kJ/mol
# GULP energy per Si atom -5596.667582 kJ/mol
# Density = 2.426197 g / cm^3
# Si number density = 24.317315 Si / 1000 Ang^3
#
#
#
# Elastic Constant Matrix: (Units=GPa)
#
#
# Indices 1 2 3 4 5 6 
#
# 1 49.6739 78.4923 25.5310 0.4115 5.0216 18.1263
# 2 78.4923 -123.8789 59.2780 22.8317 50.2338 -16.4164
# 3 25.5310 59.2780 90.1983 -9.5833 7.1561 10.1721
# 4 0.4115 22.8317 -9.5833 28.2190 6.1401 6.3426
# 5 5.0216 50.2338 7.1561 6.1401 20.0168 21.1355
# 6 18.1263 -16.4164 10.1721 6.3426 21.1355 22.2148
#
#
#
# Elastic Compliance Matrix: (Units=1/GPa)
#
#
# Indices 1 2 3 4 5 6 
#
# 1 0.019204 0.003277 -0.007246 -0.003332 -0.011286 0.001759
# 2 0.003277 0.000596 -0.000814 -0.000466 0.012864 -0.013967
# 3 -0.007246 -0.000814 0.014459 0.006414 -0.008917 0.005343
# 4 -0.003332 -0.000466 0.006414 0.040865 -0.019896 0.006700
# 5 -0.011286 0.012864 -0.008917 -0.019896 0.059676 -0.028298
# 6 0.001759 -0.013967 0.005343 0.006700 -0.028298 0.055823
#
#
# Mechanical properties :
#
#
# Convention : Reuss Voigt Hill
#
# Bulk Modulus (GPa) = 40.49862 38.06621 39.28242
# Shear Modulus (GPa) = 23.98988 4.26958 14.12973
#
# Velocity S-wave (km/s) = 3.14432 1.32650 2.41313
# Velocity P-wave (km/s) = 5.46560 4.24665 4.89422
#
# Compressibility (1/GPa) = 0.02469220
#
# Stress axis : x y z
#
# Youngs Moduli (GPa) = 52.07144 1678.34873 69.15960
#
# Poissons Ratio (x) = -5.49985 0.50116
# Poissons Ratio (y) = -0.17063 0.05631
# Poissons Ratio (z) = 0.37733 1.36644
#
# Static dielectric constant tensor:
#      x y z
#    x 1.922110 -0.001250 0.006570 
#    y -0.001250 1.934180 0.021460 
#    z 0.006570 0.021460 1.939920 
# 
# From -- ./inp_files/501113.got.cif
#   From: 2010.05.17/outbox.cif.g08.bks.cpg/sg2_251_cif.got.tgz:501113.got - 2010.06.03 11:33:40.
