data_PCOD9022118
_publ_section_title
;
Structure prediction by ZEFSAII (Michael W. Deem and Ramdas Pophale) SiO2 
 PCOD9022118
Probable space group: P -1
;
_chemical_formula_sum "Si O2"
_cell_formula_units_Z 14
_cell_length_a 12.380278
_cell_length_b 8.593558
_cell_length_c 8.110729
_cell_angle_alpha 123.633817
_cell_angle_beta 75.346687
_cell_angle_gamma 114.458068
_cell_volume 653.661546
_symmetry_space_group_name_H-M "P -1"
_symmetry_group_IT_number 2
_symmetry_cell_setting 'triclinic'
loop_
_space_group_symop_operation_xyz
x,y,z
-x,-y,-z
loop_
_atom_site_type_symbol
_atom_site_label
_atom_site_fract_x
_atom_site_fract_y
_atom_site_fract_z
Si Si1 0.683649 0.198861 0.126092
Si Si2 0.908304 0.567769 0.180483
Si Si3 0.285763 0.205339 0.113806
Si Si4 0.816751 0.230519 0.427822
Si Si5 0.243894 0.187804 0.731369
Si Si6 0.529344 0.456135 0.279250
Si Si7 0.078181 0.329531 0.379651
O O1 0.793151 0.371442 0.108063
O O2 0.717320 0.212558 0.316615
O O3 0.574407 0.267631 0.161843
O O4 0.682961 0.984305 0.948753
O O5 0.867521 0.744705 0.229509
O O6 0.937193 0.624761 0.394899
O O7 0.000000 0.500000 0.000000
O O8 0.405049 0.395291 0.196117
O O9 0.171732 0.217494 0.261375
O O10 0.253026 0.181738 0.921123
O O11 0.855773 0.457104 0.608363
O O12 0.944617 0.228819 0.305157
O O13 0.773437 0.038349 0.448489
O O14 0.363358 0.353463 0.715539
O O15 0.500000 0.500000 0.500000
#
# Coordination Sequence:
#
# PCOD9022118 Si02
#       7
#     2   2   2   2   2   2   2
#     4   9  21  39  61  88 119 161 199 246 305 350
#     4  10  22  39  55  89 128 158 194 246 301 360
#     4  11  22  39  66  87 118 161 207 247 300 356
#     4   9  20  39  60  89 124 150 212 236 299 357
#     4  10  23  38  61  91 118 157 204 251 298 352
#     4  11  22  44  62  86 124 161 203 251 301 357
#     4  10  22  39  62  89 124 163 196 246 306 360
#
# _framework density 21.417809999999999
#
# number of rings (size 3 to 8) (size 9 to 14) (size 15 to 20)
#    0.000    2.000    0.000    3.429    8.000    1.714 
#    2.571    7.857    0.000    0.000    0.000    0.000 
#    0.000    0.000    0.000    0.000    0.000    0.000 
#
# Total GULP energy -78084.054773 kJ/mol
# GULP energy per Si atom -5577.432484 kJ/mol
# Density = 2.136906 g / cm^3
# Si number density = 21.417810 Si / 1000 Ang^3
#
#
#
# Elastic Constant Matrix: (Units=GPa)
#
#
# Indices 1 2 3 4 5 6 
#
# 1 73.3379 3.5216 1.5685 -6.0462 2.8034 -4.6120
# 2 3.5216 78.2888 9.7487 16.2939 0.1475 -22.4478
# 3 1.5685 9.7487 60.6843 -12.1996 -9.0360 -3.0800
# 4 -6.0462 16.2939 -12.1996 25.4811 3.7508 -2.9559
# 5 2.8034 0.1475 -9.0360 3.7508 24.4245 8.0383
# 6 -4.6120 -22.4478 -3.0800 -2.9559 8.0383 26.5827
#
#
#
# Elastic Compliance Matrix: (Units=1/GPa)
#
#
# Indices 1 2 3 4 5 6 
#
# 1 0.014427 -0.000721 0.000417 0.004999 -0.003428 0.003535
# 2 -0.000721 0.021572 -0.006270 -0.014038 -0.006011 0.017621
# 3 0.000417 -0.006270 0.020877 0.012682 0.006912 -0.003483
# 4 0.004999 -0.014038 0.012682 0.055756 -0.003629 -0.002221
# 5 -0.003428 -0.006011 0.006912 -0.003629 0.051331 -0.020795
# 6 0.003535 0.017621 -0.003483 -0.002221 -0.020795 0.058750
#
#
# Mechanical properties :
#
#
# Convention : Reuss Voigt Hill
#
# Bulk Modulus (GPa) = 22.86873 26.88762 24.87817
# Shear Modulus (GPa) = 19.96521 28.46247 24.21384
#
# Velocity S-wave (km/s) = 3.05647 3.64938 3.36601
# Velocity P-wave (km/s) = 4.81213 5.50804 5.17180
#
# Compressibility (1/GPa) = 0.04372784
#
# Stress axis : x y z
#
# Youngs Moduli (GPa) = 69.31608 46.35641 47.89942
#
# Poissons Ratio (x) = 0.03343 -0.01996
# Poissons Ratio (y) = 0.04999 0.30031
# Poissons Ratio (z) = -0.02889 0.29063
#
# Static dielectric constant tensor:
#      x y z
#    x 1.839900 -0.010230 0.036300 
#    y -0.010230 1.802940 0.053470 
#    z 0.036300 0.053470 1.814490 
# 
# From -- ./inp_files/178170.got.cif
#   From: 2010.05.17/outbox.cif.g08.bks.cpg/sg2_90_cif.got.tgz:178170.got - 2010.06.03 11:33:40.
