data_PCOD9022566
_publ_section_title
;
Structure prediction by ZEFSAII (Michael W. Deem and Ramdas Pophale) SiO2 
 PCOD9022566
Probable space group: P -1
;
_chemical_formula_sum "Si O2"
_cell_formula_units_Z 16
_cell_length_a 16.307036
_cell_length_b 5.282554
_cell_length_c 8.842016
_cell_angle_alpha 97.274799
_cell_angle_beta 106.533002
_cell_angle_gamma 66.660137
_cell_volume 670.351454
_symmetry_space_group_name_H-M "P -1"
_symmetry_group_IT_number 2
_symmetry_cell_setting 'triclinic'
loop_
_space_group_symop_operation_xyz
x,y,z
-x,-y,-z
loop_
_atom_site_type_symbol
_atom_site_label
_atom_site_fract_x
_atom_site_fract_y
_atom_site_fract_z
Si Si1 0.219686 0.833068 0.179485
Si Si2 0.403730 0.729259 0.403097
Si Si3 0.926682 0.710217 0.688151
Si Si4 0.376755 0.954657 0.715569
Si Si5 0.074282 0.601621 0.962664
Si Si6 0.518768 0.649188 0.170634
Si Si7 0.780286 0.961374 0.128362
Si Si8 0.061448 0.134770 0.620442
O O1 0.310920 0.668989 0.314026
O O2 0.165021 0.131232 0.251845
O O3 0.138644 0.716180 0.103972
O O4 0.252131 0.872802 0.030434
O O5 0.500000 0.500000 0.500000
O O6 0.373187 0.970712 0.531917
O O7 0.435926 0.782636 0.257293
O O8 0.900990 0.763053 0.502171
O O9 0.006246 0.801582 0.815295
O O10 0.986816 0.384831 0.691495
O O11 0.409065 0.624950 0.732638
O O12 0.441875 0.112802 0.816059
O O13 0.291036 0.064266 0.791044
O O14 0.151620 0.342281 0.905183
O O15 0.000000 0.500000 0.000000
O O16 0.500000 0.500000 0.000000
O O17 0.850530 0.067604 0.260192
O O18 0.000000 0.000000 0.500000
#
# Coordination Sequence:
#
# PCOD9022566 Si02
#       8
#     2   2   2   2   2   2   2   2
#     4  12  24  43  72 100 142 187 255 299 378 441
#     4  10  25  50  74 107 146 195 243 316 385 453
#     4  10  22  39  62  98 132 189 228 291 354 437
#     4  11  25  48  70 110 146 191 243 310 379 454
#     4  11  24  42  65 105 145 187 243 302 366 442
#     4  11  24  47  79 107 144 188 244 313 384 450
#     4  11  25  41  67 105 140 190 246 301 369 445
#     4  10  22  40  63  93 143 185 233 286 370 429
#
# _framework density 23.868075999999999
#
# number of rings (size 3 to 8) (size 9 to 14) (size 15 to 20)
#    0.000    1.250    1.250    3.375    7.000    0.000 
#    9.000    0.000    0.000    0.000    0.000    0.000 
#    0.000    0.000    0.000    0.000    0.000    0.000 
#
# Total GULP energy -89075.274488 kJ/mol
# GULP energy per Si atom -5567.204656 kJ/mol
# Density = 2.381375 g / cm^3
# Si number density = 23.868076 Si / 1000 Ang^3
#
#
#
# Elastic Constant Matrix: (Units=GPa)
#
#
# Indices 1 2 3 4 5 6 
#
# 1 166.3976 40.6583 77.3026 19.7156 -7.4232 -14.0300
# 2 40.6583 45.8674 23.9889 5.5232 3.9924 -5.8843
# 3 77.3026 23.9889 162.4957 15.1471 -3.1903 -16.9356
# 4 19.7156 5.5232 15.1471 36.7609 -15.7327 3.5330
# 5 -7.4232 3.9924 -3.1903 -15.7327 60.3424 2.8980
# 6 -14.0300 -5.8843 -16.9356 3.5330 2.8980 22.1312
#
#
#
# Elastic Compliance Matrix: (Units=1/GPa)
#
#
# Indices 1 2 3 4 5 6 
#
# 1 0.009537 -0.006228 -0.003083 -0.002907 0.000548 0.002423
# 2 -0.006228 0.028840 -0.000694 -0.002637 -0.003595 0.004080
# 3 -0.003083 -0.000694 0.008446 -0.002518 -0.000775 0.004827
# 4 -0.002907 -0.002637 -0.002518 0.035326 0.009439 -0.011346
# 5 0.000548 -0.003595 -0.000775 0.009439 0.019550 -0.005268
# 6 0.002423 0.004080 0.004827 -0.011346 -0.005268 0.054001
#
#
# Mechanical properties :
#
#
# Convention : Reuss Voigt Hill
#
# Bulk Modulus (GPa) = 37.29748 73.18448 55.24098
# Shear Modulus (GPa) = 27.07849 39.36761 33.22305
#
# Velocity S-wave (km/s) = 3.37190 4.06567 3.73493
# Velocity P-wave (km/s) = 5.55158 7.26417 6.46484
#
# Compressibility (1/GPa) = 0.02681146
#
# Stress axis : x y z
#
# Youngs Moduli (GPa) = 104.85374 34.67430 118.40125
#
# Poissons Ratio (x) = 0.21596 0.36506
# Poissons Ratio (y) = 0.65305 0.08219
# Poissons Ratio (z) = 0.32329 0.02407
#
# Static dielectric constant tensor:
#      x y z
#    x 2.146970 0.159630 -0.473390 
#    y 0.159630 1.997500 -0.244700 
#    z -0.473390 -0.244700 3.374740 
# 
# From -- ./inp_files/289043.got.cif
#   From: 2010.05.17/outbox.cif.g08.bks.cpg/sg2_145_cif.got.tgz:289043.got - 2010.06.03 11:33:40.
