data_PCOD9022797
_publ_section_title
;
Structure prediction by ZEFSAII (Michael W. Deem and Ramdas Pophale) SiO2 
 PCOD9022797
Probable space group: P -1
;
_chemical_formula_sum "Si O2"
_cell_formula_units_Z 16
_cell_length_a 14.512007
_cell_length_b 13.221765
_cell_length_c 16.744731
_cell_angle_alpha 153.389785
_cell_angle_beta 26.250570
_cell_angle_gamma 137.186451
_cell_volume 597.495220
_symmetry_space_group_name_H-M "P -1"
_symmetry_group_IT_number 2
_symmetry_cell_setting 'triclinic'
loop_
_space_group_symop_operation_xyz
x,y,z
-x,-y,-z
loop_
_atom_site_type_symbol
_atom_site_label
_atom_site_fract_x
_atom_site_fract_y
_atom_site_fract_z
Si Si1 0.125591 0.975576 0.678482
Si Si2 0.201408 0.507174 0.195636
Si Si3 0.225959 0.819365 0.662166
Si Si4 0.759453 0.438643 0.239379
Si Si5 0.529069 0.991084 0.280981
Si Si6 0.687188 0.250887 0.008070
Si Si7 0.497901 0.337851 0.051672
Si Si8 0.185223 0.290971 0.475225
O O1 0.112365 0.722216 0.480595
O O2 0.241191 0.942882 0.652261
O O3 0.283973 0.039693 0.537753
O O4 0.893083 0.189085 0.004159
O O5 0.008237 0.523065 0.294497
O O6 0.306067 0.251999 0.976327
O O7 0.396795 0.559466 0.030763
O O8 0.276670 0.545877 0.401062
O O9 0.394973 0.806679 0.594394
O O10 0.000000 0.000000 0.000000
O O11 0.500000 0.500000 0.500000
O O12 0.779414 0.403376 0.104133
O O13 0.834889 0.635652 0.364620
O O14 0.537394 0.904993 0.122389
O O15 0.673967 0.293697 0.954621
O O16 0.431082 0.280927 0.251007
O O17 0.825501 0.970658 0.717118
#
# Coordination Sequence:
#
# PCOD9022797 Si02
#       8
#     2   2   2   2   2   2   2   2
#     4  11  21  44  69  93 129 172 216 258 319 389
#     4  11  21  43  71  92 127 174 215 258 321 388
#     4  12  27  40  65 102 130 165 211 270 324 380
#     4  10  22  39  64  92 124 168 215 259 308 381
#     4  11  24  45  67  94 131 173 211 259 326 388
#     4  10  23  43  60  91 130 163 221 263 311 375
#     4  11  25  43  63  97 133 162 216 271 312 378
#     4  10  22  40  67  89 120 179 209 257 324 375
#
# _framework density 26.778455999999998
#
# number of rings (size 3 to 8) (size 9 to 14) (size 15 to 20)
#    0.000    1.250    3.750    1.875    7.000    3.000 
#    0.000    0.625    0.000    0.000    0.000    0.000 
#    0.000    0.000    0.000    0.000    0.000    0.000 
#
# Total GULP energy -89630.475752 kJ/mol
# GULP energy per Si atom -5601.904735 kJ/mol
# Density = 2.671751 g / cm^3
# Si number density = 26.778456 Si / 1000 Ang^3
#
#
#
# Elastic Constant Matrix: (Units=GPa)
#
#
# Indices 1 2 3 4 5 6 
#
# 1 181.9063 12.4617 45.1073 11.4771 26.3820 16.9055
# 2 12.4617 37.3451 22.0816 2.2486 12.4629 11.1162
# 3 45.1073 22.0816 131.0820 1.0397 7.9164 9.9125
# 4 11.4771 2.2486 1.0397 21.3851 -0.2603 -5.8063
# 5 26.3820 12.4629 7.9164 -0.2603 61.7587 9.4276
# 6 16.9055 11.1162 9.9125 -5.8063 9.4276 42.8163
#
#
#
# Elastic Compliance Matrix: (Units=1/GPa)
#
#
# Indices 1 2 3 4 5 6 
#
# 1 0.006824 0.000780 -0.002112 -0.004339 -0.002445 -0.002458
# 2 0.000780 0.033895 -0.005035 -0.005853 -0.005401 -0.007547
# 3 -0.002112 -0.005035 0.009147 0.001234 0.000747 0.000026
# 4 -0.004339 -0.005853 0.001234 0.052294 0.001619 0.009682
# 5 -0.002445 -0.005401 0.000747 0.001619 0.018490 -0.001657
# 6 -0.002458 -0.007547 0.000026 0.009682 -0.001657 0.027957
#
#
# Mechanical properties :
#
#
# Convention : Reuss Voigt Hill
#
# Bulk Modulus (GPa) = 26.93000 56.62607 41.77803
# Shear Modulus (GPa) = 28.78208 43.23756 36.00982
#
# Velocity S-wave (km/s) = 3.28200 4.02262 3.67104
# Velocity P-wave (km/s) = 4.94373 6.53967 5.79689
#
# Compressibility (1/GPa) = 0.03713331
#
# Stress axis : x y z
#
# Youngs Moduli (GPa) = 146.53322 29.50271 109.32738
#
# Poissons Ratio (x) = -0.02303 0.23088
# Poissons Ratio (y) = -0.11436 0.55048
# Poissons Ratio (z) = 0.30946 0.14855
#
# Static dielectric constant tensor:
#      x y z
#    x 2.147330 0.011020 0.016610 
#    y 0.011020 2.134450 -0.015820 
#    z 0.016610 -0.015820 2.071950 
# 
# From -- ./inp_files/315390.got.cif
#   From: 2010.05.17/outbox.cif.g08.bks.cpg/sg2_158_cif.got.tgz:315390.got - 2010.06.03 11:33:40.
