data_PCOD9022344
_publ_section_title
;
Structure prediction by ZEFSAII (Michael W. Deem and Ramdas Pophale) SiO2 
 PCOD9022344
Probable space group: P -1
;
_chemical_formula_sum "Si O2"
_cell_formula_units_Z 16
_cell_length_a 5.889665
_cell_length_b 7.055698
_cell_length_c 23.928238
_cell_angle_alpha 83.314999
_cell_angle_beta 113.099205
_cell_angle_gamma 137.959219
_cell_volume 587.267469
_symmetry_space_group_name_H-M "P -1"
_symmetry_group_IT_number 2
_symmetry_cell_setting 'triclinic'
loop_
_space_group_symop_operation_xyz
x,y,z
-x,-y,-z
loop_
_atom_site_type_symbol
_atom_site_label
_atom_site_fract_x
_atom_site_fract_y
_atom_site_fract_z
Si Si1 0.474907 0.213146 0.484417
Si Si2 0.582454 0.785336 0.401861
Si Si3 0.586305 0.207734 0.257286
Si Si4 0.300401 0.208914 0.827393
Si Si5 0.532425 0.211937 0.370831
Si Si6 0.640160 0.784452 0.288190
Si Si7 0.241863 0.376542 0.925689
Si Si8 0.368206 0.798185 0.859953
O O1 0.606776 0.378180 0.551012
O O2 0.664488 0.377165 0.437378
O O3 0.500000 0.000000 0.500000
O O4 0.028627 0.999179 0.443165
O O5 0.558101 0.999056 0.386355
O O6 0.449773 0.619495 0.335222
O O7 0.720832 0.376068 0.323607
O O8 0.611438 0.995194 0.272894
O O9 0.760892 0.355556 0.208497
O O10 0.142560 0.997282 0.215964
O O11 0.489064 0.367721 0.779737
O O12 0.314251 0.992115 0.848021
O O13 0.436884 0.401775 0.888392
O O14 0.085862 0.997333 0.329774
O O15 0.178907 0.561619 0.897799
O O16 0.500000 0.500000 0.000000
O O17 0.175492 0.961019 0.096972
#
# Coordination Sequence:
#
# PCOD9022344 Si02
#       8
#     2   2   2   2   2   2   2   2
#     4   8  12  16  24  46  83 132 182 234 288 341
#     4   8  12  17  28  50  86 131 183 235 285 344
#     4   8  15  29  48  72 101 139 185 234 283 342
#     4   9  19  35  56  80 112 149 189 239 291 344
#     4   8  12  19  34  56  89 133 180 232 288 341
#     4   8  13  24  42  65  94 137 184 232 288 344
#     4  11  24  41  62  90 121 154 195 239 287 349
#     4  10  22  39  61  88 118 155 196 239 290 346
#
# _framework density 27.244823
#
# number of rings (size 3 to 8) (size 9 to 14) (size 15 to 20)
#    0.000    3.250    0.000    0.375    0.000    3.000 
#    0.000    0.000    0.000    0.000    0.000    0.000 
#    0.000    1.000    0.000  745.375    0.000 2757.875 
#
# Total GULP energy -89675.038328 kJ/mol
# GULP energy per Si atom -5604.689895 kJ/mol
# Density = 2.718281 g / cm^3
# Si number density = 27.244823 Si / 1000 Ang^3
#
#
#
# Elastic Constant Matrix: (Units=GPa)
#
#
# Indices 1 2 3 4 5 6 
#
# 1 152.8599 36.2964 69.5594 1.2082 -0.5729 -13.9004
# 2 36.2964 120.9401 50.0278 0.0574 3.9696 2.0050
# 3 69.5594 50.0278 241.7890 4.6356 -23.6591 -12.1533
# 4 1.2082 0.0574 4.6356 33.1017 -6.7977 0.2218
# 5 -0.5729 3.9696 -23.6591 -6.7977 48.8996 -0.3808
# 6 -13.9004 2.0050 -12.1533 0.2218 -0.3808 28.9220
#
#
#
# Elastic Compliance Matrix: (Units=1/GPa)
#
#
# Indices 1 2 3 4 5 6 
#
# 1 0.008087 -0.001680 -0.001881 -0.000190 -0.000680 0.003205
# 2 -0.001680 0.009601 -0.001780 -0.000037 -0.001683 -0.002243
# 3 -0.001881 -0.001780 0.005391 -0.000134 0.002724 0.001522
# 4 -0.000190 -0.000037 -0.000134 0.031112 0.004258 -0.000328
# 5 -0.000680 -0.001683 0.002724 0.004258 0.022498 0.001198
# 6 0.003205 -0.002243 0.001522 -0.000328 0.001198 0.036930
#
#
# Mechanical properties :
#
#
# Convention : Reuss Voigt Hill
#
# Bulk Modulus (GPa) = 80.65774 91.92846 86.29310
# Shear Modulus (GPa) = 38.93074 46.16503 42.54789
#
# Velocity S-wave (km/s) = 3.78421 4.12084 3.95611
# Velocity P-wave (km/s) = 6.98303 7.51376 7.25325
#
# Compressibility (1/GPa) = 0.01239807
#
# Stress axis : x y z
#
# Youngs Moduli (GPa) = 123.65353 104.15074 185.50093
#
# Poissons Ratio (x) = 0.17495 0.34889
# Poissons Ratio (y) = 0.20771 0.33020
# Poissons Ratio (z) = 0.23257 0.18539
#
# Static dielectric constant tensor:
#      x y z
#    x 2.208880 0.018130 -0.038660 
#    y 0.018130 2.015520 -0.023220 
#    z -0.038660 -0.023220 2.142570 
# 
# From -- ./inp_files/121819.got.cif
#   From: 2010.05.17/outbox.cif.g08.bks.cpg/sg2_61_cif.got.tgz:121819.got - 2010.06.03 11:33:40.
