data_PCOD9022541
_publ_section_title
;
Structure prediction by ZEFSAII (Michael W. Deem and Ramdas Pophale) SiO2 
 PCOD9022541
Probable space group: P -1
;
_chemical_formula_sum "Si O2"
_cell_formula_units_Z 14
_cell_length_a 11.619913
_cell_length_b 10.077416
_cell_length_c 8.989556
_cell_angle_alpha 78.203857
_cell_angle_beta 39.603524
_cell_angle_gamma 92.622860
_cell_volume 621.044259
_symmetry_space_group_name_H-M "P -1"
_symmetry_group_IT_number 2
_symmetry_cell_setting 'triclinic'
loop_
_space_group_symop_operation_xyz
x,y,z
-x,-y,-z
loop_
_atom_site_type_symbol
_atom_site_label
_atom_site_fract_x
_atom_site_fract_y
_atom_site_fract_z
Si Si1 0.511889 0.106136 0.103303
Si Si2 0.055343 0.441857 0.802463
Si Si3 0.010577 0.708344 0.685443
Si Si4 0.276030 0.036819 0.849271
Si Si5 0.849632 0.996194 0.356381
Si Si6 0.115957 0.662529 0.301137
Si Si7 0.326688 0.357824 0.744244
O O1 0.305153 0.107423 0.357361
O O2 0.599813 0.040002 0.167219
O O3 0.662144 0.264206 0.899644
O O4 0.500000 0.000000 0.000000
O O5 0.128509 0.597092 0.615377
O O6 0.910474 0.342813 0.849788
O O7 0.812257 0.647725 0.256418
O O8 0.000000 0.500000 0.000000
O O9 0.018015 0.744287 0.495349
O O10 0.798138 0.637601 0.983897
O O11 0.110242 0.846256 0.651596
O O12 0.242182 0.011152 0.713545
O O13 0.366626 0.208428 0.744838
O O14 0.059380 0.983599 0.140491
O O15 0.000000 0.500000 0.500000
O O16 0.500000 0.500000 0.500000
#
# Coordination Sequence:
#
# PCOD9022541 Si02
#       7
#     2   2   2   2   2   2   2
#     4  12  25  42  70  96 130 181 225 264 335 406
#     4   9  20  36  66  88 123 170 215 266 325 384
#     4   9  19  40  61  90 129 168 213 273 329 384
#     4  10  25  41  65  97 136 166 226 281 330 379
#     4  10  22  43  65  96 131 173 222 278 327 390
#     4  10  22  40  64  95 131 170 219 272 333 396
#     4  10  22  39  62  95 127 170 221 274 331 388
#
# _framework density 22.542674000000002
#
# number of rings (size 3 to 8) (size 9 to 14) (size 15 to 20)
#    0.000    2.000    1.429    0.429   10.000    4.000 
#    0.000    0.714    0.000    0.000    0.000    0.000 
#    0.000    0.000    0.000    0.000    0.000    0.000 
#
# Total GULP energy -77975.056212 kJ/mol
# GULP energy per Si atom -5569.646872 kJ/mol
# Density = 2.249137 g / cm^3
# Si number density = 22.542674 Si / 1000 Ang^3
#
#
#
# Elastic Constant Matrix: (Units=GPa)
#
#
# Indices 1 2 3 4 5 6 
#
# 1 45.2089 15.9501 14.8379 3.8396 5.9553 11.3093
# 2 15.9501 77.6413 34.7449 -9.1589 6.6973 15.4551
# 3 14.8379 34.7449 163.4844 -19.3414 3.7223 24.4968
# 4 3.8396 -9.1589 -19.3414 37.7822 8.1895 5.8778
# 5 5.9553 6.6973 3.7223 8.1895 22.3213 2.4624
# 6 11.3093 15.4551 24.4968 5.8778 2.4624 45.0930
#
#
#
# Elastic Compliance Matrix: (Units=1/GPa)
#
#
# Indices 1 2 3 4 5 6 
#
# 1 0.025615 -0.003946 -0.001123 -0.002649 -0.004061 -0.003894
# 2 -0.003946 0.016332 -0.001784 0.005158 -0.004997 -0.004038
# 3 -0.001123 -0.001784 0.007758 0.004625 -0.001733 -0.003830
# 4 -0.002649 0.005158 0.004625 0.034411 -0.013425 -0.007369
# 5 -0.004061 -0.004997 -0.001733 -0.013425 0.052315 0.002566
# 6 -0.003894 -0.004038 -0.003830 -0.007369 0.002566 0.027438
#
#
# Mechanical properties :
#
#
# Convention : Reuss Voigt Hill
#
# Bulk Modulus (GPa) = 27.77915 46.37783 37.07849
# Shear Modulus (GPa) = 26.37479 35.75941 31.06710
#
# Velocity S-wave (km/s) = 3.42423 3.98716 3.71637
# Velocity P-wave (km/s) = 5.28994 6.46642 5.90754
#
# Compressibility (1/GPa) = 0.03599822
#
# Stress axis : x y z
#
# Youngs Moduli (GPa) = 39.04013 61.22911 128.89383
#
# Poissons Ratio (x) = 0.24163 0.14481
# Poissons Ratio (y) = 0.15406 0.22990
# Poissons Ratio (z) = 0.04386 0.10921
#
# Static dielectric constant tensor:
#      x y z
#    x 1.931630 -0.003340 0.074220 
#    y -0.003340 1.830680 -0.004260 
#    z 0.074220 -0.004260 1.964600 
# 
# From -- ./inp_files/258425.got.cif
#   From: 2010.05.17/outbox.cif.g08.bks.cpg/sg2_130_cif.got.tgz:258425.got - 2010.06.03 11:33:40.
