data_PCOD9022484
_publ_section_title
;
Structure prediction by ZEFSAII (Michael W. Deem and Ramdas Pophale) SiO2 
 PCOD9022484
Probable space group: P -1
;
_chemical_formula_sum "Si O2"
_cell_formula_units_Z 16
_cell_length_a 15.767573
_cell_length_b 14.473733
_cell_length_c 9.506835
_cell_angle_alpha 82.155358
_cell_angle_beta 116.817444
_cell_angle_gamma 151.627954
_cell_volume 726.106766
_symmetry_space_group_name_H-M "P -1"
_symmetry_group_IT_number 2
_symmetry_cell_setting 'triclinic'
loop_
_space_group_symop_operation_xyz
x,y,z
-x,-y,-z
loop_
_atom_site_type_symbol
_atom_site_label
_atom_site_fract_x
_atom_site_fract_y
_atom_site_fract_z
Si Si1 0.234062 0.308786 0.325028
Si Si2 0.853995 0.691650 0.437827
Si Si3 0.337408 0.658449 0.747053
Si Si4 0.823303 0.554733 0.889701
Si Si5 0.645053 0.891166 0.173373
Si Si6 0.759801 0.785486 0.177930
Si Si7 0.872198 0.262357 0.692089
Si Si8 0.308783 0.702948 0.396662
O O1 0.500000 0.500000 0.500000
O O2 0.224760 0.356438 0.454504
O O3 0.210014 0.365761 0.177766
O O4 0.986709 0.018822 0.193418
O O5 0.665457 0.455196 0.262374
O O6 0.885108 0.818993 0.360327
O O7 0.103893 0.857246 0.607776
O O8 0.334284 0.702169 0.582488
O O9 0.089123 0.456325 0.695479
O O10 0.577766 0.886867 0.982560
O O11 0.586492 0.307896 0.855839
O O12 0.812746 0.487654 0.750540
O O13 0.053554 0.739239 0.124762
O O14 0.687929 0.819724 0.186093
O O15 0.500000 0.500000 0.000000
O O16 0.850251 0.346793 0.718776
O O17 0.590920 0.979614 0.494072
#
# Coordination Sequence:
#
# PCOD9022484 Si02
#       8
#     2   2   2   2   2   2   2   2
#     4  11  23  40  63  94 131 172 217 269 321 388
#     4  11  21  39  63  87 129 175 215 261 323 384
#     4  11  22  40  66  92 126 167 219 260 330 388
#     4  11  22  42  65  93 129 168 216 268 325 387
#     4  10  22  39  62  90 126 173 214 264 318 387
#     4  11  22  39  63  91 131 176 219 267 325 386
#     4  10  25  41  65  97 128 166 211 280 323 398
#     4  11  23  43  66  94 130 165 217 267 339 383
#
# _framework density 22.035326999999999
#
# number of rings (size 3 to 8) (size 9 to 14) (size 15 to 20)
#    0.000    1.250    2.500    4.500    3.500    0.000 
#    0.000    1.250    0.000    8.250    0.000    0.000 
#    0.000    0.000    0.000    0.000    0.000    0.000 
#
# Total GULP energy -89290.441336 kJ/mol
# GULP energy per Si atom -5580.652583 kJ/mol
# Density = 2.198517 g / cm^3
# Si number density = 22.035327 Si / 1000 Ang^3
#
#
#
# Elastic Constant Matrix: (Units=GPa)
#
#
# Indices 1 2 3 4 5 6 
#
# 1 57.0748 8.6757 10.1689 7.7662 15.4375 3.1240
# 2 8.6757 50.9722 4.8782 2.5565 2.9558 10.5158
# 3 10.1689 4.8782 71.6298 7.7626 13.7265 11.1348
# 4 7.7662 2.5565 7.7626 38.3326 -8.7661 2.9326
# 5 15.4375 2.9558 13.7265 -8.7661 26.0535 -1.2736
# 6 3.1240 10.5158 11.1348 2.9326 -1.2736 29.5677
#
#
#
# Elastic Compliance Matrix: (Units=1/GPa)
#
#
# Indices 1 2 3 4 5 6 
#
# 1 0.023684 -0.002269 0.001451 -0.008805 -0.017607 -0.002127
# 2 -0.002269 0.021710 0.000552 -0.000997 -0.002121 -0.007682
# 3 0.001451 0.000552 0.017971 -0.006377 -0.012880 -0.007040
# 4 -0.008805 -0.000997 -0.006377 0.033733 0.020099 0.001207
# 5 -0.017607 -0.002121 -0.012880 0.020099 0.063005 0.008186
# 6 -0.002127 -0.007682 -0.007040 0.001207 0.008186 0.039661
#
#
# Mechanical properties :
#
#
# Convention : Reuss Voigt Hill
#
# Bulk Modulus (GPa) = 15.91496 25.23583 20.57539
# Shear Modulus (GPa) = 22.60001 29.18770 25.89386
#
# Velocity S-wave (km/s) = 3.20601 3.64344 3.43170
# Velocity P-wave (km/s) = 4.57634 5.40156 5.00598
#
# Compressibility (1/GPa) = 0.06283396
#
# Stress axis : x y z
#
# Youngs Moduli (GPa) = 42.22256 46.06264 55.64612
#
# Poissons Ratio (x) = 0.10449 -0.08075
# Poissons Ratio (y) = 0.09578 -0.03073
# Poissons Ratio (z) = -0.06127 -0.02544
#
# Static dielectric constant tensor:
#      x y z
#    x 1.798410 0.005370 0.035910 
#    y 0.005370 1.850260 0.018290 
#    z 0.035910 0.018290 1.895150 
# 
# From -- ./inp_files/315322.got.cif
#   From: 2010.05.17/outbox.cif.g08.bks.cpg/sg2_158_cif.got.tgz:315322.got - 2010.06.03 11:33:40.
