data_PCOD9022568
_publ_section_title
;
Structure prediction by ZEFSAII (Michael W. Deem and Ramdas Pophale) SiO2 
 PCOD9022568
Probable space group: P -1
;
_chemical_formula_sum "Si O2"
_cell_formula_units_Z 16
_cell_length_a 12.423619
_cell_length_b 9.390692
_cell_length_c 13.879463
_cell_angle_alpha 59.657765
_cell_angle_beta 116.873998
_cell_angle_gamma 67.193081
_cell_volume 747.664910
_symmetry_space_group_name_H-M "P -1"
_symmetry_group_IT_number 2
_symmetry_cell_setting 'triclinic'
loop_
_space_group_symop_operation_xyz
x,y,z
-x,-y,-z
loop_
_atom_site_type_symbol
_atom_site_label
_atom_site_fract_x
_atom_site_fract_y
_atom_site_fract_z
Si Si1 0.037359 0.900590 0.293921
Si Si2 0.703155 0.176533 0.713596
Si Si3 0.707766 0.357250 0.163011
Si Si4 0.721692 0.909296 0.552103
Si Si5 0.760366 0.023022 0.002840
Si Si6 0.342253 0.148816 0.247236
Si Si7 0.652555 0.359210 0.347816
Si Si8 0.817583 0.595408 0.104022
O O1 0.116956 0.954177 0.235385
O O2 0.229023 0.657235 0.522481
O O3 0.870163 0.144893 0.218153
O O4 0.945628 0.858752 0.204498
O O5 0.500000 0.500000 0.500000
O O6 0.776086 0.097282 0.880537
O O7 0.643085 0.056148 0.707242
O O8 0.761242 0.228721 0.333648
O O9 0.698521 0.564799 0.099638
O O10 0.500000 0.500000 0.000000
O O11 0.730574 0.784788 0.694300
O O12 0.946668 0.676028 0.683991
O O13 0.555574 0.007744 0.383456
O O14 0.645504 0.180155 0.447252
O O15 0.562971 0.323512 0.864915
O O16 0.741256 0.850537 0.030624
O O17 0.203389 0.378553 0.030213
#
# Coordination Sequence:
#
# PCOD9022568 Si02
#       8
#     2   2   2   2   2   2   2   2
#     4  12  24  44  70  99 132 185 230 272 338 405
#     4  11  21  42  67  99 143 180 218 280 344 417
#     4  12  25  47  74  97 133 183 240 280 327 400
#     4  11  22  40  68  96 132 179 226 274 337 402
#     4  11  26  43  69 103 139 177 221 284 350 407
#     4  10  22  39  62  98 136 173 222 281 334 400
#     4  12  24  46  71  98 136 182 233 280 331 406
#     4  11  25  43  65 101 135 171 225 283 342 392
#
# _framework density 21.39996
#
# number of rings (size 3 to 8) (size 9 to 14) (size 15 to 20)
#    0.000    0.750    5.000    1.875    1.750    1.500 
#    4.500    0.625    0.000    0.000    0.000    0.000 
#    0.000    0.000    0.000    0.000    0.000    0.000 
#
# Total GULP energy -89387.357716 kJ/mol
# GULP energy per Si atom -5586.709857 kJ/mol
# Density = 2.135125 g / cm^3
# Si number density = 21.399960 Si / 1000 Ang^3
#
#
#
# Elastic Constant Matrix: (Units=GPa)
#
#
# Indices 1 2 3 4 5 6 
#
# 1 113.3482 33.8171 32.1460 7.7226 10.6019 4.2399
# 2 33.8171 61.9577 8.7790 23.2882 6.7755 -7.5204
# 3 32.1460 8.7790 60.1115 19.5286 15.3193 5.9076
# 4 7.7226 23.2882 19.5286 44.4263 0.7133 1.2864
# 5 10.6019 6.7755 15.3193 0.7133 35.9783 5.7780
# 6 4.2399 -7.5204 5.9076 1.2864 5.7780 32.1650
#
#
#
# Elastic Compliance Matrix: (Units=1/GPa)
#
#
# Indices 1 2 3 4 5 6 
#
# 1 0.013222 -0.008789 -0.007737 0.005770 0.001398 -0.002859
# 2 -0.008789 0.027748 0.006730 -0.016110 -0.006503 0.008222
# 3 -0.007737 0.006730 0.026870 -0.013832 -0.010160 0.000037
# 4 0.005770 -0.016110 -0.013832 0.036052 0.007269 -0.004734
# 5 0.001398 -0.006503 -0.010160 0.007269 0.033785 -0.006198
# 6 -0.002859 0.008222 0.000037 -0.004734 -0.006198 0.034685
#
#
# Mechanical properties :
#
#
# Convention : Reuss Voigt Hill
#
# Bulk Modulus (GPa) = 20.72613 42.76682 31.74647
# Shear Modulus (GPa) = 24.03444 33.22561 28.63002
#
# Velocity S-wave (km/s) = 3.35491 3.94458 3.66164
# Velocity P-wave (km/s) = 4.97126 6.38547 5.72222
#
# Compressibility (1/GPa) = 0.04824829
#
# Stress axis : x y z
#
# Youngs Moduli (GPa) = 75.63245 36.03871 37.21651
#
# Poissons Ratio (x) = 0.31675 0.28794
# Poissons Ratio (y) = 0.66474 -0.25048
# Poissons Ratio (z) = 0.58517 -0.24256
#
# Static dielectric constant tensor:
#      x y z
#    x 1.793100 -0.042750 0.000920 
#    y -0.042750 1.788470 0.016060 
#    z 0.000920 0.016060 1.767730 
# 
# From -- ./inp_files/398081.got.cif
#   From: 2010.05.17/outbox.cif.g08.bks.cpg/sg2_200_cif.got.tgz:398081.got - 2010.06.03 11:33:40.
