data_PCOD9022327
_publ_section_title
;
Structure prediction by ZEFSAII (Michael W. Deem and Ramdas Pophale) SiO2 
 PCOD9022327
Probable space group: P -1
;
_chemical_formula_sum "Si O2"
_cell_formula_units_Z 16
_cell_length_a 11.949054
_cell_length_b 13.182772
_cell_length_c 14.458879
_cell_angle_alpha 45.554435
_cell_angle_beta 150.530457
_cell_angle_gamma 122.247681
_cell_volume 780.951518
_symmetry_space_group_name_H-M "P -1"
_symmetry_group_IT_number 2
_symmetry_cell_setting 'triclinic'
loop_
_space_group_symop_operation_xyz
x,y,z
-x,-y,-z
loop_
_atom_site_type_symbol
_atom_site_label
_atom_site_fract_x
_atom_site_fract_y
_atom_site_fract_z
Si Si1 0.656562 0.302027 0.662410
Si Si2 0.451264 0.421798 0.110018
Si Si3 0.783100 0.432077 0.852863
Si Si4 0.574780 0.027145 0.687227
Si Si5 0.970163 0.427366 0.682465
Si Si6 0.214718 0.201808 0.869836
Si Si7 0.460279 0.352610 0.818618
Si Si8 0.763437 0.100765 0.578439
O O1 0.799497 0.333495 0.835224
O O2 0.423779 0.427760 0.407349
O O3 0.583999 0.150386 0.690668
O O4 0.815430 0.320337 0.677664
O O5 0.504799 0.520390 0.168329
O O6 0.601183 0.259638 0.337314
O O7 0.500000 0.500000 0.000000
O O8 0.178572 0.426058 0.903872
O O9 0.672681 0.340833 0.908419
O O10 0.000000 0.500000 0.000000
O O11 0.712400 0.053554 0.676263
O O12 0.321920 0.013058 0.477764
O O13 0.687811 0.878865 0.914872
O O14 0.079751 0.361516 0.706436
O O15 0.791743 0.582725 0.450789
O O16 0.417906 0.219568 0.934866
O O17 0.025613 0.119650 0.745397
#
# Coordination Sequence:
#
# PCOD9022327 Si02
#       8
#     2   2   2   2   2   2   2   2
#     4  10  22  39  61  85 112 149 200 244 290 339
#     4  12  20  32  54  85 121 155 186 234 290 349
#     4  10  22  43  65  85 107 147 202 254 292 337
#     4  11  23  37  55  86 124 160 195 232 286 357
#     4  11  20  34  58  87 120 153 186 239 292 347
#     4  12  21  36  56  87 128 159 185 233 297 356
#     4  11  22  37  59  88 119 153 198 240 295 349
#     4  11  22  34  53  84 124 161 197 224 281 357
#
# _framework density 20.487826999999999
#
# number of rings (size 3 to 8) (size 9 to 14) (size 15 to 20)
#    0.000    1.000    5.000    3.000    0.000    1.000 
#    0.000    0.625    0.000    1.500    0.000    0.000 
#    0.000    0.000    0.000    0.000    0.000    0.000 
#
# Total GULP energy -89300.678054 kJ/mol
# GULP energy per Si atom -5581.292378 kJ/mol
# Density = 2.044120 g / cm^3
# Si number density = 20.487827 Si / 1000 Ang^3
#
#
#
# Elastic Constant Matrix: (Units=GPa)
#
#
# Indices 1 2 3 4 5 6 
#
# 1 82.2741 35.1685 21.7238 3.8009 -16.5706 17.3342
# 2 35.1685 116.9017 32.5378 30.0335 -11.0751 5.8417
# 3 21.7238 32.5378 79.4725 16.7993 -17.4688 14.0158
# 4 3.8009 30.0335 16.7993 42.2683 7.7948 -8.8441
# 5 -16.5706 -11.0751 -17.4688 7.7948 22.4062 -0.1093
# 6 17.3342 5.8417 14.0158 -8.8441 -0.1093 33.9988
#
#
#
# Elastic Compliance Matrix: (Units=1/GPa)
#
#
# Indices 1 2 3 4 5 6 
#
# 1 0.018857 -0.002463 0.003543 -0.007278 0.017961 -0.012487
# 2 -0.002463 0.013388 0.000678 -0.012263 0.009569 -0.004483
# 3 0.003543 0.000678 0.024962 -0.019714 0.029191 -0.017248
# 4 -0.007278 -0.012263 -0.019714 0.055216 -0.045885 0.028160
# 5 0.017961 0.009569 0.029191 -0.045885 0.101197 -0.034446
# 6 -0.012487 -0.004483 -0.017248 0.028160 -0.034446 0.050874
#
#
# Mechanical properties :
#
#
# Convention : Reuss Voigt Hill
#
# Bulk Modulus (GPa) = 16.46851 50.83429 33.65140
# Shear Modulus (GPa) = 17.77982 32.34919 25.06450
#
# Velocity S-wave (km/s) = 2.94908 3.97791 3.50149
# Velocity P-wave (km/s) = 4.43303 6.77969 5.72782
#
# Compressibility (1/GPa) = 0.06072195
#
# Stress axis : x y z
#
# Youngs Moduli (GPa) = 53.03199 74.69599 40.06061
#
# Poissons Ratio (x) = 0.18401 -0.14193
# Poissons Ratio (y) = 0.13064 -0.02718
# Poissons Ratio (z) = -0.18788 -0.05068
#
# Static dielectric constant tensor:
#      x y z
#    x 1.755100 0.016290 -0.007590 
#    y 0.016290 1.762290 0.004130 
#    z -0.007590 0.004130 1.778910 
# 
# From -- ./inp_files/522314.got.cif
#   From: 2010.05.17/outbox.cif.g08.bks.cpg/sg2_262_cif.got.tgz:522314.got - 2010.06.03 11:33:40.
