data_PCOD9022584
_publ_section_title
;
Structure prediction by ZEFSAII (Michael W. Deem and Ramdas Pophale) SiO2 
 PCOD9022584
Probable space group: P -1
;
_chemical_formula_sum "Si O2"
_cell_formula_units_Z 16
_cell_length_a 11.379726
_cell_length_b 7.697525
_cell_length_c 9.711050
_cell_angle_alpha 64.651003
_cell_angle_beta 115.963367
_cell_angle_gamma 83.207395
_cell_volume 640.368606
_symmetry_space_group_name_H-M "P -1"
_symmetry_group_IT_number 2
_symmetry_cell_setting 'triclinic'
loop_
_space_group_symop_operation_xyz
x,y,z
-x,-y,-z
loop_
_atom_site_type_symbol
_atom_site_label
_atom_site_fract_x
_atom_site_fract_y
_atom_site_fract_z
Si Si1 0.704527 0.289256 0.583750
Si Si2 0.009517 0.054517 0.822435
Si Si3 0.622134 0.922916 0.700685
Si Si4 0.871702 0.703256 0.402476
Si Si5 0.651614 0.321057 0.107287
Si Si6 0.420826 0.062014 0.796884
Si Si7 0.392038 0.490475 0.251039
Si Si8 0.961500 0.210574 0.321094
O O1 0.864283 0.245894 0.643179
O O2 0.563383 0.388280 0.385521
O O3 0.666505 0.422514 0.659506
O O4 0.723190 0.045903 0.689644
O O5 0.122461 0.135094 0.773023
O O6 0.025233 0.851518 0.809959
O O7 0.000000 0.000000 0.000000
O O8 0.540787 0.030030 0.759695
O O9 0.666458 0.676564 0.789687
O O10 0.500000 0.000000 0.500000
O O11 0.000000 0.500000 0.500000
O O12 0.918875 0.721685 0.578728
O O13 0.710649 0.724178 0.324473
O O14 0.648259 0.103553 0.228281
O O15 0.795878 0.343781 0.221497
O O16 0.500000 0.500000 0.000000
O O17 0.652087 0.322631 0.941615
O O18 0.500000 0.000000 0.000000
O O19 0.000000 0.000000 0.500000
#
# Coordination Sequence:
#
# PCOD9022584 Si02
#       8
#     2   2   2   2   2   2   2   2
#     4  10  23  41  68  94 143 183 227 290 362 416
#     4  11  24  45  74  97 143 190 237 290 368 430
#     4  10  23  40  66  99 136 180 229 288 351 418
#     4  11  28  47  72 105 143 190 245 290 368 436
#     4  12  23  39  72 100 133 175 244 285 351 420
#     4  12  26  44  69 101 144 179 232 301 355 418
#     4  10  22  39  63 104 134 175 238 287 346 428
#     4  10  23  45  69  96 142 191 231 285 360 435
#
# _framework density 24.985609
#
# number of rings (size 3 to 8) (size 9 to 14) (size 15 to 20)
#    0.000    1.250    3.750    1.500   10.500    3.000 
#    0.000    0.625    0.000    0.000    0.000    0.000 
#    0.000    0.000    0.000    0.000    0.000    0.000 
#
# Total GULP energy -89230.343906 kJ/mol
# GULP energy per Si atom -5576.896494 kJ/mol
# Density = 2.492874 g / cm^3
# Si number density = 24.985609 Si / 1000 Ang^3
#
#
#
# Elastic Constant Matrix: (Units=GPa)
#
#
# Indices 1 2 3 4 5 6 
#
# 1 77.8828 18.4332 20.0387 0.2053 18.2630 -1.0673
# 2 18.4332 88.8308 24.7189 0.0697 8.9631 -18.0500
# 3 20.0387 24.7189 101.9946 13.8327 12.5571 -14.4060
# 4 0.2053 0.0697 13.8327 48.1707 -12.7601 -3.3724
# 5 18.2630 8.9631 12.5571 -12.7601 49.2613 -10.3907
# 6 -1.0673 -18.0500 -14.4060 -3.3724 -10.3907 30.6505
#
#
#
# Elastic Compliance Matrix: (Units=1/GPa)
#
#
# Indices 1 2 3 4 5 6 
#
# 1 0.015374 -0.002901 -0.002010 -0.001348 -0.005909 -0.004270
# 2 -0.002901 0.013866 -0.002030 0.001382 0.001034 0.007613
# 3 -0.002010 -0.002030 0.011927 -0.003785 -0.002239 0.003165
# 4 -0.001348 0.001382 -0.003785 0.024421 0.008500 0.004557
# 5 -0.005909 0.001034 -0.002239 0.008500 0.027071 0.009464
# 6 -0.004270 0.007613 0.003165 0.004557 0.009464 0.042158
#
#
# Mechanical properties :
#
#
# Convention : Reuss Voigt Hill
#
# Bulk Modulus (GPa) = 36.65011 43.89885 40.27448
# Shear Modulus (GPa) = 31.68677 39.31765 35.50221
#
# Velocity S-wave (km/s) = 3.56504 3.97118 3.77358
# Velocity P-wave (km/s) = 5.62551 6.21569 5.92795
#
# Compressibility (1/GPa) = 0.02728505
#
# Stress axis : x y z
#
# Youngs Moduli (GPa) = 65.04308 72.12011 83.84137
#
# Poissons Ratio (x) = 0.20924 0.16853
# Poissons Ratio (y) = 0.18870 0.17019
# Poissons Ratio (z) = 0.13074 0.14640
#
# Static dielectric constant tensor:
#      x y z
#    x 2.047770 0.094390 -0.002030 
#    y 0.094390 2.066520 -0.042040 
#    z -0.002030 -0.042040 1.943060 
# 
# From -- ./inp_files/243111.got.cif
#   From: 2010.05.17/outbox.cif.g08.bks.cpg/sg2_122_cif.got.tgz:243111.got - 2010.06.03 11:33:40.
