data_PCOD9022658
_publ_section_title
;
Structure prediction by ZEFSAII (Michael W. Deem and Ramdas Pophale) SiO2 
 PCOD9022658
Probable space group: P -1
;
_chemical_formula_sum "Si O2"
_cell_formula_units_Z 16
_cell_length_a 15.018834
_cell_length_b 7.785233
_cell_length_c 9.718811
_cell_angle_alpha 90.926925
_cell_angle_beta 83.804884
_cell_angle_gamma 140.013991
_cell_volume 722.024875
_symmetry_space_group_name_H-M "P -1"
_symmetry_group_IT_number 2
_symmetry_cell_setting 'triclinic'
loop_
_space_group_symop_operation_xyz
x,y,z
-x,-y,-z
loop_
_atom_site_type_symbol
_atom_site_label
_atom_site_fract_x
_atom_site_fract_y
_atom_site_fract_z
Si Si1 0.933664 0.602195 0.849457
Si Si2 0.412015 0.972496 0.708761
Si Si3 0.679636 0.148622 0.578210
Si Si4 0.168897 0.021831 0.026326
Si Si5 0.690609 0.412003 0.041499
Si Si6 0.971964 0.772664 0.560725
Si Si7 0.146217 0.851111 0.301504
Si Si8 0.557636 0.765296 0.047627
O O1 0.004244 0.814769 0.717611
O O2 0.929775 0.407640 0.780449
O O3 0.778454 0.440258 0.910865
O O4 0.025816 0.763324 0.971732
O O5 0.337270 0.918865 0.580812
O O6 0.316745 0.717324 0.824039
O O7 0.541760 0.043367 0.647849
O O8 0.464871 0.212661 0.791177
O O9 0.812557 0.471064 0.573475
O O10 0.713230 0.032714 0.664957
O O11 0.161771 0.028731 0.193136
O O12 0.230005 0.287701 0.955783
O O13 0.276829 0.022412 0.989460
O O14 0.532054 0.228001 0.021759
O O15 0.061847 0.778928 0.449579
O O16 0.000000 0.000000 0.500000
O O17 0.500000 0.500000 0.000000
#
# Coordination Sequence:
#
# PCOD9022658 Si02
#       8
#     2   2   2   2   2   2   2   2
#     4  11  23  40  65 100 128 175 224 276 328 398
#     4  11  23  41  70  94 134 176 227 276 323 414
#     4  10  24  43  65  98 131 180 225 265 338 402
#     4  11  24  38  67 100 131 167 226 280 330 394
#     4  11  23  41  66  94 135 169 221 275 341 389
#     4  11  25  42  67  94 141 174 217 272 341 400
#     4  11  23  42  65  94 135 173 218 269 338 396
#     4  10  22  39  63  93 131 172 217 275 335 387
#
# _framework density 22.1599
#
# number of rings (size 3 to 8) (size 9 to 14) (size 15 to 20)
#    0.000    1.250    0.000    6.375    7.000    1.000 
#    0.000    0.000    0.000    7.500    0.000    0.000 
#    0.000    0.000    0.000    0.000    0.000    0.000 
#
# Total GULP energy -89397.321251 kJ/mol
# GULP energy per Si atom -5587.332578 kJ/mol
# Density = 2.210946 g / cm^3
# Si number density = 22.159900 Si / 1000 Ang^3
#
#
#
# Elastic Constant Matrix: (Units=GPa)
#
#
# Indices 1 2 3 4 5 6 
#
# 1 86.3582 34.0357 44.1771 2.6560 -3.0246 -5.2931
# 2 34.0357 50.7182 20.5002 10.7663 7.5752 -5.2723
# 3 44.1771 20.5002 150.8276 9.0759 8.8134 2.5012
# 4 2.6560 10.7663 9.0759 28.6757 13.2444 -2.6709
# 5 -3.0246 7.5752 8.8134 13.2444 40.6671 1.5053
# 6 -5.2931 -5.2723 2.5012 -2.6709 1.5053 36.4170
#
#
#
# Elastic Compliance Matrix: (Units=1/GPa)
#
#
# Indices 1 2 3 4 5 6 
#
# 1 0.018426 -0.011584 -0.004201 0.002434 0.003597 0.001319
# 2 -0.011584 0.030045 -0.000008 -0.008213 -0.003864 0.002224
# 3 -0.004201 -0.000008 0.008065 -0.001582 -0.001498 -0.001220
# 4 0.002434 -0.008213 -0.001582 0.044278 -0.012479 0.003037
# 5 0.003597 -0.003864 -0.001498 -0.012479 0.030043 -0.002091
# 6 0.001319 0.002224 -0.001220 0.003037 -0.002091 0.028366
#
#
# Mechanical properties :
#
#
# Convention : Reuss Voigt Hill
#
# Bulk Modulus (GPa) = 40.07885 53.92555 47.00220
# Shear Modulus (GPa) = 25.10960 33.76470 29.43715
#
# Velocity S-wave (km/s) = 3.36982 3.90768 3.64867
# Velocity P-wave (km/s) = 5.76770 6.68936 6.24555
#
# Compressibility (1/GPa) = 0.02495082
#
# Stress axis : x y z
#
# Youngs Moduli (GPa) = 54.27022 33.28286 123.99889
#
# Poissons Ratio (x) = 0.38555 0.52093
# Poissons Ratio (y) = 0.62867 0.00095
# Poissons Ratio (z) = 0.22799 0.00025
#
# Static dielectric constant tensor:
#      x y z
#    x 1.843030 -0.007610 0.022060 
#    y -0.007610 1.824460 -0.023230 
#    z 0.022060 -0.023230 1.850200 
# 
# From -- ./inp_files/298535.got.cif
#   From: 2010.05.17/outbox.cif.g08.bks.cpg/sg2_150_cif.got.tgz:298535.got - 2010.06.03 11:33:40.
