data_PCOD9022076
_publ_section_title
;
Structure prediction by ZEFSAII (Michael W. Deem and Ramdas Pophale) SiO2 
 PCOD9022076
Probable space group: P -1
;
_chemical_formula_sum "Si O2"
_cell_formula_units_Z 16
_cell_length_a 10.664133
_cell_length_b 15.855764
_cell_length_c 17.895487
_cell_angle_alpha 24.540034
_cell_angle_beta 34.732975
_cell_angle_gamma 45.802450
_cell_volume 699.574686
_symmetry_space_group_name_H-M "P -1"
_symmetry_group_IT_number 2
_symmetry_cell_setting 'triclinic'
loop_
_space_group_symop_operation_xyz
x,y,z
-x,-y,-z
loop_
_atom_site_type_symbol
_atom_site_label
_atom_site_fract_x
_atom_site_fract_y
_atom_site_fract_z
Si Si1 0.093770 0.888440 0.475053
Si Si2 0.618870 0.217913 0.210778
Si Si3 0.375678 0.134810 0.624362
Si Si4 0.052512 0.768967 0.325224
Si Si5 0.025102 0.092994 0.197646
Si Si6 0.297802 0.486914 0.203806
Si Si7 0.821313 0.466621 0.182424
Si Si8 0.581470 0.157669 0.033096
O O1 0.091870 0.658432 0.691076
O O2 0.975383 0.935343 0.419267
O O3 0.000000 0.000000 0.500000
O O4 0.349929 0.011422 0.239456
O O5 0.419033 0.294533 0.289486
O O6 0.555321 0.021031 0.345328
O O7 0.715819 0.406486 0.954807
O O8 0.193524 0.829942 0.786904
O O9 0.587460 0.320284 0.388461
O O10 0.159680 0.209327 0.639579
O O11 0.311693 0.993057 0.843610
O O12 0.258206 0.752934 0.185329
O O13 0.945376 0.581185 0.584018
O O14 0.111329 0.971994 0.185131
O O15 0.194491 0.304181 0.969121
O O16 0.450005 0.654432 0.049202
O O17 0.000000 0.500000 0.000000
#
# Coordination Sequence:
#
# PCOD9022076 Si02
#       8
#     2   2   2   2   2   2   2   2
#     4  11  25  43  69  97 137 177 219 278 341 402
#     4   9  22  41  66 102 138 168 226 288 340 385
#     4   9  22  43  66  94 129 178 224 278 335 397
#     4  11  24  40  68  96 136 178 227 280 328 397
#     4  11  26  41  68 102 136 175 220 279 337 400
#     4  10  22  38  70  98 134 177 223 284 336 393
#     4  11  24  41  69 100 136 172 224 274 343 407
#     4  10  23  44  64  96 133 182 228 269 333 409
#
# _framework density 22.871037999999999
#
# number of rings (size 3 to 8) (size 9 to 14) (size 15 to 20)
#    0.000    1.750    1.250    0.750    8.750    2.500 
#    0.000    2.500    0.000    2.250    0.000    0.000 
#    0.000    0.000    0.000    0.000    0.000    0.000 
#
# Total GULP energy -89581.010657 kJ/mol
# GULP energy per Si atom -5598.813166 kJ/mol
# Density = 2.281898 g / cm^3
# Si number density = 22.871038 Si / 1000 Ang^3
#
#
#
# Elastic Constant Matrix: (Units=GPa)
#
#
# Indices 1 2 3 4 5 6 
#
# 1 124.0585 38.5082 39.4141 -6.4775 19.4058 -0.9618
# 2 38.5082 55.8467 23.7874 5.5844 6.4862 5.2998
# 3 39.4141 23.7874 121.8948 -3.6060 15.6654 4.6634
# 4 -6.4775 5.5844 -3.6060 46.0137 9.2606 4.6597
# 5 19.4058 6.4862 15.6654 9.2606 49.0081 -10.9827
# 6 -0.9618 5.2998 4.6634 4.6597 -10.9827 22.7723
#
#
#
# Elastic Compliance Matrix: (Units=1/GPa)
#
#
# Indices 1 2 3 4 5 6 
#
# 1 0.011565 -0.007107 -0.001804 0.003061 -0.003608 0.000146
# 2 -0.007107 0.024676 -0.002435 -0.003687 -0.000056 -0.004817
# 3 -0.001804 -0.002435 0.009864 0.001816 -0.003235 -0.003462
# 4 0.003061 -0.003687 0.001816 0.025200 -0.007942 -0.008371
# 5 -0.003608 -0.000056 -0.003235 -0.007942 0.027869 0.015589
# 6 0.000146 -0.004817 -0.003462 -0.008371 0.015589 0.054980
#
#
# Mechanical properties :
#
#
# Convention : Reuss Voigt Hill
#
# Bulk Modulus (GPa) = 42.71027 56.13550 49.42288
# Shear Modulus (GPa) = 27.07800 36.89817 31.98809
#
# Velocity S-wave (km/s) = 3.44458 4.02097 3.74388
# Velocity P-wave (km/s) = 5.87666 6.79376 6.35178
#
# Compressibility (1/GPa) = 0.02341357
#
# Stress axis : x y z
#
# Youngs Moduli (GPa) = 86.46621 40.52482 101.37610
#
# Poissons Ratio (x) = 0.28801 0.18288
# Poissons Ratio (y) = 0.61452 0.24685
# Poissons Ratio (z) = 0.15598 0.09868
#
# Static dielectric constant tensor:
#      x y z
#    x 1.886790 -0.002410 0.002770 
#    y -0.002410 1.810910 -0.026220 
#    z 0.002770 -0.026220 1.877720 
# 
# From -- ./inp_files/595927.got.cif
#   From: 2010.05.17/outbox.cif.g08.bks.cpg/sg2_298_cif.got.tgz:595927.got - 2010.06.03 11:33:40.
