data_PCOD9022985
_publ_section_title
;
Structure prediction by ZEFSAII (Michael W. Deem and Ramdas Pophale) SiO2 
 PCOD9022985
Probable space group: P -1
;
_chemical_formula_sum "Si O2"
_cell_formula_units_Z 15
_cell_length_a 11.272965
_cell_length_b 4.941158
_cell_length_c 11.662467
_cell_angle_alpha 75.291203
_cell_angle_beta 82.158488
_cell_angle_gamma 108.323936
_cell_volume 579.688115
_symmetry_space_group_name_H-M "P -1"
_symmetry_group_IT_number 2
_symmetry_cell_setting 'triclinic'
loop_
_space_group_symop_operation_xyz
x,y,z
-x,-y,-z
loop_
_atom_site_type_symbol
_atom_site_label
_atom_site_fract_x
_atom_site_fract_y
_atom_site_fract_z
Si Si1 0.703573 0.650279 0.097214
Si Si2 0.616826 0.803112 0.472375
Si Si3 0.183180 0.162552 0.400205
Si Si4 0.876405 0.270570 0.107178
Si Si5 0.000000 0.500000 0.500000
Si Si6 0.967426 0.482485 0.722502
Si Si7 0.297102 0.042668 0.168935
Si Si8 0.487914 0.882781 0.707568
O O1 0.765850 0.404184 0.087372
O O2 0.583068 0.466789 0.212334
O O3 0.817082 0.928662 0.110091
O O4 0.664308 0.767400 0.972059
O O5 0.500000 0.500000 0.500000
O O6 0.731812 0.714699 0.513093
O O7 0.579238 0.938106 0.578838
O O8 0.621288 0.999614 0.338315
O O9 0.079940 0.328364 0.388587
O O10 0.253961 0.212591 0.261185
O O11 0.130036 0.809289 0.463193
O O12 0.935337 0.316247 0.221574
O O13 0.000000 0.500000 0.000000
O O14 0.967904 0.660255 0.363092
O O15 0.834865 0.238398 0.811734
O O16 0.416267 0.971266 0.214966
#
# Coordination Sequence:
#
# PCOD9022985 Si02
#       8
#     2   2   2   2   1   2   2   2
#     4  12  27  46  73 107 139 185 238 292 347 417
#     4  10  22  42  67  94 138 179 229 288 357 415
#     4  10  22  39  65  95 129 182 226 285 354 415
#     4  12  27  46  73 102 146 188 232 288 351 417
#     4  10  24  38  60  96 136 174 230 290 336 422
#     4  11  23  41  66  97 137 184 231 284 354 418
#     4  10  22  44  67  95 136 179 229 287 355 415
#     4  10  24  43  67 102 134 181 233 293 348 421
#
# _framework density 25.875980999999999
#
# number of rings (size 3 to 8) (size 9 to 14) (size 15 to 20)
#    0.000    1.333    1.333    2.800    7.467    1.067 
#    0.000    1.333    0.000    0.000    0.000    0.000 
#    0.000    0.000    0.000    0.000    0.000    0.000 
#
# Total GULP energy -83688.869745 kJ/mol
# GULP energy per Si atom -5579.257983 kJ/mol
# Density = 2.581709 g / cm^3
# Si number density = 25.875981 Si / 1000 Ang^3
#
#
#
# Elastic Constant Matrix: (Units=GPa)
#
#
# Indices 1 2 3 4 5 6 
#
# 1 83.5194 9.4371 43.3555 9.6370 17.4640 7.7577
# 2 9.4371 96.8568 33.6268 -7.4009 5.6037 27.0782
# 3 43.3555 33.6268 177.1572 -2.4495 28.6503 26.9061
# 4 9.6370 -7.4009 -2.4495 40.4886 14.0851 6.7521
# 5 17.4640 5.6037 28.6503 14.0851 47.8491 3.4503
# 6 7.7577 27.0782 26.9061 6.7521 3.4503 41.4188
#
#
#
# Elastic Compliance Matrix: (Units=1/GPa)
#
#
# Indices 1 2 3 4 5 6 
#
# 1 0.014488 -0.000491 -0.003134 -0.002905 -0.002522 0.000327
# 2 -0.000491 0.013576 -0.000773 0.004614 -0.001665 -0.008895
# 3 -0.003134 -0.000773 0.007918 0.003234 -0.004153 -0.004232
# 4 -0.002905 0.004614 0.003234 0.031391 -0.010019 -0.008857
# 5 -0.002522 -0.001665 -0.004153 -0.010019 0.027189 0.003627
# 6 0.000327 -0.008895 -0.004232 -0.008857 0.003627 0.033789
#
#
# Mechanical properties :
#
#
# Convention : Reuss Voigt Hill
#
# Bulk Modulus (GPa) = 36.78384 58.93024 47.85704
# Shear Modulus (GPa) = 34.19755 44.02557 39.11156
#
# Velocity S-wave (km/s) = 3.63932 4.12929 3.89202
# Velocity P-wave (km/s) = 5.64852 6.74968 6.22351
#
# Compressibility (1/GPa) = 0.02718585
#
# Stress axis : x y z
#
# Youngs Moduli (GPa) = 69.02256 73.65695 126.29962
#
# Poissons Ratio (x) = 0.03616 0.39588
# Poissons Ratio (y) = 0.03389 0.09760
# Poissons Ratio (z) = 0.21635 0.05692
#
# Static dielectric constant tensor:
#      x y z
#    x 2.588930 -0.203430 -0.218110 
#    y -0.203430 2.263880 0.216820 
#    z -0.218110 0.216820 2.230890 
# 
# From -- ./inp_files/67833.got.cif
#   From: 2010.05.17/outbox.cif.g08.bks.cpg/sg2_34_cif.got.tgz:67833.got - 2010.06.03 11:33:40.
