data_PCOD9022537
_publ_section_title
;
Structure prediction by ZEFSAII (Michael W. Deem and Ramdas Pophale) SiO2 
 PCOD9022537
Probable space group: P -1
;
_chemical_formula_sum "Si O2"
_cell_formula_units_Z 16
_cell_length_a 13.779713
_cell_length_b 17.338986
_cell_length_c 10.716428
_cell_angle_alpha 125.702684
_cell_angle_beta 51.673796
_cell_angle_gamma 161.143711
_cell_volume 649.130473
_symmetry_space_group_name_H-M "P -1"
_symmetry_group_IT_number 2
_symmetry_cell_setting 'triclinic'
loop_
_space_group_symop_operation_xyz
x,y,z
-x,-y,-z
loop_
_atom_site_type_symbol
_atom_site_label
_atom_site_fract_x
_atom_site_fract_y
_atom_site_fract_z
Si Si1 0.184119 0.652912 0.304749
Si Si2 0.482957 0.799535 0.455220
Si Si3 0.602570 0.554786 0.646038
Si Si4 0.651797 0.762359 0.607125
Si Si5 0.091222 0.917322 0.143967
Si Si6 0.966122 0.010806 0.174443
Si Si7 0.922810 0.300363 0.031242
Si Si8 0.260675 0.875777 0.256461
O O1 0.421799 0.809187 0.379653
O O2 0.251157 0.782419 0.273845
O O3 0.850076 0.436130 0.433171
O O4 0.163032 0.539820 0.133642
O O5 0.633127 0.804481 0.302312
O O6 0.722390 0.019402 0.568695
O O7 0.645885 0.669638 0.619408
O O8 0.607922 0.453618 0.487582
O O9 0.253570 0.322167 0.751204
O O10 0.842455 0.756023 0.748172
O O11 0.000000 0.000000 0.500000
O O12 0.646672 0.865398 0.760224
O O13 0.102500 0.015549 0.139918
O O14 0.112701 0.826688 0.993233
O O15 0.000000 0.000000 0.000000
O O16 0.590023 0.112434 0.144871
O O17 0.966172 0.305225 0.853238
#
# Coordination Sequence:
#
# PCOD9022537 Si02
#       8
#     2   2   2   2   2   2   2   2
#     4  10  22  45  73  96 129 180 224 289 335 390
#     4  10  24  44  67 100 132 171 239 272 334 408
#     4   9  19  36  56  86 122 173 212 252 321 388
#     4   8  16  34  58  82 119 164 217 254 310 388
#     4  10  22  39  62  94 135 173 209 275 333 407
#     4  11  26  43  62  96 138 178 223 275 334 412
#     4  10  23  40  67 104 134 166 229 274 340 409
#     4  10  22  43  69  98 130 173 222 291 337 385
#
# _framework density 24.648357000000001
#
# number of rings (size 3 to 8) (size 9 to 14) (size 15 to 20)
#    0.000    2.250    0.000    0.750    3.500    8.500 
#    0.000    5.000    0.000    0.000    0.000    0.000 
#    0.000    0.000    0.000    0.000    0.000    0.000 
#
# Total GULP energy -89262.048361 kJ/mol
# GULP energy per Si atom -5578.878023 kJ/mol
# Density = 2.459226 g / cm^3
# Si number density = 24.648357 Si / 1000 Ang^3
#
#
#
# Elastic Constant Matrix: (Units=GPa)
#
#
# Indices 1 2 3 4 5 6 
#
# 1 100.1875 9.3902 46.3895 7.5535 2.3443 -6.0637
# 2 9.3902 77.0294 31.8689 9.6348 14.7510 -2.1312
# 3 46.3895 31.8689 164.2441 15.7699 4.2053 1.2273
# 4 7.5535 9.6348 15.7699 21.3962 -1.3881 -1.9106
# 5 2.3443 14.7510 4.2053 -1.3881 41.6649 -0.4937
# 6 -6.0637 -2.1312 1.2273 -1.9106 -0.4937 25.6233
#
#
#
# Elastic Compliance Matrix: (Units=1/GPa)
#
#
# Indices 1 2 3 4 5 6 
#
# 1 0.011755 0.000275 -0.003222 -0.001676 -0.000456 0.002825
# 2 0.000275 0.015757 -0.002458 -0.005653 -0.005523 0.000966
# 3 -0.003222 -0.002458 0.007837 -0.003668 0.000119 -0.001614
# 4 -0.001676 -0.005653 -0.003668 0.053155 0.004277 0.003355
# 5 -0.000456 -0.005523 0.000119 0.004277 0.026115 0.000249
# 6 0.002825 0.000966 -0.001614 0.003355 0.000249 0.040108
#
#
# Mechanical properties :
#
#
# Convention : Reuss Voigt Hill
#
# Bulk Modulus (GPa) = 40.75156 57.41759 49.08458
# Shear Modulus (GPa) = 28.78237 34.65769 31.72003
#
# Velocity S-wave (km/s) = 3.42090 3.75385 3.59123
# Velocity P-wave (km/s) = 5.67208 6.49105 6.09534
#
# Compressibility (1/GPa) = 0.02453894
#
# Stress axis : x y z
#
# Youngs Moduli (GPa) = 85.06680 63.46433 127.60468
#
# Poissons Ratio (x) = -0.01747 0.41116
# Poissons Ratio (y) = -0.02341 0.31367
# Poissons Ratio (z) = 0.27409 0.15600
#
# Static dielectric constant tensor:
#      x y z
#    x 2.075850 0.108850 0.125770 
#    y 0.108850 1.963730 0.015450 
#    z 0.125770 0.015450 2.072870 
# 
# From -- ./inp_files/456983.got.cif
#   From: 2010.05.17/outbox.cif.g08.bks.cpg/sg2_229_cif.got.tgz:456983.got - 2010.06.03 11:33:40.
