data_PCOD9022267
_publ_section_title
;
Structure prediction by ZEFSAII (Michael W. Deem and Ramdas Pophale) SiO2 
 PCOD9022267
Probable space group: P -1
;
_chemical_formula_sum "Si O2"
_cell_formula_units_Z 16
_cell_length_a 5.087887
_cell_length_b 26.295896
_cell_length_c 6.380683
_cell_angle_alpha 82.608841
_cell_angle_beta 63.423735
_cell_angle_gamma 68.752421
_cell_volume 711.002249
_symmetry_space_group_name_H-M "P -1"
_symmetry_group_IT_number 2
_symmetry_cell_setting 'triclinic'
loop_
_space_group_symop_operation_xyz
x,y,z
-x,-y,-z
loop_
_atom_site_type_symbol
_atom_site_label
_atom_site_fract_x
_atom_site_fract_y
_atom_site_fract_z
Si Si1 0.693192 0.810212 0.134798
Si Si2 0.334221 0.821018 0.850746
Si Si3 0.693134 0.351805 0.525820
Si Si4 0.662150 0.721520 0.502539
Si Si5 0.510609 0.566297 0.094856
Si Si6 0.383361 0.006332 0.288044
Si Si7 0.201272 0.902190 0.506420
Si Si8 0.796854 0.449199 0.191799
O O1 0.610658 0.805520 0.927164
O O2 0.759890 0.753872 0.263442
O O3 0.369030 0.853647 0.314366
O O4 0.985889 0.830400 0.055340
O O5 0.407924 0.769065 0.698226
O O6 0.333166 0.874155 0.695195
O O7 0.474815 0.322454 0.517124
O O8 0.583780 0.377060 0.780062
O O9 0.696995 0.404240 0.368587
O O10 0.039738 0.308649 0.446340
O O11 0.585513 0.512901 0.244475
O O12 0.243968 0.564350 0.031158
O O13 0.848208 0.557091 0.874060
O O14 0.266615 0.954661 0.366936
O O15 0.500000 0.000000 0.500000
O O16 0.166424 0.069956 0.338492
O O17 0.500000 0.000000 0.000000
#
# Coordination Sequence:
#
# PCOD9022267 Si02
#       8
#     2   2   2   2   2   2   2   2
#     4  11  25  45  70  94 133 179 226 284 341 408
#     4  11  25  45  70  94 133 179 226 284 341 408
#     4  12  23  40  64  90 130 163 218 270 346 392
#     4  11  26  41  61  99 123 168 221 278 330 422
#     4  10  22  39  60  89 123 165 213 263 330 408
#     4  11  26  45  72 108 155 188 239 297 356 426
#     4  10  26  41  70 104 137 184 238 278 352 414
#     4  10  22  39  60  89 123 165 213 263 330 408
#
# _framework density 22.503446
#
# number of rings (size 3 to 8) (size 9 to 14) (size 15 to 20)
#    0.000    1.250    0.000    4.125    7.000    9.000 
#    0.000    5.000    0.000    0.000    0.000    0.000 
#    0.000    0.000    0.000    0.000    0.000    0.000 
#
# Total GULP energy -89131.088210 kJ/mol
# GULP energy per Si atom -5570.693013 kJ/mol
# Density = 2.245223 g / cm^3
# Si number density = 22.503446 Si / 1000 Ang^3
#
#
#
# Elastic Constant Matrix: (Units=GPa)
#
#
# Indices 1 2 3 4 5 6 
#
# 1 71.2306 2.0000 18.4309 -9.8407 5.1762 4.7163
# 2 2.0000 93.4805 25.1803 -13.6655 -9.6000 -2.2127
# 3 18.4309 25.1803 63.8716 -9.8115 0.9352 -5.1523
# 4 -9.8407 -13.6655 -9.8115 37.7159 0.4267 -11.5724
# 5 5.1762 -9.6000 0.9352 0.4267 17.5722 -7.7444
# 6 4.7163 -2.2127 -5.1523 -11.5724 -7.7444 31.1256
#
#
#
# Elastic Compliance Matrix: (Units=1/GPa)
#
#
# Indices 1 2 3 4 5 6 
#
# 1 0.016253 0.000533 -0.004820 0.002030 -0.006039 -0.003971
# 2 0.000533 0.013741 -0.004558 0.005178 0.009410 0.004408
# 3 -0.004820 -0.004558 0.019844 0.003825 0.000039 0.005123
# 4 0.002030 0.005178 0.003825 0.034598 0.008044 0.015558
# 5 -0.006039 0.009410 0.000039 0.008044 0.073735 0.022927
# 6 -0.003971 0.004408 0.005123 0.015558 0.022927 0.045380
#
#
# Mechanical properties :
#
#
# Convention : Reuss Voigt Hill
#
# Bulk Modulus (GPa) = 31.10490 35.53389 33.31940
# Shear Modulus (GPa) = 21.55558 29.48083 25.51820
#
# Velocity S-wave (km/s) = 3.09832 3.62340 3.37110
# Velocity P-wave (km/s) = 5.16253 5.77322 5.47640
#
# Compressibility (1/GPa) = 0.03214927
#
# Stress axis : x y z
#
# Youngs Moduli (GPa) = 61.52549 72.77264 50.39186
#
# Poissons Ratio (x) = -0.03881 0.24291
# Poissons Ratio (y) = -0.03281 0.22968
# Poissons Ratio (z) = 0.29658 0.33169
#
# Static dielectric constant tensor:
#      x y z
#    x 1.888150 -0.042860 -0.074620 
#    y -0.042860 1.809780 0.065670 
#    z -0.074620 0.065670 2.033330 
# 
# From -- ./inp_files/14476.got.cif
#   From: 2010.05.17/outbox.cif.g08.bks.cpg/sg2_8_cif.got.tgz:14476.got - 2010.06.03 11:33:40.
