data_PCOD9022064
_publ_section_title
;
Structure prediction by ZEFSAII (Michael W. Deem and Ramdas Pophale) SiO2 
 PCOD9022064
Probable space group: P -1
;
_chemical_formula_sum "Si O2"
_cell_formula_units_Z 13
_cell_length_a 22.756925
_cell_length_b 9.571755
_cell_length_c 6.490949
_cell_angle_alpha 109.115504
_cell_angle_beta 62.379596
_cell_angle_gamma 154.787016
_cell_volume 517.568647
_symmetry_space_group_name_H-M "P -1"
_symmetry_group_IT_number 2
_symmetry_cell_setting 'triclinic'
loop_
_space_group_symop_operation_xyz
x,y,z
-x,-y,-z
loop_
_atom_site_type_symbol
_atom_site_label
_atom_site_fract_x
_atom_site_fract_y
_atom_site_fract_z
Si Si1 0.196635 0.554681 0.232708
Si Si2 0.527112 0.272837 0.068725
Si Si3 0.169447 0.196324 0.918590
Si Si4 0.661792 0.610437 0.609728
Si Si5 0.172165 0.802208 0.124783
Si Si6 0.500000 0.500000 0.500000
Si Si7 0.928417 0.527993 0.237766
O O1 0.186020 0.684485 0.181008
O O2 0.112081 0.425472 0.517209
O O3 0.370146 0.874761 0.172341
O O4 0.132950 0.292902 0.075556
O O5 0.680369 0.531350 0.056130
O O6 0.493750 0.372454 0.247377
O O7 0.552460 0.308614 0.799327
O O8 0.214640 0.244805 0.635459
O O9 0.042964 0.831827 0.036222
O O10 0.573313 0.515176 0.528170
O O11 0.736714 0.883894 0.767083
O O12 0.008827 0.554368 0.239505
O O13 0.209101 0.823322 0.838433
#
# Coordination Sequence:
#
# PCOD9022064 Si02
#       7
#     2   2   2   2   2   1   2
#     4  12  27  45  73 106 141 184 236 293 350 417
#     4  11  24  43  74 101 144 180 235 287 353 414
#     4  11  27  47  71 103 146 186 231 287 357 421
#     4  11  24  42  73 105 142 184 231 292 353 413
#     4  11  26  44  75 103 138 186 240 291 342 414
#     4  10  22  38  70 110 136 178 232 290 348 412
#     4  11  27  46  74 101 141 188 241 288 343 416
#
# _framework density 25.117442
#
# number of rings (size 3 to 8) (size 9 to 14) (size 15 to 20)
#    0.000    0.923    3.077    1.846    8.615    3.692 
#    0.000    0.000    0.000    0.000    0.000    0.000 
#    0.000    0.000    0.000    0.000    0.000    0.000 
#
# Total GULP energy -72556.362598 kJ/mol
# GULP energy per Si atom -5581.258661 kJ/mol
# Density = 2.506027 g / cm^3
# Si number density = 25.117442 Si / 1000 Ang^3
#
#
#
# Elastic Constant Matrix: (Units=GPa)
#
#
# Indices 1 2 3 4 5 6 
#
# 1 48.1058 15.2192 28.3350 2.1971 -17.6086 -7.6489
# 2 15.2192 91.6156 29.2127 20.5340 -19.3586 -3.3257
# 3 28.3350 29.2127 159.2638 28.3125 -24.4008 -12.9013
# 4 2.1971 20.5340 28.3125 28.6801 -4.2554 -2.5749
# 5 -17.6086 -19.3586 -24.4008 -4.2554 31.9409 23.2292
# 6 -7.6489 -3.3257 -12.9013 -2.5749 23.2292 46.1739
#
#
#
# Elastic Compliance Matrix: (Units=1/GPa)
#
#
# Indices 1 2 3 4 5 6 
#
# 1 0.028085 -0.001384 -0.003438 0.004170 0.015441 -0.003943
# 2 -0.001384 0.015543 0.000583 -0.010354 0.011633 -0.005377
# 3 -0.003438 0.000583 0.008933 -0.008337 0.004854 -0.000939
# 4 0.004170 -0.010354 -0.008337 0.049571 -0.006335 0.003567
# 5 0.015441 0.011633 0.004854 -0.006335 0.073385 -0.032520
# 6 -0.003943 -0.005377 -0.000939 0.003567 -0.032520 0.036914
#
#
# Mechanical properties :
#
#
# Convention : Reuss Voigt Hill
#
# Bulk Modulus (GPa) = 22.68490 49.39099 36.03795
# Shear Modulus (GPa) = 21.22198 36.44020 28.83109
#
# Velocity S-wave (km/s) = 2.90989 3.81306 3.39167
# Velocity P-wave (km/s) = 4.51011 6.25241 5.45131
#
# Compressibility (1/GPa) = 0.04408219
#
# Stress axis : x y z
#
# Youngs Moduli (GPa) = 35.60633 64.33792 111.93969
#
# Poissons Ratio (x) = 0.08907 0.38483
# Poissons Ratio (y) = 0.04930 -0.06524
# Poissons Ratio (z) = 0.12241 -0.03750
#
# Static dielectric constant tensor:
#      x y z
#    x 1.947300 0.029270 -0.034980 
#    y 0.029270 2.002800 -0.022160 
#    z -0.034980 -0.022160 2.123350 
# 
# From -- ./inp_files/117143.got.cif
#   From: 2010.05.17/outbox.cif.g08.bks.cpg/sg2_59_cif.got.tgz:117143.got - 2010.06.03 11:33:40.
