data_PCOD9022787
_publ_section_title
;
Structure prediction by ZEFSAII (Michael W. Deem and Ramdas Pophale) SiO2 
 PCOD9022787
Probable space group: P -1
;
_chemical_formula_sum "Si O2"
_cell_formula_units_Z 16
_cell_length_a 13.790197
_cell_length_b 9.138710
_cell_length_c 11.900270
_cell_angle_alpha 140.966215
_cell_angle_beta 132.747102
_cell_angle_gamma 43.370166
_cell_volume 625.613186
_symmetry_space_group_name_H-M "P -1"
_symmetry_group_IT_number 2
_symmetry_cell_setting 'triclinic'
loop_
_space_group_symop_operation_xyz
x,y,z
-x,-y,-z
loop_
_atom_site_type_symbol
_atom_site_label
_atom_site_fract_x
_atom_site_fract_y
_atom_site_fract_z
Si Si1 0.453239 0.326118 0.546737
Si Si2 0.396044 0.377497 0.899575
Si Si3 0.801374 0.466816 0.955673
Si Si4 0.618320 0.818096 0.820065
Si Si5 0.718071 0.838509 0.520824
Si Si6 0.885579 0.875630 0.347596
Si Si7 0.734952 0.170396 0.199231
Si Si8 0.043309 0.108127 0.343192
O O1 0.400796 0.360809 0.397701
O O2 0.356657 0.187314 0.438778
O O3 0.409896 0.571643 0.738584
O O4 0.621045 0.132705 0.579615
O O5 0.318217 0.325416 0.698906
O O6 0.475714 0.093554 0.853960
O O7 0.500000 0.500000 0.000000
O O8 0.276301 0.548846 0.998275
O O9 0.675199 0.645565 0.874033
O O10 0.900653 0.192537 0.817076
O O11 0.907642 0.604548 0.151392
O O12 0.731170 0.951540 0.984397
O O13 0.887291 0.778931 0.629066
O O14 0.755928 0.061686 0.277916
O O15 0.873462 0.865723 0.464400
O O16 0.000000 0.000000 0.500000
O O17 0.872568 0.223014 0.304424
#
# Coordination Sequence:
#
# PCOD9022787 Si02
#       8
#     2   2   2   2   2   2   2   2
#     4  10  22  42  64  89 128 173 212 268 319 384
#     4  11  23  42  69  94 132 175 216 269 325 385
#     4  11  23  39  65 101 130 167 214 274 323 380
#     4  10  23  41  63  98 128 165 219 265 325 385
#     4  10  23  42  65  92 126 174 226 255 324 391
#     4   9  20  40  62  91 131 167 212 262 322 386
#     4  10  22  39  64  91 129 167 210 266 329 376
#     4  11  23  39  63  98 128 169 218 262 321 392
#
# _framework density 25.574908000000001
#
# number of rings (size 3 to 8) (size 9 to 14) (size 15 to 20)
#    0.000    1.750    1.250    1.875    7.000    7.000 
#    0.000    2.500    0.000    0.000    0.000    0.000 
#    0.000    0.000    0.000    0.000    0.000    0.000 
#
# Total GULP energy -89298.401853 kJ/mol
# GULP energy per Si atom -5581.150116 kJ/mol
# Density = 2.551670 g / cm^3
# Si number density = 25.574908 Si / 1000 Ang^3
#
#
#
# Elastic Constant Matrix: (Units=GPa)
#
#
# Indices 1 2 3 4 5 6 
#
# 1 94.7217 15.5772 28.6740 -1.1754 19.7004 -3.2635
# 2 15.5772 72.0393 25.1382 6.9983 -14.4480 -5.6256
# 3 28.6740 25.1382 142.0390 9.7530 -7.8142 -0.5000
# 4 -1.1754 6.9983 9.7530 27.3612 5.3405 -3.9754
# 5 19.7004 -14.4480 -7.8142 5.3405 44.5411 6.3311
# 6 -3.2635 -5.6256 -0.5000 -3.9754 6.3311 27.4798
#
#
#
# Elastic Compliance Matrix: (Units=1/GPa)
#
#
# Indices 1 2 3 4 5 6 
#
# 1 0.014266 -0.004110 -0.003000 0.005083 -0.009301 0.003676
# 2 -0.004110 0.017417 -0.001438 -0.005581 0.007822 0.000442
# 3 -0.003000 -0.001438 0.008302 -0.003550 0.002985 -0.001701
# 4 0.005083 -0.005581 -0.003550 0.042778 -0.010963 0.008111
# 5 -0.009301 0.007822 0.002985 -0.010963 0.032140 -0.008440
# 6 0.003676 0.000442 -0.001701 0.008111 -0.008440 0.040004
#
#
# Mechanical properties :
#
#
# Convention : Reuss Voigt Hill
#
# Bulk Modulus (GPa) = 43.68832 49.73099 46.70966
# Shear Modulus (GPa) = 27.83459 35.83713 31.83586
#
# Velocity S-wave (km/s) = 3.30260 3.74740 3.53201
# Velocity P-wave (km/s) = 5.62694 6.18154 5.91075
#
# Compressibility (1/GPa) = 0.02288941
#
# Stress axis : x y z
#
# Youngs Moduli (GPa) = 70.09884 57.41491 120.44668
#
# Poissons Ratio (x) = 0.23597 0.36137
# Poissons Ratio (y) = 0.28810 0.17317
# Poissons Ratio (z) = 0.21032 0.08255
#
# Static dielectric constant tensor:
#      x y z
#    x 2.024030 0.037590 0.058480 
#    y 0.037590 2.066630 0.013190 
#    z 0.058480 0.013190 2.008250 
# 
# From -- ./inp_files/448408.got.cif
#   From: 2010.05.17/outbox.cif.g08.bks.cpg/sg2_225_cif.got.tgz:448408.got - 2010.06.03 11:33:40.
