data_PCOD9022522
_publ_section_title
;
Structure prediction by ZEFSAII (Michael W. Deem and Ramdas Pophale) SiO2 
 PCOD9022522
Probable space group: P -1
;
_chemical_formula_sum "Si O2"
_cell_formula_units_Z 16
_cell_length_a 17.221167
_cell_length_b 10.142966
_cell_length_c 6.761428
_cell_angle_alpha 40.059723
_cell_angle_beta 117.986006
_cell_angle_gamma 121.070143
_cell_volume 645.121803
_symmetry_space_group_name_H-M "P -1"
_symmetry_group_IT_number 2
_symmetry_cell_setting 'triclinic'
loop_
_space_group_symop_operation_xyz
x,y,z
-x,-y,-z
loop_
_atom_site_type_symbol
_atom_site_label
_atom_site_fract_x
_atom_site_fract_y
_atom_site_fract_z
Si Si1 0.808915 0.068648 0.786671
Si Si2 0.035012 0.383119 0.299119
Si Si3 0.464415 0.097879 0.651889
Si Si4 0.596224 0.673078 0.376319
Si Si5 0.123124 0.036819 0.396264
Si Si6 0.220306 0.310829 0.555667
Si Si7 0.622694 0.084927 0.644016
Si Si8 0.990508 0.656589 0.187717
O O1 0.731755 0.170289 0.662385
O O2 0.909496 0.171329 0.875760
O O3 0.821614 0.073235 0.561137
O O4 0.775236 0.821444 0.090252
O O5 0.144521 0.433140 0.355173
O O6 0.024130 0.417631 0.501201
O O7 0.017937 0.420399 0.979857
O O8 0.973501 0.139461 0.492647
O O9 0.393873 0.212136 0.530143
O O10 0.560875 0.217460 0.524084
O O11 0.412740 0.951465 0.581219
O O12 0.500000 0.000000 0.000000
O O13 0.500000 0.500000 0.500000
O O14 0.679392 0.576722 0.533965
O O15 0.599659 0.856486 0.000948
O O16 0.178426 0.124323 0.558015
O O17 0.093209 0.234287 0.043126
#
# Coordination Sequence:
#
# PCOD9022522 Si02
#       8
#     2   2   2   2   2   2   2   2
#     4  11  22  39  63  92 127 175 217 264 329 393
#     4  12  23  40  64  93 129 173 226 271 325 394
#     4   9  18  39  63  89 122 161 209 267 323 383
#     4  10  22  39  62  93 130 167 211 273 333 389
#     4  12  23  43  64  89 137 174 211 282 326 378
#     4  11  23  41  64  91 125 176 224 267 333 395
#     4   9  20  38  64  93 121 168 219 257 326 402
#     4  12  23  39  61  91 126 172 220 261 326 388
#
# _framework density 24.801515999999999
#
# number of rings (size 3 to 8) (size 9 to 14) (size 15 to 20)
#    0.000    1.250    3.750    3.000    0.000    1.500 
#    0.000   10.000    0.000    0.000    0.000    0.000 
#    0.000    0.000    0.000    0.000    0.000    0.000 
#
# Total GULP energy -89228.461132 kJ/mol
# GULP energy per Si atom -5576.778821 kJ/mol
# Density = 2.474507 g / cm^3
# Si number density = 24.801516 Si / 1000 Ang^3
#
#
#
# Elastic Constant Matrix: (Units=GPa)
#
#
# Indices 1 2 3 4 5 6 
#
# 1 199.9158 32.2650 24.6930 8.3790 -36.6356 28.6727
# 2 32.2650 78.1683 7.4816 12.3629 -20.9046 -0.6628
# 3 24.6930 7.4816 100.4018 14.8491 -20.8477 -4.4371
# 4 8.3790 12.3629 14.8491 29.9534 -2.0366 -11.7606
# 5 -36.6356 -20.9046 -20.8477 -2.0366 29.8032 4.9440
# 6 28.6727 -0.6628 -4.4371 -11.7606 4.9440 38.8298
#
#
#
# Elastic Compliance Matrix: (Units=1/GPa)
#
#
# Indices 1 2 3 4 5 6 
#
# 1 0.008945 0.000738 0.001041 -0.006381 0.013485 -0.010123
# 2 0.000738 0.017940 0.003003 -0.009960 0.015726 -0.004914
# 3 0.001041 0.003003 0.013214 -0.008562 0.012610 -0.003406
# 4 -0.006381 -0.009960 -0.008562 0.050560 -0.020937 0.021543
# 5 0.013485 0.015726 0.012610 -0.020937 0.072501 -0.023821
# 6 -0.010123 -0.004914 -0.003406 0.021543 -0.023821 0.042313
#
#
# Mechanical properties :
#
#
# Convention : Reuss Voigt Hill
#
# Bulk Modulus (GPa) = 20.13568 56.37391 38.25479
# Shear Modulus (GPa) = 23.53344 40.65368 32.09356
#
# Velocity S-wave (km/s) = 3.08372 4.05305 3.60115
# Velocity P-wave (km/s) = 4.56239 6.68448 5.72266
#
# Compressibility (1/GPa) = 0.04966309
#
# Stress axis : x y z
#
# Youngs Moduli (GPa) = 111.79613 55.74125 75.67658
#
# Poissons Ratio (x) = -0.04112 -0.07881
# Poissons Ratio (y) = -0.08248 -0.22725
# Poissons Ratio (z) = -0.11643 -0.16738
#
# Static dielectric constant tensor:
#      x y z
#    x 1.999180 -0.064650 0.003390 
#    y -0.064650 1.971930 0.038150 
#    z 0.003390 0.038150 2.017070 
# 
# From -- ./inp_files/109506.got.cif
#   From: 2010.05.17/outbox.cif.g08.bks.cpg/sg2_55_cif.got.tgz:109506.got - 2010.06.03 11:33:40.
