data_PCOD9022777
_publ_section_title
;
Structure prediction by ZEFSAII (Michael W. Deem and Ramdas Pophale) SiO2 
 PCOD9022777
Probable space group: P -1
;
_chemical_formula_sum "Si O2"
_cell_formula_units_Z 16
_cell_length_a 5.457212
_cell_length_b 18.679877
_cell_length_c 8.256995
_cell_angle_alpha 120.164460
_cell_angle_beta 61.989530
_cell_angle_gamma 98.423739
_cell_volume 638.061739
_symmetry_space_group_name_H-M "P -1"
_symmetry_group_IT_number 2
_symmetry_cell_setting 'triclinic'
loop_
_space_group_symop_operation_xyz
x,y,z
-x,-y,-z
loop_
_atom_site_type_symbol
_atom_site_label
_atom_site_fract_x
_atom_site_fract_y
_atom_site_fract_z
Si Si1 0.987215 0.625003 0.675195
Si Si2 0.511719 0.265093 0.939440
Si Si3 0.164259 0.961319 0.748402
Si Si4 0.180604 0.470170 0.666397
Si Si5 0.839649 0.861357 0.182546
Si Si6 0.747628 0.859801 0.563723
Si Si7 0.318583 0.563912 0.010893
Si Si8 0.344463 0.755044 0.753796
O O1 0.046946 0.545845 0.681234
O O2 0.255631 0.671430 0.602573
O O3 0.808403 0.691570 0.917557
O O4 0.813581 0.603872 0.548324
O O5 0.651153 0.337957 0.890035
O O6 0.593555 0.262138 0.097174
O O7 0.459105 0.173249 0.795791
O O8 0.472851 0.921951 0.664906
O O9 0.966644 0.899230 0.655355
O O10 0.185435 0.039439 0.711740
O O11 0.000000 0.000000 0.000000
O O12 0.389610 0.519913 0.763384
O O13 0.992643 0.438754 0.830754
O O14 0.903965 0.833378 0.316608
O O15 0.076412 0.826457 0.937106
O O16 0.602627 0.788451 0.620880
O O17 0.500000 0.500000 0.000000
#
# Coordination Sequence:
#
# PCOD9022777 Si02
#       8
#     2   2   2   2   2   2   2   2
#     4  10  22  42  62  96 129 179 230 290 356 422
#     4  11  24  43  65  95 138 178 227 291 362 415
#     4  12  25  50  78 108 147 189 238 292 353 427
#     4  10  22  39  64  90 130 172 235 289 348 421
#     4  11  27  45  73 104 142 183 234 293 350 427
#     4  12  28  47  77 109 142 192 242 287 359 427
#     4  11  22  40  62  92 126 177 229 287 346 421
#     4  11  25  46  67 100 146 183 230 297 359 424
#
# _framework density 25.075942999999999
#
# number of rings (size 3 to 8) (size 9 to 14) (size 15 to 20)
#    0.000    1.000    3.750    1.875    7.000    1.500 
#    2.250    0.000    0.000    0.000    0.000    0.000 
#    0.000    0.000    0.000    0.000    0.000    0.000 
#
# Total GULP energy -89298.204492 kJ/mol
# GULP energy per Si atom -5581.137781 kJ/mol
# Density = 2.501887 g / cm^3
# Si number density = 25.075943 Si / 1000 Ang^3
#
#
#
# Elastic Constant Matrix: (Units=GPa)
#
#
# Indices 1 2 3 4 5 6 
#
# 1 86.7691 17.6708 15.3483 -5.7738 21.7128 20.1413
# 2 17.6708 166.7569 14.5405 -23.8022 -3.8460 39.9839
# 3 15.3483 14.5405 78.8749 -16.8298 19.2091 20.0799
# 4 -5.7738 -23.8022 -16.8298 29.0891 -4.4816 2.0137
# 5 21.7128 -3.8460 19.2091 -4.4816 36.3166 2.2833
# 6 20.1413 39.9839 20.0799 2.0137 2.2833 48.4537
#
#
#
# Elastic Compliance Matrix: (Units=1/GPa)
#
#
# Indices 1 2 3 4 5 6 
#
# 1 0.015307 0.000108 0.001650 0.003138 -0.009196 -0.006833
# 2 0.000108 0.009488 0.002388 0.010046 0.001505 -0.009353
# 3 0.001650 0.002388 0.019624 0.013032 -0.008819 -0.010915
# 4 0.003138 0.010046 0.013032 0.051913 -0.000221 -0.017142
# 5 -0.009196 0.001505 -0.008819 -0.000221 0.037549 0.004475
# 6 -0.006833 -0.009353 -0.010915 -0.017142 0.004475 0.036221
#
#
# Mechanical properties :
#
#
# Convention : Reuss Voigt Hill
#
# Bulk Modulus (GPa) = 18.97100 47.50221 33.23661
# Shear Modulus (GPa) = 27.87365 41.76130 34.81747
#
# Velocity S-wave (km/s) = 3.33764 4.08535 3.73028
# Velocity P-wave (km/s) = 4.73655 6.42168 5.64238
#
# Compressibility (1/GPa) = 0.05271204
#
# Stress axis : x y z
#
# Youngs Moduli (GPa) = 65.32932 105.39381 50.95733
#
# Poissons Ratio (x) = -0.01141 -0.08409
# Poissons Ratio (y) = -0.00707 -0.12168
# Poissons Ratio (z) = -0.10780 -0.25167
#
# Static dielectric constant tensor:
#      x y z
#    x 2.085170 0.085050 -0.038890 
#    y 0.085050 2.102370 0.064680 
#    z -0.038890 0.064680 2.087660 
# 
# From -- ./inp_files/44740.got.cif
#   From: 2010.05.17/outbox.cif.g08.bks.cpg/sg2_23_cif.got.tgz:44740.got - 2010.06.03 11:33:40.
