data_PCOD9022416
_publ_section_title
;
Structure prediction by ZEFSAII (Michael W. Deem and Ramdas Pophale) SiO2 
 PCOD9022416
Probable space group: P -1
;
_chemical_formula_sum "Si O2"
_cell_formula_units_Z 14
_cell_length_a 10.658847
_cell_length_b 12.645732
_cell_length_c 19.978683
_cell_angle_alpha 150.237211
_cell_angle_beta 145.865092
_cell_angle_gamma 23.570148
_cell_volume 527.527127
_symmetry_space_group_name_H-M "P -1"
_symmetry_group_IT_number 2
_symmetry_cell_setting 'triclinic'
loop_
_space_group_symop_operation_xyz
x,y,z
-x,-y,-z
loop_
_atom_site_type_symbol
_atom_site_label
_atom_site_fract_x
_atom_site_fract_y
_atom_site_fract_z
Si Si1 0.312457 0.462711 0.851393
Si Si2 0.198279 0.194049 0.275093
Si Si3 0.803178 0.778881 0.908877
Si Si4 0.124583 0.253778 0.475787
Si Si5 0.628419 0.246095 0.471247
Si Si6 0.743772 0.525138 0.939166
Si Si7 0.449563 0.606526 0.719315
O O1 0.094076 0.726640 0.844996
O O2 0.033969 0.556933 0.828226
O O3 0.584356 0.113202 0.754845
O O4 0.500000 0.500000 0.000000
O O5 0.478302 0.120999 0.317646
O O6 0.004162 0.536009 0.400485
O O7 0.601023 0.718385 0.816973
O O8 0.043338 0.703777 0.031404
O O9 0.537831 0.133538 0.969918
O O10 0.000000 0.500000 0.500000
O O11 0.930630 0.166853 0.330624
O O12 0.500000 0.000000 0.500000
O O13 0.500000 0.500000 0.500000
O O14 0.559869 0.347725 0.574902
O O15 0.000000 0.000000 0.500000
O O16 0.572741 0.505437 0.794008
O O17 0.000000 0.500000 0.000000
#
# Coordination Sequence:
#
# PCOD9022416 Si02
#       7
#     2   2   2   2   2   2   2
#     4  12  26  45  68  96 131 175 220 273 332 390
#     4  11  24  45  66  96 133 170 222 271 323 399
#     4  11  23  41  64  95 128 166 215 267 318 383
#     4  11  26  44  66  96 131 172 215 266 328 393
#     4  11  23  39  66  98 129 167 210 268 330 387
#     4  10  22  39  61  95 129 165 213 266 319 381
#     4  10  23  41  66  92 127 167 210 261 321 383
#
# _framework density 26.538920000000001
#
# number of rings (size 3 to 8) (size 9 to 14) (size 15 to 20)
#    0.000    1.143    0.000    6.429    0.000   14.857 
#    0.000    0.000    0.000    0.000    0.000    0.000 
#    0.000    0.000    0.000    0.000    0.000    0.000 
#
# Total GULP energy -78239.956788 kJ/mol
# GULP energy per Si atom -5588.568342 kJ/mol
# Density = 2.647852 g / cm^3
# Si number density = 26.538920 Si / 1000 Ang^3
#
#
#
# Elastic Constant Matrix: (Units=GPa)
#
#
# Indices 1 2 3 4 5 6 
#
# 1 67.9468 31.9771 4.0707 -9.4459 16.7745 -18.9322
# 2 31.9771 253.2656 64.5918 -33.9618 5.4145 -22.7887
# 3 4.0707 64.5918 121.8430 -33.2083 0.4806 -18.8362
# 4 -9.4459 -33.9618 -33.2083 50.6488 -6.7975 0.4160
# 5 16.7745 5.4145 0.4806 -6.7975 40.6094 -4.9839
# 6 -18.9322 -22.7887 -18.8362 0.4160 -4.9839 31.3849
#
#
#
# Elastic Compliance Matrix: (Units=1/GPa)
#
#
# Indices 1 2 3 4 5 6 
#
# 1 0.020798 -0.001682 0.003163 0.003884 -0.006259 0.012177
# 2 -0.001682 0.005017 -0.001841 0.001906 0.000561 0.001587
# 3 0.003163 -0.001841 0.012376 0.007544 0.001045 0.008065
# 4 0.003884 0.001906 0.007544 0.027110 0.003630 0.008472
# 5 -0.006259 0.000561 0.001045 0.003630 0.027933 0.001647
# 6 0.012177 0.001587 0.008065 0.008472 0.001647 0.045350
#
#
# Mechanical properties :
#
#
# Convention : Reuss Voigt Hill
#
# Bulk Modulus (GPa) = 26.68766 71.59274 49.14020
# Shear Modulus (GPa) = 32.93946 47.35634 40.14790
#
# Velocity S-wave (km/s) = 3.52685 4.22881 3.89368
# Velocity P-wave (km/s) = 5.16360 7.13294 6.22662
#
# Compressibility (1/GPa) = 0.03747050
#
# Stress axis : x y z
#
# Youngs Moduli (GPa) = 48.08197 199.33905 80.79960
#
# Poissons Ratio (x) = 0.33532 -0.25555
# Poissons Ratio (y) = 0.08088 0.14873
# Poissons Ratio (z) = -0.15207 0.36693
#
# Static dielectric constant tensor:
#      x y z
#    x 2.172290 0.018560 -0.086470 
#    y 0.018560 2.019810 -0.071540 
#    z -0.086470 -0.071540 2.124080 
# 
# From -- ./inp_files/457584.got.cif
#   From: 2010.05.17/outbox.cif.g08.bks.cpg/sg2_229_cif.got.tgz:457584.got - 2010.06.03 11:33:40.
