data_PCOD9022971
_publ_section_title
;
Structure prediction by ZEFSAII (Michael W. Deem and Ramdas Pophale) SiO2 
 PCOD9022971
Probable space group: P -1
;
_chemical_formula_sum "Si O2"
_cell_formula_units_Z 16
_cell_length_a 20.439477
_cell_length_b 27.038154
_cell_length_c 8.927668
_cell_angle_alpha 28.373400
_cell_angle_beta 29.870468
_cell_angle_gamma 18.601757
_cell_volume 729.698758
_symmetry_space_group_name_H-M "P -1"
_symmetry_group_IT_number 2
_symmetry_cell_setting 'triclinic'
loop_
_space_group_symop_operation_xyz
x,y,z
-x,-y,-z
loop_
_atom_site_type_symbol
_atom_site_label
_atom_site_fract_x
_atom_site_fract_y
_atom_site_fract_z
Si Si1 0.564231 0.275921 0.194814
Si Si2 0.345126 0.931461 0.943799
Si Si3 0.352827 0.571773 0.246463
Si Si4 0.410510 0.971695 0.137628
Si Si5 0.033503 0.161636 0.189421
Si Si6 0.152230 0.573617 0.399209
Si Si7 0.278140 0.219770 0.244971
Si Si8 0.628799 0.285383 0.716470
O O1 0.639074 0.111450 0.474857
O O2 0.367362 0.396946 0.376387
O O3 0.712544 0.274678 0.971441
O O4 0.510914 0.347827 0.942041
O O5 0.587099 0.790229 0.887054
O O6 0.297503 0.082246 0.602132
O O7 0.318108 0.862529 0.055506
O O8 0.199353 0.991145 0.216201
O O9 0.176250 0.611387 0.414157
O O10 0.486083 0.430794 0.486338
O O11 0.500000 0.500000 0.000000
O O12 0.190773 0.132276 0.059375
O O13 0.599289 0.844524 0.982123
O O14 0.500000 0.000000 0.000000
O O15 0.849309 0.209671 0.503102
O O16 0.913706 0.303009 0.925704
O O17 0.962970 0.611501 0.691272
#
# Coordination Sequence:
#
# PCOD9022971 Si02
#       8
#     2   2   2   2   2   2   2   2
#     4  11  25  41  64  95 137 166 210 269 325 376
#     4   9  20  37  63  95 120 167 214 265 312 375
#     4  10  22  39  65  94 130 165 214 264 316 380
#     4  11  25  44  64  95 134 168 213 270 321 381
#     4  10  22  39  69  92 128 163 218 264 319 386
#     4  10  22  43  67  97 126 174 219 259 317 389
#     4   9  20  40  63  87 130 167 219 262 306 376
#     4  12  22  40  67  96 134 167 209 270 331 370
#
# _framework density 21.926856999999998
#
# number of rings (size 3 to 8) (size 9 to 14) (size 15 to 20)
#    0.000    1.750    2.500    2.250    7.000    4.000 
#    0.000    1.250    0.000    0.000    0.000    0.000 
#    0.000    0.000    0.000    0.000    0.000    0.000 
#
# Total GULP energy -89199.608863 kJ/mol
# GULP energy per Si atom -5574.975554 kJ/mol
# Density = 2.187695 g / cm^3
# Si number density = 21.926857 Si / 1000 Ang^3
#
#
#
# Elastic Constant Matrix: (Units=GPa)
#
#
# Indices 1 2 3 4 5 6 
#
# 1 117.8479 22.4894 25.6443 -4.3621 -6.9176 -2.4596
# 2 22.4894 38.2982 18.6637 12.8343 -14.4794 -10.2530
# 3 25.6443 18.6637 82.0674 3.9137 3.1383 -0.0508
# 4 -4.3621 12.8343 3.9137 27.8870 1.3310 -4.7723
# 5 -6.9176 -14.4794 3.1383 1.3310 30.4380 -0.4479
# 6 -2.4596 -10.2530 -0.0508 -4.7723 -0.4479 24.8473
#
#
#
# Elastic Compliance Matrix: (Units=1/GPa)
#
#
# Indices 1 2 3 4 5 6 
#
# 1 0.010474 -0.008137 -0.001623 0.005463 -0.001581 -0.001303
# 2 -0.008137 0.062243 -0.011509 -0.026270 0.030394 0.020357
# 3 -0.001623 -0.011509 0.015481 0.002456 -0.007614 -0.004544
# 4 0.005463 -0.026270 0.002456 0.048915 -0.013664 -0.001146
# 5 -0.001581 0.030394 -0.007614 -0.013664 0.048492 0.010620
# 6 -0.001303 0.020357 -0.004544 -0.001146 0.010620 0.048479
#
#
# Mechanical properties :
#
#
# Convention : Reuss Voigt Hill
#
# Bulk Modulus (GPa) = 21.90189 41.31205 31.60697
# Shear Modulus (GPa) = 17.13257 28.06219 22.59738
#
# Velocity S-wave (km/s) = 2.79830 3.58132 3.21375
# Velocity P-wave (km/s) = 4.52227 5.99858 5.31196
#
# Compressibility (1/GPa) = 0.04565816
#
# Stress axis : x y z
#
# Youngs Moduli (GPa) = 95.47686 16.06619 64.59511
#
# Poissons Ratio (x) = 0.13073 0.10485
# Poissons Ratio (y) = 0.77688 0.74346
# Poissons Ratio (z) = 0.15498 0.18491
#
# Static dielectric constant tensor:
#      x y z
#    x 1.849420 -0.055590 0.012470 
#    y -0.055590 1.864070 -0.036870 
#    z 0.012470 -0.036870 1.854680 
# 
# From -- ./inp_files/350147.got.cif
#   From: 2010.05.17/outbox.cif.g08.bks.cpg/sg2_176_cif.got.tgz:350147.got - 2010.06.03 11:33:40.
