data_PCOD9022937
_publ_section_title
;
Structure prediction by ZEFSAII (Michael W. Deem and Ramdas Pophale) SiO2 
 PCOD9022937
Probable space group: P -1
;
_chemical_formula_sum "Si O2"
_cell_formula_units_Z 14
_cell_length_a 15.291684
_cell_length_b 5.199804
_cell_length_c 21.658467
_cell_angle_alpha 82.508507
_cell_angle_beta 18.274429
_cell_angle_gamma 79.534456
_cell_volume 526.053969
_symmetry_space_group_name_H-M "P -1"
_symmetry_group_IT_number 2
_symmetry_cell_setting 'triclinic'
loop_
_space_group_symop_operation_xyz
x,y,z
-x,-y,-z
loop_
_atom_site_type_symbol
_atom_site_label
_atom_site_fract_x
_atom_site_fract_y
_atom_site_fract_z
Si Si1 0.176612 0.199975 0.553412
Si Si2 0.718879 0.857719 0.152427
Si Si3 0.189007 0.538981 0.784262
Si Si4 0.648633 0.710985 0.766668
Si Si5 0.277695 0.249607 0.615476
Si Si6 0.271088 0.592710 0.393758
Si Si7 0.630033 0.150051 0.853102
O O1 0.116869 0.166046 0.666261
O O2 0.143611 0.501816 0.545729
O O3 0.961773 0.098339 0.653519
O O4 0.507267 0.095001 0.319454
O O5 0.816424 0.670274 0.151547
O O6 0.508870 0.744605 0.250680
O O7 0.001692 0.818444 0.922298
O O8 0.102399 0.415025 0.782263
O O9 0.514597 0.564266 0.556369
O O10 0.587444 0.644452 0.739630
O O11 0.572570 0.465391 0.866293
O O12 0.989049 0.711137 0.541623
O O13 0.538604 0.996687 0.859940
O O14 0.500000 0.000000 0.500000
O O15 0.500000 0.000000 0.000000
#
# Coordination Sequence:
#
# PCOD9022937 Si02
#       7
#     2   2   2   2   2   2   2
#     4  11  23  39  69  88 130 174 220 269 336 394
#     4  11  21  41  63  96 123 171 218 277 323 396
#     4  10  24  39  64  91 131 163 223 272 330 387
#     4  10  23  41  68  96 130 173 218 278 329 394
#     4  11  22  42  59  93 126 174 210 272 330 398
#     4  10  22  39  65  92 125 164 223 267 332 387
#     4  11  24  44  66  99 137 175 219 273 337 401
#
# _framework density 26.613237000000002
#
# number of rings (size 3 to 8) (size 9 to 14) (size 15 to 20)
#    0.000    1.429    4.286    0.429    2.000    4.571 
#    2.571    0.000    0.000    0.000    0.000    0.000 
#    0.000    0.000    0.000    0.000    0.000    0.000 
#
# Total GULP energy -78161.502706 kJ/mol
# GULP energy per Si atom -5582.964479 kJ/mol
# Density = 2.655266 g / cm^3
# Si number density = 26.613237 Si / 1000 Ang^3
#
#
#
# Elastic Constant Matrix: (Units=GPa)
#
#
# Indices 1 2 3 4 5 6 
#
# 1 139.0387 31.2014 11.2937 -1.6816 18.8065 22.4685
# 2 31.2014 109.8590 10.3998 -3.7855 2.4249 9.5404
# 3 11.2937 10.3998 86.8190 -4.2455 3.6599 -5.7416
# 4 -1.6816 -3.7855 -4.2455 27.5338 1.4731 -3.8143
# 5 18.8065 2.4249 3.6599 1.4731 31.1443 -8.6642
# 6 22.4685 9.5404 -5.7416 -3.8143 -8.6642 32.5289
#
#
#
# Elastic Compliance Matrix: (Units=1/GPa)
#
#
# Indices 1 2 3 4 5 6 
#
# 1 0.010339 -0.001842 -0.001407 -0.000658 -0.008457 -0.009179
# 2 -0.001842 0.009903 -0.001016 0.000856 -0.000060 -0.001727
# 3 -0.001407 -0.001016 0.012160 0.002150 0.000452 0.003789
# 4 -0.000658 0.000856 0.002150 0.037422 -0.000334 0.004882
# 5 -0.008457 -0.000060 0.000452 -0.000334 0.041931 0.017068
# 6 -0.009179 -0.001727 0.003789 0.004882 0.017068 0.043376
#
#
# Mechanical properties :
#
#
# Convention : Reuss Voigt Hill
#
# Bulk Modulus (GPa) = 41.89255 49.05626 45.47441
# Shear Modulus (GPa) = 29.13422 37.09618 33.11520
#
# Velocity S-wave (km/s) = 3.31225 3.73755 3.53131
# Velocity P-wave (km/s) = 5.51393 6.09087 5.80957
#
# Compressibility (1/GPa) = 0.02387059
#
# Stress axis : x y z
#
# Youngs Moduli (GPa) = 96.71857 100.98160 82.23933
#
# Poissons Ratio (x) = 0.18602 0.11571
# Poissons Ratio (y) = 0.17817 0.08359
# Poissons Ratio (z) = 0.13609 0.10264
#
# Static dielectric constant tensor:
#      x y z
#    x 2.124070 -0.031160 0.049120 
#    y -0.031160 2.210280 0.040140 
#    z 0.049120 0.040140 2.123280 
# 
# From -- ./inp_files/27817.got.cif
#   From: 2010.05.17/outbox.cif.g08.bks.cpg/sg2_14_cif.got.tgz:27817.got - 2010.06.03 11:33:40.
