data_PCOD9022668
_publ_section_title
;
Structure prediction by ZEFSAII (Michael W. Deem and Ramdas Pophale) SiO2 
 PCOD9022668
Probable space group: P -1
;
_chemical_formula_sum "Si O2"
_cell_formula_units_Z 14
_cell_length_a 5.679267
_cell_length_b 18.462042
_cell_length_c 15.303949
_cell_angle_alpha 155.597498
_cell_angle_beta 104.601916
_cell_angle_gamma 90.302747
_cell_volume 519.164315
_symmetry_space_group_name_H-M "P -1"
_symmetry_group_IT_number 2
_symmetry_cell_setting 'triclinic'
loop_
_space_group_symop_operation_xyz
x,y,z
-x,-y,-z
loop_
_atom_site_type_symbol
_atom_site_label
_atom_site_fract_x
_atom_site_fract_y
_atom_site_fract_z
Si Si1 0.930189 0.408144 0.296097
Si Si2 0.687166 0.128771 0.246288
Si Si3 0.190717 0.848292 0.221906
Si Si4 0.322955 0.306105 0.701369
Si Si5 0.705609 0.781223 0.592181
Si Si6 0.813569 0.071022 0.508212
Si Si7 0.350057 0.351743 0.179426
O O1 0.568292 0.276275 0.114023
O O2 0.000000 0.500000 0.500000
O O3 0.088769 0.611307 0.466996
O O4 0.124396 0.314838 0.194838
O O5 0.457328 0.106334 0.273389
O O6 0.933793 0.080169 0.230734
O O7 0.500000 0.000000 0.000000
O O8 0.162402 0.783350 0.248632
O O9 0.331319 0.101940 0.497869
O O10 0.477054 0.859733 0.228362
O O11 0.883313 0.729767 0.012201
O O12 0.398724 0.343851 0.648232
O O13 0.976379 0.201200 0.579492
O O14 0.500000 0.500000 0.000000
O O15 0.596310 0.609578 0.471745
O O16 0.000000 0.000000 0.500000
#
# Coordination Sequence:
#
# PCOD9022668 Si02
#       7
#     2   2   2   2   2   2   2
#     4  10  22  39  63  94 124 161 209 264 326 382
#     4  10  22  42  66  92 130 167 209 267 332 385
#     4  10  22  40  64  91 123 173 221 265 325 374
#     4  11  24  40  62  92 135 171 219 265 323 388
#     4  10  23  42  63  97 129 171 216 262 323 395
#     4   9  21  41  61  89 125 162 220 262 321 375
#     4  10  22  40  65  90 128 165 212 268 316 382
#
# _framework density 26.966415000000001
#
# number of rings (size 3 to 8) (size 9 to 14) (size 15 to 20)
#    0.000    2.000    0.000    1.714    6.000    2.857 
#   15.429    0.000    0.000    0.000    0.000    0.000 
#    0.000    0.000    0.000    0.000    0.000    0.000 
#
# Total GULP energy -78073.406373 kJ/mol
# GULP energy per Si atom -5576.671884 kJ/mol
# Density = 2.690504 g / cm^3
# Si number density = 26.966415 Si / 1000 Ang^3
#
#
#
# Elastic Constant Matrix: (Units=GPa)
#
#
# Indices 1 2 3 4 5 6 
#
# 1 239.4935 63.7270 94.0105 -16.3034 18.7576 42.8700
# 2 63.7270 68.2971 28.5452 -12.6894 -10.4761 35.4006
# 3 94.0105 28.5452 107.7774 -22.3568 20.5836 9.4006
# 4 -16.3034 -12.6894 -22.3568 55.1218 -1.1610 -7.9271
# 5 18.7576 -10.4761 20.5836 -1.1610 55.6393 6.3577
# 6 42.8700 35.4006 9.4006 -7.9271 6.3577 58.8262
#
#
#
# Elastic Compliance Matrix: (Units=1/GPa)
#
#
# Indices 1 2 3 4 5 6 
#
# 1 0.007951 -0.004224 -0.005657 -0.001284 -0.001136 -0.002399
# 2 -0.004224 0.030573 -0.004725 0.001873 0.010736 -0.015473
# 3 -0.005657 -0.004725 0.017103 0.004846 -0.005839 0.005517
# 4 -0.001284 0.001873 0.004846 0.020411 -0.000795 0.001870
# 5 -0.001136 0.010736 -0.005839 -0.000795 0.023358 -0.007331
# 6 -0.002399 -0.015473 0.005517 0.001870 -0.007331 0.028221
#
#
# Mechanical properties :
#
#
# Convention : Reuss Voigt Hill
#
# Bulk Modulus (GPa) = 37.85643 87.57037 62.71340
# Shear Modulus (GPa) = 30.18699 49.20314 39.69506
#
# Velocity S-wave (km/s) = 3.34942 4.27618 3.84085
# Velocity P-wave (km/s) = 5.38767 7.54488 6.55562
#
# Compressibility (1/GPa) = 0.02641559
#
# Stress axis : x y z
#
# Youngs Moduli (GPa) = 125.77278 32.70866 58.46849
#
# Poissons Ratio (x) = 0.13817 0.33074
# Poissons Ratio (y) = 0.53128 0.27626
# Poissons Ratio (z) = 0.71146 0.15455
#
# Static dielectric constant tensor:
#      x y z
#    x 2.538930 0.088450 -0.090530 
#    y 0.088450 2.121130 0.001180 
#    z -0.090530 0.001180 2.161000 
# 
# From -- ./inp_files/350745.got.cif
#   From: 2010.05.17/outbox.cif.g08.bks.cpg/sg2_176_cif.got.tgz:350745.got - 2010.06.03 11:33:40.
