data_PCOD9022910
_publ_section_title
;
Structure prediction by ZEFSAII (Michael W. Deem and Ramdas Pophale) SiO2 
 PCOD9022910
Probable space group: P -1
;
_chemical_formula_sum "Si O2"
_cell_formula_units_Z 14
_cell_length_a 15.620608
_cell_length_b 5.582263
_cell_length_c 11.599573
_cell_angle_alpha 107.650310
_cell_angle_beta 32.996556
_cell_angle_gamma 114.281528
_cell_volume 500.329302
_symmetry_space_group_name_H-M "P -1"
_symmetry_group_IT_number 2
_symmetry_cell_setting 'triclinic'
loop_
_space_group_symop_operation_xyz
x,y,z
-x,-y,-z
loop_
_atom_site_type_symbol
_atom_site_label
_atom_site_fract_x
_atom_site_fract_y
_atom_site_fract_z
Si Si1 0.606157 0.724103 0.738817
Si Si2 0.963597 0.433228 0.894862
Si Si3 0.637559 0.777389 0.377699
Si Si4 0.532381 0.819764 0.268713
Si Si5 0.775936 0.350101 0.876001
Si Si6 0.221533 0.185936 0.207818
Si Si7 0.877190 0.007808 0.319514
O O1 0.593112 0.474269 0.634865
O O2 0.690534 0.682529 0.755767
O O3 0.731066 0.973893 0.572561
O O4 0.417124 0.728576 0.957592
O O5 0.794603 0.382194 0.000028
O O6 0.009778 0.161822 0.782998
O O7 0.064395 0.695650 0.749425
O O8 0.000000 0.500000 0.000000
O O9 0.500000 0.500000 0.500000
O O10 0.664949 0.846056 0.223744
O O11 0.805843 0.831035 0.260875
O O12 0.559971 0.980057 0.558023
O O13 0.627026 0.842630 0.046811
O O14 0.851029 0.622858 0.759469
O O15 0.860916 0.124527 0.715719
#
# Coordination Sequence:
#
# PCOD9022910 Si02
#       7
#     2   2   2   2   2   2   2
#     4  11  24  49  78 116 147 192 258 318 369 440
#     4  12  30  50  73 104 156 203 247 297 384 461
#     4  11  23  39  67 110 150 191 242 323 374 437
#     4  10  22  39  65 110 154 182 243 305 394 419
#     4  11  25  48  73 111 149 199 250 307 371 446
#     4  11  25  43  79 110 149 196 256 312 370 443
#     4  12  27  47  74 109 149 193 251 311 372 444
#
# _framework density 27.981570000000001
#
# number of rings (size 3 to 8) (size 9 to 14) (size 15 to 20)
#    0.000    0.857    1.429    5.143   10.000    3.429 
#    0.000    4.286    0.000    0.000    0.000    0.000 
#    0.000    0.000    0.000    0.000    0.000    0.000 
#
# Total GULP energy -78311.507572 kJ/mol
# GULP energy per Si atom -5593.679112 kJ/mol
# Density = 2.791788 g / cm^3
# Si number density = 27.981570 Si / 1000 Ang^3
#
#
#
# Elastic Constant Matrix: (Units=GPa)
#
#
# Indices 1 2 3 4 5 6 
#
# 1 220.7073 30.5384 14.8599 6.6810 19.7407 -16.8897
# 2 30.5384 171.0055 25.2642 -3.6245 -3.4105 -38.9035
# 3 14.8599 25.2642 62.2291 -19.0838 13.6928 -12.9286
# 4 6.6810 -3.6245 -19.0838 49.5734 -10.5602 1.1984
# 5 19.7407 -3.4105 13.6928 -10.5602 43.8594 5.2769
# 6 -16.8897 -38.9035 -12.9286 1.1984 5.2769 55.3042
#
#
#
# Elastic Compliance Matrix: (Units=1/GPa)
#
#
# Indices 1 2 3 4 5 6 
#
# 1 0.005035 -0.000613 -0.000581 -0.001543 -0.002655 0.001258
# 2 -0.000613 0.007280 -0.002155 -0.000114 0.000965 0.004340
# 3 -0.000581 -0.002155 0.021084 0.006826 -0.005277 0.003591
# 4 -0.001543 -0.000114 0.006826 0.023912 0.004298 0.000116
# 5 -0.002655 0.000965 -0.005277 0.004298 0.027241 -0.004058
# 6 0.001258 0.004340 0.003591 0.000116 -0.004058 0.022743
#
#
# Mechanical properties :
#
#
# Convention : Reuss Voigt Hill
#
# Bulk Modulus (GPa) = 37.45143 66.14078 51.79611
# Shear Modulus (GPa) = 40.68556 55.29934 47.99245
#
# Velocity S-wave (km/s) = 3.81729 4.45036 4.14592
# Velocity P-wave (km/s) = 5.73082 7.07786 6.43966
#
# Compressibility (1/GPa) = 0.02670125
#
# Stress axis : x y z
#
# Youngs Moduli (GPa) = 198.59859 137.36575 47.42967
#
# Poissons Ratio (x) = 0.08419 0.02757
# Poissons Ratio (y) = 0.12172 0.10220
# Poissons Ratio (z) = 0.11544 0.29598
#
# Static dielectric constant tensor:
#      x y z
#    x 2.196090 -0.011910 -0.048320 
#    y -0.011910 2.374400 -0.081790 
#    z -0.048320 -0.081790 2.195350 
# 
# From -- ./inp_files/442039.got.cif
#   From: 2010.05.17/outbox.cif.g08.bks.cpg/sg2_222_cif.got.tgz:442039.got - 2010.06.03 11:33:40.
