data_PCOD9022818
_publ_section_title
;
Structure prediction by ZEFSAII (Michael W. Deem and Ramdas Pophale) SiO2 
 PCOD9022818
Probable space group: P -1
;
_chemical_formula_sum "Si O2"
_cell_formula_units_Z 16
_cell_length_a 12.961701
_cell_length_b 22.964120
_cell_length_c 15.323952
_cell_angle_alpha 155.940603
_cell_angle_beta 142.559771
_cell_angle_gamma 25.863748
_cell_volume 801.312857
_symmetry_space_group_name_H-M "P -1"
_symmetry_group_IT_number 2
_symmetry_cell_setting 'triclinic'
loop_
_space_group_symop_operation_xyz
x,y,z
-x,-y,-z
loop_
_atom_site_type_symbol
_atom_site_label
_atom_site_fract_x
_atom_site_fract_y
_atom_site_fract_z
Si Si1 0.721558 0.597197 0.791915
Si Si2 0.396563 0.746091 0.948261
Si Si3 0.482009 0.178802 0.211958
Si Si4 0.007666 0.226418 0.342331
Si Si5 0.928250 0.066172 0.440566
Si Si6 0.130385 0.588251 0.086837
Si Si7 0.962623 0.534983 0.421769
Si Si8 0.229490 0.631662 0.015944
O O1 0.552188 0.655185 0.838317
O O2 0.536523 0.775407 0.840515
O O3 0.880239 0.380678 0.551499
O O4 0.921171 0.594309 0.953589
O O5 0.608378 0.614426 0.981640
O O6 0.212867 0.721698 0.784377
O O7 0.215062 0.986577 0.171706
O O8 0.669781 0.159223 0.366855
O O9 0.223029 0.376788 0.339376
O O10 0.500000 0.000000 0.000000
O O11 0.136081 0.265202 0.417406
O O12 0.943141 0.226216 0.654210
O O13 0.000000 0.000000 0.500000
O O14 0.095131 0.858815 0.215899
O O15 0.163839 0.622497 0.057149
O O16 0.835032 0.466104 0.216995
O O17 0.000000 0.500000 0.500000
O O18 0.500000 0.500000 0.000000
#
# Coordination Sequence:
#
# PCOD9022818 Si02
#       8
#     2   2   2   2   2   2   2   2
#     4  11  23  44  67  94 134 173 234 271 333 395
#     4  11  25  43  71  94 132 181 226 276 337 396
#     4  11  20  40  65  92 129 170 217 276 320 394
#     4  10  24  46  63  99 135 170 229 284 320 403
#     4  10  22  39  64  93 131 172 211 264 330 394
#     4  11  22  45  63  97 134 171 224 274 328 405
#     4  11  24  40  66  97 131 173 215 270 340 394
#     4  11  24  42  61  98 137 168 213 271 335 401
#
# _framework density 19.967234000000001
#
# number of rings (size 3 to 8) (size 9 to 14) (size 15 to 20)
#    0.000    1.250    3.750    3.000    7.000    1.500 
#    4.500    0.000    0.000    0.000    0.000    0.000 
#    0.000    0.000    0.000    0.000    0.000    0.000 
#
# Total GULP energy -89164.341444 kJ/mol
# GULP energy per Si atom -5572.771340 kJ/mol
# Density = 1.992179 g / cm^3
# Si number density = 19.967234 Si / 1000 Ang^3
#
#
#
# Elastic Constant Matrix: (Units=GPa)
#
#
# Indices 1 2 3 4 5 6 
#
# 1 27.5422 -6.2442 25.9509 -4.7832 -17.6818 -3.0665
# 2 -6.2442 112.6383 42.1007 -31.5456 21.7594 -5.4880
# 3 25.9509 42.1007 134.2268 -26.2808 37.0567 0.6344
# 4 -4.7832 -31.5456 -26.2808 36.4725 10.0859 4.5143
# 5 -17.6818 21.7594 37.0567 10.0859 -2.5866 -4.6176
# 6 -3.0665 -5.4880 0.6344 4.5143 -4.6176 34.4092
#
#
#
# Elastic Compliance Matrix: (Units=1/GPa)
#
#
# Indices 1 2 3 4 5 6 
#
# 1 0.028283 0.010564 0.000567 0.019014 -0.020362 -0.001032
# 2 0.010564 0.013644 -0.005006 0.008887 0.001497 0.002245
# 3 0.000567 -0.005006 0.005135 -0.003737 0.011004 0.001125
# 4 0.019014 0.008887 -0.003737 0.031394 0.012376 0.000723
# 5 -0.020362 0.001497 0.011004 0.012376 -0.018424 -0.005875
# 6 -0.001032 0.002245 0.001125 0.000723 -0.005875 0.028424
#
#
# Mechanical properties :
#
#
# Convention : Reuss Voigt Hill
#
# Bulk Modulus (GPa) = 16.85938 44.22468 30.54203
# Shear Modulus (GPa) = 52.09633 27.83235 39.96434
#
# Velocity S-wave (km/s) = 5.11347 3.73755 4.47866
# Velocity P-wave (km/s) = 6.58219 6.38924 6.48643
#
# Compressibility (1/GPa) = 0.05931417
#
# Stress axis : x y z
#
# Youngs Moduli (GPa) = 35.35663 73.29356 194.72813
#
# Poissons Ratio (x) = -0.77428 -0.11050
# Poissons Ratio (y) = -0.37351 0.97473
# Poissons Ratio (z) = -0.02006 0.36688
#
# Static dielectric constant tensor:
#      x y z
#    x 1.750550 0.093360 0.103320 
#    y 0.093360 1.705570 0.022460 
#    z 0.103320 0.022460 1.416010 
# 
# From -- ./inp_files/215846.got.cif
#   From: 2010.05.17/outbox.cif.g08.bks.cpg/sg2_108_cif.got.tgz:215846.got - 2010.06.03 11:33:40.
