data_PCOD9022932
_publ_section_title
;
Structure prediction by ZEFSAII (Michael W. Deem and Ramdas Pophale) SiO2 
 PCOD9022932
Probable space group: P -1
;
_chemical_formula_sum "Si O2"
_cell_formula_units_Z 16
_cell_length_a 19.953989
_cell_length_b 11.294136
_cell_length_c 8.965751
_cell_angle_alpha 41.285414
_cell_angle_beta 141.286595
_cell_angle_gamma 138.975047
_cell_volume 761.494127
_symmetry_space_group_name_H-M "P -1"
_symmetry_group_IT_number 2
_symmetry_cell_setting 'triclinic'
loop_
_space_group_symop_operation_xyz
x,y,z
-x,-y,-z
loop_
_atom_site_type_symbol
_atom_site_label
_atom_site_fract_x
_atom_site_fract_y
_atom_site_fract_z
Si Si1 0.825129 0.121858 0.235465
Si Si2 0.361168 0.900255 0.825684
Si Si3 0.849787 0.716418 0.604470
Si Si4 0.399055 0.258321 0.386948
Si Si5 0.659061 0.480793 0.728449
Si Si6 0.047104 0.440819 0.488512
Si Si7 0.792801 0.751860 0.137672
Si Si8 0.886822 0.205095 0.946566
O O1 0.711655 0.071979 0.187694
O O2 0.811050 0.185023 0.983068
O O3 0.934082 0.292224 0.342836
O O4 0.853973 0.930658 0.449977
O O5 0.347464 0.023579 0.545733
O O6 0.326524 0.668562 0.984454
O O7 0.500000 0.000000 0.000000
O O8 0.766916 0.565828 0.723352
O O9 0.801453 0.677667 0.389125
O O10 0.979411 0.724879 0.829712
O O11 0.539813 0.359259 0.543312
O O12 0.359710 0.347761 0.377987
O O13 0.337829 0.307099 0.093632
O O14 0.132165 0.328125 0.761930
O O15 0.000000 0.500000 0.500000
O O16 0.113509 0.636572 0.321994
O O17 0.851590 0.988662 0.023006
#
# Coordination Sequence:
#
# PCOD9022932 Si02
#       8
#     2   2   2   2   2   2   2   2
#     4  11  21  42  66  90 128 169 210 258 314 379
#     4  10  22  39  65  92 119 163 213 258 306 372
#     4  11  21  43  68  90 126 175 212 257 312 381
#     4  10  23  42  61  93 128 162 213 265 310 374
#     4  10  22  40  68  89 121 172 212 256 318 371
#     4  12  27  38  61  99 128 168 207 262 322 376
#     4  11  25  42  61  94 135 160 212 265 313 372
#     4  11  24  43  65  92 131 171 212 255 316 386
#
# _framework density 21.011323999999998
#
# number of rings (size 3 to 8) (size 9 to 14) (size 15 to 20)
#    0.000    1.250    3.750    1.875    7.000    1.000 
#    0.000    0.000    0.000    3.000    0.000    0.000 
#    0.000    0.000    0.000    0.000    0.000    0.000 
#
# Total GULP energy -89453.534778 kJ/mol
# GULP energy per Si atom -5590.845924 kJ/mol
# Density = 2.096350 g / cm^3
# Si number density = 21.011324 Si / 1000 Ang^3
#
#
#
# Elastic Constant Matrix: (Units=GPa)
#
#
# Indices 1 2 3 4 5 6 
#
# 1 45.3992 13.9066 -18.9876 -3.9631 10.0824 2.4037
# 2 13.9066 78.4675 23.4541 -10.6803 -8.8297 -2.8330
# 3 -18.9876 23.4541 57.8877 -3.7381 1.6317 -3.9004
# 4 -3.9631 -10.6803 -3.7381 34.8093 3.2277 -0.7291
# 5 10.0824 -8.8297 1.6317 3.2277 22.5611 -4.8072
# 6 2.4037 -2.8330 -3.9004 -0.7291 -4.8072 30.6513
#
#
#
# Elastic Compliance Matrix: (Units=1/GPa)
#
#
# Indices 1 2 3 4 5 6 
#
# 1 0.044278 -0.017551 0.022332 0.004730 -0.030421 -0.006911
# 2 -0.017551 0.022874 -0.015130 0.001765 0.018601 0.004525
# 3 0.022332 -0.015130 0.031319 0.002985 -0.019037 -0.002079
# 4 0.004730 0.001765 0.002985 0.030688 -0.006039 -0.000045
# 5 -0.030421 0.018601 -0.019037 -0.006039 0.070111 0.012535
# 6 -0.006911 0.004525 -0.002079 -0.000045 0.012535 0.035286
#
#
# Mechanical properties :
#
#
# Convention : Reuss Voigt Hill
#
# Bulk Modulus (GPa) = 12.85803 24.27783 18.56793
# Shear Modulus (GPa) = 17.78234 28.49643 23.13938
#
# Velocity S-wave (km/s) = 2.91232 3.68671 3.32216
# Velocity P-wave (km/s) = 4.17632 5.44997 4.85509
#
# Compressibility (1/GPa) = 0.07777239
#
# Stress axis : x y z
#
# Youngs Moduli (GPa) = 22.58461 43.71796 31.92912
#
# Poissons Ratio (x) = 0.76730 -0.71304
# Poissons Ratio (y) = 0.39639 0.48309
# Poissons Ratio (z) = -0.50436 0.66146
#
# Static dielectric constant tensor:
#      x y z
#    x 1.715410 -0.017290 0.008120 
#    y -0.017290 1.757580 -0.023540 
#    z 0.008120 -0.023540 1.774630 
# 
# From -- ./inp_files/270799.got.cif
#   From: 2010.05.17/outbox.cif.g08.bks.cpg/sg2_136_cif.got.tgz:270799.got - 2010.06.03 11:33:40.
