data_PCOD9022621
_publ_section_title
;
Structure prediction by ZEFSAII (Michael W. Deem and Ramdas Pophale) SiO2 
 PCOD9022621
Probable space group: P -1
;
_chemical_formula_sum "Si O2"
_cell_formula_units_Z 14
_cell_length_a 13.928824
_cell_length_b 5.019082
_cell_length_c 10.615268
_cell_angle_alpha 99.824261
_cell_angle_beta 75.902029
_cell_angle_gamma 59.906616
_cell_volume 583.615400
_symmetry_space_group_name_H-M "P -1"
_symmetry_group_IT_number 2
_symmetry_cell_setting 'triclinic'
loop_
_space_group_symop_operation_xyz
x,y,z
-x,-y,-z
loop_
_atom_site_type_symbol
_atom_site_label
_atom_site_fract_x
_atom_site_fract_y
_atom_site_fract_z
Si Si1 0.303188 0.030103 0.936514
Si Si2 0.071765 0.632364 0.056129
Si Si3 0.264138 0.574801 0.496043
Si Si4 0.661218 0.275419 0.843585
Si Si5 0.831135 0.187522 0.199084
Si Si6 0.544463 0.906767 0.775212
Si Si7 0.857861 0.777373 0.570783
O O1 0.243399 0.954247 0.836326
O O2 0.189687 0.351468 0.065335
O O3 0.404680 0.065235 0.851585
O O4 0.351468 0.760253 0.008054
O O5 0.129325 0.722057 0.933581
O O6 0.000000 0.500000 0.000000
O O7 0.964804 0.929340 0.193377
O O8 0.246886 0.555681 0.647926
O O9 0.400169 0.330498 0.383674
O O10 0.197569 0.434579 0.435654
O O11 0.199219 0.952928 0.503156
O O12 0.609661 0.642162 0.846774
O O13 0.585134 0.154179 0.789115
O O14 0.797861 0.023444 0.729651
O O15 0.000000 0.500000 0.500000
#
# Coordination Sequence:
#
# PCOD9022621 Si02
#       7
#     2   2   2   2   2   2   2
#     4  11  23  37  67  88 124 166 210 250 315 369
#     4   9  22  40  56  91 120 160 206 250 306 366
#     4  10  23  41  63  88 132 157 202 262 303 365
#     4  10  23  40  62  93 127 160 210 260 308 359
#     4  10  23  40  62  91 126 162 206 258 313 363
#     4  10  23  43  61  94 125 165 206 260 306 365
#     4  10  22  39  63  92 119 167 208 250 310 367
#
# _framework density 23.988399000000001
#
# number of rings (size 3 to 8) (size 9 to 14) (size 15 to 20)
#    0.000    2.000    0.000    1.286   10.000    2.857 
#    0.000    0.714    0.000    0.000    0.000    0.000 
#    0.000    0.000    0.000    0.000    0.000    0.000 
#
# Total GULP energy -78206.469989 kJ/mol
# GULP energy per Si atom -5586.176428 kJ/mol
# Density = 2.393380 g / cm^3
# Si number density = 23.988399 Si / 1000 Ang^3
#
#
#
# Elastic Constant Matrix: (Units=GPa)
#
#
# Indices 1 2 3 4 5 6 
#
# 1 89.2165 8.0947 25.4408 15.0776 -26.2206 3.5791
# 2 8.0947 51.3846 2.5508 5.9306 -3.6641 14.5112
# 3 25.4408 2.5508 119.8000 7.0124 -16.3722 -13.6631
# 4 15.0776 5.9306 7.0124 26.5796 0.8351 -7.7578
# 5 -26.2206 -3.6641 -16.3722 0.8351 27.3562 -1.5441
# 6 3.5791 14.5112 -13.6631 -7.7578 -1.5441 26.1778
#
#
#
# Elastic Compliance Matrix: (Units=1/GPa)
#
#
# Indices 1 2 3 4 5 6 
#
# 1 0.019418 0.002109 -0.001820 -0.013850 0.017786 -0.007829
# 2 0.002109 0.026391 -0.002004 -0.012334 0.003638 -0.019404
# 3 -0.001820 -0.002004 0.010155 0.000746 0.004445 0.007143
# 4 -0.013850 -0.012334 0.000746 0.055726 -0.014784 0.024762
# 5 0.017786 0.003638 0.004445 -0.014784 0.057024 -0.003146
# 6 -0.007829 -0.019404 0.007143 0.024762 -0.003146 0.060908
#
#
# Mechanical properties :
#
#
# Convention : Reuss Voigt Hill
#
# Bulk Modulus (GPa) = 19.03491 36.95261 27.99376
# Shear Modulus (GPa) = 19.95505 30.97706 25.46605
#
# Velocity S-wave (km/s) = 2.88733 3.59741 3.26175
# Velocity P-wave (km/s) = 4.36668 5.71778 5.08728
#
# Compressibility (1/GPa) = 0.05253505
#
# Stress axis : x y z
#
# Youngs Moduli (GPa) = 51.49767 37.89165 98.47475
#
# Poissons Ratio (x) = -0.07992 0.17923
# Poissons Ratio (y) = -0.10861 0.19730
# Poissons Ratio (z) = 0.09373 0.07592
#
# Static dielectric constant tensor:
#      x y z
#    x 1.880090 -0.022480 -0.003800 
#    y -0.022480 2.057950 0.053310 
#    z -0.003800 0.053310 1.948410 
# 
# From -- ./inp_files/459518.got.cif
#   From: 2010.05.17/outbox.cif.g08.bks.cpg/sg2_230_cif.got.tgz:459518.got - 2010.06.03 11:33:40.
