data_PCOD9022606
_publ_section_title
;
Structure prediction by ZEFSAII (Michael W. Deem and Ramdas Pophale) SiO2 
 PCOD9022606
Probable space group: P -1
;
_chemical_formula_sum "Si O2"
_cell_formula_units_Z 16
_cell_length_a 19.620277
_cell_length_b 11.396923
_cell_length_c 15.392606
_cell_angle_alpha 41.256186
_cell_angle_beta 161.336348
_cell_angle_gamma 140.141371
_cell_volume 700.866850
_symmetry_space_group_name_H-M "P -1"
_symmetry_group_IT_number 2
_symmetry_cell_setting 'triclinic'
loop_
_space_group_symop_operation_xyz
x,y,z
-x,-y,-z
loop_
_atom_site_type_symbol
_atom_site_label
_atom_site_fract_x
_atom_site_fract_y
_atom_site_fract_z
Si Si1 0.494203 0.859771 0.955266
Si Si2 0.842696 0.130760 0.144563
Si Si3 0.370686 0.611392 0.662258
Si Si4 0.764294 0.492777 0.258955
Si Si5 0.225594 0.980163 0.242255
Si Si6 0.238218 0.448201 0.405791
Si Si7 0.302968 0.844500 0.231467
Si Si8 0.540108 0.252063 0.823998
O O1 0.387010 0.707019 0.841837
O O2 0.412830 0.047719 0.748717
O O3 0.439132 0.780223 0.029715
O O4 0.755271 0.947924 0.199645
O O5 0.080032 0.242725 0.337134
O O6 0.707142 0.083661 0.917382
O O7 0.764078 0.282164 0.023820
O O8 0.237496 0.498215 0.644670
O O9 0.293142 0.797289 0.457973
O O10 0.320800 0.503396 0.572312
O O11 0.629098 0.632888 0.982385
O O12 0.000000 0.500000 0.500000
O O13 0.212268 0.952624 0.137368
O O14 0.443206 0.139976 0.442188
O O15 0.000000 0.000000 0.000000
O O16 0.169327 0.628976 0.191171
O O17 0.426962 0.415882 0.588117
#
# Coordination Sequence:
#
# PCOD9022606 Si02
#       8
#     2   2   2   2   2   2   2   2
#     4   9  20  43  58  92 127 163 222 254 323 395
#     4  10  22  39  63  90 131 169 211 271 321 388
#     4  10  24  41  62 100 126 166 232 260 325 403
#     4  11  23  41  67  92 133 171 212 279 325 388
#     4  10  23  45  69  91 132 182 212 282 332 377
#     4  11  22  39  65  91 131 173 209 271 330 382
#     4  10  23  41  63  99 129 162 235 262 320 409
#     4   9  21  39  61  89 129 163 218 260 316 397
#
# _framework density 22.828872
#
# number of rings (size 3 to 8) (size 9 to 14) (size 15 to 20)
#    0.750    1.250    1.250    1.125    1.750    7.000 
#    6.750    0.000    0.000    0.000    0.000    0.000 
#    0.000    0.000    0.000    0.000    0.000    0.000 
#
# Total GULP energy -89186.769426 kJ/mol
# GULP energy per Si atom -5574.173089 kJ/mol
# Density = 2.277691 g / cm^3
# Si number density = 22.828872 Si / 1000 Ang^3
#
#
#
# Elastic Constant Matrix: (Units=GPa)
#
#
# Indices 1 2 3 4 5 6 
#
# 1 97.6169 0.8784 29.5325 -11.1320 7.5640 -1.3629
# 2 0.8784 79.5390 19.1333 -3.8201 3.7413 -12.6926
# 3 29.5325 19.1333 72.4640 -7.7223 27.3860 0.4875
# 4 -11.1320 -3.8201 -7.7223 32.8109 -0.2638 5.0149
# 5 7.5640 3.7413 27.3860 -0.2638 40.9026 -2.8751
# 6 -1.3629 -12.6926 0.4875 5.0149 -2.8751 27.7916
#
#
#
# Elastic Compliance Matrix: (Units=1/GPa)
#
#
# Indices 1 2 3 4 5 6 
#
# 1 0.012144 0.001433 -0.005579 0.002835 0.001446 0.000986
# 2 0.001433 0.014932 -0.005586 -0.000183 0.002620 0.007292
# 3 -0.005579 -0.005586 0.023468 0.003690 -0.014526 -0.005405
# 4 0.002835 -0.000183 0.003690 0.033229 -0.003209 -0.006337
# 5 0.001446 0.002620 -0.014526 -0.003209 0.034042 0.005623
# 6 0.000986 0.007292 -0.005405 -0.006337 0.005623 0.041181
#
#
# Mechanical properties :
#
#
# Convention : Reuss Voigt Hill
#
# Bulk Modulus (GPa) = 32.17331 38.74537 35.45934
# Shear Modulus (GPa) = 26.48059 33.63940 30.06000
#
# Velocity S-wave (km/s) = 3.40951 3.84284 3.63265
# Velocity P-wave (km/s) = 5.44275 6.05796 5.75858
#
# Compressibility (1/GPa) = 0.03108167
#
# Stress axis : x y z
#
# Youngs Moduli (GPa) = 82.34518 66.97120 42.61182
#
# Poissons Ratio (x) = -0.09599 0.23772
# Poissons Ratio (y) = -0.11803 0.23801
# Poissons Ratio (z) = 0.45938 0.37407
#
# Static dielectric constant tensor:
#      x y z
#    x 1.819060 0.038370 -0.018650 
#    y 0.038370 1.889330 -0.018570 
#    z -0.018650 -0.018570 1.932500 
# 
# From -- ./inp_files/538240.got.cif
#   From: 2010.05.17/outbox.cif.g08.bks.cpg/sg2_270_cif.got.tgz:538240.got - 2010.06.03 11:33:40.
