data_PCOD9022017
_publ_section_title
;
Structure prediction by ZEFSAII (Michael W. Deem and Ramdas Pophale) SiO2 
 PCOD9022017
Probable space group: P -1
;
_chemical_formula_sum "Si O2"
_cell_formula_units_Z 14
_cell_length_a 17.922059
_cell_length_b 15.330725
_cell_length_c 11.999120
_cell_angle_alpha 141.698810
_cell_angle_beta 39.519230
_cell_angle_gamma 162.330160
_cell_volume 615.299586
_symmetry_space_group_name_H-M "P -1"
_symmetry_group_IT_number 2
_symmetry_cell_setting 'triclinic'
loop_
_space_group_symop_operation_xyz
x,y,z
-x,-y,-z
loop_
_atom_site_type_symbol
_atom_site_label
_atom_site_fract_x
_atom_site_fract_y
_atom_site_fract_z
Si Si1 0.228830 0.359287 0.158565
Si Si2 0.016078 0.151070 0.714341
Si Si3 0.130854 0.681099 0.689662
Si Si4 0.426413 0.257398 0.330694
Si Si5 0.191066 0.925641 0.499264
Si Si6 0.962195 0.090905 0.967574
Si Si7 0.536334 0.906254 0.471338
O O1 0.418730 0.683428 0.288463
O O2 0.992998 0.169751 0.313616
O O3 0.258019 0.234849 0.052062
O O4 0.165337 0.287765 0.029149
O O5 0.294108 0.514770 0.754996
O O6 0.004310 0.084405 0.787778
O O7 0.000000 0.000000 0.500000
O O8 0.761852 0.963161 0.779221
O O9 0.367985 0.858307 0.651452
O O10 0.918238 0.347967 0.636903
O O11 0.223086 0.781581 0.555289
O O12 0.074665 0.782241 0.879984
O O13 0.500000 0.500000 0.500000
O O14 0.261504 0.041230 0.410599
O O15 0.436424 0.171937 0.537331
#
# Coordination Sequence:
#
# PCOD9022017 Si02
#       7
#     2   2   2   2   2   2   2
#     4  10  23  39  64 104 132 174 218 286 355 403
#     4  10  23  44  67  94 132 183 229 284 339 403
#     4  10  23  40  61 101 134 181 214 275 349 416
#     4  10  23  41  70  96 127 177 240 280 333 395
#     4  11  22  42  69  95 135 176 228 274 339 425
#     4  11  23  43  63  99 143 166 227 291 345 402
#     4  10  22  38  68  95 140 176 222 264 349 430
#
# _framework density 22.753145
#
# number of rings (size 3 to 8) (size 9 to 14) (size 15 to 20)
#    0.000    1.714    1.429    2.143   12.000    1.714 
#    0.000    1.429    0.000    0.000    0.000    0.000 
#    0.000    0.000    0.000    0.000    0.000    0.000 
#
# Total GULP energy -77954.796526 kJ/mol
# GULP energy per Si atom -5568.199752 kJ/mol
# Density = 2.270136 g / cm^3
# Si number density = 22.753145 Si / 1000 Ang^3
#
#
#
# Elastic Constant Matrix: (Units=GPa)
#
#
# Indices 1 2 3 4 5 6 
#
# 1 110.7359 52.8944 38.4782 3.1715 31.2318 -20.2963
# 2 52.8944 116.6220 23.0138 13.4863 12.2613 1.2621
# 3 38.4782 23.0138 61.7242 11.2623 -1.6226 -10.5613
# 4 3.1715 13.4863 11.2623 21.4472 -14.3636 -2.6945
# 5 31.2318 12.2613 -1.6226 -14.3636 43.9127 2.4229
# 6 -20.2963 1.2621 -10.5613 -2.6945 2.4229 39.1338
#
#
#
# Elastic Compliance Matrix: (Units=1/GPa)
#
#
# Indices 1 2 3 4 5 6 
#
# 1 0.021246 -0.005832 -0.009145 -0.003959 -0.015636 0.009435
# 2 -0.005832 0.012518 -0.000162 -0.008760 -0.002001 -0.003952
# 3 -0.009145 -0.000162 0.023608 -0.007556 0.004905 0.000810
# 4 -0.003959 -0.008760 -0.007556 0.076819 0.030131 -0.000386
# 5 -0.015636 -0.002001 0.004905 0.030131 0.044898 -0.007426
# 6 0.009435 -0.003952 0.000810 -0.000386 -0.007426 0.031226
#
#
# Mechanical properties :
#
#
# Convention : Reuss Voigt Hill
#
# Bulk Modulus (GPa) = 36.90654 57.53944 47.22299
# Shear Modulus (GPa) = 20.03002 32.54513 26.28757
#
# Velocity S-wave (km/s) = 2.97024 3.78611 3.40271
# Velocity P-wave (km/s) = 5.29327 6.66756 6.01976
#
# Compressibility (1/GPa) = 0.02709547
#
# Stress axis : x y z
#
# Youngs Moduli (GPa) = 47.06659 79.88440 42.35786
#
# Poissons Ratio (x) = 0.46591 0.38735
# Poissons Ratio (y) = 0.27451 0.00686
# Poissons Ratio (z) = 0.43041 0.01293
#
# Static dielectric constant tensor:
#      x y z
#    x 1.994750 0.150300 -0.046030 
#    y 0.150300 1.961580 -0.037210 
#    z -0.046030 -0.037210 1.887160 
# 
# From -- ./inp_files/465927.got.cif
#   From: 2010.05.17/outbox.cif.g08.bks.cpg/sg2_233_cif.got.tgz:465927.got - 2010.06.03 11:33:40.
