data_PCOD9022993
_publ_section_title
;
Structure prediction by ZEFSAII (Michael W. Deem and Ramdas Pophale) SiO2 
 PCOD9022993
Probable space group: P -1
;
_chemical_formula_sum "Si O2"
_cell_formula_units_Z 16
_cell_length_a 23.273002
_cell_length_b 17.609279
_cell_length_c 8.242887
_cell_angle_alpha 141.654328
_cell_angle_beta 40.235278
_cell_angle_gamma 163.585429
_cell_volume 591.055888
_symmetry_space_group_name_H-M "P -1"
_symmetry_group_IT_number 2
_symmetry_cell_setting 'triclinic'
loop_
_space_group_symop_operation_xyz
x,y,z
-x,-y,-z
loop_
_atom_site_type_symbol
_atom_site_label
_atom_site_fract_x
_atom_site_fract_y
_atom_site_fract_z
Si Si1 0.702866 0.955605 0.109845
Si Si2 0.228539 0.759768 0.370171
Si Si3 0.286281 0.927729 0.163548
Si Si4 0.707697 0.604679 0.368959
Si Si5 0.751418 0.645352 0.986374
Si Si6 0.880173 0.599479 0.140671
Si Si7 0.738624 0.787554 0.940732
Si Si8 0.838244 0.489557 0.397752
O O1 0.493888 0.646701 0.980374
O O2 0.641938 0.015404 0.396634
O O3 0.790412 0.994608 0.147552
O O4 0.897351 0.185826 0.962413
O O5 0.282153 0.873558 0.266890
O O6 0.000000 0.500000 0.500000
O O7 0.253275 0.648671 0.106416
O O8 0.077278 0.748359 0.315306
O O9 0.486690 0.261551 0.264566
O O10 0.264137 0.776094 0.842599
O O11 0.877937 0.720044 0.252212
O O12 0.725934 0.717260 0.668670
O O13 0.780715 0.737564 0.257736
O O14 0.824198 0.816891 0.960172
O O15 0.804532 0.564857 0.718207
O O16 0.787188 0.489304 0.333626
O O17 0.500000 0.500000 0.000000
#
# Coordination Sequence:
#
# PCOD9022993 Si02
#       8
#     2   2   2   2   2   2   2   2
#     4  10  22  42  69  90 132 178 215 271 333 383
#     4   9  20  37  66  98 129 166 217 263 333 385
#     4  10  22  39  65  95 137 181 209 274 329 393
#     4  12  25  42  67 102 132 171 224 270 327 388
#     4  11  24  42  67  99 130 171 223 274 323 391
#     4  10  22  41  66  98 134 168 215 273 328 401
#     4  10  23  46  69  92 130 176 225 270 324 386
#     4  10  22  41  63  95 137 172 219 264 337 392
#
# _framework density 27.0702
#
# number of rings (size 3 to 8) (size 9 to 14) (size 15 to 20)
#    0.000    1.750    1.250    2.250    5.250    5.000 
#    0.000    1.875    0.000    0.000    0.000    0.000 
#    0.000    0.000    0.000    0.000    0.000    0.000 
#
# Total GULP energy -89197.638122 kJ/mol
# GULP energy per Si atom -5574.852383 kJ/mol
# Density = 2.700859 g / cm^3
# Si number density = 27.070200 Si / 1000 Ang^3
#
#
#
# Elastic Constant Matrix: (Units=GPa)
#
#
# Indices 1 2 3 4 5 6 
#
# 1 95.9633 19.1206 47.4320 -3.0201 18.6608 -11.1453
# 2 19.1206 127.4018 13.5274 -1.0013 11.6189 -4.3835
# 3 47.4320 13.5274 133.0240 -3.9400 19.7436 -11.6822
# 4 -3.0201 -1.0013 -3.9400 30.7637 -3.0741 -4.7946
# 5 18.6608 11.6189 19.7436 -3.0741 36.5328 -13.6532
# 6 -11.1453 -4.3835 -11.6822 -4.7946 -13.6532 28.1413
#
#
#
# Elastic Compliance Matrix: (Units=1/GPa)
#
#
# Indices 1 2 3 4 5 6 
#
# 1 0.013585 -0.001213 -0.003995 0.000716 -0.003626 0.001896
# 2 -0.001213 0.008220 -0.000128 -0.000111 -0.002031 -0.000257
# 3 -0.003995 -0.000128 0.009458 0.000758 -0.002503 0.001239
# 4 0.000716 -0.000111 0.000758 0.034667 0.005621 0.009214
# 5 -0.003626 -0.002031 -0.002503 0.005621 0.037879 0.016544
# 6 0.001896 -0.000257 0.001239 0.009214 0.016544 0.046356
#
#
# Mechanical properties :
#
#
# Convention : Reuss Voigt Hill
#
# Bulk Modulus (GPa) = 48.56419 57.39436 52.97927
# Shear Modulus (GPa) = 29.81512 37.50817 33.66164
#
# Velocity S-wave (km/s) = 3.32234 3.72639 3.53015
# Velocity P-wave (km/s) = 5.71806 6.30577 6.01909
#
# Compressibility (1/GPa) = 0.02059131
#
# Stress axis : x y z
#
# Youngs Moduli (GPa) = 73.61320 121.64953 105.73533
#
# Poissons Ratio (x) = 0.14758 0.42237
# Poissons Ratio (y) = 0.08930 0.01351
# Poissons Ratio (z) = 0.29406 0.01555
#
# Static dielectric constant tensor:
#      x y z
#    x 2.044850 0.033860 -0.317670 
#    y 0.033860 2.164410 0.111730 
#    z -0.317670 0.111730 1.677240 
# 
# From -- ./inp_files/355034.got.cif
#   From: 2010.05.17/outbox.cif.g08.bks.cpg/sg2_178_cif.got.tgz:355034.got - 2010.06.03 11:33:40.
