data_PCOD9022760
_publ_section_title
;
Structure prediction by ZEFSAII (Michael W. Deem and Ramdas Pophale) SiO2 
 PCOD9022760
Probable space group: P -1
;
_chemical_formula_sum "Si O2"
_cell_formula_units_Z 14
_cell_length_a 5.086292
_cell_length_b 15.956624
_cell_length_c 8.692608
_cell_angle_alpha 74.806333
_cell_angle_beta 81.062524
_cell_angle_gamma 65.131329
_cell_volume 616.880061
_symmetry_space_group_name_H-M "P -1"
_symmetry_group_IT_number 2
_symmetry_cell_setting 'triclinic'
loop_
_space_group_symop_operation_xyz
x,y,z
-x,-y,-z
loop_
_atom_site_type_symbol
_atom_site_label
_atom_site_fract_x
_atom_site_fract_y
_atom_site_fract_z
Si Si1 0.618357 0.860981 0.668120
Si Si2 0.544246 0.278048 0.399326
Si Si3 0.064628 0.227714 0.588670
Si Si4 0.790836 0.151853 0.891046
Si Si5 0.520994 0.394618 0.045948
Si Si6 0.177549 0.288843 0.012912
Si Si7 0.256120 0.021968 0.142178
O O1 0.371503 0.824930 0.646747
O O2 0.771028 0.863324 0.492180
O O3 0.621109 0.943223 0.738855
O O4 0.800815 0.767867 0.800654
O O5 0.267061 0.284529 0.521668
O O6 0.499739 0.355390 0.236380
O O7 0.771679 0.281535 0.498413
O O8 0.982185 0.201586 0.772263
O O9 0.456967 0.215851 0.929865
O O10 0.790864 0.074851 0.800886
O O11 0.961812 0.098731 0.054450
O O12 0.500000 0.500000 0.000000
O O13 0.269719 0.376928 0.986096
O O14 0.840021 0.328288 0.982987
O O15 0.500000 0.000000 0.000000
#
# Coordination Sequence:
#
# PCOD9022760 Si02
#       7
#     2   2   2   2   2   2   2
#     4   9  20  37  63  84 122 169 214 258 304 355
#     4   9  20  38  62  91 122 162 210 259 312 370
#     4  10  22  39  64  87 128 176 210 253 315 384
#     4  11  26  38  62  93 131 173 214 261 326 367
#     4  11  21  38  68  99 120 155 210 267 310 377
#     4  11  21  38  64  92 126 162 208 258 315 380
#     4  11  23  39  60  92 130 169 224 273 303 360
#
# _framework density 22.694848
#
# number of rings (size 3 to 8) (size 9 to 14) (size 15 to 20)
#    0.857    0.857    2.857    1.286    4.000    0.571 
#    0.000    1.429    0.000    5.143    0.000    0.000 
#    0.000    0.000    0.000    0.000    0.000    0.000 
#
# Total GULP energy -78047.432108 kJ/mol
# GULP energy per Si atom -5574.816579 kJ/mol
# Density = 2.264319 g / cm^3
# Si number density = 22.694848 Si / 1000 Ang^3
#
#
#
# Elastic Constant Matrix: (Units=GPa)
#
#
# Indices 1 2 3 4 5 6 
#
# 1 102.4816 8.7695 20.5519 -12.9945 -28.9312 0.1347
# 2 8.7695 79.3069 39.4185 -8.9723 -13.7434 6.9589
# 3 20.5519 39.4185 78.9101 -4.8014 -33.8025 -5.9457
# 4 -12.9945 -8.9723 -4.8014 19.1727 3.5024 -9.6609
# 5 -28.9312 -13.7434 -33.8025 3.5024 36.2402 1.8228
# 6 0.1347 6.9589 -5.9457 -9.6609 1.8228 26.7674
#
#
#
# Elastic Compliance Matrix: (Units=1/GPa)
#
#
# Indices 1 2 3 4 5 6 
#
# 1 0.013935 0.000246 0.002319 0.009359 0.012330 0.002919
# 2 0.000246 0.018272 -0.010598 0.003790 -0.002847 -0.005544
# 3 0.002319 -0.010598 0.028287 0.003871 0.023398 0.008831
# 4 0.009359 0.003790 0.003871 0.073668 0.004085 0.026137
# 5 0.012330 -0.002847 0.023398 0.004085 0.057614 0.003426
# 6 0.002919 -0.005544 0.008831 0.026137 0.003426 0.049947
#
#
# Mechanical properties :
#
#
# Convention : Reuss Voigt Hill
#
# Bulk Modulus (GPa) = 22.50898 44.24201 33.37550
# Shear Modulus (GPa) = 18.34205 29.23329 23.78767
#
# Velocity S-wave (km/s) = 2.84598 3.59291 3.24103
# Velocity P-wave (km/s) = 4.55402 6.06206 5.36133
#
# Compressibility (1/GPa) = 0.04442672
#
# Stress axis : x y z
#
# Youngs Moduli (GPa) = 71.75945 54.73002 35.35246
#
# Poissons Ratio (x) = -0.01346 -0.08197
# Poissons Ratio (y) = -0.01765 0.37467
# Poissons Ratio (z) = -0.16640 0.58003
#
# Static dielectric constant tensor:
#      x y z
#    x 1.929710 0.009010 0.013750 
#    y 0.009010 1.902420 0.040980 
#    z 0.013750 0.040980 1.854670 
# 
# From -- ./inp_files/134047.got.cif
#   From: 2010.05.17/outbox.cif.g08.bks.cpg/sg2_68_cif.got.tgz:134047.got - 2010.06.03 11:33:40.
