data_PCOD9022275
_publ_section_title
;
Structure prediction by ZEFSAII (Michael W. Deem and Ramdas Pophale) SiO2 
 PCOD9022275
Probable space group: P -1
;
_chemical_formula_sum "Si O2"
_cell_formula_units_Z 16
_cell_length_a 5.989835
_cell_length_b 25.223116
_cell_length_c 6.116783
_cell_angle_alpha 48.890893
_cell_angle_beta 104.630664
_cell_angle_gamma 99.537596
_cell_volume 673.721524
_symmetry_space_group_name_H-M "P -1"
_symmetry_group_IT_number 2
_symmetry_cell_setting 'triclinic'
loop_
_space_group_symop_operation_xyz
x,y,z
-x,-y,-z
loop_
_atom_site_type_symbol
_atom_site_label
_atom_site_fract_x
_atom_site_fract_y
_atom_site_fract_z
Si Si1 0.364300 0.283091 0.183171
Si Si2 0.291814 0.796704 0.764506
Si Si3 0.217085 0.000603 0.869612
Si Si4 0.963474 0.111510 0.216844
Si Si5 0.461827 0.438814 0.834590
Si Si6 0.904011 0.322683 0.706771
Si Si7 0.180599 0.523705 0.804974
Si Si8 0.930564 0.760840 0.402003
O O1 0.487698 0.214846 0.300206
O O2 0.296837 0.267379 0.459486
O O3 0.490033 0.358563 0.989904
O O4 0.135597 0.297426 0.950252
O O5 0.230818 0.859999 0.739056
O O6 0.084868 0.791306 0.553505
O O7 0.289478 0.726984 0.104459
O O8 0.150355 0.067474 0.520340
O O9 0.160246 0.934921 0.874289
O O10 0.500000 0.000000 0.000000
O O11 0.000000 0.000000 0.000000
O O12 0.083349 0.177151 0.946511
O O13 0.500000 0.500000 0.500000
O O14 0.216089 0.459821 0.820407
O O15 0.614751 0.451855 0.050050
O O16 0.877017 0.404075 0.524211
O O17 0.940062 0.302955 0.515687
O O18 0.000000 0.500000 0.000000
#
# Coordination Sequence:
#
# PCOD9022275 Si02
#       8
#     2   2   2   2   2   2   2   2
#     4  11  23  40  65  95 138 179 233 299 367 435
#     4  10  22  44  64 102 136 185 233 294 354 436
#     4  11  26  55  83 119 161 205 251 313 371 448
#     4  10  24  49  78 114 150 197 250 298 372 447
#     4  11  24  39  61  93 125 178 235 297 366 435
#     4  10  22  39  60  89 133 174 229 292 365 429
#     4  11  23  39  61  87 123 171 232 293 359 437
#     4  10  22  44  64 102 137 185 238 296 364 434
#
# _framework density 23.748681999999999
#
# number of rings (size 3 to 8) (size 9 to 14) (size 15 to 20)
#    0.000    1.500    0.000    3.750    0.000   11.000 
#   29.250    0.000    0.000    0.000    0.000    0.000 
#    0.000    0.000    0.000    0.000    0.000    0.000 
#
# Total GULP energy -89274.486130 kJ/mol
# GULP energy per Si atom -5579.655383 kJ/mol
# Density = 2.369463 g / cm^3
# Si number density = 23.748682 Si / 1000 Ang^3
#
#
#
# Elastic Constant Matrix: (Units=GPa)
#
#
# Indices 1 2 3 4 5 6 
#
# 1 76.2911 36.1251 45.9973 9.1458 4.1031 -13.6070
# 2 36.1251 135.8589 32.3573 14.8667 14.2664 -13.5554
# 3 45.9973 32.3573 110.8179 -5.7467 7.6839 2.5300
# 4 9.1458 14.8667 -5.7467 35.7840 -4.7178 -3.5809
# 5 4.1031 14.2664 7.6839 -4.7178 37.0892 9.2875
# 6 -13.6070 -13.5554 2.5300 -3.5809 9.2875 37.9070
#
#
#
# Elastic Compliance Matrix: (Units=1/GPa)
#
#
# Indices 1 2 3 4 5 6 
#
# 1 0.021392 -0.002023 -0.008583 -0.005564 -0.002420 0.007596
# 2 -0.002023 0.009631 -0.001952 -0.004032 -0.004482 0.003565
# 3 -0.008583 -0.001952 0.013463 0.004810 0.000619 -0.004375
# 4 -0.005564 -0.004032 0.004810 0.032369 0.005820 -0.002128
# 5 -0.002420 -0.004482 0.000619 0.005820 0.032022 -0.009809
# 6 0.007596 0.003565 -0.004375 -0.002128 -0.009809 0.032876
#
#
# Mechanical properties :
#
#
# Convention : Reuss Voigt Hill
#
# Bulk Modulus (GPa) = 51.62629 61.32524 56.47576
# Shear Modulus (GPa) = 28.84737 36.05527 32.45132
#
# Velocity S-wave (km/s) = 3.48903 3.90064 3.70056
# Velocity P-wave (km/s) = 6.16578 6.79450 6.48776
#
# Compressibility (1/GPa) = 0.01936998
#
# Stress axis : x y z
#
# Youngs Moduli (GPa) = 46.74575 103.83091 74.27956
#
# Poissons Ratio (x) = 0.21008 0.63752
# Poissons Ratio (y) = 0.09458 0.14500
# Poissons Ratio (z) = 0.40121 0.20268
#
# Static dielectric constant tensor:
#      x y z
#    x 1.576470 -0.089260 -0.216080 
#    y -0.089260 1.898450 -0.060770 
#    z -0.216080 -0.060770 1.813930 
# 
# From -- ./inp_files/14320.got.cif
#   From: 2010.05.17/outbox.cif.g08.bks.cpg/sg2_8_cif.got.tgz:14320.got - 2010.06.03 11:33:40.
