data_PCOD9022336
_publ_section_title
;
Structure prediction by ZEFSAII (Michael W. Deem and Ramdas Pophale) SiO2 
 PCOD9022336
Probable space group: P -1
;
_chemical_formula_sum "Si O2"
_cell_formula_units_Z 14
_cell_length_a 5.414051
_cell_length_b 10.331950
_cell_length_c 27.866928
_cell_angle_alpha 28.969127
_cell_angle_beta 117.568057
_cell_angle_gamma 105.133423
_cell_volume 630.601408
_symmetry_space_group_name_H-M "P -1"
_symmetry_group_IT_number 2
_symmetry_cell_setting 'triclinic'
loop_
_space_group_symop_operation_xyz
x,y,z
-x,-y,-z
loop_
_atom_site_type_symbol
_atom_site_label
_atom_site_fract_x
_atom_site_fract_y
_atom_site_fract_z
Si Si1 0.393555 0.086888 0.186823
Si Si2 0.656131 0.617990 0.727158
Si Si3 0.682083 0.216192 0.941077
Si Si4 0.205930 0.712221 0.786854
Si Si5 0.116552 0.401339 0.973880
Si Si6 0.472239 0.457628 0.372678
Si Si7 0.126335 0.138769 0.508630
O O1 0.683492 0.048786 0.257399
O O2 0.113098 0.318508 0.112401
O O3 0.367836 0.785677 0.271146
O O4 0.384873 0.239325 0.085243
O O5 0.743303 0.311791 0.861793
O O6 0.619637 0.581839 0.678297
O O7 0.907117 0.754134 0.718166
O O8 0.362166 0.858531 0.642878
O O9 0.463287 0.515575 0.841792
O O10 0.949148 0.182629 0.013147
O O11 0.500000 0.000000 0.000000
O O12 0.204494 0.513013 0.896734
O O13 0.312314 0.311291 0.443073
O O14 0.832330 0.324717 0.449994
O O15 0.000000 0.000000 0.500000
#
# Coordination Sequence:
#
# PCOD9022336 Si02
#       7
#     2   2   2   2   2   2   2
#     4  10  22  40  62  90 126 172 215 265 322 383
#     4  10  23  40  65  90 130 167 207 275 333 375
#     4  10  23  36  61  97 127 166 216 263 322 397
#     4  10  22  39  61  86 130 168 207 264 329 390
#     4   9  21  40  59  87 130 172 209 260 328 389
#     4  11  25  40  73  98 126 168 230 268 316 393
#     4  10  23  44  65 100 129 169 216 276 330 377
#
# _framework density 22.201031
#
# number of rings (size 3 to 8) (size 9 to 14) (size 15 to 20)
#    0.000    2.000    0.000    2.143   12.000    1.143 
#    0.000    1.429    0.000    0.000    0.000    0.000 
#    0.000    0.000    0.000    0.000    0.000    0.000 
#
# Total GULP energy -78041.607369 kJ/mol
# GULP energy per Si atom -5574.400526 kJ/mol
# Density = 2.215050 g / cm^3
# Si number density = 22.201031 Si / 1000 Ang^3
#
#
#
# Elastic Constant Matrix: (Units=GPa)
#
#
# Indices 1 2 3 4 5 6 
#
# 1 76.7865 40.6983 19.1283 -8.1314 -3.3267 5.8856
# 2 40.6983 125.0326 59.7858 -8.1231 3.8969 17.1712
# 3 19.1283 59.7858 78.1084 -22.0192 -8.8974 6.7012
# 4 -8.1314 -8.1231 -22.0192 29.8613 6.5071 1.7251
# 5 -3.3267 3.8969 -8.8974 6.5071 40.2244 5.5174
# 6 5.8856 17.1712 6.7012 1.7251 5.5174 33.4348
#
#
#
# Elastic Compliance Matrix: (Units=1/GPa)
#
#
# Indices 1 2 3 4 5 6 
#
# 1 0.016215 -0.005891 0.001891 0.003855 0.001803 -0.000704
# 2 -0.005891 0.016213 -0.012567 -0.005490 -0.003411 -0.003925
# 3 0.001891 -0.012567 0.027136 0.016092 0.004904 -0.000957
# 4 0.003855 -0.005490 0.016092 0.045643 -0.002560 -0.003017
# 5 0.001803 -0.003411 0.004904 -0.002560 0.027379 -0.003934
# 6 -0.000704 -0.003925 -0.000957 -0.003017 -0.003934 0.033045
#
#
# Mechanical properties :
#
#
# Convention : Reuss Voigt Hill
#
# Bulk Modulus (GPa) = 37.83642 57.68360 47.76001
# Shear Modulus (GPa) = 24.08783 31.39176 27.73980
#
# Velocity S-wave (km/s) = 3.29749 3.76437 3.53864
# Velocity P-wave (km/s) = 5.61939 6.70319 6.18507
#
# Compressibility (1/GPa) = 0.02642956
#
# Stress axis : x y z
#
# Youngs Moduli (GPa) = 61.67212 61.67909 36.85184
#
# Poissons Ratio (x) = 0.36335 -0.06968
# Poissons Ratio (y) = 0.36331 0.46310
# Poissons Ratio (z) = -0.11660 0.77510
#
# Static dielectric constant tensor:
#      x y z
#    x 1.918350 0.041500 0.022470 
#    y 0.041500 1.850230 0.046460 
#    z 0.022470 0.046460 1.803930 
# 
# From -- ./inp_files/40363.got.cif
#   From: 2010.05.17/outbox.cif.g08.bks.cpg/sg2_21_cif.got.tgz:40363.got - 2010.06.03 11:33:40.
