data_PCOD9022786
_publ_section_title
;
Structure prediction by ZEFSAII (Michael W. Deem and Ramdas Pophale) SiO2 
 PCOD9022786
Probable space group: P -1
;
_chemical_formula_sum "Si O2"
_cell_formula_units_Z 14
_cell_length_a 12.841993
_cell_length_b 22.383705
_cell_length_c 25.763023
_cell_angle_alpha 14.097124
_cell_angle_beta 162.348406
_cell_angle_gamma 158.667384
_cell_volume 544.298410
_symmetry_space_group_name_H-M "P -1"
_symmetry_group_IT_number 2
_symmetry_cell_setting 'triclinic'
loop_
_space_group_symop_operation_xyz
x,y,z
-x,-y,-z
loop_
_atom_site_type_symbol
_atom_site_label
_atom_site_fract_x
_atom_site_fract_y
_atom_site_fract_z
Si Si1 0.932847 0.602783 0.642908
Si Si2 0.631778 0.740009 0.720412
Si Si3 0.684078 0.552721 0.457410
Si Si4 0.688941 0.787883 0.823725
Si Si5 0.408435 0.760357 0.049660
Si Si6 0.626329 0.357340 0.429146
Si Si7 0.991047 0.064317 0.002278
O O1 0.782724 0.680919 0.451150
O O2 0.674019 0.611264 0.559834
O O3 0.323695 0.713770 0.739939
O O4 0.994654 0.310141 0.913934
O O5 0.685511 0.663882 0.869521
O O6 0.497519 0.594310 0.728421
O O7 0.332679 0.923197 0.433586
O O8 0.025506 0.840797 0.806605
O O9 0.596730 0.725785 0.223120
O O10 0.960292 0.356819 0.743428
O O11 0.376961 0.482373 0.244698
O O12 0.656076 0.928917 0.986862
O O13 0.000000 0.500000 0.500000
O O14 0.688161 0.069584 0.708395
O O15 0.000000 0.000000 0.000000
#
# Coordination Sequence:
#
# PCOD9022786 Si02
#       7
#     2   2   2   2   2   2   2
#     4  10  22  40  61  94 125 170 210 262 316 374
#     4  11  22  41  63  95 126 167 215 260 320 386
#     4  11  22  41  64  93 133 164 212 264 314 381
#     4  10  22  39  64  91 129 167 210 264 316 377
#     4  11  23  41  65  93 130 170 210 263 326 375
#     4  10  23  41  66  92 124 169 211 264 320 378
#     4  11  23  40  64  92 126 164 215 263 312 382
#
# _framework density 25.721184000000001
#
# number of rings (size 3 to 8) (size 9 to 14) (size 15 to 20)
#    0.000    1.429    2.857    2.143    4.000    0.000 
#    0.000    2.857    0.000    0.000    0.000    0.000 
#    0.000    0.000    0.000    0.000    0.000    0.000 
#
# Total GULP energy -78203.521523 kJ/mol
# GULP energy per Si atom -5585.965823 kJ/mol
# Density = 2.566264 g / cm^3
# Si number density = 25.721184 Si / 1000 Ang^3
#
#
#
# Elastic Constant Matrix: (Units=GPa)
#
#
# Indices 1 2 3 4 5 6 
#
# 1 169.2496 37.1818 33.2588 24.5089 -23.1523 1.8912
# 2 37.1818 61.6870 17.6757 16.1155 -7.7391 -12.3399
# 3 33.2588 17.6757 141.8323 6.2919 11.5569 -6.5752
# 4 24.5089 16.1155 6.2919 29.3964 -4.3399 -2.6861
# 5 -23.1523 -7.7391 11.5569 -4.3399 38.7319 6.3692
# 6 1.8912 -12.3399 -6.5752 -2.6861 6.3692 44.0670
#
#
#
# Elastic Compliance Matrix: (Units=1/GPa)
#
#
# Indices 1 2 3 4 5 6 
#
# 1 0.008286 -0.003250 -0.001855 -0.004250 0.004791 -0.002494
# 2 -0.003250 0.021989 -0.001441 -0.008387 0.001050 0.005419
# 3 -0.001855 -0.001441 0.008054 0.000153 -0.004025 0.001469
# 4 -0.004250 -0.008387 0.000153 0.042220 0.000408 0.000371
# 5 0.004791 0.001050 -0.004025 0.000408 0.030955 -0.004961
# 6 -0.002494 0.005419 0.001469 0.000371 -0.004961 0.025276
#
#
# Mechanical properties :
#
#
# Convention : Reuss Voigt Hill
#
# Bulk Modulus (GPa) = 39.62380 61.00018 50.31199
# Shear Modulus (GPa) = 31.58858 41.41591 36.50225
#
# Velocity S-wave (km/s) = 3.50825 4.01707 3.77125
# Velocity P-wave (km/s) = 5.64349 6.72928 6.21016
#
# Compressibility (1/GPa) = 0.02523736
#
# Stress axis : x y z
#
# Youngs Moduli (GPa) = 120.68979 45.47648 124.15493
#
# Poissons Ratio (x) = 0.14781 0.23035
# Poissons Ratio (y) = 0.39226 0.17885
# Poissons Ratio (z) = 0.22393 0.06551
#
# Static dielectric constant tensor:
#      x y z
#    x 2.037860 0.038290 -0.036550 
#    y 0.038290 2.149970 -0.143910 
#    z -0.036550 -0.143910 2.113660 
# 
# From -- ./inp_files/390395.got.cif
#   From: 2010.05.17/outbox.cif.g08.bks.cpg/sg2_196_cif.got.tgz:390395.got - 2010.06.03 11:33:40.
