data_PCOD9022226
_publ_section_title
;
Structure prediction by ZEFSAII (Michael W. Deem and Ramdas Pophale) SiO2 
 PCOD9022226
Probable space group: P -1
;
_chemical_formula_sum "Si O2"
_cell_formula_units_Z 16
_cell_length_a 9.726927
_cell_length_b 5.290523
_cell_length_c 15.735088
_cell_angle_alpha 102.226869
_cell_angle_beta 76.564062
_cell_angle_gamma 105.808989
_cell_volume 748.185229
_symmetry_space_group_name_H-M "P -1"
_symmetry_group_IT_number 2
_symmetry_cell_setting 'triclinic'
loop_
_space_group_symop_operation_xyz
x,y,z
-x,-y,-z
loop_
_atom_site_type_symbol
_atom_site_label
_atom_site_fract_x
_atom_site_fract_y
_atom_site_fract_z
Si Si1 0.409300 0.195652 0.486384
Si Si2 0.088231 0.775819 0.965817
Si Si3 0.756965 0.532909 0.807913
Si Si4 0.536232 0.067527 0.706346
Si Si5 0.517573 0.817532 0.855179
Si Si6 0.748075 0.839425 0.328923
Si Si7 0.099651 0.641806 0.759231
Si Si8 0.651200 0.296824 0.978808
O O1 0.500000 0.500000 0.500000
O O2 0.272537 0.162507 0.566217
O O3 0.500000 0.000000 0.500000
O O4 0.393705 0.092890 0.384855
O O5 0.122192 0.737111 0.860199
O O6 0.234343 0.847185 0.004836
O O7 0.000000 0.500000 0.000000
O O8 0.000000 0.000000 0.000000
O O9 0.659379 0.284745 0.752215
O O10 0.676939 0.766479 0.814704
O O11 0.736196 0.496134 0.910279
O O12 0.925202 0.572571 0.765912
O O13 0.414746 0.201735 0.691175
O O14 0.457608 0.859595 0.774817
O O15 0.537162 0.091460 0.923390
O O16 0.425776 0.607656 0.920973
O O17 0.831281 0.612461 0.278515
O O18 0.830285 0.122760 0.298929
#
# Coordination Sequence:
#
# PCOD9022226 Si02
#       8
#     2   2   2   2   2   2   2   2
#     4  10  22  43  73 103 136 167 222 285 344 399
#     4  12  24  40  64  91 132 178 230 262 333 393
#     4  11  24  41  65  93 139 180 222 273 350 394
#     4  10  24  41  71 100 126 177 225 284 341 404
#     4  10  22  40  64  90 133 166 234 278 335 391
#     4  11  25  45  70 103 133 174 229 280 339 406
#     4  12  26  44  68  99 143 181 222 279 340 405
#     4  10  22  39  59  94 122 181 228 280 322 394
#
# _framework density 21.385079000000001
#
# number of rings (size 3 to 8) (size 9 to 14) (size 15 to 20)
#    0.000    1.250    1.250    4.125   10.500    0.000 
#    0.000    1.250    0.000    0.000    0.000    0.000 
#    0.000    0.000    0.000    0.000    0.000    0.000 
#
# Total GULP energy -89370.389946 kJ/mol
# GULP energy per Si atom -5585.649372 kJ/mol
# Density = 2.133641 g / cm^3
# Si number density = 21.385079 Si / 1000 Ang^3
#
#
#
# Elastic Constant Matrix: (Units=GPa)
#
#
# Indices 1 2 3 4 5 6 
#
# 1 109.3282 41.0913 39.8288 -2.3369 -13.4248 -12.0573
# 2 41.0913 115.2438 44.7897 -7.4912 -9.4440 -13.4908
# 3 39.8288 44.7897 163.7546 -7.4139 -7.6572 -3.6560
# 4 -2.3369 -7.4912 -7.4139 30.4975 0.5290 -11.9805
# 5 -13.4248 -9.4440 -7.6572 0.5290 29.7645 6.9367
# 6 -12.0573 -13.4908 -3.6560 -11.9805 6.9367 39.9564
#
#
#
# Elastic Compliance Matrix: (Units=1/GPa)
#
#
# Indices 1 2 3 4 5 6 
#
# 1 0.011514 -0.002886 -0.001793 0.000416 0.003372 0.001875
# 2 -0.002886 0.011235 -0.002096 0.003436 0.000819 0.003619
# 3 -0.001793 -0.002096 0.007170 0.000929 0.000446 -0.000391
# 4 0.000416 0.003436 0.000929 0.039254 -0.002338 0.013546
# 5 0.003372 0.000819 0.000446 -0.002338 0.036878 -0.005768
# 6 0.001875 0.003619 -0.000391 0.013546 -0.005768 0.031842
#
#
# Mechanical properties :
#
#
# Convention : Reuss Voigt Hill
#
# Bulk Modulus (GPa) = 61.08878 71.08293 66.08585
# Shear Modulus (GPa) = 31.86723 37.55146 34.70934
#
# Velocity S-wave (km/s) = 3.86445 4.19497 4.03310
# Velocity P-wave (km/s) = 6.96707 7.53494 7.25656
#
# Compressibility (1/GPa) = 0.01636962
#
# Stress axis : x y z
#
# Youngs Moduli (GPa) = 86.84805 89.00616 139.46355
#
# Poissons Ratio (x) = 0.25686 0.25004
# Poissons Ratio (y) = 0.25063 0.29237
# Poissons Ratio (z) = 0.15571 0.18659
#
# Static dielectric constant tensor:
#      x y z
#    x 1.787260 0.031510 -0.015400 
#    y 0.031510 1.812500 -0.035390 
#    z -0.015400 -0.035390 1.812190 
# 
# From -- ./inp_files/134918.got.cif
#   From: 2010.05.17/outbox.cif.g08.bks.cpg/sg2_68_cif.got.tgz:134918.got - 2010.06.03 11:33:40.
