data_PCOD9022282
_publ_section_title
;
Structure prediction by ZEFSAII (Michael W. Deem and Ramdas Pophale) SiO2 
 PCOD9022282
Probable space group: P -1
;
_chemical_formula_sum "Si O2"
_cell_formula_units_Z 16
_cell_length_a 18.529612
_cell_length_b 8.482663
_cell_length_c 8.445146
_cell_angle_alpha 125.286276
_cell_angle_beta 89.584420
_cell_angle_gamma 132.566722
_cell_volume 614.550152
_symmetry_space_group_name_H-M "P -1"
_symmetry_group_IT_number 2
_symmetry_cell_setting 'triclinic'
loop_
_space_group_symop_operation_xyz
x,y,z
-x,-y,-z
loop_
_atom_site_type_symbol
_atom_site_label
_atom_site_fract_x
_atom_site_fract_y
_atom_site_fract_z
Si Si1 0.385613 0.721358 0.218072
Si Si2 0.732605 0.538386 0.399069
Si Si3 0.018220 0.861793 0.044375
Si Si4 0.638834 0.894228 0.672024
Si Si5 0.897736 0.826065 0.272582
Si Si6 0.414809 0.500301 0.793993
Si Si7 0.863571 0.054939 0.170201
Si Si8 0.306199 0.982851 0.905755
O O1 0.256215 0.359722 0.096260
O O2 0.500000 0.000000 0.500000
O O3 0.370990 0.903090 0.252392
O O4 0.408157 0.606714 0.017705
O O5 0.850968 0.861400 0.693171
O O6 0.781149 0.626290 0.268664
O O7 0.605819 0.386000 0.283588
O O8 0.706553 0.264258 0.292119
O O9 0.038384 0.726541 0.849485
O O10 0.907555 0.669177 0.058759
O O11 0.000000 0.000000 0.000000
O O12 0.500000 0.500000 0.500000
O O13 0.679760 0.866340 0.497066
O O14 0.718598 0.048102 0.922744
O O15 0.931576 0.096197 0.336191
O O16 0.000000 0.000000 0.500000
O O17 0.543098 0.657554 0.904349
O O18 0.790521 0.090951 0.222346
#
# Coordination Sequence:
#
# PCOD9022282 Si02
#       8
#     2   2   2   2   2   2   2   2
#     4  12  25  40  61  94 140 182 225 269 319 399
#     4  11  20  40  68  94 129 181 222 271 337 401
#     4   9  21  40  67  91 121 170 220 282 348 382
#     4  10  22  39  60  90 130 179 229 264 309 388
#     4   9  19  41  67  89 119 166 225 279 338 394
#     4  11  23  40  64  93 139 186 215 263 330 386
#     4  11  22  42  62  96 135 168 220 279 332 397
#     4  11  23  37  63  99 137 171 228 267 327 412
#
# _framework density 26.035302999999999
#
# number of rings (size 3 to 8) (size 9 to 14) (size 15 to 20)
#    0.000    1.500    2.500    2.625    3.500    2.000 
#    0.000    6.250    0.000    6.000    0.000    0.000 
#    0.000    0.000    0.000    0.000    0.000    0.000 
#
# Total GULP energy -89173.608057 kJ/mol
# GULP energy per Si atom -5573.350504 kJ/mol
# Density = 2.597605 g / cm^3
# Si number density = 26.035303 Si / 1000 Ang^3
#
#
#
# Elastic Constant Matrix: (Units=GPa)
#
#
# Indices 1 2 3 4 5 6 
#
# 1 165.1196 29.0481 48.6606 -24.8394 3.7936 -13.0069
# 2 29.0481 62.7469 21.5279 -12.3812 -3.7201 6.3001
# 3 48.6606 21.5279 131.5408 -12.9689 -1.0830 -7.3541
# 4 -24.8394 -12.3812 -12.9689 29.7622 -4.2588 -3.1499
# 5 3.7936 -3.7201 -1.0830 -4.2588 48.9445 -3.9447
# 6 -13.0069 6.3001 -7.3541 -3.1499 -3.9447 39.7161
#
#
#
# Elastic Compliance Matrix: (Units=1/GPa)
#
#
# Indices 1 2 3 4 5 6 
#
# 1 0.008065 -0.002364 -0.001912 0.005217 -0.000146 0.003061
# 2 -0.002364 0.019156 -0.001953 0.005012 0.001742 -0.003604
# 3 -0.001912 -0.001953 0.008884 0.001689 0.000465 0.001509
# 4 0.005217 0.005012 0.001689 0.041880 0.004057 0.004951
# 5 -0.000146 0.001742 0.000465 0.004057 0.021114 0.002181
# 6 0.003061 -0.003604 0.001509 0.004951 0.002181 0.027642
#
#
# Mechanical properties :
#
#
# Convention : Reuss Voigt Hill
#
# Bulk Modulus (GPa) = 42.29179 61.98673 52.13926
# Shear Modulus (GPa) = 33.99474 41.02928 37.51201
#
# Velocity S-wave (km/s) = 3.61739 3.97408 3.79992
# Velocity P-wave (km/s) = 5.80746 6.70210 6.27076
#
# Compressibility (1/GPa) = 0.02364525
#
# Stress axis : x y z
#
# Youngs Moduli (GPa) = 123.99203 52.20326 112.56232
#
# Poissons Ratio (x) = 0.12342 0.21524
# Poissons Ratio (y) = 0.29314 0.21989
# Poissons Ratio (z) = 0.23710 0.10198
#
# Static dielectric constant tensor:
#      x y z
#    x 1.758340 0.006070 0.048840 
#    y 0.006070 2.159490 0.013450 
#    z 0.048840 0.013450 2.106510 
# 
# From -- ./inp_files/328058.got.cif
#   From: 2010.05.17/outbox.cif.g08.bks.cpg/sg2_165_cif.got.tgz:328058.got - 2010.06.03 11:33:40.
