data_PCOD9022460
_publ_section_title
;
Structure prediction by ZEFSAII (Michael W. Deem and Ramdas Pophale) SiO2 
 PCOD9022460
Probable space group: P -1
;
_chemical_formula_sum "Si O2"
_cell_formula_units_Z 16
_cell_length_a 7.078650
_cell_length_b 23.585542
_cell_length_c 11.574601
_cell_angle_alpha 30.965818
_cell_angle_beta 55.170457
_cell_angle_gamma 66.359000
_cell_volume 797.947738
_symmetry_space_group_name_H-M "P -1"
_symmetry_group_IT_number 2
_symmetry_cell_setting 'triclinic'
loop_
_space_group_symop_operation_xyz
x,y,z
-x,-y,-z
loop_
_atom_site_type_symbol
_atom_site_label
_atom_site_fract_x
_atom_site_fract_y
_atom_site_fract_z
Si Si1 0.160216 0.212706 0.802060
Si Si2 0.381894 0.774636 0.734921
Si Si3 0.988339 0.412646 0.385404
Si Si4 0.465111 0.273575 0.816162
Si Si5 0.911137 0.649676 0.024266
Si Si6 0.808375 0.886583 0.271760
Si Si7 0.357849 0.880036 0.800523
Si Si8 0.205119 0.337102 0.226663
O O1 0.093300 0.328756 0.578330
O O2 0.322698 0.236448 0.814576
O O3 0.268409 0.161250 0.744574
O O4 0.914643 0.126379 0.065160
O O5 0.569304 0.883301 0.431876
O O6 0.353987 0.793048 0.847732
O O7 0.522749 0.674261 0.840027
O O8 0.133284 0.748851 0.804194
O O9 0.715437 0.354642 0.560805
O O10 0.129173 0.419410 0.202984
O O11 0.988171 0.533102 0.229117
O O12 0.307307 0.332884 0.852738
O O13 0.521362 0.167205 0.051224
O O14 0.853336 0.645883 0.914924
O O15 0.918845 0.789238 0.465673
O O16 0.000000 0.000000 0.000000
O O17 0.500000 0.000000 0.500000
#
# Coordination Sequence:
#
# PCOD9022460 Si02
#       8
#     2   2   2   2   2   2   2   2
#     4  10  22  40  59  92 122 157 208 241 297 373
#     4  10  22  39  62  88 123 156 202 253 295 359
#     4  10  24  39  63  87 123 168 196 254 304 348
#     4  11  23  41  62  91 124 157 207 249 297 373
#     4  12  22  40  62  91 122 160 207 248 305 357
#     4   9  19  41  62  83 122 159 192 255 301 343
#     4  11  22  42  64  86 124 162 197 256 306 349
#     4   9  22  40  60  88 121 157 208 250 292 364
#
# _framework density 20.051438000000001
#
# number of rings (size 3 to 8) (size 9 to 14) (size 15 to 20)
#    0.750    1.000    2.500    1.500    1.750    2.500 
#    2.250    0.625    0.000    0.000    0.000    0.000 
#    0.000    0.000    0.000    0.000    0.000    0.000 
#
# Total GULP energy -89266.723930 kJ/mol
# GULP energy per Si atom -5579.170246 kJ/mol
# Density = 2.000580 g / cm^3
# Si number density = 20.051438 Si / 1000 Ang^3
#
#
#
# Elastic Constant Matrix: (Units=GPa)
#
#
# Indices 1 2 3 4 5 6 
#
# 1 91.0154 24.8476 6.0415 16.6567 -2.4144 16.5083
# 2 24.8476 64.6773 -1.3254 17.8386 1.2538 5.9075
# 3 6.0415 -1.3254 28.8655 1.5949 3.3140 10.5814
# 4 16.6567 17.8386 1.5949 30.9029 0.4293 3.2014
# 5 -2.4144 1.2538 3.3140 0.4293 11.8905 9.1008
# 6 16.5083 5.9075 10.5814 3.2014 9.1008 26.8220
#
#
#
# Elastic Compliance Matrix: (Units=1/GPa)
#
#
# Indices 1 2 3 4 5 6 
#
# 1 0.015607 -0.003671 -0.000025 -0.005158 0.013513 -0.012757
# 2 -0.003671 0.019682 0.002945 -0.009363 -0.002270 -0.001349
# 3 -0.000025 0.002945 0.040979 -0.002057 0.001361 -0.017016
# 4 -0.005158 -0.009363 -0.002057 0.040471 -0.002540 0.002080
# 5 0.013513 -0.002270 0.001361 -0.002540 0.125567 -0.050656
# 6 -0.012757 -0.001349 -0.017016 0.002080 -0.050656 0.069084
#
#
# Mechanical properties :
#
#
# Convention : Reuss Voigt Hill
#
# Bulk Modulus (GPa) = 13.37514 27.07619 20.22566
# Shear Modulus (GPa) = 14.80108 24.25605 19.52856
#
# Velocity S-wave (km/s) = 2.71985 3.48183 3.12416
# Velocity P-wave (km/s) = 4.06796 5.44949 4.80860
#
# Compressibility (1/GPa) = 0.07476560
#
# Stress axis : x y z
#
# Youngs Moduli (GPa) = 64.07293 50.80879 24.40284
#
# Poissons Ratio (x) = 0.18649 0.00061
# Poissons Ratio (y) = 0.23518 -0.07186
# Poissons Ratio (z) = 0.00161 -0.14961
#
# Static dielectric constant tensor:
#      x y z
#    x 1.666780 -0.016270 0.007860 
#    y -0.016270 1.721860 -0.004960 
#    z 0.007860 -0.004960 1.725450 
# 
# From -- ./inp_files/370953.got.cif
#   From: 2010.05.17/outbox.cif.g08.bks.cpg/sg2_186_cif.got.tgz:370953.got - 2010.06.03 11:33:40.
