data_PCOD9022292
_publ_section_title
;
Structure prediction by ZEFSAII (Michael W. Deem and Ramdas Pophale) SiO2 
 PCOD9022292
Probable space group: P -1
;
_chemical_formula_sum "Si O2"
_cell_formula_units_Z 14
_cell_length_a 7.715302
_cell_length_b 7.217541
_cell_length_c 18.755859
_cell_angle_alpha 39.013697
_cell_angle_beta 105.867421
_cell_angle_gamma 116.345930
_cell_volume 584.443866
_symmetry_space_group_name_H-M "P -1"
_symmetry_group_IT_number 2
_symmetry_cell_setting 'triclinic'
loop_
_space_group_symop_operation_xyz
x,y,z
-x,-y,-z
loop_
_atom_site_type_symbol
_atom_site_label
_atom_site_fract_x
_atom_site_fract_y
_atom_site_fract_z
Si Si1 0.929140 0.649610 0.131628
Si Si2 0.742899 0.525905 0.754808
Si Si3 0.695738 0.497520 0.927355
Si Si4 0.798882 0.194883 0.569238
Si Si5 0.466017 0.848753 0.750444
Si Si6 0.871408 0.166261 0.136339
Si Si7 0.375882 0.394750 0.652748
O O1 0.722599 0.459719 0.205079
O O2 0.898625 0.405920 0.134131
O O3 0.112616 0.645193 0.197807
O O4 0.000000 0.000000 0.000000
O O5 0.688140 0.443457 0.856992
O O6 0.557330 0.466118 0.703555
O O7 0.859753 0.902696 0.643546
O O8 0.547457 0.670394 0.873139
O O9 0.915719 0.726789 0.904982
O O10 0.698222 0.188623 0.061007
O O11 0.654716 0.305048 0.472539
O O12 0.000000 0.500000 0.500000
O O13 0.657388 0.033321 0.668904
O O14 0.399271 0.135327 0.678185
O O15 0.815752 0.814425 0.263251
#
# Coordination Sequence:
#
# PCOD9022292 Si02
#       7
#     2   2   2   2   2   2   2
#     4  10  22  39  60  91 132 163 199 255 303 363
#     4  10  23  40  59  93 123 159 209 252 307 362
#     4   9  19  39  57  86 125 160 204 251 297 372
#     4  11  22  45  67  84 122 165 206 255 306 366
#     4  10  22  39  63  91 119 161 210 242 315 364
#     4   9  20  38  60  87 124 163 212 237 315 370
#     4  11  22  37  65  91 123 160 204 258 305 358
#
# _framework density 23.954398000000001
#
# number of rings (size 3 to 8) (size 9 to 14) (size 15 to 20)
#    0.000    2.000    0.000    4.286    4.000    1.714 
#   12.857    5.714    0.000    0.000    0.000    0.000 
#    0.000    0.000    0.000    0.000    0.000    0.000 
#
# Total GULP energy -77977.881139 kJ/mol
# GULP energy per Si atom -5569.848653 kJ/mol
# Density = 2.389988 g / cm^3
# Si number density = 23.954398 Si / 1000 Ang^3
#
#
#
# Elastic Constant Matrix: (Units=GPa)
#
#
# Indices 1 2 3 4 5 6 
#
# 1 80.0288 12.5611 9.5868 1.7288 10.4679 18.1039
# 2 12.5611 65.9256 25.1639 0.0609 -0.2482 16.1277
# 3 9.5868 25.1639 111.6100 1.1117 20.1687 3.4169
# 4 1.7288 0.0609 1.1117 42.0850 18.1761 9.1205
# 5 10.4679 -0.2482 20.1687 18.1761 51.2319 1.2365
# 6 18.1039 16.1277 3.4169 9.1205 1.2365 27.4516
#
#
#
# Elastic Compliance Matrix: (Units=1/GPa)
#
#
# Indices 1 2 3 4 5 6 
#
# 1 0.015515 -0.000162 -0.000260 0.003523 -0.004051 -0.011093
# 2 -0.000162 0.019717 -0.004349 0.002014 0.001408 -0.011668
# 3 -0.000260 -0.004349 0.010780 0.001569 -0.004795 0.001079
# 4 0.003523 0.002014 0.001569 0.031861 -0.012300 -0.013733
# 5 -0.004051 0.001408 -0.004795 -0.012300 0.026476 0.005335
# 6 -0.011093 -0.011668 0.001079 -0.013733 0.005335 0.054786
#
#
# Mechanical properties :
#
#
# Convention : Reuss Voigt Hill
#
# Bulk Modulus (GPa) = 27.41831 39.13200 33.27516
# Shear Modulus (GPa) = 27.64963 38.17054 32.91008
#
# Velocity S-wave (km/s) = 3.40113 3.99616 3.71059
# Velocity P-wave (km/s) = 5.18599 6.13709 5.68147
#
# Compressibility (1/GPa) = 0.03647198
#
# Stress axis : x y z
#
# Youngs Moduli (GPa) = 64.45320 50.71681 92.76129
#
# Poissons Ratio (x) = 0.00821 0.02408
# Poissons Ratio (y) = 0.01044 0.40341
# Poissons Ratio (z) = 0.01673 0.22056
#
# Static dielectric constant tensor:
#      x y z
#    x 2.077150 -0.047680 -0.030970 
#    y -0.047680 2.011160 0.001900 
#    z -0.030970 0.001900 1.906060 
# 
# From -- ./inp_files/236646.got.cif
#   From: 2010.05.17/outbox.cif.g08.bks.cpg/sg2_119_cif.got.tgz:236646.got - 2010.06.03 11:33:40.
