data_PCOD9022114
_publ_section_title
;
Structure prediction by ZEFSAII (Michael W. Deem and Ramdas Pophale) SiO2 
 PCOD9022114
Probable space group: P -1
;
_chemical_formula_sum "Si O2"
_cell_formula_units_Z 16
_cell_length_a 11.867665
_cell_length_b 18.762001
_cell_length_c 10.663891
_cell_angle_alpha 38.213902
_cell_angle_beta 61.643264
_cell_angle_gamma 35.912168
_cell_volume 771.602145
_symmetry_space_group_name_H-M "P -1"
_symmetry_group_IT_number 2
_symmetry_cell_setting 'triclinic'
loop_
_space_group_symop_operation_xyz
x,y,z
-x,-y,-z
loop_
_atom_site_type_symbol
_atom_site_label
_atom_site_fract_x
_atom_site_fract_y
_atom_site_fract_z
Si Si1 0.365639 0.280207 0.468181
Si Si2 0.683510 0.505675 0.622463
Si Si3 0.029690 0.400196 0.916168
Si Si4 0.612703 0.918209 0.686816
Si Si5 0.486245 0.591730 0.259220
Si Si6 0.299107 0.967844 0.900224
Si Si7 0.113200 0.605287 0.590684
Si Si8 0.166323 0.220110 0.830015
O O1 0.457539 0.308691 0.474443
O O2 0.231524 0.282676 0.620802
O O3 0.209240 0.450371 0.212126
O O4 0.535649 0.084866 0.572445
O O5 0.609024 0.427525 0.766234
O O6 0.720821 0.522723 0.437887
O O7 0.920638 0.358244 0.754620
O O8 0.029776 0.537385 0.744782
O O9 0.180281 0.250159 0.925465
O O10 0.133616 0.272882 0.161925
O O11 0.500000 0.000000 0.500000
O O12 0.507479 0.881600 0.855778
O O13 0.500000 0.500000 0.500000
O O14 0.730597 0.459032 0.295305
O O15 0.331400 0.810628 0.070672
O O16 0.284736 0.026033 0.970510
O O17 0.085783 0.171533 0.659592
#
# Coordination Sequence:
#
# PCOD9022114 Si02
#       8
#     2   2   2   2   2   2   2   2
#     4  10  18  35  53  78 108 135 165 220 265 311
#     4   9  16  30  50  75 112 133 168 200 246 317
#     4  11  17  32  55  77 106 137 166 206 270 316
#     4  11  24  35  52  80 104 134 181 222 257 308
#     4  10  21  30  48  77 111 146 170 196 248 321
#     4  10  20  35  51  75 112 137 167 218 257 300
#     4  10  17  31  50  78 107 141 168 196 260 317
#     4   9  17  29  56  80 107 137 165 207 270 320
#
# _framework density 20.736073999999999
#
# number of rings (size 3 to 8) (size 9 to 14) (size 15 to 20)
#    0.000    2.000    6.250    0.750    0.000    9.000 
#    0.000    1.250    0.000    0.750    0.000    4.375 
#    0.000    0.000    0.000    0.000    0.000    0.000 
#
# Total GULP energy -89094.948490 kJ/mol
# GULP energy per Si atom -5568.434281 kJ/mol
# Density = 2.068888 g / cm^3
# Si number density = 20.736074 Si / 1000 Ang^3
#
#
#
# Elastic Constant Matrix: (Units=GPa)
#
#
# Indices 1 2 3 4 5 6 
#
# 1 117.6082 26.9819 32.4410 -15.7785 -12.2717 34.6069
# 2 26.9819 44.4972 27.0019 -13.0939 -10.2962 21.9149
# 3 32.4410 27.0019 108.7158 -25.8114 7.1709 26.0784
# 4 -15.7785 -13.0939 -25.8114 21.9872 12.1059 -6.7191
# 5 -12.2717 -10.2962 7.1709 12.1059 34.0079 -12.5865
# 6 34.6069 21.9149 26.0784 -6.7191 -12.5865 27.0906
#
#
#
# Elastic Compliance Matrix: (Units=1/GPa)
#
#
# Indices 1 2 3 4 5 6 
#
# 1 0.016921 0.005320 0.008871 0.023435 -0.015819 -0.035996
# 2 0.005320 0.045841 0.009649 0.036676 -0.018843 -0.052826
# 3 0.008871 0.009649 0.035876 0.060894 -0.045159 -0.059552
# 4 0.023435 0.036676 0.060894 0.173549 -0.100095 -0.121685
# 5 -0.015819 -0.018843 -0.045159 -0.100095 0.100438 0.100761
# 6 -0.035996 -0.052826 -0.059552 -0.121685 0.100761 0.199592
#
#
# Mechanical properties :
#
#
# Convention : Reuss Voigt Hill
#
# Bulk Modulus (GPa) = 6.83436 49.29676 28.06556
# Shear Modulus (GPa) = 8.72132 28.91023 18.81577
#
# Velocity S-wave (km/s) = 2.05305 3.73795 3.01556
# Velocity P-wave (km/s) = 2.98714 6.51573 5.06842
#
# Compressibility (1/GPa) = 0.14631951
#
# Stress axis : x y z
#
# Youngs Moduli (GPa) = 59.09935 21.81438 27.87387
#
# Poissons Ratio (x) = -0.11606 -0.24728
# Poissons Ratio (y) = -0.31442 -0.26896
# Poissons Ratio (z) = -0.52429 -0.21049
#
# Static dielectric constant tensor:
#      x y z
#    x 1.814260 0.039170 0.059460 
#    y 0.039170 1.837990 -0.008630 
#    z 0.059460 -0.008630 1.836390 
# 
# From -- ./inp_files/423612.got.cif
#   From: 2010.05.17/outbox.cif.g08.bks.cpg/sg2_212_cif.got.tgz:423612.got - 2010.06.03 11:33:40.
