data_PCOD9022752
_publ_section_title
;
Structure prediction by ZEFSAII (Michael W. Deem and Ramdas Pophale) SiO2 
 PCOD9022752
Probable space group: P -1
;
_chemical_formula_sum "Si O2"
_cell_formula_units_Z 16
_cell_length_a 17.744620
_cell_length_b 14.079742
_cell_length_c 22.701562
_cell_angle_alpha 158.970939
_cell_angle_beta 158.440619
_cell_angle_gamma 31.757010
_cell_volume 741.035866
_symmetry_space_group_name_H-M "P -1"
_symmetry_group_IT_number 2
_symmetry_cell_setting 'triclinic'
loop_
_space_group_symop_operation_xyz
x,y,z
-x,-y,-z
loop_
_atom_site_type_symbol
_atom_site_label
_atom_site_fract_x
_atom_site_fract_y
_atom_site_fract_z
Si Si1 0.213640 0.989245 0.618804
Si Si2 0.097405 0.930383 0.969665
Si Si3 0.250366 0.913380 0.272617
Si Si4 0.624749 0.528827 0.545990
Si Si5 0.395517 0.705158 0.732915
Si Si6 0.097512 0.330897 0.628566
Si Si7 0.551100 0.548606 0.877600
Si Si8 0.156732 0.286955 0.510254
O O1 0.214200 0.149783 0.651342
O O2 0.222634 0.678863 0.445629
O O3 0.384505 0.151845 0.879305
O O4 0.000000 0.000000 0.500000
O O5 0.268795 0.168989 0.211313
O O6 0.897128 0.922426 0.777680
O O7 0.177585 0.647167 0.871199
O O8 0.000000 0.000000 0.000000
O O9 0.250395 0.612778 0.075041
O O10 0.500000 0.000000 0.500000
O O11 0.157781 0.987571 0.310924
O O12 0.500000 0.500000 0.500000
O O13 0.542995 0.415682 0.355763
O O14 0.460176 0.537795 0.739170
O O15 0.146099 0.696825 0.547139
O O16 0.500000 0.000000 0.000000
O O17 0.123587 0.252402 0.534946
O O18 0.378655 0.423456 0.726232
O O19 0.000000 0.500000 0.500000
#
# Coordination Sequence:
#
# PCOD9022752 Si02
#       8
#     2   2   2   2   2   2   2   2
#     4  12  24  48  67 101 143 188 238 291 365 434
#     4  12  23  44  74 101 141 189 243 293 360 433
#     4  10  22  39  64 102 141 174 228 302 361 409
#     4  12  29  46  72 110 153 191 241 305 370 431
#     4  12  23  45  74  98 142 200 243 281 372 446
#     4  12  24  42  74 106 135 193 244 296 361 436
#     4  11  23  41  70  98 136 187 238 298 351 426
#     4  11  22  40  67 102 142 172 237 301 354 416
#
# _framework density 21.591397000000001
#
# number of rings (size 3 to 8) (size 9 to 14) (size 15 to 20)
#    0.000    0.500    6.250    2.250    1.750    2.500 
#    2.250    0.000    0.000    4.500    0.000    0.000 
#    0.000    0.000    0.000    0.000    0.000    0.000 
#
# Total GULP energy -89132.068340 kJ/mol
# GULP energy per Si atom -5570.754271 kJ/mol
# Density = 2.154225 g / cm^3
# Si number density = 21.591397 Si / 1000 Ang^3
#
#
#
# Elastic Constant Matrix: (Units=GPa)
#
#
# Indices 1 2 3 4 5 6 
#
# 1 170.2431 5.1689 20.4018 -8.9288 -5.8421 5.2842
# 2 5.1689 49.2404 -4.3419 5.2410 4.0234 11.6877
# 3 20.4018 -4.3419 90.5502 14.1160 13.0973 8.8730
# 4 -8.9288 5.2410 14.1160 28.1414 10.0824 -1.0281
# 5 -5.8421 4.0234 13.0973 10.0824 25.0324 -1.6389
# 6 5.2842 11.6877 8.8730 -1.0281 -1.6389 51.4297
#
#
#
# Elastic Compliance Matrix: (Units=1/GPa)
#
#
# Indices 1 2 3 4 5 6 
#
# 1 0.006378 -0.001332 -0.002197 0.002750 0.001753 0.000137
# 2 -0.001332 0.023033 0.003380 -0.005158 -0.004091 -0.005914
# 3 -0.002197 0.003380 0.013861 -0.006247 -0.006005 -0.003250
# 4 0.002750 -0.005158 -0.006247 0.045385 -0.013380 0.002448
# 5 0.001753 -0.004091 -0.006005 -0.013380 0.049749 0.003104
# 6 0.000137 -0.005914 -0.003250 0.002448 0.003104 0.021483
#
#
# Mechanical properties :
#
#
# Convention : Reuss Voigt Hill
#
# Bulk Modulus (GPa) = 23.26889 39.16569 31.21729
# Shear Modulus (GPa) = 28.65144 40.17436 34.41290
#
# Velocity S-wave (km/s) = 3.64673 4.31822 3.99660
# Velocity P-wave (km/s) = 5.34152 6.56061 5.98220
#
# Compressibility (1/GPa) = 0.04297583
#
# Stress axis : x y z
#
# Youngs Moduli (GPa) = 156.79457 43.41514 72.14241
#
# Poissons Ratio (x) = 0.05782 0.15847
# Poissons Ratio (y) = 0.20881 -0.24383
# Poissons Ratio (z) = 0.34441 -0.14674
#
# Static dielectric constant tensor:
#      x y z
#    x 1.856320 0.136300 -0.055350 
#    y 0.136300 1.824360 -0.102080 
#    z -0.055350 -0.102080 1.636960 
# 
# From -- ./inp_files/613281.got.cif
#   From: 2010.05.17/outbox.cif.g08.bks.cpg/sg2_307_cif.got.tgz:613281.got - 2010.06.03 11:33:40.
