data_PCOD9022642
_publ_section_title
;
Structure prediction by ZEFSAII (Michael W. Deem and Ramdas Pophale) SiO2 
 PCOD9022642
Probable space group: P -1
;
_chemical_formula_sum "Si O2"
_cell_formula_units_Z 12
_cell_length_a 5.709873
_cell_length_b 14.841962
_cell_length_c 11.912959
_cell_angle_alpha 30.047193
_cell_angle_beta 80.228147
_cell_angle_gamma 92.287835
_cell_volume 461.081350
_symmetry_space_group_name_H-M "P -1"
_symmetry_group_IT_number 2
_symmetry_cell_setting 'triclinic'
loop_
_space_group_symop_operation_xyz
x,y,z
-x,-y,-z
loop_
_atom_site_type_symbol
_atom_site_label
_atom_site_fract_x
_atom_site_fract_y
_atom_site_fract_z
Si Si1 0.692608 0.042283 0.334017
Si Si2 0.044706 0.462084 0.905689
Si Si3 0.424633 0.078886 0.090014
Si Si4 0.850445 0.273585 0.651660
Si Si5 0.220566 0.350729 0.711690
Si Si6 0.613395 0.611693 0.754189
O O1 0.551873 0.090612 0.186480
O O2 0.500000 0.000000 0.500000
O O3 0.728229 0.842620 0.517379
O O4 0.935896 0.231291 0.144160
O O5 0.842195 0.542326 0.776216
O O6 0.353559 0.553271 0.763434
O O7 0.000000 0.500000 0.000000
O O8 0.270817 0.859701 0.299608
O O9 0.645394 0.179134 0.871263
O O10 0.234280 0.191915 0.967106
O O11 0.906055 0.502312 0.391742
O O12 0.100945 0.255977 0.705008
O O13 0.500000 0.500000 0.500000
O O14 0.500000 0.500000 0.000000
#
# Coordination Sequence:
#
# PCOD9022642 Si02
#       6
#     2   2   2   2   2   2
#     4  12  24  43  64  96 136 182 228 276 338 405
#     4  10  22  43  66  91 129 179 231 282 333 398
#     4  10  22  39  63  93 124 167 213 266 328 393
#     4   9  19  41  64  93 123 158 213 269 331 393
#     4   9  18  38  66  92 126 160 205 270 331 394
#     4  10  22  43  67  91 129 182 228 285 331 398
#
# _framework density 26.025773999999998
#
# number of rings (size 3 to 8) (size 9 to 14) (size 15 to 20)
#    0.000    2.000    3.333    0.500    0.000    5.333 
#   15.000    0.000    0.000    0.000    0.000    0.000 
#    0.000    0.000    0.000    0.000    0.000    0.000 
#
# Total GULP energy -67209.829793 kJ/mol
# GULP energy per Si atom -5600.819149 kJ/mol
# Density = 2.596654 g / cm^3
# Si number density = 26.025774 Si / 1000 Ang^3
#
#
#
# Elastic Constant Matrix: (Units=GPa)
#
#
# Indices 1 2 3 4 5 6 
#
# 1 140.4605 40.4099 43.4226 -14.2887 -4.1428 11.2160
# 2 40.4099 126.3308 48.9086 -16.0462 -7.4767 32.0836
# 3 43.4226 48.9086 144.3980 -33.5456 15.6631 17.0557
# 4 -14.2887 -16.0462 -33.5456 57.2887 10.0136 -10.4292
# 5 -4.1428 -7.4767 15.6631 10.0136 49.2214 1.8817
# 6 11.2160 32.0836 17.0557 -10.4292 1.8817 41.2082
#
#
#
# Elastic Compliance Matrix: (Units=1/GPa)
#
#
# Indices 1 2 3 4 5 6 
#
# 1 0.008292 -0.001808 -0.001924 0.000257 0.000985 -0.000033
# 2 -0.001808 0.011705 -0.003052 -0.000904 0.003076 -0.007727
# 3 -0.001924 -0.003052 0.010378 0.005683 -0.005095 0.000275
# 4 0.000257 -0.000904 0.005683 0.022542 -0.006674 0.004292
# 5 0.000985 0.003076 -0.005095 -0.006674 0.023973 -0.003338
# 6 -0.000033 -0.007727 0.000275 0.004292 -0.003338 0.031417
#
#
# Mechanical properties :
#
#
# Convention : Reuss Voigt Hill
#
# Bulk Modulus (GPa) = 59.50067 75.18571 67.34319
# Shear Modulus (GPa) = 39.22218 48.10686 43.66452
#
# Velocity S-wave (km/s) = 3.88629 4.30400 4.10047
# Velocity P-wave (km/s) = 6.56121 7.32468 6.95343
#
# Compressibility (1/GPa) = 0.01680653
#
# Stress axis : x y z
#
# Youngs Moduli (GPa) = 120.59258 85.43036 96.35797
#
# Poissons Ratio (x) = 0.15448 0.18544
# Poissons Ratio (y) = 0.21807 0.29407
# Poissons Ratio (z) = 0.23207 0.26072
#
# Static dielectric constant tensor:
#      x y z
#    x 2.149770 -0.017960 0.052070 
#    y -0.017960 2.050880 0.042490 
#    z 0.052070 0.042490 2.024070 
# 
# From -- ./inp_files/321153.got.cif
#   From: 2010.05.17/outbox.cif.g08.bks.cpg/sg2_161_cif.got.tgz:321153.got - 2010.06.03 11:33:40.
