data_PCOD9022384
_publ_section_title
;
Structure prediction by ZEFSAII (Michael W. Deem and Ramdas Pophale) SiO2 
 PCOD9022384
Probable space group: P -1
;
_chemical_formula_sum "Si O2"
_cell_formula_units_Z 12
_cell_length_a 8.205408
_cell_length_b 14.027200
_cell_length_c 12.622865
_cell_angle_alpha 33.840879
_cell_angle_beta 121.914999
_cell_angle_gamma 95.510907
_cell_volume 472.482044
_symmetry_space_group_name_H-M "P -1"
_symmetry_group_IT_number 2
_symmetry_cell_setting 'triclinic'
loop_
_space_group_symop_operation_xyz
x,y,z
-x,-y,-z
loop_
_atom_site_type_symbol
_atom_site_label
_atom_site_fract_x
_atom_site_fract_y
_atom_site_fract_z
Si Si1 0.539188 0.911107 0.977205
Si Si2 0.195617 0.000330 0.162820
Si Si3 0.991326 0.870766 0.797212
Si Si4 0.104713 0.680625 0.653093
Si Si5 0.376363 0.520157 0.664509
Si Si6 0.713876 0.717043 0.761722
O O1 0.763827 0.877592 0.021460
O O2 0.226362 0.140034 0.612606
O O3 0.500000 0.000000 0.000000
O O4 0.620909 0.659210 0.232338
O O5 0.239039 0.782610 0.329665
O O6 0.466023 0.852626 0.469004
O O7 0.966095 0.158940 0.031710
O O8 0.773661 0.866720 0.691677
O O9 0.879053 0.129897 0.488224
O O10 0.293934 0.652622 0.049764
O O11 0.214333 0.594611 0.649966
O O12 0.278466 0.434690 0.007056
O O13 0.000000 0.500000 0.000000
#
# Coordination Sequence:
#
# PCOD9022384 Si02
#       6
#     2   2   2   2   2   2
#     4  11  24  42  65  88 115 156 204 252 298 348
#     4  11  23  41  61  90 123 158 200 242 295 353
#     4  10  22  39  61  91 125 160 194 241 295 357
#     4  10  23  41  61  90 123 155 198 242 299 355
#     4  10  22  42  62  88 123 158 197 247 296 354
#     4  12  21  38  62  91 124 161 194 240 294 355
#
# _framework density 25.397787000000001
#
# number of rings (size 3 to 8) (size 9 to 14) (size 15 to 20)
#    0.000    1.333    3.333    1.500    0.000    6.000 
#    0.000    7.500    0.000    0.000    0.000    0.000 
#    0.000    0.000    0.000    0.000    0.000    0.000 
#
# Total GULP energy -67217.428542 kJ/mol
# GULP energy per Si atom -5601.452379 kJ/mol
# Density = 2.533998 g / cm^3
# Si number density = 25.397787 Si / 1000 Ang^3
#
#
#
# Elastic Constant Matrix: (Units=GPa)
#
#
# Indices 1 2 3 4 5 6 
#
# 1 141.2546 32.1294 40.0699 -10.7572 -12.6434 15.3325
# 2 32.1294 94.7700 36.2577 -44.4657 -26.9530 18.8503
# 3 40.0699 36.2577 106.3635 -14.1846 -10.6096 10.2684
# 4 -10.7572 -44.4657 -14.1846 36.7024 0.0806 -5.0179
# 5 -12.6434 -26.9530 -10.6096 0.0806 56.5673 -6.3962
# 6 15.3325 18.8503 10.2684 -5.0179 -6.3962 40.5895
#
#
#
# Elastic Compliance Matrix: (Units=1/GPa)
#
#
# Indices 1 2 3 4 5 6 
#
# 1 0.008349 -0.002098 -0.002412 -0.001259 0.000225 -0.001689
# 2 -0.002098 0.041877 -0.004595 0.047088 0.017548 -0.008907
# 3 -0.002412 -0.004595 0.011597 -0.001819 -0.000574 -0.000204
# 4 -0.001259 0.047088 -0.001819 0.082153 0.020850 -0.007491
# 5 0.000225 0.017548 -0.000574 0.020850 0.025789 -0.001448
# 6 -0.001689 -0.008907 -0.000204 -0.007491 -0.001448 0.028309
#
#
# Mechanical properties :
#
#
# Convention : Reuss Voigt Hill
#
# Bulk Modulus (GPa) = 22.92974 62.14469 42.53722
# Shear Modulus (GPa) = 21.66188 42.36724 32.01456
#
# Velocity S-wave (km/s) = 2.92362 4.08873 3.55424
# Velocity P-wave (km/s) = 4.52157 6.84192 5.79899
#
# Compressibility (1/GPa) = 0.04361148
#
# Stress axis : x y z
#
# Youngs Moduli (GPa) = 119.78118 23.87939 86.23130
#
# Poissons Ratio (x) = 0.05011 0.20801
# Poissons Ratio (y) = 0.25135 0.39622
# Poissons Ratio (z) = 0.28894 0.10972
#
# Static dielectric constant tensor:
#      x y z
#    x 1.990020 0.019280 0.036600 
#    y 0.019280 2.083440 0.019570 
#    z 0.036600 0.019570 2.074020 
# 
# From -- ./inp_files/166446.got.cif
#   From: 2010.05.17/outbox.cif.g08.bks.cpg/sg2_84_cif.got.tgz:166446.got - 2010.06.03 11:33:40.
