data_PCOD9022451
_publ_section_title
;
Structure prediction by ZEFSAII (Michael W. Deem and Ramdas Pophale) SiO2 
 PCOD9022451
Probable space group: P -1
;
_chemical_formula_sum "Si O2"
_cell_formula_units_Z 12
_cell_length_a 11.654341
_cell_length_b 9.785165
_cell_length_c 17.052329
_cell_angle_alpha 52.532795
_cell_angle_beta 157.596236
_cell_angle_gamma 127.639138
_cell_volume 580.717836
_symmetry_space_group_name_H-M "P -1"
_symmetry_group_IT_number 2
_symmetry_cell_setting 'triclinic'
loop_
_space_group_symop_operation_xyz
x,y,z
-x,-y,-z
loop_
_atom_site_type_symbol
_atom_site_label
_atom_site_fract_x
_atom_site_fract_y
_atom_site_fract_z
Si Si1 0.896255 0.671720 0.404876
Si Si2 0.835465 0.167938 0.323497
Si Si3 0.359137 0.541637 0.214673
Si Si4 0.382806 0.306332 0.524501
Si Si5 0.363200 0.155157 0.402754
Si Si6 0.725801 0.955320 0.089657
O O1 0.547358 0.623278 0.230873
O O2 0.903207 0.813264 0.291968
O O3 0.000000 0.500000 0.500000
O O4 0.102733 0.733673 0.589598
O O5 0.029299 0.273413 0.338764
O O6 0.491827 0.115875 0.095088
O O7 0.000000 0.000000 0.500000
O O8 0.446852 0.685635 0.287980
O O9 0.462978 0.352182 0.363939
O O10 0.000000 0.500000 0.000000
O O11 0.500000 0.500000 0.500000
O O12 0.436576 0.173852 0.536126
O O13 0.500000 0.000000 0.500000
O O14 0.995111 0.108517 0.182286
O O15 0.500000 0.000000 0.000000
#
# Coordination Sequence:
#
# PCOD9022451 Si02
#       6
#     2   2   2   2   2   2
#     4  11  24  42  62  92 129 155 203 266 305 352
#     4  11  22  39  65  93 119 162 211 249 300 372
#     4  10  22  39  62  85 117 160 206 241 298 371
#     4   9  20  37  60  83 119 156 199 244 299 358
#     4  11  22  40  61  90 124 155 200 258 309 352
#     4  12  22  40  69  90 121 168 208 247 307 374
#
# _framework density 20.664079000000001
#
# number of rings (size 3 to 8) (size 9 to 14) (size 15 to 20)
#    0.000    1.333    3.333    2.000    4.667    0.667 
#    3.000    0.833    0.000    0.000    0.000    0.000 
#    0.000    0.000    0.000    0.000    0.000    0.000 
#
# Total GULP energy -66962.820453 kJ/mol
# GULP energy per Si atom -5580.235038 kJ/mol
# Density = 2.061705 g / cm^3
# Si number density = 20.664079 Si / 1000 Ang^3
#
#
#
# Elastic Constant Matrix: (Units=GPa)
#
#
# Indices 1 2 3 4 5 6 
#
# 1 70.6375 50.4919 29.4845 6.3488 -5.6752 -14.9553
# 2 50.4919 117.9673 28.7069 8.6384 -10.0140 -24.7037
# 3 29.4845 28.7069 66.4063 22.1178 1.2372 -17.0045
# 4 6.3488 8.6384 22.1178 43.3527 6.9651 2.5314
# 5 -5.6752 -10.0140 1.2372 6.9651 20.1478 5.1340
# 6 -14.9553 -24.7037 -17.0045 2.5314 5.1340 63.3541
#
#
#
# Elastic Compliance Matrix: (Units=1/GPa)
#
#
# Indices 1 2 3 4 5 6 
#
# 1 0.022949 -0.007934 -0.007292 0.001547 0.002406 0.000110
# 2 -0.007934 0.013175 -0.000941 -0.001835 0.004308 0.002736
# 3 -0.007292 -0.000941 0.023555 -0.010808 -0.001451 0.004783
# 4 0.001547 -0.001835 -0.010808 0.030445 -0.009393 -0.003707
# 5 0.002406 0.004308 -0.001451 -0.009393 0.056383 -0.002335
# 6 0.000110 0.002736 0.004783 -0.003707 -0.002335 0.018498
#
#
# Mechanical properties :
#
#
# Convention : Reuss Voigt Hill
#
# Bulk Modulus (GPa) = 36.56968 52.48641 44.52804
# Shear Modulus (GPa) = 24.21828 35.12611 29.67220
#
# Velocity S-wave (km/s) = 3.42716 4.12741 3.79348
# Velocity P-wave (km/s) = 5.77895 6.94039 6.38613
#
# Compressibility (1/GPa) = 0.02734506
#
# Stress axis : x y z
#
# Youngs Moduli (GPa) = 43.57430 75.90111 42.45400
#
# Poissons Ratio (x) = 0.60223 0.30956
# Poissons Ratio (y) = 0.34574 0.03995
# Poissons Ratio (z) = 0.31773 0.07142
#
# Static dielectric constant tensor:
#      x y z
#    x -0.348040 -0.783070 1.330220 
#    y -0.783070 1.452090 0.519320 
#    z 1.330220 0.519320 0.862070 
# 
# From -- ./inp_files/149475.got.cif
#   From: 2010.05.17/outbox.cif.g08.bks.cpg/sg2_75_cif.got.tgz:149475.got - 2010.06.03 11:33:40.
