data_PCOD9022493
_publ_section_title
;
Structure prediction by ZEFSAII (Michael W. Deem and Ramdas Pophale) SiO2 
 PCOD9022493
Probable space group: P -1
;
_chemical_formula_sum "Si O2"
_cell_formula_units_Z 16
_cell_length_a 5.344125
_cell_length_b 16.412129
_cell_length_c 18.919033
_cell_angle_alpha 21.631803
_cell_angle_beta 96.234466
_cell_angle_gamma 100.702812
_cell_volume 591.598220
_symmetry_space_group_name_H-M "P -1"
_symmetry_group_IT_number 2
_symmetry_cell_setting 'triclinic'
loop_
_space_group_symop_operation_xyz
x,y,z
-x,-y,-z
loop_
_atom_site_type_symbol
_atom_site_label
_atom_site_fract_x
_atom_site_fract_y
_atom_site_fract_z
Si Si1 0.923170 0.947854 0.621425
Si Si2 0.309798 0.429532 0.894997
Si Si3 0.693132 0.672790 0.602322
Si Si4 0.216599 0.807029 0.238083
Si Si5 0.431443 0.977191 0.253637
Si Si6 0.165474 0.762957 0.055790
Si Si7 0.294844 0.185878 0.822631
Si Si8 0.348605 0.694063 0.815282
O O1 0.112422 0.769663 0.787373
O O2 0.610668 0.892006 0.657667
O O3 0.039003 0.153787 0.511510
O O4 0.000000 0.000000 0.500000
O O5 0.571337 0.578788 0.749584
O O6 0.225880 0.583954 0.826825
O O7 0.116848 0.358175 0.881757
O O8 0.337943 0.183621 0.121689
O O9 0.721716 0.446813 0.745566
O O10 0.513737 0.802387 0.449363
O O11 0.435673 0.698345 0.297649
O O12 0.934654 0.687781 0.296371
O O13 0.244823 0.850866 0.287156
O O14 0.300059 0.060932 0.998266
O O15 0.680149 0.114131 0.106614
O O16 0.185431 0.964215 0.948509
O O17 0.500000 0.500000 0.000000
#
# Coordination Sequence:
#
# PCOD9022493 Si02
#       8
#     2   2   2   2   2   2   2   2
#     4  12  25  46  64  90 124 167 208 258 319 376
#     4  11  23  41  62  89 124 164 205 264 315 376
#     4  11  25  40  63  89 128 164 208 263 316 372
#     4   9  17  34  60  92 121 162 209 250 303 372
#     4  10  22  40  61  93 123 165 208 258 312 375
#     4  10  22  39  62  91 123 165 208 256 312 374
#     4   9  17  34  62  89 123 164 205 252 306 365
#     4  12  27  43  68  92 123 162 215 262 314 376
#
# _framework density 27.045383000000001
#
# number of rings (size 3 to 8) (size 9 to 14) (size 15 to 20)
#    0.000    1.500    2.500    2.250    5.250    1.000 
#    0.000    0.625    0.000    0.750    0.000    0.000 
#    0.000    0.000    0.000    0.000    0.000    0.000 
#
# Total GULP energy -89511.627689 kJ/mol
# GULP energy per Si atom -5594.476731 kJ/mol
# Density = 2.698383 g / cm^3
# Si number density = 27.045383 Si / 1000 Ang^3
#
#
#
# Elastic Constant Matrix: (Units=GPa)
#
#
# Indices 1 2 3 4 5 6 
#
# 1 130.5770 0.7515 16.9621 -7.8645 10.4423 15.1257
# 2 0.7515 104.3851 22.3678 -11.3554 0.3084 5.4920
# 3 16.9621 22.3678 133.9048 4.7638 23.4691 3.5940
# 4 -7.8645 -11.3554 4.7638 40.0110 10.0590 11.3439
# 5 10.4423 0.3084 23.4691 10.0590 36.6374 -0.8952
# 6 15.1257 5.4920 3.5940 11.3439 -0.8952 38.7050
#
#
#
# Elastic Compliance Matrix: (Units=1/GPa)
#
#
# Indices 1 2 3 4 5 6 
#
# 1 0.008829 0.000811 -0.000685 0.004264 -0.003373 -0.004830
# 2 0.000811 0.010602 -0.001884 0.004313 -0.000369 -0.002919
# 3 -0.000685 -0.001884 0.008831 -0.000275 -0.005378 -0.000329
# 4 0.004264 0.004313 -0.000275 0.033190 -0.010487 -0.012223
# 5 -0.003373 -0.000369 -0.005378 -0.010487 0.034724 0.005747
# 6 -0.004830 -0.002919 -0.000329 -0.012223 0.005747 0.031884
#
#
# Mechanical properties :
#
#
# Convention : Reuss Voigt Hill
#
# Bulk Modulus (GPa) = 40.41111 49.89220 45.15166
# Shear Modulus (GPa) = 35.75964 44.98972 40.37468
#
# Velocity S-wave (km/s) = 3.64016 4.08301 3.86793
# Velocity P-wave (km/s) = 5.71333 6.38088 6.05631
#
# Compressibility (1/GPa) = 0.02474567
#
# Stress axis : x y z
#
# Youngs Moduli (GPa) = 113.26755 94.32509 113.24153
#
# Poissons Ratio (x) = -0.07651 0.07753
# Poissons Ratio (y) = -0.09187 0.21336
# Poissons Ratio (z) = 0.07755 0.17772
#
# Static dielectric constant tensor:
#      x y z
#    x 2.245930 0.026630 0.057460 
#    y 0.026630 2.100120 0.065540 
#    z 0.057460 0.065540 2.214640 
# 
# From -- ./inp_files/44766.got.cif
#   From: 2010.05.17/outbox.cif.g08.bks.cpg/sg2_23_cif.got.tgz:44766.got - 2010.06.03 11:33:40.
