data_PCOD9022133
_publ_section_title
;
Structure prediction by ZEFSAII (Michael W. Deem and Ramdas Pophale) SiO2 
 PCOD9022133
Probable space group: P -1
;
_chemical_formula_sum "Si O2"
_cell_formula_units_Z 16
_cell_length_a 8.263833
_cell_length_b 9.046292
_cell_length_c 15.603812
_cell_angle_alpha 67.663238
_cell_angle_beta 134.346884
_cell_angle_gamma 130.088645
_cell_volume 632.934021
_symmetry_space_group_name_H-M "P -1"
_symmetry_group_IT_number 2
_symmetry_cell_setting 'triclinic'
loop_
_space_group_symop_operation_xyz
x,y,z
-x,-y,-z
loop_
_atom_site_type_symbol
_atom_site_label
_atom_site_fract_x
_atom_site_fract_y
_atom_site_fract_z
Si Si1 0.446303 0.138846 0.137574
Si Si2 0.573974 0.742347 0.376676
Si Si3 0.679228 0.922851 0.553134
Si Si4 0.061899 0.282320 0.954387
Si Si5 0.966026 0.505343 0.248721
Si Si6 0.419827 0.828554 0.111294
Si Si7 0.208815 0.274863 0.756579
Si Si8 0.722105 0.488007 0.419371
O O1 0.744934 0.295508 0.252621
O O2 0.516907 0.051822 0.101911
O O3 0.311339 0.259748 0.053311
O O4 0.193979 0.933148 0.130369
O O5 0.683040 0.899927 0.457433
O O6 0.508727 0.796701 0.247784
O O7 0.761632 0.662176 0.452857
O O8 0.272600 0.566679 0.338371
O O9 0.517860 0.712063 0.584043
O O10 0.500000 0.000000 0.500000
O O11 0.980987 0.076489 0.667722
O O12 0.125850 0.465419 0.884186
O O13 0.910931 0.282299 0.984983
O O14 0.960049 0.671995 0.259006
O O15 0.568503 0.762131 0.120338
O O16 0.366192 0.464502 0.712258
O O17 0.000000 0.500000 0.500000
#
# Coordination Sequence:
#
# PCOD9022133 Si02
#       8
#     2   2   2   2   2   2   2   2
#     4   9  18  36  64  82 110 145 187 225 282 342
#     4  10  22  39  57  83 112 153 194 230 282 331
#     4  12  23  40  57  79 117 152 191 240 275 328
#     4   8  18  37  61  84 111 143 186 225 281 345
#     4  11  20  35  59  87 112 147 189 228 279 336
#     4   8  19  38  58  81 113 145 185 231 278 336
#     4  11  24  39  53  84 119 146 189 237 278 326
#     4  11  23  40  55  79 110 148 194 238 281 329
#
# _framework density 25.279098000000001
#
# number of rings (size 3 to 8) (size 9 to 14) (size 15 to 20)
#    0.750    1.250    2.500    0.750    1.750    4.000 
#    2.250    1.250    0.000    0.000    0.000    0.000 
#    0.000    0.000    0.000    0.000    0.000    0.000 
#
# Total GULP energy -89154.647803 kJ/mol
# GULP energy per Si atom -5572.165488 kJ/mol
# Density = 2.522156 g / cm^3
# Si number density = 25.279098 Si / 1000 Ang^3
#
#
#
# Elastic Constant Matrix: (Units=GPa)
#
#
# Indices 1 2 3 4 5 6 
#
# 1 110.9905 28.7068 29.3195 -1.4344 41.2131 -24.1951
# 2 28.7068 93.8384 32.7691 0.1937 4.6143 9.6333
# 3 29.3195 32.7691 64.5388 -3.4791 20.7123 2.1245
# 4 -1.4344 0.1937 -3.4791 44.2893 -3.4815 12.2064
# 5 41.2131 4.6143 20.7123 -3.4815 44.9214 -9.0431
# 6 -24.1951 9.6333 2.1245 12.2064 -9.0431 53.2217
#
#
#
# Elastic Compliance Matrix: (Units=1/GPa)
#
#
# Indices 1 2 3 4 5 6 
#
# 1 0.017041 -0.004776 -0.001421 -0.002508 -0.013276 0.006988
# 2 -0.004776 0.014618 -0.006789 0.000715 0.005299 -0.003810
# 3 -0.001421 -0.006789 0.022541 0.001671 -0.008701 -0.002179
# 4 -0.002508 0.000715 0.001671 0.024614 0.002029 -0.006637
# 5 -0.013276 0.005299 -0.008701 0.002029 0.037932 -0.000668
# 6 0.006988 -0.003810 -0.002179 -0.006637 -0.000668 0.024151
#
#
# Mechanical properties :
#
#
# Convention : Reuss Voigt Hill
#
# Bulk Modulus (GPa) = 35.42615 50.10650 42.76633
# Shear Modulus (GPa) = 28.36408 40.39130 34.37769
#
# Velocity S-wave (km/s) = 3.35332 4.00160 3.69172
# Velocity P-wave (km/s) = 5.38864 6.41987 5.92673
#
# Compressibility (1/GPa) = 0.02822773
#
# Stress axis : x y z
#
# Youngs Moduli (GPa) = 58.68164 68.41100 44.36279
#
# Poissons Ratio (x) = 0.32675 0.06304
# Poissons Ratio (y) = 0.28028 0.30117
# Poissons Ratio (z) = 0.08339 0.46443
#
# Static dielectric constant tensor:
#      x y z
#    x 2.119040 -0.028300 -0.079810 
#    y -0.028300 2.024690 0.011570 
#    z -0.079810 0.011570 2.042510 
# 
# From -- ./inp_files/587361.got.cif
#   From: 2010.05.17/outbox.cif.g08.bks.cpg/sg2_294_cif.got.tgz:587361.got - 2010.06.03 11:33:40.
