data_PCOD9022360
_publ_section_title
;
Structure prediction by ZEFSAII (Michael W. Deem and Ramdas Pophale) SiO2 
 PCOD9022360
Probable space group: P -1
;
_chemical_formula_sum "Si O2"
_cell_formula_units_Z 16
_cell_length_a 7.606950
_cell_length_b 15.211629
_cell_length_c 11.198162
_cell_angle_alpha 49.348019
_cell_angle_beta 132.425850
_cell_angle_gamma 103.245533
_cell_volume 672.518232
_symmetry_space_group_name_H-M "P -1"
_symmetry_group_IT_number 2
_symmetry_cell_setting 'triclinic'
loop_
_space_group_symop_operation_xyz
x,y,z
-x,-y,-z
loop_
_atom_site_type_symbol
_atom_site_label
_atom_site_fract_x
_atom_site_fract_y
_atom_site_fract_z
Si Si1 0.095879 0.126671 0.636316
Si Si2 0.284453 0.373950 0.975905
Si Si3 0.746716 0.123277 0.793838
Si Si4 0.542232 0.122539 0.455694
Si Si5 0.548952 0.137272 0.963777
Si Si6 0.157435 0.622510 0.834886
Si Si7 0.179400 0.626870 0.354886
Si Si8 0.641213 0.381284 0.830351
O O1 0.259533 0.145709 0.806835
O O2 0.827264 0.116347 0.556591
O O3 0.037853 0.248405 0.421291
O O4 0.274492 0.993302 0.780863
O O5 0.346895 0.248147 0.193561
O O6 0.558534 0.377396 0.062293
O O7 0.141782 0.502683 0.868308
O O8 0.105702 0.370898 0.786247
O O9 0.544088 0.126276 0.596455
O O10 0.649136 0.127564 0.880750
O O11 0.804419 0.248841 0.693602
O O12 0.000000 0.000000 0.000000
O O13 0.500000 0.000000 0.500000
O O14 0.584409 0.255622 0.931727
O O15 0.153460 0.615387 0.981350
O O16 0.386317 0.505293 0.617152
O O17 0.261631 0.621741 0.257533
#
# Coordination Sequence:
#
# PCOD9022360 Si02
#       8
#     2   2   2   2   2   2   2   2
#     4  10  22  42  59  90 123 163 204 254 304 364
#     4  10  22  39  61  89 125 163 201 255 306 364
#     4  11  21  39  63  89 121 162 207 252 309 361
#     4  11  23  40  63  91 126 160 203 258 309 365
#     4  10  22  41  62  89 124 162 207 258 298 369
#     4  10  22  40  60  90 127 161 203 252 310 367
#     4  10  22  39  63  90 123 160 208 253 300 372
#     4  10  22  39  62  91 123 161 205 252 308 364
#
# _framework density 23.791174999999999
#
# number of rings (size 3 to 8) (size 9 to 14) (size 15 to 20)
#    0.000    1.750    1.250    2.250    1.750    3.500 
#    9.000    0.000    0.000    0.000    0.000    0.000 
#    0.000    0.000    0.000    0.000    0.000    0.000 
#
# Total GULP energy -89602.207646 kJ/mol
# GULP energy per Si atom -5600.137978 kJ/mol
# Density = 2.373703 g / cm^3
# Si number density = 23.791175 Si / 1000 Ang^3
#
#
#
# Elastic Constant Matrix: (Units=GPa)
#
#
# Indices 1 2 3 4 5 6 
#
# 1 72.0463 30.2187 24.2828 -11.7114 5.8312 -1.2400
# 2 30.2187 180.1526 49.9729 -23.3913 -2.5664 2.3490
# 3 24.2828 49.9729 145.1475 -33.6600 4.4508 -6.9397
# 4 -11.7114 -23.3913 -33.6600 44.3001 3.7563 -3.1849
# 5 5.8312 -2.5664 4.4508 3.7563 31.0104 6.2926
# 6 -1.2400 2.3490 -6.9397 -3.1849 6.2926 28.7395
#
#
#
# Elastic Compliance Matrix: (Units=1/GPa)
#
#
# Indices 1 2 3 4 5 6 
#
# 1 0.015893 -0.002079 -0.001129 0.002677 -0.003664 0.001682
# 2 -0.002079 0.006587 -0.001670 0.001473 0.001228 -0.001137
# 3 -0.001129 -0.001670 0.009419 0.006481 -0.002813 0.003696
# 4 0.002677 0.001473 0.006481 0.029958 -0.006207 0.006239
# 5 -0.003664 0.001228 -0.002813 -0.006207 0.036128 -0.009536
# 6 0.001682 -0.001137 0.003696 0.006239 -0.009536 0.038633
#
#
# Mechanical properties :
#
#
# Convention : Reuss Voigt Hill
#
# Bulk Modulus (GPa) = 45.16362 67.36612 56.26487
# Shear Modulus (GPa) = 32.51889 40.33479 36.42684
#
# Velocity S-wave (km/s) = 3.70110 4.12195 3.91718
# Velocity P-wave (km/s) = 6.10645 7.14360 6.64529
#
# Compressibility (1/GPa) = 0.02214172
#
# Stress axis : x y z
#
# Youngs Moduli (GPa) = 62.91913 151.82535 106.16348
#
# Poissons Ratio (x) = 0.31567 0.11991
# Poissons Ratio (y) = 0.13082 0.17732
# Poissons Ratio (z) = 0.07106 0.25358
#
# Static dielectric constant tensor:
#      x y z
#    x 1.976870 0.007560 -0.006100 
#    y 0.007560 1.845040 0.007620 
#    z -0.006100 0.007620 1.880330 
# 
# From -- ./inp_files/398686.got.cif
#   From: 2010.05.17/outbox.cif.g08.bks.cpg/sg2_200_cif.got.tgz:398686.got - 2010.06.03 11:33:40.
