data_PCOD9022881
_publ_section_title
;
Structure prediction by ZEFSAII (Michael W. Deem and Ramdas Pophale) SiO2 
 PCOD9022881
Probable space group: P -1
;
_chemical_formula_sum "Si O2"
_cell_formula_units_Z 14
_cell_length_a 14.357884
_cell_length_b 19.365637
_cell_length_c 8.841874
_cell_angle_alpha 47.335631
_cell_angle_beta 46.395567
_cell_angle_gamma 20.959569
_cell_volume 631.404624
_symmetry_space_group_name_H-M "P -1"
_symmetry_group_IT_number 2
_symmetry_cell_setting 'triclinic'
loop_
_space_group_symop_operation_xyz
x,y,z
-x,-y,-z
loop_
_atom_site_type_symbol
_atom_site_label
_atom_site_fract_x
_atom_site_fract_y
_atom_site_fract_z
Si Si1 0.857322 0.329112 0.849207
Si Si2 0.901373 0.693231 0.752115
Si Si3 0.171534 0.448441 0.504994
Si Si4 0.382422 0.980450 0.241186
Si Si5 0.659136 0.048495 0.982732
Si Si6 0.551989 0.623435 0.240809
Si Si7 0.486864 0.522805 0.726274
O O1 0.741900 0.508216 0.731520
O O2 0.768094 0.349876 0.755383
O O3 0.725350 0.345859 0.096456
O O4 0.168593 0.126783 0.839968
O O5 0.009492 0.591956 0.618644
O O6 0.147234 0.531612 0.834568
O O7 0.788636 0.869947 0.650362
O O8 0.646017 0.791274 0.920960
O O9 0.399173 0.233004 0.629606
O O10 0.000000 0.500000 0.500000
O O11 0.231938 0.029176 0.195917
O O12 0.500000 0.000000 0.000000
O O13 0.641330 0.166046 0.883632
O O14 0.469524 0.623066 0.487908
O O15 0.544399 0.550173 0.229587
#
# Coordination Sequence:
#
# PCOD9022881 Si02
#       7
#     2   2   2   2   2   2   2
#     4  11  24  46  65  98 141 179 231 282 342 403
#     4  11  23  42  69 103 142 169 223 285 345 414
#     4  12  25  42  66 101 143 180 221 283 352 405
#     4  10  22  39  64  99 134 181 218 261 343 419
#     4  11  23  39  71 103 135 176 227 283 354 410
#     4  11  22  44  71  98 132 184 235 280 341 399
#     4  10  24  45  68  90 136 190 231 287 326 401
#
# _framework density 22.172787
#
# number of rings (size 3 to 8) (size 9 to 14) (size 15 to 20)
#    0.000    1.143    2.857    3.000    4.000    3.429 
#    0.000    5.714    0.000    0.000    0.000    0.000 
#    0.000    0.000    0.000    0.000    0.000    0.000 
#
# Total GULP energy -78154.689648 kJ/mol
# GULP energy per Si atom -5582.477832 kJ/mol
# Density = 2.212232 g / cm^3
# Si number density = 22.172787 Si / 1000 Ang^3
#
#
#
# Elastic Constant Matrix: (Units=GPa)
#
#
# Indices 1 2 3 4 5 6 
#
# 1 105.9039 42.8632 6.2055 -7.1920 8.5559 -15.7605
# 2 42.8632 99.2073 39.2347 -25.8308 -2.7802 16.5811
# 3 6.2055 39.2347 64.6869 -13.8164 -1.8871 -3.1354
# 4 -7.1920 -25.8308 -13.8164 39.5837 3.1286 7.9535
# 5 8.5559 -2.7802 -1.8871 3.1286 29.4638 -0.7928
# 6 -15.7605 16.5811 -3.1354 7.9535 -0.7928 37.2445
#
#
#
# Elastic Compliance Matrix: (Units=1/GPa)
#
#
# Indices 1 2 3 4 5 6 
#
# 1 0.017128 -0.014372 0.006227 -0.006835 -0.004788 0.015528
# 2 -0.014372 0.030728 -0.014722 0.016943 0.003671 -0.024541
# 3 0.006227 -0.014722 0.023807 -0.002428 -0.001100 0.011689
# 4 -0.006835 0.016943 -0.002428 0.038096 -0.001123 -0.018799
# 5 -0.004788 0.003671 -0.001100 -0.001123 0.035651 -0.002754
# 6 0.015528 -0.024541 0.011689 -0.018799 -0.002754 0.049286
#
#
# Mechanical properties :
#
#
# Convention : Reuss Voigt Hill
#
# Bulk Modulus (GPa) = 38.56750 49.60053 44.08401
# Shear Modulus (GPa) = 20.07440 33.35805 26.71622
#
# Velocity S-wave (km/s) = 3.01219 3.88294 3.47495
# Velocity P-wave (km/s) = 5.43411 6.52086 6.00213
#
# Compressibility (1/GPa) = 0.02592857
#
# Stress axis : x y z
#
# Youngs Moduli (GPa) = 58.38357 32.54379 42.00407
#
# Poissons Ratio (x) = 0.46772 -0.26157
# Poissons Ratio (y) = 0.83910 0.61840
# Poissons Ratio (z) = -0.36357 0.47912
#
# Static dielectric constant tensor:
#      x y z
#    x 1.834300 -0.024890 -0.003290 
#    y -0.024890 1.843540 0.043360 
#    z -0.003290 0.043360 1.886080 
# 
# From -- ./inp_files/319233.got.cif
#   From: 2010.05.17/outbox.cif.g08.bks.cpg/sg2_160_cif.got.tgz:319233.got - 2010.06.03 11:33:40.
