data_PCOD9022735
_publ_section_title
;
Structure prediction by ZEFSAII (Michael W. Deem and Ramdas Pophale) SiO2 
 PCOD9022735
Probable space group: P -1
;
_chemical_formula_sum "Si O2"
_cell_formula_units_Z 12
_cell_length_a 8.505690
_cell_length_b 11.942564
_cell_length_c 14.404330
_cell_angle_alpha 160.484350
_cell_angle_beta 76.813043
_cell_angle_gamma 105.114617
_cell_volume 471.183010
_symmetry_space_group_name_H-M "P -1"
_symmetry_group_IT_number 2
_symmetry_cell_setting 'triclinic'
loop_
_space_group_symop_operation_xyz
x,y,z
-x,-y,-z
loop_
_atom_site_type_symbol
_atom_site_label
_atom_site_fract_x
_atom_site_fract_y
_atom_site_fract_z
Si Si1 0.648285 0.095441 0.984292
Si Si2 0.575662 0.820487 0.574484
Si Si3 0.792987 0.418944 0.637246
Si Si4 0.992908 0.020781 0.858475
Si Si5 0.679844 0.029147 0.533117
Si Si6 0.922313 0.607382 0.186534
O O1 0.809648 0.914030 0.839126
O O2 0.585187 0.980930 0.800411
O O3 0.677831 0.502565 0.312188
O O4 0.500000 0.000000 0.000000
O O5 0.388417 0.676075 0.456672
O O6 0.659342 0.073444 0.681097
O O7 0.773668 0.265375 0.625668
O O8 0.921248 0.240258 0.418835
O O9 0.875630 0.802237 0.947145
O O10 0.947708 0.319971 0.030822
O O11 0.500000 0.000000 0.500000
O O12 0.740267 0.668396 0.239872
O O13 0.000000 0.000000 0.500000
O O14 0.000000 0.500000 0.000000
#
# Coordination Sequence:
#
# PCOD9022735 Si02
#       6
#     2   2   2   2   2   2
#     4  12  27  48  70  94 124 172 231 282 324 373
#     4  11  25  45  68  97 136 174 213 267 329 387
#     4  11  24  42  66 103 139 171 207 258 329 405
#     4  12  23  41  66  95 132 172 221 271 316 384
#     4  10  22  39  63  99 140 174 204 252 323 401
#     4  12  22  37  60  94 134 172 214 256 312 389
#
# _framework density 25.46781
#
# number of rings (size 3 to 8) (size 9 to 14) (size 15 to 20)
#    0.000    0.667    5.000    2.500    2.333    1.333 
#    0.000   10.833    0.000    0.000    0.000    0.000 
#    0.000    0.000    0.000    0.000    0.000    0.000 
#
# Total GULP energy -67028.167777 kJ/mol
# GULP energy per Si atom -5585.680648 kJ/mol
# Density = 2.540984 g / cm^3
# Si number density = 25.467810 Si / 1000 Ang^3
#
#
#
# Elastic Constant Matrix: (Units=GPa)
#
#
# Indices 1 2 3 4 5 6 
#
# 1 116.7469 26.7942 15.1914 -28.7080 -8.7573 20.4447
# 2 26.7942 154.0150 38.2455 -49.9970 12.8180 10.2806
# 3 15.1914 38.2455 105.0352 -43.0948 10.4272 9.7309
# 4 -28.7080 -49.9970 -43.0948 43.3542 -0.2954 -11.0254
# 5 -8.7573 12.8180 10.4272 -0.2954 42.0892 -7.0652
# 6 20.4447 10.2806 9.7309 -11.0254 -7.0652 47.2887
#
#
#
# Elastic Compliance Matrix: (Units=1/GPa)
#
#
# Indices 1 2 3 4 5 6 
#
# 1 0.011097 0.000786 0.002292 0.009776 0.001066 -0.003001
# 2 0.000786 0.011271 0.002875 0.016309 -0.003894 -0.000161
# 3 0.002292 0.002875 0.017865 0.022357 -0.004802 -0.000797
# 4 0.009776 0.016309 0.022357 0.071319 -0.007443 0.003143
# 5 0.001066 -0.003894 -0.004802 -0.007443 0.026919 0.003660
# 6 -0.003001 -0.000161 -0.000797 0.003143 0.003660 0.023923
#
#
# Mechanical properties :
#
#
# Convention : Reuss Voigt Hill
#
# Bulk Modulus (GPa) = 19.17928 59.58436 39.38182
# Shear Modulus (GPa) = 29.78535 46.25082 38.01808
#
# Velocity S-wave (km/s) = 3.42355 4.26614 3.86786
# Velocity P-wave (km/s) = 4.81401 6.90748 5.95349
#
# Compressibility (1/GPa) = 0.05213960
#
# Stress axis : x y z
#
# Youngs Moduli (GPa) = 90.11796 88.72020 55.97396
#
# Poissons Ratio (x) = -0.06969 -0.12832
# Poissons Ratio (y) = -0.07079 -0.16093
# Poissons Ratio (z) = -0.20659 -0.25508
#
# Static dielectric constant tensor:
#      x y z
#    x 1.991620 0.102530 0.004990 
#    y 0.102530 2.223930 0.116470 
#    z 0.004990 0.116470 1.931780 
# 
# From -- ./inp_files/287085.got.cif
#   From: 2010.05.17/outbox.cif.g08.bks.cpg/sg2_144_cif.got.tgz:287085.got - 2010.06.03 11:33:40.
