data_PCOD9022404
_publ_section_title
;
Structure prediction by ZEFSAII (Michael W. Deem and Ramdas Pophale) SiO2 
 PCOD9022404
Probable space group: P -1
;
_chemical_formula_sum "Si O2"
_cell_formula_units_Z 14
_cell_length_a 13.045801
_cell_length_b 12.887954
_cell_length_c 11.810697
_cell_angle_alpha 99.452060
_cell_angle_beta 69.872152
_cell_angle_gamma 157.192511
_cell_volume 655.796212
_symmetry_space_group_name_H-M "P -1"
_symmetry_group_IT_number 2
_symmetry_cell_setting 'triclinic'
loop_
_space_group_symop_operation_xyz
x,y,z
-x,-y,-z
loop_
_atom_site_type_symbol
_atom_site_label
_atom_site_fract_x
_atom_site_fract_y
_atom_site_fract_z
Si Si1 0.146906 0.778913 0.358175
Si Si2 0.850866 0.094910 0.208949
Si Si3 0.392860 0.483209 0.940764
Si Si4 0.124149 0.979853 0.294349
Si Si5 0.709826 0.204934 0.344807
Si Si6 0.203206 0.413939 0.355077
Si Si7 0.518388 0.500873 0.335239
O O1 0.987192 0.530571 0.329557
O O2 0.973728 0.659579 0.516991
O O3 0.107574 0.842167 0.301036
O O4 0.494295 0.068314 0.311072
O O5 0.819066 0.191091 0.254823
O O6 0.987751 0.179688 0.293790
O O7 0.516240 0.746950 0.250330
O O8 0.096398 0.278858 0.057226
O O9 0.668139 0.808477 0.857176
O O10 0.338969 0.371992 0.824191
O O11 0.500000 0.500000 0.000000
O O12 0.311937 0.210020 0.362035
O O13 0.798029 0.741254 0.356288
O O14 0.500000 0.000000 0.500000
O O15 0.311115 0.417184 0.396191
#
# Coordination Sequence:
#
# PCOD9022404 Si02
#       7
#     2   2   2   2   2   2   2
#     4  12  24  43  65  88 135 157 213 253 314 366
#     4  12  24  37  65  96 122 156 217 254 316 347
#     4  10  22  42  65  92 127 162 205 258 297 379
#     4  10  24  41  61  92 129 174 192 255 311 369
#     4  12  23  43  64  94 119 168 208 267 300 364
#     4  12  22  37  64  97 121 166 197 261 312 371
#     4  10  22  39  61  94 128 157 209 236 323 364
#
# _framework density 21.348096000000002
#
# number of rings (size 3 to 8) (size 9 to 14) (size 15 to 20)
#    0.857    0.000    4.286    3.857    2.000    2.286 
#    0.000    1.429    0.000    0.000    0.000    0.000 
#    0.000    0.000    0.000    0.000    0.000    0.000 
#
# Total GULP energy -78305.217445 kJ/mol
# GULP energy per Si atom -5593.229817 kJ/mol
# Density = 2.129951 g / cm^3
# Si number density = 21.348096 Si / 1000 Ang^3
#
#
#
# Elastic Constant Matrix: (Units=GPa)
#
#
# Indices 1 2 3 4 5 6 
#
# 1 86.9554 -9.7029 17.1780 0.1178 -8.7039 6.4646
# 2 -9.7029 50.1208 4.4893 -1.7046 4.9300 10.1915
# 3 17.1780 4.4893 71.6164 -7.2765 -19.6053 4.0164
# 4 0.1178 -1.7046 -7.2765 26.4900 0.1153 -1.8621
# 5 -8.7039 4.9300 -19.6053 0.1153 36.2824 -0.9479
# 6 6.4646 10.1915 4.0164 -1.8621 -0.9479 43.4983
#
#
#
# Elastic Compliance Matrix: (Units=1/GPa)
#
#
# Indices 1 2 3 4 5 6 
#
# 1 0.012695 0.003071 -0.002918 -0.000830 0.000992 -0.002351
# 2 0.003071 0.022327 -0.002899 0.000258 -0.004008 -0.005496
# 3 -0.002918 -0.002899 0.017886 0.004689 0.009340 -0.000134
# 4 -0.000830 0.000258 0.004689 0.039144 0.002211 0.001354
# 5 0.000992 -0.004008 0.009340 0.002211 0.033404 0.000752
# 6 -0.002351 -0.005496 -0.000134 0.001354 0.000752 0.024713
#
#
# Mechanical properties :
#
#
# Convention : Reuss Voigt Hill
#
# Bulk Modulus (GPa) = 21.09051 25.84683 23.46867
# Shear Modulus (GPa) = 29.16045 34.36935 31.76490
#
# Velocity S-wave (km/s) = 3.69989 4.01677 3.86158
# Velocity P-wave (km/s) = 5.30594 5.80053 5.55874
#
# Compressibility (1/GPa) = 0.04741468
#
# Stress axis : x y z
#
# Youngs Moduli (GPa) = 78.77403 44.78981 55.91009
#
# Poissons Ratio (x) = -0.13755 0.16316
# Poissons Ratio (y) = -0.24192 0.16208
# Poissons Ratio (z) = 0.22988 0.12984
#
# Static dielectric constant tensor:
#      x y z
#    x 1.751820 0.006200 0.031110 
#    y 0.006200 1.758990 0.000510 
#    z 0.031110 0.000510 1.784730 
# 
# From -- ./inp_files/454845.got.cif
#   From: 2010.05.17/outbox.cif.g08.bks.cpg/sg2_228_cif.got.tgz:454845.got - 2010.06.03 11:33:40.
