data_PCOD9022071
_publ_section_title
;
Structure prediction by ZEFSAII (Michael W. Deem and Ramdas Pophale) SiO2 
 PCOD9022071
Probable space group: P -1
;
_chemical_formula_sum "Si O2"
_cell_formula_units_Z 16
_cell_length_a 9.470460
_cell_length_b 14.354118
_cell_length_c 9.274850
_cell_angle_alpha 141.780263
_cell_angle_beta 78.156955
_cell_angle_gamma 92.960709
_cell_volume 750.833528
_symmetry_space_group_name_H-M "P -1"
_symmetry_group_IT_number 2
_symmetry_cell_setting 'triclinic'
loop_
_space_group_symop_operation_xyz
x,y,z
-x,-y,-z
loop_
_atom_site_type_symbol
_atom_site_label
_atom_site_fract_x
_atom_site_fract_y
_atom_site_fract_z
Si Si1 0.483290 0.622442 0.278647
Si Si2 0.753254 0.736081 0.490143
Si Si3 0.991324 0.665345 0.132498
Si Si4 0.605559 0.029816 0.384079
Si Si5 0.628116 0.383064 0.407923
Si Si6 0.915939 0.479264 0.347289
Si Si7 0.392068 0.927634 0.102228
Si Si8 0.163989 0.913082 0.393988
O O1 0.636488 0.632798 0.338586
O O2 0.431027 0.791967 0.433904
O O3 0.376451 0.586178 0.383234
O O4 0.500000 0.500000 0.000000
O O5 0.849895 0.758094 0.355095
O O6 0.853761 0.640458 0.474785
O O7 0.670768 0.906546 0.751337
O O8 0.131831 0.743522 0.229857
O O9 0.000000 0.500000 0.000000
O O10 0.988125 0.632974 0.924237
O O11 0.767279 0.007773 0.390565
O O12 0.500000 0.000000 0.500000
O O13 0.549678 0.935720 0.151203
O O14 0.500000 0.500000 0.500000
O O15 0.777786 0.405112 0.330838
O O16 0.601840 0.211665 0.176946
O O17 0.000000 0.500000 0.500000
O O18 0.278650 0.902825 0.225093
O O19 0.000000 0.000000 0.500000
#
# Coordination Sequence:
#
# PCOD9022071 Si02
#       8
#     2   2   2   2   2   2   2   2
#     4  11  26  42  70 100 133 179 242 282 340 411
#     4  10  22  44  68 104 135 185 224 289 341 406
#     4  10  22  38  70  95 139 179 225 279 338 406
#     4   9  23  40  67 102 133 172 225 283 340 409
#     4  12  26  47  71  97 139 191 226 293 353 407
#     4  11  25  45  65 103 143 182 230 283 347 410
#     4  10  22  45  68  96 141 176 230 281 349 410
#     4  11  20  40  66  99 135 177 223 273 348 405
#
# _framework density 21.309649
#
# number of rings (size 3 to 8) (size 9 to 14) (size 15 to 20)
#    0.000    1.500    3.750    0.000    8.750    3.000 
#    2.250    0.625    0.000    0.000    0.000    0.000 
#    0.000    0.000    0.000    0.000    0.000    0.000 
#
# Total GULP energy -89378.788337 kJ/mol
# GULP energy per Si atom -5586.174271 kJ/mol
# Density = 2.126115 g / cm^3
# Si number density = 21.309649 Si / 1000 Ang^3
#
#
#
# Elastic Constant Matrix: (Units=GPa)
#
#
# Indices 1 2 3 4 5 6 
#
# 1 114.0911 33.5219 35.6483 -2.5715 17.3498 -10.5834
# 2 33.5219 110.3473 41.8512 -10.0309 1.1192 5.6639
# 3 35.6483 41.8512 123.0079 -9.5713 16.1928 -4.5779
# 4 -2.5715 -10.0309 -9.5713 38.8299 5.0271 -0.0773
# 5 17.3498 1.1192 16.1928 5.0271 24.9023 -2.1429
# 6 -10.5834 5.6639 -4.5779 -0.0773 -2.1429 42.2629
#
#
#
# Elastic Compliance Matrix: (Units=1/GPa)
#
#
# Indices 1 2 3 4 5 6 
#
# 1 0.011338 -0.003004 -0.001215 0.000568 -0.006851 0.002764
# 2 -0.003004 0.011518 -0.003461 0.001490 0.003310 -0.002500
# 3 -0.001215 -0.003461 0.010733 0.002501 -0.006396 0.001003
# 4 0.000568 0.001490 0.002501 0.027790 -0.007710 -0.000127
# 5 -0.006851 0.003310 -0.006396 -0.007710 0.050471 -0.000307
# 6 0.002764 -0.002500 0.001003 -0.000127 -0.000307 0.024781
#
#
# Mechanical properties :
#
#
# Convention : Reuss Voigt Hill
#
# Bulk Modulus (GPa) = 54.85775 63.27658 59.06716
# Shear Modulus (GPa) = 31.63199 36.96069 34.29634
#
# Velocity S-wave (km/s) = 3.85697 4.16920 4.01612
# Velocity P-wave (km/s) = 6.75529 7.27562 7.02028
#
# Compressibility (1/GPa) = 0.01822896
#
# Stress axis : x y z
#
# Youngs Moduli (GPa) = 88.19640 86.82212 93.17079
#
# Poissons Ratio (x) = 0.26086 0.11318
# Poissons Ratio (y) = 0.26498 0.32245
# Poissons Ratio (z) = 0.10713 0.30048
#
# Static dielectric constant tensor:
#      x y z
#    x 1.789670 -0.003360 -0.021240 
#    y -0.003360 1.813350 0.017090 
#    z -0.021240 0.017090 1.804130 
# 
# From -- ./inp_files/209275.got.cif
#   From: 2010.05.17/outbox.cif.g08.bks.cpg/sg2_105_cif.got.tgz:209275.got - 2010.06.03 11:33:40.
