data_PCOD9022373
_publ_section_title
;
Structure prediction by ZEFSAII (Michael W. Deem and Ramdas Pophale) SiO2 
 PCOD9022373
Probable space group: P -1
;
_chemical_formula_sum "Si O2"
_cell_formula_units_Z 16
_cell_length_a 9.546516
_cell_length_b 5.665809
_cell_length_c 30.755707
_cell_angle_alpha 74.690669
_cell_angle_beta 28.207848
_cell_angle_gamma 78.056141
_cell_volume 757.196189
_symmetry_space_group_name_H-M "P -1"
_symmetry_group_IT_number 2
_symmetry_cell_setting 'triclinic'
loop_
_space_group_symop_operation_xyz
x,y,z
-x,-y,-z
loop_
_atom_site_type_symbol
_atom_site_label
_atom_site_fract_x
_atom_site_fract_y
_atom_site_fract_z
Si Si1 0.082477 0.955277 0.821508
Si Si2 0.678871 0.574970 0.293288
Si Si3 0.765112 0.309282 0.051753
Si Si4 0.684163 0.603558 0.902831
Si Si5 0.540218 0.566333 0.728655
Si Si6 0.557247 0.665283 0.543162
Si Si7 0.167609 0.787223 0.561030
Si Si8 0.222784 0.105307 0.870054
O O1 0.243274 0.713261 0.803431
O O2 0.793778 0.874947 0.876902
O O3 0.295435 0.130478 0.724815
O O4 0.069620 0.078597 0.866085
O O5 0.443072 0.507162 0.323061
O O6 0.595647 0.428749 0.366171
O O7 0.009085 0.514892 0.189299
O O8 0.512045 0.412422 0.086086
O O9 0.650059 0.131837 0.130746
O O10 0.000000 0.500000 0.000000
O O11 0.959406 0.171807 0.970295
O O12 0.500000 0.500000 0.000000
O O13 0.476993 0.320638 0.785385
O O14 0.815100 0.736602 0.660683
O O15 0.318135 0.729784 0.568756
O O16 0.722657 0.429340 0.490475
O O17 0.744200 0.925924 0.487164
#
# Coordination Sequence:
#
# PCOD9022373 Si02
#       8
#     2   2   2   2   2   2   2   2
#     4  10  22  41  61  90 127 162 214 270 323 391
#     4  10  24  40  64  95 126 166 217 266 328 395
#     4  11  23  39  60  92 125 170 212 267 321 395
#     4  11  23  40  63  93 128 169 211 268 326 384
#     4  10  22  40  63  94 121 170 206 272 324 386
#     4  10  24  45  65  99 131 176 219 275 335 397
#     4  10  24  44  69  93 137 172 221 277 333 396
#     4  10  22  39  61  90 127 161 219 263 325 394
#
# _framework density 21.130587999999999
#
# number of rings (size 3 to 8) (size 9 to 14) (size 15 to 20)
#    0.000    1.750    0.000    3.750    7.000    8.000 
#    2.250    0.000    0.000    0.000    0.000    0.000 
#    0.000    0.000    0.000    0.000    0.000    0.000 
#
# Total GULP energy -89204.042111 kJ/mol
# GULP energy per Si atom -5575.252632 kJ/mol
# Density = 2.108249 g / cm^3
# Si number density = 21.130588 Si / 1000 Ang^3
#
#
#
# Elastic Constant Matrix: (Units=GPa)
#
#
# Indices 1 2 3 4 5 6 
#
# 1 103.6898 42.3042 59.9036 -29.6755 -7.9370 -9.7014
# 2 42.3042 78.9869 35.6323 -39.3774 9.1608 2.4568
# 3 59.9036 35.6323 90.3717 -38.1526 11.2147 -3.1107
# 4 -29.6755 -39.3774 -38.1526 40.5373 -4.9709 -2.1620
# 5 -7.9370 9.1608 11.2147 -4.9709 44.2591 -12.9445
# 6 -9.7014 2.4568 -3.1107 -2.1620 -12.9445 26.0521
#
#
#
# Elastic Compliance Matrix: (Units=1/GPa)
#
#
# Indices 1 2 3 4 5 6 
#
# 1 0.023224 -0.009752 -0.014165 -0.003371 0.013591 0.014350
# 2 -0.009752 0.029022 0.006811 0.025963 -0.008846 -0.007795
# 3 -0.014165 0.006811 0.027528 0.020555 -0.010398 -0.006091
# 4 -0.003371 0.025963 0.020555 0.066566 -0.002879 0.002844
# 5 0.013591 -0.008846 -0.010398 -0.002879 0.035645 0.022126
# 6 0.014350 -0.007795 -0.006091 0.002844 0.022126 0.054966
#
#
# Mechanical properties :
#
#
# Convention : Reuss Voigt Hill
#
# Bulk Modulus (GPa) = 21.94752 60.96984 41.45868
# Shear Modulus (GPa) = 17.46112 31.18360 24.32236
#
# Velocity S-wave (km/s) = 2.87774 3.84573 3.39639
# Velocity P-wave (km/s) = 4.63152 6.97395 5.91975
#
# Compressibility (1/GPa) = 0.04556324
#
# Stress axis : x y z
#
# Youngs Moduli (GPa) = 43.05825 34.45615 36.32649
#
# Poissons Ratio (x) = 0.33600 0.51458
# Poissons Ratio (y) = 0.41989 -0.24743
# Poissons Ratio (z) = 0.60994 -0.23469
#
# Static dielectric constant tensor:
#      x y z
#    x 1.800430 0.028430 -0.007440 
#    y 0.028430 1.932530 0.008020 
#    z -0.007440 0.008020 1.750350 
# 
# From -- ./inp_files/46340.got.cif
#   From: 2010.05.17/outbox.cif.g08.bks.cpg/sg2_24_cif.got.tgz:46340.got - 2010.06.03 11:33:40.
