data_PCOD9022809
_publ_section_title
;
Structure prediction by ZEFSAII (Michael W. Deem and Ramdas Pophale) SiO2 
 PCOD9022809
Probable space group: P -1
;
_chemical_formula_sum "Si O2"
_cell_formula_units_Z 16
_cell_length_a 13.037115
_cell_length_b 9.192874
_cell_length_c 18.968447
_cell_angle_alpha 118.171800
_cell_angle_beta 30.238258
_cell_angle_gamma 130.037411
_cell_volume 855.649237
_symmetry_space_group_name_H-M "P -1"
_symmetry_group_IT_number 2
_symmetry_cell_setting 'triclinic'
loop_
_space_group_symop_operation_xyz
x,y,z
-x,-y,-z
loop_
_atom_site_type_symbol
_atom_site_label
_atom_site_fract_x
_atom_site_fract_y
_atom_site_fract_z
Si Si1 0.348368 0.400742 0.637722
Si Si2 0.500323 0.843151 0.414833
Si Si3 0.013119 0.719557 0.599715
Si Si4 0.765991 0.334765 0.142233
Si Si5 0.728809 0.275160 0.684900
Si Si6 0.222222 0.980640 0.848275
Si Si7 0.457995 0.983711 0.136845
Si Si8 0.849676 0.011709 0.809431
O O1 0.500000 0.500000 0.500000
O O2 0.455477 0.299338 0.598116
O O3 0.343754 0.559954 0.725858
O O4 0.079896 0.227489 0.735530
O O5 0.244649 0.737279 0.503604
O O6 0.500000 0.000000 0.500000
O O7 0.705883 0.965559 0.263156
O O8 0.804798 0.496967 0.682852
O O9 0.095140 0.756398 0.477428
O O10 0.946345 0.867822 0.705446
O O11 0.828445 0.223306 0.138388
O O12 0.587128 0.172637 0.154699
O O13 0.000000 0.500000 0.000000
O O14 0.459288 0.139280 0.785505
O O15 0.717824 0.202107 0.753441
O O16 0.000000 0.000000 0.000000
O O17 0.303901 0.001802 0.170928
O O18 0.667495 0.962750 0.971762
#
# Coordination Sequence:
#
# PCOD9022809 Si02
#       8
#     2   2   2   2   2   2   2   2
#     4  12  26  41  65  98 128 168 213 264 322 381
#     4  11  22  40  62  89 126 162 206 262 315 369
#     4  10  22  41  64  92 124 162 212 265 310 379
#     4  11  22  42  66  93 129 169 213 258 314 384
#     4   9  22  41  63  91 123 163 214 255 315 378
#     4  10  22  39  64  93 123 164 212 260 307 373
#     4  10  24  43  64  91 128 170 207 261 316 380
#     4  11  24  43  62  94 132 163 211 265 316 374
#
# _framework density 18.699252999999999
#
# number of rings (size 3 to 8) (size 9 to 14) (size 15 to 20)
#    0.000    1.500    2.500    1.500    7.000    5.000 
#    0.000    0.000    0.000    0.000    0.000    0.000 
#    0.000    0.000    0.000    0.000    0.000    0.000 
#
# Total GULP energy -89320.573728 kJ/mol
# GULP energy per Si atom -5582.535858 kJ/mol
# Density = 1.865669 g / cm^3
# Si number density = 18.699253 Si / 1000 Ang^3
#
#
#
# Elastic Constant Matrix: (Units=GPa)
#
#
# Indices 1 2 3 4 5 6 
#
# 1 99.8761 44.4394 64.0178 10.1176 22.5020 -26.0527
# 2 44.4394 108.9504 73.2298 13.4900 12.2173 -17.1524
# 3 64.0178 73.2298 138.9404 12.9727 21.4490 -20.1079
# 4 10.1176 13.4900 12.9727 43.1072 -3.3008 3.0566
# 5 22.5020 12.2173 21.4490 -3.3008 33.7555 0.3143
# 6 -26.0527 -17.1524 -20.1079 3.0566 0.3143 33.9864
#
#
#
# Elastic Compliance Matrix: (Units=1/GPa)
#
#
# Indices 1 2 3 4 5 6 
#
# 1 0.019326 -0.001277 -0.004532 -0.004394 -0.010083 0.011978
# 2 -0.001277 0.014948 -0.006498 -0.002688 -0.000721 0.002969
# 3 -0.004532 -0.006498 0.013566 -0.001346 -0.003392 0.001425
# 4 -0.004394 -0.002688 -0.001346 0.026611 0.007434 -0.007984
# 5 -0.010083 -0.000721 -0.003392 0.007434 0.039593 -0.011135
# 6 0.011978 0.002969 0.001425 -0.007984 -0.011135 0.041768
#
#
# Mechanical properties :
#
#
# Convention : Reuss Voigt Hill
#
# Bulk Modulus (GPa) = 43.05290 79.01566 61.03428
# Shear Modulus (GPa) = 26.57192 33.24179 29.90685
#
# Velocity S-wave (km/s) = 3.77373 4.22086 4.00354
# Velocity P-wave (km/s) = 6.48551 8.13031 7.35404
#
# Compressibility (1/GPa) = 0.02322724
#
# Stress axis : x y z
#
# Youngs Moduli (GPa) = 51.74285 66.89792 73.71388
#
# Poissons Ratio (x) = 0.08540 0.33404
# Poissons Ratio (y) = 0.06606 0.47902
# Poissons Ratio (z) = 0.23448 0.43473
#
# Static dielectric constant tensor:
#      x y z
#    x 1.647000 0.001340 0.018090 
#    y 0.001340 1.599610 0.019630 
#    z 0.018090 0.019630 1.608510 
# 
# From -- ./inp_files/500586.got.cif
#   From: 2010.05.17/outbox.cif.g08.bks.cpg/sg2_251_cif.got.tgz:500586.got - 2010.06.03 11:33:40.
