data_PCOD9022935
_publ_section_title
;
Structure prediction by ZEFSAII (Michael W. Deem and Ramdas Pophale) SiO2 
 PCOD9022935
Probable space group: P -1
;
_chemical_formula_sum "Si O2"
_cell_formula_units_Z 15
_cell_length_a 22.025902
_cell_length_b 4.710332
_cell_length_c 6.758613
_cell_angle_alpha 111.708994
_cell_angle_beta 67.995798
_cell_angle_gamma 95.468282
_cell_volume 603.249676
_symmetry_space_group_name_H-M "P -1"
_symmetry_group_IT_number 2
_symmetry_cell_setting 'triclinic'
loop_
_space_group_symop_operation_xyz
x,y,z
-x,-y,-z
loop_
_atom_site_type_symbol
_atom_site_label
_atom_site_fract_x
_atom_site_fract_y
_atom_site_fract_z
Si Si1 0.143655 0.042472 0.647121
Si Si2 0.917086 0.596665 0.486744
Si Si3 0.962482 0.714719 0.889293
Si Si4 0.669506 0.587850 0.219186
Si Si5 0.619129 0.350509 0.844548
Si Si6 0.467072 0.143879 0.374994
Si Si7 0.500000 0.500000 0.000000
Si Si8 0.272885 0.817817 0.656526
O O1 0.145391 0.227811 0.489773
O O2 0.102244 0.752457 0.560504
O O3 0.206796 0.913503 0.650771
O O4 0.103310 0.280237 0.900937
O O5 0.937860 0.746121 0.702612
O O6 0.983516 0.568048 0.263288
O O7 0.000000 0.000000 0.000000
O O8 0.602719 0.683147 0.441744
O O9 0.725727 0.458963 0.265337
O O10 0.698059 0.899735 0.188025
O O11 0.654176 0.346406 0.008118
O O12 0.673222 0.282343 0.599389
O O13 0.554164 0.170199 0.798387
O O14 0.572809 0.658509 0.979123
O O15 0.500000 0.000000 0.500000
O O16 0.498127 0.643598 0.771184
#
# Coordination Sequence:
#
# PCOD9022935 Si02
#       8
#     2   2   2   2   2   2   1   2
#     4  11  23  41  60  91 124 164 206 246 299 357
#     4  10  22  39  65  92 125 160 201 253 298 352
#     4   9  21  39  64  95 125 159 202 250 303 353
#     4  11  22  42  61  88 121 159 200 253 303 358
#     4   9  20  37  61  89 120 155 201 249 305 364
#     4   9  15  34  64  87 117 147 197 246 309 360
#     4   8  16  34  64  90 116 156 194 254 308 364
#     4  11  26  40  63  88 123 164 206 247 297 364
#
# _framework density 24.865328000000002
#
# number of rings (size 3 to 8) (size 9 to 14) (size 15 to 20)
#    0.800    1.333    1.333    1.200    0.000   11.200 
#    0.000    6.667    0.000    0.000    0.000    0.000 
#    0.000    0.000    0.000    0.000    0.000    0.000 
#
# Total GULP energy -83555.448972 kJ/mol
# GULP energy per Si atom -5570.363265 kJ/mol
# Density = 2.480873 g / cm^3
# Si number density = 24.865328 Si / 1000 Ang^3
#
#
#
# Elastic Constant Matrix: (Units=GPa)
#
#
# Indices 1 2 3 4 5 6 
#
# 1 92.0829 8.9101 38.6372 -10.8857 26.1018 -32.1969
# 2 8.9101 93.6784 40.0488 -7.6366 19.8281 -11.5735
# 3 38.6372 40.0488 102.4239 -1.4635 34.7602 -8.5735
# 4 -10.8857 -7.6366 -1.4635 18.7926 0.0956 17.3298
# 5 26.1018 19.8281 34.7602 0.0956 33.1209 -4.3607
# 6 -32.1969 -11.5735 -8.5735 17.3298 -4.3607 55.0364
#
#
#
# Elastic Compliance Matrix: (Units=1/GPa)
#
#
# Indices 1 2 3 4 5 6 
#
# 1 0.019272 0.003852 -0.003754 0.003941 -0.012344 0.009281
# 2 0.003852 0.014400 -0.004587 0.005675 -0.006562 0.002261
# 3 -0.003754 -0.004587 0.017045 -0.001809 -0.012299 -0.000910
# 4 0.003941 0.005675 -0.001809 0.077923 -0.007717 -0.021931
# 5 -0.012344 -0.006562 -0.012299 -0.007717 0.056301 -0.003626
# 6 0.009281 0.002261 -0.000910 -0.021931 -0.003626 0.030551
#
#
# Mechanical properties :
#
#
# Convention : Reuss Voigt Hill
#
# Bulk Modulus (GPa) = 23.95753 51.48637 37.72195
# Shear Modulus (GPa) = 20.97481 34.76260 27.86870
#
# Velocity S-wave (km/s) = 2.90752 3.74309 3.35145
# Velocity P-wave (km/s) = 4.57465 6.27949 5.49360
#
# Compressibility (1/GPa) = 0.04174054
#
# Stress axis : x y z
#
# Youngs Moduli (GPa) = 51.88875 69.44463 58.66934
#
# Poissons Ratio (x) = -0.26753 0.22024
# Poissons Ratio (y) = -0.19989 0.26909
# Poissons Ratio (z) = 0.19479 0.31851
#
# Static dielectric constant tensor:
#      x y z
#    x 1.626280 0.420610 -0.637960 
#    y 0.420610 1.537900 0.743630 
#    z -0.637960 0.743630 0.815480 
# 
# From -- ./inp_files/114305.got.cif
#   From: 2010.05.17/outbox.cif.g08.bks.cpg/sg2_58_cif.got.tgz:114305.got - 2010.06.03 11:33:40.
