data_PCOD9022492
_publ_section_title
;
Structure prediction by ZEFSAII (Michael W. Deem and Ramdas Pophale) SiO2 
 PCOD9022492
Probable space group: P -1
;
_chemical_formula_sum "Si O2"
_cell_formula_units_Z 16
_cell_length_a 15.637590
_cell_length_b 9.707906
_cell_length_c 9.647200
_cell_angle_alpha 77.176183
_cell_angle_beta 105.783077
_cell_angle_gamma 151.433927
_cell_volume 673.435901
_symmetry_space_group_name_H-M "P -1"
_symmetry_group_IT_number 2
_symmetry_cell_setting 'triclinic'
loop_
_space_group_symop_operation_xyz
x,y,z
-x,-y,-z
loop_
_atom_site_type_symbol
_atom_site_label
_atom_site_fract_x
_atom_site_fract_y
_atom_site_fract_z
Si Si1 0.359374 0.114650 0.120611
Si Si2 0.688522 0.770475 0.186782
Si Si3 0.608241 0.166303 0.868264
Si Si4 0.836676 0.715907 0.582258
Si Si5 0.530012 0.894843 0.456822
Si Si6 0.946663 0.239038 0.403321
Si Si7 0.054555 0.165918 0.118040
Si Si8 0.885588 0.241401 0.663920
O O1 0.528168 0.435823 0.184816
O O2 0.370912 0.961507 0.158744
O O3 0.188010 0.916517 0.187408
O O4 0.354979 0.159266 0.949516
O O5 0.758413 0.918155 0.333581
O O6 0.866217 0.951982 0.151465
O O7 0.501345 0.111620 0.717953
O O8 0.800503 0.507630 0.913776
O O9 0.500000 0.000000 0.000000
O O10 0.634281 0.438405 0.502184
O O11 0.848923 0.789204 0.726740
O O12 0.890417 0.623445 0.625442
O O13 0.000000 0.000000 0.500000
O O14 0.500000 0.000000 0.500000
O O15 0.715463 0.081245 0.545992
O O16 0.961606 0.248156 0.573880
O O17 0.971734 0.434936 0.324527
O O18 0.000000 0.000000 0.000000
#
# Coordination Sequence:
#
# PCOD9022492 Si02
#       8
#     2   2   2   2   2   2   2   2
#     4  11  23  42  63  91 123 166 207 253 314 365
#     4  10  24  42  62  89 128 162 207 260 304 371
#     4  11  24  40  65  94 122 163 211 251 310 371
#     4  10  22  39  62  91 123 163 202 251 311 368
#     4  11  21  40  63  93 123 159 209 256 303 370
#     4  10  23  42  60  92 127 160 208 257 311 369
#     4  10  22  42  62  91 126 159 205 258 302 370
#     4  11  23  41  65  91 126 162 208 260 308 376
#
# _framework density 23.758759000000001
#
# number of rings (size 3 to 8) (size 9 to 14) (size 15 to 20)
#    0.000    1.500    2.500    2.250    5.250    4.500 
#    4.500    0.000    0.000    0.000    0.000    0.000 
#    0.000    0.000    0.000    0.000    0.000    0.000 
#
# Total GULP energy -89421.454460 kJ/mol
# GULP energy per Si atom -5588.840904 kJ/mol
# Density = 2.370468 g / cm^3
# Si number density = 23.758759 Si / 1000 Ang^3
#
#
#
# Elastic Constant Matrix: (Units=GPa)
#
#
# Indices 1 2 3 4 5 6 
#
# 1 31.4706 4.3883 3.8780 6.5138 -8.3676 -12.9012
# 2 4.3883 162.7824 21.4990 -7.6778 -11.9015 -27.7905
# 3 3.8780 21.4990 91.3185 -6.7148 -18.1764 -21.5657
# 4 6.5138 -7.6778 -6.7148 43.6680 2.6446 -3.1149
# 5 -8.3676 -11.9015 -18.1764 2.6446 41.5783 1.4068
# 6 -12.9012 -27.7905 -21.5657 -3.1149 1.4068 31.2632
#
#
#
# Elastic Compliance Matrix: (Units=1/GPa)
#
#
# Indices 1 2 3 4 5 6 
#
# 1 0.044154 0.002719 0.004847 -0.004403 0.011284 0.023035
# 2 0.002719 0.007690 0.000722 0.001500 0.002682 0.008485
# 3 0.004847 0.000722 0.015276 0.002245 0.007275 0.013076
# 4 -0.004403 0.001500 0.002245 0.024489 -0.001153 0.003557
# 5 0.011284 0.002682 0.007275 -0.001153 0.029985 0.010594
# 6 0.023035 0.008485 0.013076 0.003557 0.010594 0.057932
#
#
# Mechanical properties :
#
#
# Convention : Reuss Voigt Hill
#
# Bulk Modulus (GPa) = 11.94802 38.34468 25.14635
# Shear Modulus (GPa) = 26.19890 40.35565 33.27728
#
# Velocity S-wave (km/s) = 3.32430 4.12583 3.74656
# Velocity P-wave (km/s) = 4.44685 6.23465 5.41504
#
# Compressibility (1/GPa) = 0.08369587
#
# Stress axis : x y z
#
# Youngs Moduli (GPa) = 22.64809 130.04175 65.46254
#
# Poissons Ratio (x) = -0.35364 -0.31728
# Poissons Ratio (y) = -0.06159 -0.04726
# Poissons Ratio (z) = -0.10977 -0.09387
#
# Static dielectric constant tensor:
#      x y z
#    x 1.971790 -0.024110 0.038210 
#    y -0.024110 1.903550 -0.008000 
#    z 0.038210 -0.008000 1.985410 
# 
# From -- ./inp_files/346137.got.cif
#   From: 2010.05.17/outbox.cif.g08.bks.cpg/sg2_174_cif.got.tgz:346137.got - 2010.06.03 11:33:40.
