data_PCOD9022333
_publ_section_title
;
Structure prediction by ZEFSAII (Michael W. Deem and Ramdas Pophale) SiO2 
 PCOD9022333
Probable space group: P -1
;
_chemical_formula_sum "Si O2"
_cell_formula_units_Z 16
_cell_length_a 14.076720
_cell_length_b 21.793697
_cell_length_c 19.114035
_cell_angle_alpha 162.458242
_cell_angle_beta 149.379733
_cell_angle_gamma 27.907733
_cell_volume 820.492450
_symmetry_space_group_name_H-M "P -1"
_symmetry_group_IT_number 2
_symmetry_cell_setting 'triclinic'
loop_
_space_group_symop_operation_xyz
x,y,z
-x,-y,-z
loop_
_atom_site_type_symbol
_atom_site_label
_atom_site_fract_x
_atom_site_fract_y
_atom_site_fract_z
Si Si1 0.587553 0.681240 0.402330
Si Si2 0.354732 0.502947 0.606130
Si Si3 0.594219 0.228938 0.852486
Si Si4 0.183200 0.756191 0.555618
Si Si5 0.473256 0.296568 0.170236
Si Si6 0.083565 0.151196 0.262592
Si Si7 0.296986 0.034188 0.504322
Si Si8 0.415565 0.926981 0.798698
O O1 0.580696 0.611415 0.402161
O O2 0.781425 0.743096 0.578430
O O3 0.394451 0.899566 0.490610
O O4 0.607446 0.459996 0.131216
O O5 0.472904 0.652352 0.817733
O O6 0.422428 0.313683 0.384286
O O7 0.114427 0.650803 0.616176
O O8 0.619618 0.161394 0.714148
O O9 0.774405 0.019139 0.775410
O O10 0.392110 0.210238 0.734971
O O11 0.297736 0.507277 0.326311
O O12 0.319718 0.763024 0.716689
O O13 0.213966 0.907003 0.676852
O O14 0.946612 0.842507 0.516220
O O15 0.403178 0.096842 0.914826
O O16 0.000000 0.000000 0.000000
O O17 0.500000 0.000000 0.000000
#
# Coordination Sequence:
#
# PCOD9022333 Si02
#       8
#     2   2   2   2   2   2   2   2
#     4  11  24  39  57  87 125 160 205 239 298 371
#     4  11  22  35  59  88 120 156 191 247 306 353
#     4  10  22  40  59  88 121 163 205 246 293 360
#     4   9  18  37  58  87 113 150 198 246 294 353
#     4   9  19  35  59  86 118 145 194 250 300 348
#     4  11  23  38  61  92 123 156 201 250 303 359
#     4  10  22  39  61  85 123 163 204 245 294 355
#     4   9  20  36  58  89 119 149 194 248 306 356
#
# _framework density 19.500484
#
# number of rings (size 3 to 8) (size 9 to 14) (size 15 to 20)
#    0.000    2.000    1.250    2.250    1.750    3.000 
#    0.000    2.500    0.000    4.500    0.000    0.000 
#    0.000    0.000    0.000    0.000    0.000    0.000 
#
# Total GULP energy -89251.532925 kJ/mol
# GULP energy per Si atom -5578.220808 kJ/mol
# Density = 1.945610 g / cm^3
# Si number density = 19.500484 Si / 1000 Ang^3
#
#
#
# Elastic Constant Matrix: (Units=GPa)
#
#
# Indices 1 2 3 4 5 6 
#
# 1 105.4311 53.4533 36.2210 2.5675 27.5479 3.3458
# 2 53.4533 99.3045 23.0323 -5.9307 20.5686 -15.2162
# 3 36.2210 23.0323 95.9400 -0.5445 22.2793 -8.7462
# 4 2.5675 -5.9307 -0.5445 14.5804 4.3540 4.9555
# 5 27.5479 20.5686 22.2793 4.3540 29.4720 2.7391
# 6 3.3458 -15.2162 -8.7462 4.9555 2.7391 29.9926
#
#
#
# Elastic Compliance Matrix: (Units=1/GPa)
#
#
# Indices 1 2 3 4 5 6 
#
# 1 0.016564 -0.007785 -0.003392 -0.002261 -0.006611 -0.005809
# 2 -0.007785 0.017540 0.001556 0.007712 -0.008181 0.009694
# 3 -0.003392 0.001556 0.014063 0.002646 -0.009466 0.005696
# 4 -0.002261 0.007712 0.002646 0.079381 -0.016375 -0.006684
# 5 -0.006611 -0.008181 -0.009466 -0.016375 0.056194 -0.008600
# 6 -0.005809 0.009694 0.005696 -0.006684 -0.008600 0.042458
#
#
# Mechanical properties :
#
#
# Convention : Reuss Voigt Hill
#
# Bulk Modulus (GPa) = 34.57293 58.45431 46.51362
# Shear Modulus (GPa) = 19.60140 27.34026 23.47083
#
# Velocity S-wave (km/s) = 3.17389 3.74843 3.47306
# Velocity P-wave (km/s) = 5.58562 6.98393 6.32354
#
# Compressibility (1/GPa) = 0.02892437
#
# Stress axis : x y z
#
# Youngs Moduli (GPa) = 60.37167 57.01197 71.10975
#
# Poissons Ratio (x) = 0.44385 0.24118
# Poissons Ratio (y) = 0.47000 -0.11061
# Poissons Ratio (z) = 0.20476 -0.08868
#
# Static dielectric constant tensor:
#      x y z
#    x 1.734410 0.051200 0.025460 
#    y 0.051200 1.685040 0.005370 
#    z 0.025460 0.005370 1.712790 
# 
# From -- ./inp_files/570814.got.cif
#   From: 2010.05.17/outbox.cif.g08.bks.cpg/sg2_286_cif.got.tgz:570814.got - 2010.06.03 11:33:40.
