data_PCOD9022858
_publ_section_title
;
Structure prediction by ZEFSAII (Michael W. Deem and Ramdas Pophale) SiO2 
 PCOD9022858
Probable space group: P -1
;
_chemical_formula_sum "Si O2"
_cell_formula_units_Z 14
_cell_length_a 14.576467
_cell_length_b 12.712510
_cell_length_c 23.927505
_cell_angle_alpha 151.374039
_cell_angle_beta 161.063760
_cell_angle_gamma 27.549330
_cell_volume 642.466297
_symmetry_space_group_name_H-M "P -1"
_symmetry_group_IT_number 2
_symmetry_cell_setting 'triclinic'
loop_
_space_group_symop_operation_xyz
x,y,z
-x,-y,-z
loop_
_atom_site_type_symbol
_atom_site_label
_atom_site_fract_x
_atom_site_fract_y
_atom_site_fract_z
Si Si1 0.033892 0.752762 0.477323
Si Si2 0.122630 0.846423 0.839439
Si Si3 0.216252 0.447786 0.546537
Si Si4 0.819013 0.538480 0.085655
Si Si5 0.092550 0.636816 0.068233
Si Si6 0.146259 0.652760 0.872053
Si Si7 0.253374 0.757288 0.489818
O O1 0.138684 0.666262 0.559720
O O2 0.246261 0.794747 0.570289
O O3 0.989767 0.526178 0.318717
O O4 0.747504 0.000822 0.426051
O O5 0.077508 0.867583 0.890374
O O6 0.862331 0.760029 0.625755
O O7 0.453107 0.650088 0.926325
O O8 0.107984 0.088589 0.917758
O O9 0.561276 0.382511 0.732824
O O10 0.000000 0.500000 0.500000
O O11 0.925332 0.329214 0.095475
O O12 0.952394 0.726596 0.275731
O O13 0.933652 0.464426 0.055110
O O14 0.000000 0.500000 0.000000
O O15 0.500000 0.500000 0.000000
O O16 0.500000 0.500000 0.500000
#
# Coordination Sequence:
#
# PCOD9022858 Si02
#       7
#     2   2   2   2   2   2   2
#     4   9  21  40  63  89 129 167 213 269 324 375
#     4  10  22  45  69  92 131 169 223 272 323 380
#     4  11  23  47  68  92 132 180 220 262 326 386
#     4  10  22  41  63  97 128 167 217 270 328 383
#     4  12  28  41  66  99 133 174 222 266 320 394
#     4   8  17  38  66  89 117 163 210 270 322 371
#     4  10  22  39  64  97 130 169 211 268 336 389
#
# _framework density 21.791028000000001
#
# number of rings (size 3 to 8) (size 9 to 14) (size 15 to 20)
#    0.000    2.000    1.429    0.429    4.000    5.714 
#    7.714    0.000    0.000    0.000    0.000    0.000 
#    0.000    0.000    0.000    0.000    0.000    0.000 
#
# Total GULP energy -78037.247746 kJ/mol
# GULP energy per Si atom -5574.089125 kJ/mol
# Density = 2.174143 g / cm^3
# Si number density = 21.791028 Si / 1000 Ang^3
#
#
#
# Elastic Constant Matrix: (Units=GPa)
#
#
# Indices 1 2 3 4 5 6 
#
# 1 133.4043 27.7982 14.0320 5.9222 -25.8527 23.8578
# 2 27.7982 85.2887 -8.4699 13.9535 -13.2554 18.3078
# 3 14.0320 -8.4699 60.8351 -4.9607 -5.8485 -4.3315
# 4 5.9222 13.9535 -4.9607 26.0670 1.4238 3.6132
# 5 -25.8527 -13.2554 -5.8485 1.4238 26.9132 -1.3825
# 6 23.8578 18.3078 -4.3315 3.6132 -1.3825 39.1530
#
#
#
# Elastic Compliance Matrix: (Units=1/GPa)
#
#
# Indices 1 2 3 4 5 6 
#
# 1 0.010884 -0.000643 -0.002305 -0.002245 0.009445 -0.006046
# 2 -0.000643 0.015822 0.002065 -0.007547 0.007724 -0.005808
# 3 -0.002305 0.002065 0.017870 0.002355 0.002679 0.002294
# 4 -0.002245 -0.007547 0.002355 0.043658 -0.007627 0.000859
# 5 0.009445 0.007724 0.002679 -0.007627 0.050682 -0.006577
# 6 -0.006046 -0.005808 0.002294 0.000859 -0.006577 0.031883
#
#
# Mechanical properties :
#
#
# Convention : Reuss Voigt Hill
#
# Bulk Modulus (GPa) = 23.36046 38.47210 30.91628
# Shear Modulus (GPa) = 26.76152 34.83783 30.79968
#
# Velocity S-wave (km/s) = 3.50823 4.00274 3.76361
# Velocity P-wave (km/s) = 5.21092 6.24947 5.75368
#
# Compressibility (1/GPa) = 0.04280737
#
# Stress axis : x y z
#
# Youngs Moduli (GPa) = 91.87940 63.20473 55.95973
#
# Poissons Ratio (x) = 0.04066 0.12901
# Poissons Ratio (y) = 0.05911 -0.11554
# Poissons Ratio (z) = 0.21182 -0.13050
#
# Static dielectric constant tensor:
#      x y z
#    x 1.858510 0.008890 0.015090 
#    y 0.008890 1.831780 0.000690 
#    z 0.015090 0.000690 1.807540 
# 
# From -- ./inp_files/405695.got.cif
#   From: 2010.05.17/outbox.cif.g08.bks.cpg/sg2_203_cif.got.tgz:405695.got - 2010.06.03 11:33:40.
