data_PCOD9022005
_publ_section_title
;
Structure prediction by ZEFSAII (Michael W. Deem and Ramdas Pophale) SiO2 
 PCOD9022005
Probable space group: P -1
;
_chemical_formula_sum "Si O2"
_cell_formula_units_Z 15
_cell_length_a 11.318770
_cell_length_b 10.257273
_cell_length_c 17.446008
_cell_angle_alpha 111.441495
_cell_angle_beta 144.847798
_cell_angle_gamma 96.882494
_cell_volume 677.455668
_symmetry_space_group_name_H-M "P -1"
_symmetry_group_IT_number 2
_symmetry_cell_setting 'triclinic'
loop_
_space_group_symop_operation_xyz
x,y,z
-x,-y,-z
loop_
_atom_site_type_symbol
_atom_site_label
_atom_site_fract_x
_atom_site_fract_y
_atom_site_fract_z
Si Si1 0.801216 0.263627 0.868484
Si Si2 0.870463 0.029879 0.236703
Si Si3 0.763352 0.003744 0.881392
Si Si4 0.779422 0.175671 0.078845
Si Si5 0.705561 0.799930 0.356593
Si Si6 0.719538 0.625753 0.066610
Si Si7 0.500000 0.000000 0.500000
Si Si8 0.268480 0.691624 0.412736
O O1 0.969794 0.242909 0.007433
O O2 0.490983 0.161440 0.726229
O O3 0.708243 0.137326 0.715353
O O4 0.000000 0.500000 0.000000
O O5 0.930334 0.162196 0.224479
O O6 0.151023 0.176101 0.481749
O O7 0.789193 0.824571 0.128839
O O8 0.542864 0.917437 0.080138
O O9 0.456508 0.813751 0.619634
O O10 0.680105 0.014371 0.924017
O O11 0.000000 0.000000 0.000000
O O12 0.027070 0.431159 0.237280
O O13 0.474558 0.562905 0.141849
O O14 0.000000 0.000000 0.500000
O O15 0.064009 0.727304 0.287738
O O16 0.500000 0.500000 0.000000
O O17 0.510028 0.183041 0.518736
#
# Coordination Sequence:
#
# PCOD9022005 Si02
#       8
#     2   2   2   2   2   2   1   2
#     4  11  24  42  67  98 133 172 225 288 338 396
#     4  11  25  41  67 104 137 180 219 280 348 413
#     4  11  26  43  67  92 132 186 228 271 334 406
#     4  11  25  45  64  96 145 179 222 277 347 409
#     4  12  24  41  72 105 136 175 232 289 347 408
#     4  12  23  40  72 103 131 172 225 282 345 401
#     4  10  22  38  68  94 128 174 226 272 334 382
#     4  11  24  45  69 100 136 176 226 286 335 407
#
# _framework density 22.141670999999999
#
# number of rings (size 3 to 8) (size 9 to 14) (size 15 to 20)
#    0.000    0.800    2.667    4.800    1.867    8.000 
#    0.000    2.667    0.000    0.000    0.000    0.000 
#    0.000    0.000    0.000    0.000    0.000    0.000 
#
# Total GULP energy -83619.768844 kJ/mol
# GULP energy per Si atom -5574.651256 kJ/mol
# Density = 2.209128 g / cm^3
# Si number density = 22.141671 Si / 1000 Ang^3
#
#
#
# Elastic Constant Matrix: (Units=GPa)
#
#
# Indices 1 2 3 4 5 6 
#
# 1 74.5857 37.6279 21.5795 -16.1126 -12.8188 -7.8953
# 2 37.6279 166.1761 45.4903 -20.4875 -2.7362 -8.6912
# 3 21.5795 45.4903 97.9806 -10.6760 -30.3349 -14.8917
# 4 -16.1126 -20.4875 -10.6760 36.0135 2.5798 2.8469
# 5 -12.8188 -2.7362 -30.3349 2.5798 44.5935 -1.2425
# 6 -7.8953 -8.6912 -14.8917 2.8469 -1.2425 39.1706
#
#
#
# Elastic Compliance Matrix: (Units=1/GPa)
#
#
# Indices 1 2 3 4 5 6 
#
# 1 0.017139 -0.003000 -0.000015 0.005435 0.004488 0.002530
# 2 -0.003000 0.007951 -0.003834 0.002313 -0.003133 -0.000566
# 3 -0.000015 -0.003834 0.016406 0.001443 0.010994 0.005627
# 4 0.005435 0.002313 0.001443 0.031893 0.000837 -0.000134
# 5 0.004488 -0.003133 0.010994 0.000837 0.031101 0.005315
# 6 0.002530 -0.000566 0.005627 -0.000134 0.005315 0.028231
#
#
# Mechanical properties :
#
#
# Convention : Reuss Voigt Hill
#
# Bulk Modulus (GPa) = 35.97726 60.90419 48.44072
# Shear Modulus (GPa) = 32.11584 39.55849 35.83717
#
# Velocity S-wave (km/s) = 3.81264 4.23141 4.02747
# Velocity P-wave (km/s) = 5.97206 7.17213 6.59943
#
# Compressibility (1/GPa) = 0.02779534
#
# Stress axis : x y z
#
# Youngs Moduli (GPa) = 58.34702 125.77454 60.95386
#
# Poissons Ratio (x) = 0.37736 0.00094
# Poissons Ratio (y) = 0.17506 0.23372
# Poissons Ratio (z) = 0.00090 0.48227
#
# Static dielectric constant tensor:
#      x y z
#    x 1.370390 -0.283280 -0.269330 
#    y -0.283280 2.106730 0.185560 
#    z -0.269330 0.185560 1.912110 
# 
# From -- ./inp_files/566108.got.cif
#   From: 2010.05.17/outbox.cif.g08.bks.cpg/sg2_284_cif.got.tgz:566108.got - 2010.06.03 11:33:40.
