data_PCOD9022218
_publ_section_title
;
Structure prediction by ZEFSAII (Michael W. Deem and Ramdas Pophale) SiO2 
 PCOD9022218
Probable space group: P -1
;
_chemical_formula_sum "Si O2"
_cell_formula_units_Z 16
_cell_length_a 7.865201
_cell_length_b 10.868333
_cell_length_c 15.588263
_cell_angle_alpha 126.100366
_cell_angle_beta 125.344368
_cell_angle_gamma 44.283356
_cell_volume 722.149832
_symmetry_space_group_name_H-M "P -1"
_symmetry_group_IT_number 2
_symmetry_cell_setting 'triclinic'
loop_
_space_group_symop_operation_xyz
x,y,z
-x,-y,-z
loop_
_atom_site_type_symbol
_atom_site_label
_atom_site_fract_x
_atom_site_fract_y
_atom_site_fract_z
Si Si1 0.267824 0.194362 0.722892
Si Si2 0.223427 0.963364 0.486463
Si Si3 0.753290 0.944893 0.849289
Si Si4 0.524421 0.465098 0.231418
Si Si5 0.620089 0.536010 0.468971
Si Si6 0.755822 0.079921 0.080249
Si Si7 0.978792 0.126532 0.753626
Si Si8 0.011070 0.449306 0.304780
O O1 0.164267 0.124795 0.737044
O O2 0.061885 0.409849 0.736563
O O3 0.294733 0.097170 0.599624
O O4 0.543127 0.124433 0.808101
O O5 0.449786 0.750434 0.479047
O O6 0.125917 0.982995 0.369151
O O7 0.000000 0.000000 0.500000
O O8 0.778764 0.761713 0.747920
O O9 0.022845 0.907549 0.891392
O O10 0.693426 0.985304 0.949044
O O11 0.602027 0.430757 0.340278
O O12 0.535291 0.290990 0.125275
O O13 0.260599 0.660837 0.219853
O O14 0.750539 0.473129 0.261260
O O15 0.500000 0.500000 0.500000
O O16 0.883699 0.494422 0.562630
O O17 0.875992 0.962186 0.152814
#
# Coordination Sequence:
#
# PCOD9022218 Si02
#       8
#     2   2   2   2   2   2   2   2
#     4  11  22  38  63  88 126 159 201 250 302 359
#     4   9  19  35  54  88 121 154 193 236 299 356
#     4  10  23  44  61  91 116 164 210 246 304 353
#     4  10  23  39  59  91 122 157 205 245 305 359
#     4  11  21  36  60  89 127 157 198 248 301 365
#     4  10  23  42  67  82 123 163 204 255 296 360
#     4  10  22  39  59  92 121 159 202 248 303 359
#     4  11  22  39  61  89 123 160 200 251 298 363
#
# _framework density 22.156068999999999
#
# number of rings (size 3 to 8) (size 9 to 14) (size 15 to 20)
#    0.000    1.750    1.250    3.375    5.250    2.500 
#    0.000    6.875    0.000    0.000    0.000    0.000 
#    0.000    0.000    0.000    0.000    0.000    0.000 
#
# Total GULP energy -89404.759846 kJ/mol
# GULP energy per Si atom -5587.797490 kJ/mol
# Density = 2.210564 g / cm^3
# Si number density = 22.156069 Si / 1000 Ang^3
#
#
#
# Elastic Constant Matrix: (Units=GPa)
#
#
# Indices 1 2 3 4 5 6 
#
# 1 17.6112 -7.1536 12.0371 8.4273 -9.4646 4.5708
# 2 -7.1536 77.1577 16.5720 -6.5750 -10.2808 -8.7558
# 3 12.0371 16.5720 77.6216 -4.2576 -23.8639 1.7011
# 4 8.4273 -6.5750 -4.2576 27.1079 -1.2878 -5.9706
# 5 -9.4646 -10.2808 -23.8639 -1.2878 24.5496 -8.2531
# 6 4.5708 -8.7558 1.7011 -5.9706 -8.2531 31.5680
#
#
#
# Elastic Compliance Matrix: (Units=1/GPa)
#
#
# Indices 1 2 3 4 5 6 
#
# 1 0.102018 0.011974 -0.010990 -0.031187 0.028937 -0.009191
# 2 0.011974 0.017062 -0.001670 0.002245 0.012539 0.006791
# 3 -0.010990 -0.001670 0.020736 0.008492 0.017771 0.006263
# 4 -0.031187 0.002245 0.008492 0.052223 0.005268 0.015935
# 5 0.028937 0.012539 0.017771 0.005268 0.081641 0.020671
# 6 -0.009191 0.006791 0.006263 0.015935 0.020671 0.042973
#
#
# Mechanical properties :
#
#
# Convention : Reuss Voigt Hill
#
# Bulk Modulus (GPa) = 7.22315 23.92238 15.57277
# Shear Modulus (GPa) = 13.72973 26.70743 20.21858
#
# Velocity S-wave (km/s) = 2.49204 3.47569 3.02413
# Velocity P-wave (km/s) = 3.39817 5.18920 4.38608
#
# Compressibility (1/GPa) = 0.13844378
#
# Stress axis : x y z
#
# Youngs Moduli (GPa) = 9.80221 58.60948 48.22556
#
# Poissons Ratio (x) = -0.70178 0.52998
# Poissons Ratio (y) = -0.11737 0.08055
# Poissons Ratio (z) = 0.10772 0.09790
#
# Static dielectric constant tensor:
#      x y z
#    x 1.807590 -0.027810 0.002720 
#    y -0.027810 1.772330 0.014530 
#    z 0.002720 0.014530 1.837070 
# 
# From -- ./inp_files/270791.got.cif
#   From: 2010.05.17/outbox.cif.g08.bks.cpg/sg2_136_cif.got.tgz:270791.got - 2010.06.03 11:33:40.
