data_PCOD9022708
_publ_section_title
;
Structure prediction by ZEFSAII (Michael W. Deem and Ramdas Pophale) SiO2 
 PCOD9022708
Probable space group: P -1
;
_chemical_formula_sum "Si O2"
_cell_formula_units_Z 15
_cell_length_a 7.768244
_cell_length_b 13.354933
_cell_length_c 11.124756
_cell_angle_alpha 72.617217
_cell_angle_beta 73.594246
_cell_angle_gamma 132.239465
_cell_volume 594.837682
_symmetry_space_group_name_H-M "P -1"
_symmetry_group_IT_number 2
_symmetry_cell_setting 'triclinic'
loop_
_space_group_symop_operation_xyz
x,y,z
-x,-y,-z
loop_
_atom_site_type_symbol
_atom_site_label
_atom_site_fract_x
_atom_site_fract_y
_atom_site_fract_z
Si Si1 0.614079 0.939724 0.134377
Si Si2 0.489726 0.674424 0.391102
Si Si3 0.500000 0.000000 0.500000
Si Si4 0.310382 0.282135 0.413289
Si Si5 0.634654 0.994723 0.703604
Si Si6 0.321807 0.350062 0.867341
Si Si7 0.217349 0.650952 0.652711
Si Si8 0.457329 0.728070 0.005497
O O1 0.653518 0.863029 0.250101
O O2 0.519785 0.833568 0.070436
O O3 0.370110 0.912099 0.233994
O O4 0.954747 0.160899 0.971585
O O5 0.675545 0.698734 0.449178
O O6 0.466773 0.598222 0.301790
O O7 0.185690 0.566056 0.566310
O O8 0.633862 0.104657 0.304100
O O9 0.700643 0.192592 0.454664
O O10 0.545086 0.468976 0.224454
O O11 0.458833 0.238698 0.392477
O O12 0.947574 0.129325 0.510179
O O13 0.577486 0.856785 0.827970
O O14 0.375375 0.302111 0.988609
O O15 0.913290 0.479243 0.852279
#
# Coordination Sequence:
#
# PCOD9022708 Si02
#       8
#     2   2   1   2   2   2   2   2
#     4  11  22  39  64 102 137 174 203 269 321 395
#     4   9  20  37  61  93 135 172 205 256 317 390
#     4  12  26  48  70  88 122 176 230 272 316 378
#     4  10  22  39  63  96 132 169 216 257 321 389
#     4  12  24  42  68  94 132 174 218 264 325 381
#     4  11  21  36  65 100 144 168 203 257 332 395
#     4  10  24  44  65  95 128 174 219 269 315 379
#     4  11  24  39  65 100 134 167 213 267 330 385
#
# _framework density 25.216964999999998
#
# number of rings (size 3 to 8) (size 9 to 14) (size 15 to 20)
#    0.800    0.533    1.333    5.600    1.867    2.133 
#    0.000    0.000    0.000    4.000    0.000    0.000 
#    0.000    0.000    0.000    0.000    0.000    0.000 
#
# Total GULP energy -83536.217191 kJ/mol
# GULP energy per Si atom -5569.081146 kJ/mol
# Density = 2.515957 g / cm^3
# Si number density = 25.216965 Si / 1000 Ang^3
#
#
#
# Elastic Constant Matrix: (Units=GPa)
#
#
# Indices 1 2 3 4 5 6 
#
# 1 106.9832 16.3573 36.1094 -15.6822 16.7690 -20.0086
# 2 16.3573 36.6660 24.5597 -7.8319 8.2501 2.2491
# 3 36.1094 24.5597 84.3885 -30.8516 20.7917 -15.7934
# 4 -15.6822 -7.8319 -30.8516 37.1179 9.5297 20.5323
# 5 16.7690 8.2501 20.7917 9.5297 53.0308 -14.8387
# 6 -20.0086 2.2491 -15.7934 20.5323 -14.8387 -29.7379
#
#
#
# Elastic Compliance Matrix: (Units=1/GPa)
#
#
# Indices 1 2 3 4 5 6 
#
# 1 0.011254 -0.001755 -0.002004 0.004573 -0.003770 -0.001602
# 2 -0.001755 0.033234 -0.010486 -0.005452 0.001767 0.004617
# 3 -0.002004 -0.010486 0.025764 0.018399 -0.009882 0.004507
# 4 0.004573 -0.005452 0.018399 0.036300 -0.009681 0.016633
# 5 -0.003770 0.001767 -0.009882 -0.009681 0.022581 -0.010033
# 6 -0.001602 0.004617 0.004507 0.016633 -0.010033 -0.018103
#
#
# Mechanical properties :
#
#
# Convention : Reuss Voigt Hill
#
# Bulk Modulus (GPa) = 23.94524 42.45451 33.19987
# Shear Modulus (GPa) = 32.58608 22.14957 27.36783
#
# Velocity S-wave (km/s) = 3.59866 2.96693 3.29795
# Velocity P-wave (km/s) = 5.17527 5.34875 5.26273
#
# Compressibility (1/GPa) = 0.04176196
#
# Stress axis : x y z
#
# Youngs Moduli (GPa) = 88.86109 30.08934 38.81422
#
# Poissons Ratio (x) = 0.05280 0.07778
# Poissons Ratio (y) = 0.15595 0.40701
# Poissons Ratio (z) = 0.17806 0.31552
#
# Static dielectric constant tensor:
#      x y z
#    x 2.726260 0.127080 -0.039710 
#    y 0.127080 2.108270 0.100140 
#    z -0.039710 0.100140 1.977720 
# 
# From -- ./inp_files/397281.got.cif
#   From: 2010.05.17/outbox.cif.g08.bks.cpg/sg2_199_cif.got.tgz:397281.got - 2010.06.03 11:33:40.
