data_PCOD9022795
_publ_section_title
;
Structure prediction by ZEFSAII (Michael W. Deem and Ramdas Pophale) SiO2 
 PCOD9022795
Probable space group: P -1
;
_chemical_formula_sum "Si O2"
_cell_formula_units_Z 14
_cell_length_a 19.604684
_cell_length_b 12.559643
_cell_length_c 8.546783
_cell_angle_alpha 114.986830
_cell_angle_beta 50.141758
_cell_angle_gamma 154.308748
_cell_volume 619.591603
_symmetry_space_group_name_H-M "P -1"
_symmetry_group_IT_number 2
_symmetry_cell_setting 'triclinic'
loop_
_space_group_symop_operation_xyz
x,y,z
-x,-y,-z
loop_
_atom_site_type_symbol
_atom_site_label
_atom_site_fract_x
_atom_site_fract_y
_atom_site_fract_z
Si Si1 0.741225 0.052886 0.267763
Si Si2 0.558187 0.577105 0.278048
Si Si3 0.411542 0.755457 0.764056
Si Si4 0.464479 0.848398 0.289200
Si Si5 0.092423 0.396296 0.769673
Si Si6 0.752986 0.566077 0.893647
Si Si7 0.884403 0.975207 0.580165
O O1 0.681166 0.844068 0.231473
O O2 0.645268 0.985089 0.530317
O O3 0.615124 0.975025 0.275419
O O4 0.976794 0.337629 0.031695
O O5 0.500000 0.500000 0.500000
O O6 0.697959 0.631682 0.064452
O O7 0.352696 0.328081 0.313927
O O8 0.254438 0.515211 0.712070
O O9 0.306606 0.590920 0.975316
O O10 0.434354 0.922023 0.808442
O O11 0.253321 0.642156 0.558757
O O12 0.393936 0.655859 0.167478
O O13 0.925724 0.125031 0.742520
O O14 0.986101 0.837223 0.650762
O O15 0.000000 0.000000 0.500000
#
# Coordination Sequence:
#
# PCOD9022795 Si02
#       7
#     2   2   2   2   2   2   2
#     4  11  22  41  64  91 126 164 214 259 314 377
#     4  12  25  41  65  97 129 166 208 267 325 374
#     4  11  23  40  64  95 128 167 212 262 315 376
#     4  10  23  42  64  92 125 170 216 257 312 379
#     4  10  22  39  64  92 122 167 213 259 311 373
#     4  11  24  41  66  93 134 164 211 265 324 373
#     4  11  24  42  65  94 130 171 216 256 315 387
#
# _framework density 22.595531000000001
#
# number of rings (size 3 to 8) (size 9 to 14) (size 15 to 20)
#    0.000    1.143    1.429    6.429    2.000    4.571 
#    0.000    0.000    0.000    6.857    0.000    0.000 
#    0.000    0.000    0.000    0.000    0.000    0.000 
#
# Total GULP energy -78205.931298 kJ/mol
# GULP energy per Si atom -5586.137950 kJ/mol
# Density = 2.254410 g / cm^3
# Si number density = 22.595531 Si / 1000 Ang^3
#
#
#
# Elastic Constant Matrix: (Units=GPa)
#
#
# Indices 1 2 3 4 5 6 
#
# 1 50.5061 -3.2200 4.7272 -11.4459 16.7424 -22.2676
# 2 -3.2200 49.4473 -13.1512 5.9312 -1.5436 -6.3044
# 3 4.7272 -13.1512 108.3727 -7.7222 16.1205 -8.1629
# 4 -11.4459 5.9312 -7.7222 34.7191 -3.0232 1.0871
# 5 16.7424 -1.5436 16.1205 -3.0232 30.3483 -4.7491
# 6 -22.2676 -6.3044 -8.1629 1.0871 -4.7491 43.1382
#
#
#
# Elastic Compliance Matrix: (Units=1/GPa)
#
#
# Indices 1 2 3 4 5 6 
#
# 1 0.035325 0.003722 0.003506 0.009726 -0.017490 0.017272
# 2 0.003722 0.022205 0.003079 -0.002223 -0.001905 0.005596
# 3 0.003506 0.003079 0.010889 0.002352 -0.006777 0.003515
# 4 0.009726 -0.002223 0.002352 0.032537 -0.002860 0.004006
# 5 -0.017490 -0.001905 -0.006777 -0.002860 0.044946 -0.005569
# 6 0.017272 0.005596 0.003515 0.004006 -0.005569 0.032866
#
#
# Mechanical properties :
#
#
# Convention : Reuss Voigt Hill
#
# Bulk Modulus (GPa) = 11.23158 20.55979 15.89569
# Shear Modulus (GPa) = 26.61961 36.30579 31.46270
#
# Velocity S-wave (km/s) = 3.43606 4.01280 3.73558
# Velocity P-wave (km/s) = 4.55231 5.53072 5.06519
#
# Compressibility (1/GPa) = 0.08903469
#
# Stress axis : x y z
#
# Youngs Moduli (GPa) = 28.30817 45.03426 91.83969
#
# Poissons Ratio (x) = -0.16764 -0.32203
# Poissons Ratio (y) = -0.10538 -0.28276
# Poissons Ratio (z) = -0.09926 -0.13865
#
# Static dielectric constant tensor:
#      x y z
#    x 1.816050 0.000940 0.000510 
#    y 0.000940 1.845590 0.014560 
#    z 0.000510 0.014560 1.906080 
# 
# From -- ./inp_files/278827.got.cif
#   From: 2010.05.17/outbox.cif.g08.bks.cpg/sg2_140_cif.got.tgz:278827.got - 2010.06.03 11:33:40.
