data_PCOD9022156
_publ_section_title
;
Structure prediction by ZEFSAII (Michael W. Deem and Ramdas Pophale) SiO2 
 PCOD9022156
Probable space group: P -1
;
_chemical_formula_sum "Si O2"
_cell_formula_units_Z 16
_cell_length_a 9.922290
_cell_length_b 13.713924
_cell_length_c 10.405159
_cell_angle_alpha 90.321076
_cell_angle_beta 152.765365
_cell_angle_gamma 92.807365
_cell_volume 643.420543
_symmetry_space_group_name_H-M "P -1"
_symmetry_group_IT_number 2
_symmetry_cell_setting 'triclinic'
loop_
_space_group_symop_operation_xyz
x,y,z
-x,-y,-z
loop_
_atom_site_type_symbol
_atom_site_label
_atom_site_fract_x
_atom_site_fract_y
_atom_site_fract_z
Si Si1 0.168901 0.108127 0.278321
Si Si2 0.434524 0.890800 0.890439
Si Si3 0.926313 0.760269 0.397020
Si Si4 0.364355 0.622925 0.830807
Si Si5 0.971896 0.598435 0.057240
Si Si6 0.404714 0.326407 0.462246
Si Si7 0.604473 0.973812 0.779688
Si Si8 0.840203 0.519249 0.554532
O O1 0.237946 0.222993 0.363140
O O2 0.224884 0.092043 0.172982
O O3 0.397751 0.042718 0.534561
O O4 0.853495 0.053950 0.049868
O O5 0.418052 0.906223 0.723229
O O6 0.117511 0.832297 0.664389
O O7 0.726958 0.837493 0.164658
O O8 0.500000 0.000000 0.000000
O O9 0.216286 0.703157 0.618784
O O10 0.659611 0.668702 0.156007
O O11 0.110775 0.587236 0.718815
O O12 0.632696 0.466939 0.266458
O O13 0.246170 0.676647 0.248125
O O14 0.021224 0.562124 0.241786
O O15 0.000000 0.500000 0.000000
O O16 0.689616 0.641728 0.760414
O O17 0.331028 0.411911 0.497666
#
# Coordination Sequence:
#
# PCOD9022156 Si02
#       8
#     2   2   2   2   2   2   2   2
#     4  10  22  40  63  90 121 161 203 250 304 365
#     4  11  23  42  67  95 126 161 203 257 313 370
#     4  10  24  42  60  93 126 164 210 246 307 375
#     4  10  24  41  62  90 127 167 206 256 309 370
#     4  10  22  39  58  86 122 159 201 253 306 357
#     4  11  23  39  63  91 120 161 210 256 303 362
#     4  10  22  41  62  89 125 160 198 248 312 371
#     4  10  23  41  63  90 126 166 210 258 311 362
#
# _framework density 24.867094000000002
#
# number of rings (size 3 to 8) (size 9 to 14) (size 15 to 20)
#    0.000    1.750    0.000    3.375    0.000   14.000 
#    0.000    0.000    0.000    0.000    0.000    0.000 
#    0.000    0.000    0.000    0.000    0.000    0.000 
#
# Total GULP energy -89217.446446 kJ/mol
# GULP energy per Si atom -5576.090403 kJ/mol
# Density = 2.481050 g / cm^3
# Si number density = 24.867094 Si / 1000 Ang^3
#
#
#
# Elastic Constant Matrix: (Units=GPa)
#
#
# Indices 1 2 3 4 5 6 
#
# 1 77.3098 24.8511 19.1107 12.1150 -5.3876 7.3108
# 2 24.8511 139.4425 41.5169 13.9699 2.4369 -0.2822
# 3 19.1107 41.5169 147.5221 30.0118 18.9789 -6.4572
# 4 12.1150 13.9699 30.0118 53.7908 4.8768 0.2619
# 5 -5.3876 2.4369 18.9789 4.8768 22.2322 4.0317
# 6 7.3108 -0.2822 -6.4572 0.2619 4.0317 23.8255
#
#
#
# Elastic Compliance Matrix: (Units=1/GPa)
#
#
# Indices 1 2 3 4 5 6 
#
# 1 0.015697 -0.002032 -0.002256 -0.002415 0.007702 -0.006729
# 2 -0.002032 0.008171 -0.001957 -0.000609 0.000393 0.000130
# 3 -0.002256 -0.001957 0.009685 -0.003624 -0.008676 0.004802
# 4 -0.002415 -0.000609 -0.003624 0.021507 -0.002119 -0.000126
# 5 0.007702 0.000393 -0.008676 -0.002119 0.057282 -0.014380
# 6 -0.006729 0.000130 0.004802 -0.000126 -0.014380 0.047774
#
#
# Mechanical properties :
#
#
# Convention : Reuss Voigt Hill
#
# Bulk Modulus (GPa) = 47.47687 59.47019 53.47353
# Shear Modulus (GPa) = 27.83519 38.55610 33.19564
#
# Velocity S-wave (km/s) = 3.34931 3.94189 3.65762
# Velocity P-wave (km/s) = 5.83874 6.68470 6.27599
#
# Compressibility (1/GPa) = 0.02106289
#
# Stress axis : x y z
#
# Youngs Moduli (GPa) = 63.70519 122.38872 103.24863
#
# Poissons Ratio (x) = 0.24872 0.23291
# Poissons Ratio (y) = 0.12946 0.20208
# Poissons Ratio (z) = 0.14371 0.23954
#
# Static dielectric constant tensor:
#      x y z
#    x 2.024080 0.008430 -0.044990 
#    y 0.008430 2.027800 0.039310 
#    z -0.044990 0.039310 1.929890 
# 
# From -- ./inp_files/433976.got.cif
#   From: 2010.05.17/outbox.cif.g08.bks.cpg/sg2_217_cif.got.tgz:433976.got - 2010.06.03 11:33:40.
