data_PCOD9022933
_publ_section_title
;
Structure prediction by ZEFSAII (Michael W. Deem and Ramdas Pophale) SiO2 
 PCOD9022933
Probable space group: P -1
;
_chemical_formula_sum "Si O2"
_cell_formula_units_Z 14
_cell_length_a 14.001743
_cell_length_b 17.102584
_cell_length_c 11.204346
_cell_angle_alpha 154.416664
_cell_angle_beta 29.149907
_cell_angle_gamma 147.324679
_cell_volume 545.424581
_symmetry_space_group_name_H-M "P -1"
_symmetry_group_IT_number 2
_symmetry_cell_setting 'triclinic'
loop_
_space_group_symop_operation_xyz
x,y,z
-x,-y,-z
loop_
_atom_site_type_symbol
_atom_site_label
_atom_site_fract_x
_atom_site_fract_y
_atom_site_fract_z
Si Si1 0.995527 0.332391 0.574290
Si Si2 0.098956 0.851117 0.245757
Si Si3 0.535438 0.763863 0.257224
Si Si4 0.926359 0.938450 0.202232
Si Si5 0.524701 0.192068 0.878436
Si Si6 0.721827 0.624016 0.459878
Si Si7 0.176469 0.676061 0.696818
O O1 0.753664 0.295135 0.809018
O O2 0.046397 0.469697 0.594565
O O3 0.155856 0.429705 0.636042
O O4 0.017899 0.115910 0.257533
O O5 0.897489 0.680825 0.250161
O O6 0.240535 0.787699 0.907046
O O7 0.000000 0.000000 0.500000
O O8 0.162028 0.949889 0.440944
O O9 0.750665 0.794572 0.125746
O O10 0.515811 0.708343 0.063517
O O11 0.360357 0.654017 0.384047
O O12 0.512180 0.976813 0.575363
O O13 0.058668 0.807926 0.935470
O O14 0.351149 0.196125 0.168519
O O15 0.500000 0.500000 0.500000
#
# Coordination Sequence:
#
# PCOD9022933 Si02
#       7
#     2   2   2   2   2   2   2
#     4  10  23  40  63  91 122 165 204 254 317 363
#     4   9  19  36  59  88 122 158 199 254 309 357
#     4  10  22  39  65  92 122 170 210 252 313 371
#     4   9  21  41  60  89 128 165 207 255 309 369
#     4  10  22  42  63  91 127 164 212 256 307 377
#     4  11  23  40  63  91 124 163 207 256 311 372
#     4  11  22  39  62  93 126 160 210 260 307 372
#
# _framework density 25.668077
#
# number of rings (size 3 to 8) (size 9 to 14) (size 15 to 20)
#    0.000    2.000    0.000    3.429    0.000   12.000 
#    0.000    7.857    0.000    0.000    0.000    0.000 
#    0.000    0.000    0.000    0.000    0.000    0.000 
#
# Total GULP energy -78120.723105 kJ/mol
# GULP energy per Si atom -5580.051650 kJ/mol
# Density = 2.560966 g / cm^3
# Si number density = 25.668077 Si / 1000 Ang^3
#
#
#
# Elastic Constant Matrix: (Units=GPa)
#
#
# Indices 1 2 3 4 5 6 
#
# 1 134.2458 60.1799 24.9970 -2.6959 -15.4827 6.5072
# 2 60.1799 136.7815 30.1798 -2.9836 -33.5155 -27.1707
# 3 24.9970 30.1798 86.1317 -5.9784 6.4265 -11.4242
# 4 -2.6959 -2.9836 -5.9784 40.1218 -6.3111 -6.7041
# 5 -15.4827 -33.5155 6.4265 -6.3111 30.4487 -0.4377
# 6 6.5072 -27.1707 -11.4242 -6.7041 -0.4377 40.1047
#
#
#
# Elastic Compliance Matrix: (Units=1/GPa)
#
#
# Indices 1 2 3 4 5 6 
#
# 1 0.010553 -0.005716 -0.001920 -0.001197 -0.000859 -0.006341
# 2 -0.005716 0.018211 -0.004014 0.005633 0.019345 0.013275
# 3 -0.001920 -0.004014 0.014472 0.000719 -0.008275 0.001745
# 4 -0.001197 0.005633 0.000719 0.028709 0.011522 0.009140
# 5 -0.000859 0.019345 -0.008275 0.011522 0.058026 0.013447
# 6 -0.006341 0.013275 0.001745 0.009140 0.013447 0.037129
#
#
# Mechanical properties :
#
#
# Convention : Reuss Voigt Hill
#
# Bulk Modulus (GPa) = 50.15645 65.31915 57.73780
# Shear Modulus (GPa) = 25.37488 38.25522 31.81505
#
# Velocity S-wave (km/s) = 3.14758 3.86473 3.52444
# Velocity P-wave (km/s) = 5.72647 6.73927 6.25341
#
# Compressibility (1/GPa) = 0.01993762
#
# Stress axis : x y z
#
# Youngs Moduli (GPa) = 94.76050 54.91189 69.09672
#
# Poissons Ratio (x) = 0.31385 0.13266
# Poissons Ratio (y) = 0.54161 0.27735
# Poissons Ratio (z) = 0.18194 0.22041
#
# Static dielectric constant tensor:
#      x y z
#    x 2.065240 0.011710 0.086140 
#    y 0.011710 2.041820 0.101390 
#    z 0.086140 0.101390 2.258980 
# 
# From -- ./inp_files/456823.got.cif
#   From: 2010.05.17/outbox.cif.g08.bks.cpg/sg2_229_cif.got.tgz:456823.got - 2010.06.03 11:33:40.
