data_PCOD9022247
_publ_section_title
;
Structure prediction by ZEFSAII (Michael W. Deem and Ramdas Pophale) SiO2 
 PCOD9022247
Probable space group: P -1
;
_chemical_formula_sum "Si O2"
_cell_formula_units_Z 16
_cell_length_a 15.465583
_cell_length_b 8.320610
_cell_length_c 12.190065
_cell_angle_alpha 89.689370
_cell_angle_beta 151.197520
_cell_angle_gamma 80.105091
_cell_volume 703.155643
_symmetry_space_group_name_H-M "P -1"
_symmetry_group_IT_number 2
_symmetry_cell_setting 'triclinic'
loop_
_space_group_symop_operation_xyz
x,y,z
-x,-y,-z
loop_
_atom_site_type_symbol
_atom_site_label
_atom_site_fract_x
_atom_site_fract_y
_atom_site_fract_z
Si Si1 0.642153 0.174487 0.863454
Si Si2 0.644015 0.473801 0.997914
Si Si3 0.967442 0.004626 0.834156
Si Si4 0.301604 0.013175 0.837182
Si Si5 0.299961 0.713561 0.719297
Si Si6 0.007394 0.341302 0.859749
Si Si7 0.077025 0.353497 0.705718
Si Si8 0.786895 0.734667 0.674551
O O1 0.660999 0.074812 0.000501
O O2 0.442833 0.197226 0.583661
O O3 0.636509 0.366619 0.883901
O O4 0.829167 0.077519 0.000382
O O5 0.611169 0.364295 0.063536
O O6 0.849167 0.493314 0.237968
O O7 0.472796 0.657709 0.824722
O O8 0.849441 0.879914 0.683830
O O9 0.893450 0.208358 0.722867
O O10 0.000000 0.000000 0.000000
O O11 0.208710 0.915937 0.647967
O O12 0.500000 0.000000 0.000000
O O13 0.169250 0.207227 0.718628
O O14 0.144220 0.625873 0.526608
O O15 0.876956 0.544788 0.719333
O O16 0.146804 0.304893 0.909326
O O17 0.126699 0.294690 0.105992
#
# Coordination Sequence:
#
# PCOD9022247 Si02
#       8
#     2   2   2   2   2   2   2   2
#     4  11  23  44  66  92 134 174 210 270 329 380
#     4  10  22  39  61  91 124 163 222 265 312 395
#     4  10  22  43  65  96 130 168 221 269 318 391
#     4  11  23  42  61  94 133 162 219 269 314 397
#     4  10  22  39  60  87 125 170 211 265 325 382
#     4  10  22  42  67  99 130 167 223 271 313 402
#     4  12  21  40  63  89 126 169 211 265 331 375
#     4  10  23  45  68  95 135 171 215 272 330 379
#
# _framework density 22.754564999999999
#
# number of rings (size 3 to 8) (size 9 to 14) (size 15 to 20)
#    0.000    1.500    2.500    2.250    0.000    3.000 
#    9.000   10.000    0.000    0.000    0.000    0.000 
#    0.000    0.000    0.000    0.000    0.000    0.000 
#
# Total GULP energy -89304.866069 kJ/mol
# GULP energy per Si atom -5581.554129 kJ/mol
# Density = 2.270277 g / cm^3
# Si number density = 22.754565 Si / 1000 Ang^3
#
#
#
# Elastic Constant Matrix: (Units=GPa)
#
#
# Indices 1 2 3 4 5 6 
#
# 1 110.6617 37.7407 12.6074 3.1999 8.3405 -14.7595
# 2 37.7407 138.5219 27.1445 16.7617 8.3499 -5.1011
# 3 12.6074 27.1445 82.5691 14.5868 19.9255 -4.5796
# 4 3.1999 16.7617 14.5868 19.8955 12.9705 4.7822
# 5 8.3405 8.3499 19.9255 12.9705 26.5917 -2.6896
# 6 -14.7595 -5.1011 -4.5796 4.7822 -2.6896 35.8179
#
#
#
# Elastic Compliance Matrix: (Units=1/GPa)
#
#
# Indices 1 2 3 4 5 6 
#
# 1 0.010635 -0.002781 -0.000133 0.001747 -0.002859 0.003521
# 2 -0.002781 0.009230 -0.001907 -0.008744 0.003807 0.001378
# 3 -0.000133 -0.001907 0.015782 -0.004628 -0.008760 0.001651
# 4 0.001747 -0.008744 -0.004628 0.090963 -0.040351 -0.016292
# 5 -0.002859 0.003807 -0.008760 -0.040351 0.064409 0.008468
# 6 0.003521 0.001378 0.001651 -0.016292 0.008468 0.032588
#
#
# Mechanical properties :
#
#
# Convention : Reuss Voigt Hill
#
# Bulk Modulus (GPa) = 38.45636 54.08199 46.26917
# Shear Modulus (GPa) = 20.66827 33.41170 27.03998
#
# Velocity S-wave (km/s) = 3.01709 3.83606 3.45096
# Velocity P-wave (km/s) = 5.39206 6.59088 6.02138
#
# Compressibility (1/GPa) = 0.02600350
#
# Stress axis : x y z
#
# Youngs Moduli (GPa) = 94.03187 108.34554 63.36459
#
# Poissons Ratio (x) = 0.30129 0.00843
# Poissons Ratio (y) = 0.26148 0.12086
# Poissons Ratio (z) = 0.01252 0.20666
#
# Static dielectric constant tensor:
#      x y z
#    x 1.831670 0.013190 -0.030810 
#    y 0.013190 1.940140 0.007400 
#    z -0.030810 0.007400 1.818320 
# 
# From -- ./inp_files/107330.got.cif
#   From: 2010.05.17/outbox.cif.g08.bks.cpg/sg2_54_cif.got.tgz:107330.got - 2010.06.03 11:33:40.
