data_PCOD9022137
_publ_section_title
;
Structure prediction by ZEFSAII (Michael W. Deem and Ramdas Pophale) SiO2 
 PCOD9022137
Probable space group: P -1
;
_chemical_formula_sum "Si O2"
_cell_formula_units_Z 14
_cell_length_a 8.175438
_cell_length_b 8.339077
_cell_length_c 12.932810
_cell_angle_alpha 122.889610
_cell_angle_beta 119.196629
_cell_angle_gamma 54.984538
_cell_volume 586.125530
_symmetry_space_group_name_H-M "P -1"
_symmetry_group_IT_number 2
_symmetry_cell_setting 'triclinic'
loop_
_space_group_symop_operation_xyz
x,y,z
-x,-y,-z
loop_
_atom_site_type_symbol
_atom_site_label
_atom_site_fract_x
_atom_site_fract_y
_atom_site_fract_z
Si Si1 0.076504 0.586875 0.867912
Si Si2 0.481913 0.646792 0.450030
Si Si3 0.175996 0.053139 0.934885
Si Si4 0.975741 0.180235 0.713685
Si Si5 0.555394 0.754179 0.043634
Si Si6 0.626480 0.958044 0.337604
Si Si7 0.171971 0.469456 0.627700
O O1 0.991028 0.406908 0.800463
O O2 0.299123 0.481401 0.957930
O O3 0.086630 0.595510 0.750754
O O4 0.941179 0.804529 0.955510
O O5 0.500000 0.500000 0.500000
O O6 0.250565 0.764995 0.377531
O O7 0.639892 0.507891 0.363732
O O8 0.526072 0.834290 0.579385
O O9 0.309292 0.168623 0.963822
O O10 0.019203 0.071724 0.801109
O O11 0.338526 0.827111 0.945245
O O12 0.169020 0.034584 0.650038
O O13 0.524172 0.888378 0.186649
O O14 0.721742 0.770223 0.382378
O O15 0.000000 0.500000 0.500000
#
# Coordination Sequence:
#
# PCOD9022137 Si02
#       7
#     2   2   2   2   2   2   2
#     4   9  18  35  55  80 117 150 193 237 273 350
#     4  12  23  36  58  86 118 150 187 245 295 335
#     4   9  16  31  56  82 114 149 189 238 278 340
#     4   9  19  34  53  87 113 141 191 238 292 334
#     4   8  16  29  55  87 105 140 203 226 280 331
#     4   9  20  38  59  82 114 151 188 242 279 353
#     4  10  22  39  57  84 112 155 200 226 286 356
#
# _framework density 23.885666000000001
#
# number of rings (size 3 to 8) (size 9 to 14) (size 15 to 20)
#    0.000    3.143    0.000    4.286    4.000    0.000 
#    2.571    0.714    0.000    3.429    0.000    0.000 
#    0.000    0.000    0.000    0.000    0.000    0.000 
#
# Total GULP energy -78250.223101 kJ/mol
# GULP energy per Si atom -5589.301650 kJ/mol
# Density = 2.383130 g / cm^3
# Si number density = 23.885666 Si / 1000 Ang^3
#
#
#
# Elastic Constant Matrix: (Units=GPa)
#
#
# Indices 1 2 3 4 5 6 
#
# 1 29.2865 26.3589 39.8147 -19.5310 -9.6864 -1.0591
# 2 26.3589 73.4593 63.2785 -32.6642 -7.9042 -3.3981
# 3 39.8147 63.2785 119.0374 -40.0369 -25.1511 -8.3467
# 4 -19.5310 -32.6642 -40.0369 40.8824 0.9699 6.8271
# 5 -9.6864 -7.9042 -25.1511 0.9699 39.4127 -7.5381
# 6 -1.0591 -3.3981 -8.3467 6.8271 -7.5381 24.1522
#
#
#
# Elastic Compliance Matrix: (Units=1/GPa)
#
#
# Indices 1 2 3 4 5 6 
#
# 1 0.071619 -0.005339 -0.014899 0.016160 0.005555 -0.005594
# 2 -0.005339 0.029469 -0.011386 0.010633 -0.003732 -0.004193
# 3 -0.014899 -0.011386 0.024329 0.006040 0.010935 0.007858
# 4 0.016160 0.010633 0.006040 0.047551 0.007485 -0.006813
# 5 0.005555 -0.003732 0.010935 0.007485 0.035146 0.012351
# 6 -0.005594 -0.004193 0.007858 -0.006813 0.012351 0.049066
#
#
# Mechanical properties :
#
#
# Convention : Reuss Voigt Hill
#
# Bulk Modulus (GPa) = 16.08539 53.40971 34.74755
# Shear Modulus (GPa) = 14.65626 27.04484 20.85055
#
# Velocity S-wave (km/s) = 2.47978 3.36856 2.95775
# Velocity P-wave (km/s) = 3.86627 6.12688 5.12283
#
# Compressibility (1/GPa) = 0.06216821
#
# Stress axis : x y z
#
# Youngs Moduli (GPa) = 13.96286 33.93371 41.10261
#
# Poissons Ratio (x) = 0.18119 0.61240
# Poissons Ratio (y) = 0.07455 0.46798
# Poissons Ratio (z) = 0.20804 0.38636
#
# Static dielectric constant tensor:
#      x y z
#    x 1.997750 0.037020 0.048500 
#    y 0.037020 1.876740 0.015390 
#    z 0.048500 0.015390 1.941090 
# 
# From -- ./inp_files/318938.got.cif
#   From: 2010.05.17/outbox.cif.g08.bks.cpg/sg2_160_cif.got.tgz:318938.got - 2010.06.03 11:33:40.
