data_PCOD9022516
_publ_section_title
;
Structure prediction by ZEFSAII (Michael W. Deem and Ramdas Pophale) SiO2 
 PCOD9022516
Probable space group: P -1
;
_chemical_formula_sum "Si O2"
_cell_formula_units_Z 14
_cell_length_a 18.045406
_cell_length_b 5.503305
_cell_length_c 10.166247
_cell_angle_alpha 57.898210
_cell_angle_beta 136.639681
_cell_angle_gamma 119.424284
_cell_volume 577.564813
_symmetry_space_group_name_H-M "P -1"
_symmetry_group_IT_number 2
_symmetry_cell_setting 'triclinic'
loop_
_space_group_symop_operation_xyz
x,y,z
-x,-y,-z
loop_
_atom_site_type_symbol
_atom_site_label
_atom_site_fract_x
_atom_site_fract_y
_atom_site_fract_z
Si Si1 0.422562 0.467043 0.284722
Si Si2 0.454385 0.057640 0.065414
Si Si3 0.813112 0.838960 0.894561
Si Si4 0.604231 0.438307 0.309034
Si Si5 0.113560 0.140596 0.536486
Si Si6 0.833311 0.515330 0.737456
Si Si7 0.129901 0.526647 0.680445
O O1 0.500000 0.500000 0.500000
O O2 0.318703 0.216092 0.240780
O O3 0.499320 0.431804 0.270770
O O4 0.382792 0.774916 0.119486
O O5 0.565672 0.134023 0.273326
O O6 0.395965 0.327204 0.876472
O O7 0.500000 0.000000 0.000000
O O8 0.836727 0.686797 0.830691
O O9 0.855795 0.185219 0.863164
O O10 0.853964 0.662502 0.117708
O O11 0.712435 0.490971 0.520855
O O12 0.090799 0.294245 0.327410
O O13 0.170722 0.383725 0.643582
O O14 0.173687 0.870398 0.657949
O O15 0.000000 0.000000 0.500000
O O16 0.000000 0.500000 0.500000
#
# Coordination Sequence:
#
# PCOD9022516 Si02
#       7
#     2   2   2   2   2   2   2
#     4  11  22  39  62  93 144 180 233 275 343 399
#     4   9  21  37  57  91 125 186 234 279 323 395
#     4  12  27  43  70 109 141 186 230 289 356 411
#     4  10  22  39  62  92 137 189 232 281 334 394
#     4  10  23  47  75 101 133 182 226 293 354 417
#     4  12  26  44  69 105 145 179 236 288 348 424
#     4  10  23  48  74 103 135 178 235 286 355 422
#
# _framework density 24.239704
#
# number of rings (size 3 to 8) (size 9 to 14) (size 15 to 20)
#    0.000    1.429    1.429    2.571    6.000    4.571 
#    0.000   17.143    0.000    0.000    0.000    0.000 
#    0.000    0.000    0.000    0.000    0.000    0.000 
#
# Total GULP energy -78270.595209 kJ/mol
# GULP energy per Si atom -5590.756801 kJ/mol
# Density = 2.418453 g / cm^3
# Si number density = 24.239704 Si / 1000 Ang^3
#
#
#
# Elastic Constant Matrix: (Units=GPa)
#
#
# Indices 1 2 3 4 5 6 
#
# 1 79.9361 34.7497 27.2752 10.2569 -17.3400 -2.6638
# 2 34.7497 127.9211 29.8983 -30.4128 -12.0830 -27.9738
# 3 27.2752 29.8983 136.5058 -8.5171 -15.1011 -14.2170
# 4 10.2569 -30.4128 -8.5171 42.9240 6.5178 -10.5716
# 5 -17.3400 -12.0830 -15.1011 6.5178 38.9385 7.4298
# 6 -2.6638 -27.9738 -14.2170 -10.5716 7.4298 45.9718
#
#
#
# Elastic Compliance Matrix: (Units=1/GPa)
#
#
# Indices 1 2 3 4 5 6 
#
# 1 0.023632 -0.012319 -0.003449 -0.020146 0.011342 -0.013659
# 2 -0.012319 0.019494 0.000705 0.022137 -0.006200 0.017459
# 3 -0.003449 0.000705 0.008552 0.003817 0.000665 0.003644
# 4 -0.020146 0.022137 0.003817 0.053800 -0.015024 0.028284
# 5 0.011342 -0.006200 0.000665 -0.015024 0.033839 -0.011833
# 6 -0.013659 0.017459 0.003644 0.028284 -0.011833 0.041129
#
#
# Mechanical properties :
#
#
# Convention : Reuss Voigt Hill
#
# Bulk Modulus (GPa) = 46.39517 58.68992 52.54254
# Shear Modulus (GPa) = 22.96165 42.39616 32.67891
#
# Velocity S-wave (km/s) = 3.08112 4.18669 3.67571
# Velocity P-wave (km/s) = 5.64265 6.90188 6.30379
#
# Compressibility (1/GPa) = 0.02155397
#
# Stress axis : x y z
#
# Youngs Moduli (GPa) = 42.31545 51.29724 116.93748
#
# Poissons Ratio (x) = 0.63192 0.40327
# Poissons Ratio (y) = 0.52127 -0.08249
# Poissons Ratio (z) = 0.14593 -0.03618
#
# Static dielectric constant tensor:
#      x y z
#    x 1.823950 -0.053580 -0.007190 
#    y -0.053580 2.134730 0.011690 
#    z -0.007190 0.011690 1.900320 
# 
# From -- ./inp_files/323390.got.cif
#   From: 2010.05.17/outbox.cif.g08.bks.cpg/sg2_162_cif.got.tgz:323390.got - 2010.06.03 11:33:40.
