data_PCOD9022191
_publ_section_title
;
Structure prediction by ZEFSAII (Michael W. Deem and Ramdas Pophale) SiO2 
 PCOD9022191
Probable space group: P -1
;
_chemical_formula_sum "Si O2"
_cell_formula_units_Z 14
_cell_length_a 11.618282
_cell_length_b 14.796462
_cell_length_c 11.081794
_cell_angle_alpha 63.507919
_cell_angle_beta 24.278423
_cell_angle_gamma 61.448375
_cell_volume 687.762241
_symmetry_space_group_name_H-M "P -1"
_symmetry_group_IT_number 2
_symmetry_cell_setting 'triclinic'
loop_
_space_group_symop_operation_xyz
x,y,z
-x,-y,-z
loop_
_atom_site_type_symbol
_atom_site_label
_atom_site_fract_x
_atom_site_fract_y
_atom_site_fract_z
Si Si1 0.860781 0.482740 0.514978
Si Si2 0.340068 0.239750 0.551335
Si Si3 0.752850 0.386641 0.023277
Si Si4 0.910896 0.240398 0.596952
Si Si5 0.406971 0.097280 0.797265
Si Si6 0.493321 0.860124 0.799389
Si Si7 0.946071 0.108194 0.417161
O O1 0.534603 0.544811 0.799994
O O2 0.877572 0.362280 0.552995
O O3 0.000000 0.500000 0.500000
O O4 0.051950 0.524359 0.202682
O O5 0.572701 0.312704 0.313278
O O6 0.300119 0.175415 0.745845
O O7 0.456728 0.166116 0.372764
O O8 0.030883 0.302794 0.764885
O O9 0.834101 0.195792 0.569059
O O10 0.224560 0.180118 0.367966
O O11 0.720184 0.207144 0.904026
O O12 0.730389 0.101729 0.518377
O O13 0.388807 0.980968 0.848706
O O14 0.234336 0.124667 0.069287
O O15 0.000000 0.000000 0.500000
#
# Coordination Sequence:
#
# PCOD9022191 Si02
#       7
#     2   2   2   2   2   2   2
#     4  11  21  38  62  93 123 163 207 261 322 365
#     4  11  23  40  63  92 124 172 209 249 318 365
#     4  10  22  39  59  85 127 158 205 259 300 373
#     4  12  24  38  66  94 128 163 204 259 322 369
#     4  12  24  41  65  89 129 170 207 256 302 377
#     4  12  22  38  60  96 130 160 204 260 309 383
#     4  12  23  43  63  91 129 166 209 254 307 371
#
# _framework density 20.355871
#
# number of rings (size 3 to 8) (size 9 to 14) (size 15 to 20)
#    0.000    0.571    2.857    7.286    0.000    0.000 
#    0.000    4.286    0.000   17.143    0.000    0.000 
#    0.000    0.000    0.000    0.000    0.000    0.000 
#
# Total GULP energy -77999.810347 kJ/mol
# GULP energy per Si atom -5571.415025 kJ/mol
# Density = 2.030954 g / cm^3
# Si number density = 20.355871 Si / 1000 Ang^3
#
#
#
# Elastic Constant Matrix: (Units=GPa)
#
#
# Indices 1 2 3 4 5 6 
#
# 1 53.1599 37.1152 5.8276 -6.4149 11.8889 9.5904
# 2 37.1152 165.0954 29.4682 -19.2032 7.0659 16.7073
# 3 5.8276 29.4682 111.4859 -7.6517 -4.5837 0.0210
# 4 -6.4149 -19.2032 -7.6517 33.0739 -2.2907 1.1002
# 5 11.8889 7.0659 -4.5837 -2.2907 33.1582 -1.9826
# 6 9.5904 16.7073 0.0210 1.1002 -1.9826 8.9843
#
#
#
# Elastic Compliance Matrix: (Units=1/GPa)
#
#
# Indices 1 2 3 4 5 6 
#
# 1 0.029002 -0.002344 -0.001076 0.004203 -0.011531 -0.029655
# 2 -0.002344 0.009166 -0.002052 0.004772 -0.001997 -0.015563
# 3 -0.001076 -0.002052 0.009730 0.000848 0.002550 0.005401
# 4 0.004203 0.004772 0.000848 0.034535 -0.001087 -0.017831
# 5 -0.011531 -0.001997 0.002550 -0.001087 0.036442 0.024191
# 6 -0.029655 -0.015563 0.005401 -0.017831 0.024191 0.179411
#
#
# Mechanical properties :
#
#
# Convention : Reuss Voigt Hill
#
# Bulk Modulus (GPa) = 27.06151 52.72923 39.89537
# Shear Modulus (GPa) = 15.54972 32.19863 23.87418
#
# Velocity S-wave (km/s) = 2.76686 3.98148 3.42839
# Velocity P-wave (km/s) = 4.85082 6.86267 5.94250
#
# Compressibility (1/GPa) = 0.03695286
#
# Stress axis : x y z
#
# Youngs Moduli (GPa) = 34.48053 109.10133 102.77106
#
# Poissons Ratio (x) = 0.25578 0.11062
# Poissons Ratio (y) = 0.08084 0.21087
# Poissons Ratio (z) = 0.03711 0.22386
#
# Static dielectric constant tensor:
#      x y z
#    x 1.691960 -0.011210 0.017040 
#    y -0.011210 1.713160 -0.014350 
#    z 0.017040 -0.014350 1.723720 
# 
# From -- ./inp_files/433756.got.cif
#   From: 2010.05.17/outbox.cif.g08.bks.cpg/sg2_217_cif.got.tgz:433756.got - 2010.06.03 11:33:40.
