data_PCOD9022879
_publ_section_title
;
Structure prediction by ZEFSAII (Michael W. Deem and Ramdas Pophale) SiO2 
 PCOD9022879
Probable space group: P -1
;
_chemical_formula_sum "Si O2"
_cell_formula_units_Z 14
_cell_length_a 10.986356
_cell_length_b 12.962134
_cell_length_c 16.424815
_cell_angle_alpha 34.372600
_cell_angle_beta 147.303379
_cell_angle_gamma 149.929645
_cell_volume 590.953178
_symmetry_space_group_name_H-M "P -1"
_symmetry_group_IT_number 2
_symmetry_cell_setting 'triclinic'
loop_
_space_group_symop_operation_xyz
x,y,z
-x,-y,-z
loop_
_atom_site_type_symbol
_atom_site_label
_atom_site_fract_x
_atom_site_fract_y
_atom_site_fract_z
Si Si1 0.685435 0.528950 0.662594
Si Si2 0.852174 0.554126 0.311104
Si Si3 0.693185 0.110324 0.459227
Si Si4 0.704503 0.728538 0.252823
Si Si5 0.257086 0.848553 0.718914
Si Si6 0.270090 0.886488 0.057114
Si Si7 0.188937 0.406958 0.903198
O O1 0.500000 0.500000 0.500000
O O2 0.511847 0.479037 0.679234
O O3 0.724868 0.326300 0.822319
O O4 0.967964 0.764218 0.654192
O O5 0.688276 0.327090 0.318106
O O6 0.696900 0.639881 0.215884
O O7 0.988582 0.696906 0.213516
O O8 0.000000 0.500000 0.500000
O O9 0.653454 0.024049 0.400745
O O10 0.995513 0.178156 0.605555
O O11 0.500000 0.000000 0.500000
O O12 0.679115 0.935068 0.097862
O O13 0.194755 0.611037 0.813184
O O14 0.493667 0.979737 0.830825
O O15 0.975121 0.788445 0.995979
O O16 0.500000 0.500000 0.000000
#
# Coordination Sequence:
#
# PCOD9022879 Si02
#       7
#     2   2   2   2   2   2   2
#     4  11  24  48  68  90 132 174 226 267 324 388
#     4   9  21  37  61  93 125 171 207 255 322 380
#     4  10  22  39  64  99 133 168 217 262 324 395
#     4  11  23  43  66  95 131 173 215 276 319 382
#     4  10  23  43  66  96 127 174 217 268 319 392
#     4  11  26  41  68 100 128 170 224 270 328 383
#     4  10  22  40  63  93 138 168 203 264 332 387
#
# _framework density 23.690539999999999
#
# number of rings (size 3 to 8) (size 9 to 14) (size 15 to 20)
#    0.000    1.714    1.429    1.286   10.000    2.286 
#    2.571    0.000    0.000    0.000    0.000    0.000 
#    0.000    0.000    0.000    0.000    0.000    0.000 
#
# Total GULP energy -77955.603542 kJ/mol
# GULP energy per Si atom -5568.257396 kJ/mol
# Density = 2.363662 g / cm^3
# Si number density = 23.690540 Si / 1000 Ang^3
#
#
#
# Elastic Constant Matrix: (Units=GPa)
#
#
# Indices 1 2 3 4 5 6 
#
# 1 63.1440 34.5937 8.0755 -0.1168 -3.5939 29.9293
# 2 34.5937 69.7068 9.3476 16.7248 -1.8666 31.3599
# 3 8.0755 9.3476 87.1132 -1.1649 -0.0197 8.9506
# 4 -0.1168 16.7248 -1.1649 37.9946 0.1266 5.5962
# 5 -3.5939 -1.8666 -0.0197 0.1266 30.1365 -4.0833
# 6 29.9293 31.3599 8.9506 5.5962 -4.0833 43.6282
#
#
#
# Elastic Compliance Matrix: (Units=1/GPa)
#
#
# Indices 1 2 3 4 5 6 
#
# 1 0.026813 -0.009036 -0.000148 0.005899 0.000914 -0.012539
# 2 -0.009036 0.026490 -0.000963 -0.010029 -0.000946 -0.011447
# 3 -0.000148 -0.000963 0.011794 0.001050 -0.000317 -0.001790
# 4 0.005899 -0.010029 0.001050 0.030938 -0.000188 -0.001040
# 5 0.000914 -0.000946 -0.000317 -0.000188 0.033680 0.003294
# 6 -0.012539 -0.011447 -0.001790 -0.001040 0.003294 0.040560
#
#
# Mechanical properties :
#
#
# Convention : Reuss Voigt Hill
#
# Bulk Modulus (GPa) = 22.32086 35.99973 29.16030
# Shear Modulus (GPa) = 24.33044 33.54834 28.93939
#
# Velocity S-wave (km/s) = 3.20818 3.76720 3.49887
# Velocity P-wave (km/s) = 4.81306 5.84391 5.35335
#
# Compressibility (1/GPa) = 0.04480113
#
# Stress axis : x y z
#
# Youngs Moduli (GPa) = 37.29575 37.75011 84.78684
#
# Poissons Ratio (x) = 0.34113 0.01259
# Poissons Ratio (y) = 0.33702 0.08165
# Poissons Ratio (z) = 0.00554 0.03635
#
# Static dielectric constant tensor:
#      x y z
#    x 2.103980 0.099570 -0.119460 
#    y 0.099570 1.968110 -0.092290 
#    z -0.119460 -0.092290 2.075650 
# 
# From -- ./inp_files/204556.got.cif
#   From: 2010.05.17/outbox.cif.g08.bks.cpg/sg2_103_cif.got.tgz:204556.got - 2010.06.03 11:33:40.
