data_PCOD9022853
_publ_section_title
;
Structure prediction by ZEFSAII (Michael W. Deem and Ramdas Pophale) SiO2 
 PCOD9022853
Probable space group: P -1
;
_chemical_formula_sum "Si O2"
_cell_formula_units_Z 16
_cell_length_a 10.095082
_cell_length_b 11.600850
_cell_length_c 15.700836
_cell_angle_alpha 38.474158
_cell_angle_beta 63.856568
_cell_angle_gamma 39.076573
_cell_volume 652.362388
_symmetry_space_group_name_H-M "P -1"
_symmetry_group_IT_number 2
_symmetry_cell_setting 'triclinic'
loop_
_space_group_symop_operation_xyz
x,y,z
-x,-y,-z
loop_
_atom_site_type_symbol
_atom_site_label
_atom_site_fract_x
_atom_site_fract_y
_atom_site_fract_z
Si Si1 0.737388 0.656503 0.156644
Si Si2 0.458518 0.725947 0.327740
Si Si3 0.691324 0.742454 0.392362
Si Si4 0.210760 0.906956 0.035536
Si Si5 0.440695 0.323898 0.361482
Si Si6 0.109159 0.338364 0.387033
Si Si7 0.495788 0.291554 0.088577
Si Si8 0.966859 0.713840 0.965420
O O1 0.615697 0.595870 0.272437
O O2 0.936189 0.497504 0.264555
O O3 0.888531 0.573252 0.078320
O O4 0.500000 0.000000 0.000000
O O5 0.500000 0.500000 0.500000
O O6 0.537231 0.816332 0.314848
O O7 0.192095 0.018897 0.209624
O O8 0.649512 0.642547 0.538680
O O9 0.950833 0.491700 0.427360
O O10 0.597699 0.038185 0.270243
O O11 0.395036 0.577477 0.204799
O O12 0.119578 0.113725 0.019576
O O13 0.334404 0.897044 0.931111
O O14 0.000000 0.000000 0.000000
O O15 0.273207 0.359907 0.328876
O O16 0.707357 0.006170 0.464839
O O17 0.500000 0.500000 0.000000
O O18 0.237856 0.489954 0.018823
#
# Coordination Sequence:
#
# PCOD9022853 Si02
#       8
#     2   2   2   2   2   2   2   2
#     4   9  19  39  69  93 128 187 226 279 353 409
#     4  10  22  43  71 101 136 183 241 294 354 420
#     4  11  24  45  67  98 142 186 232 285 360 421
#     4  12  24  42  66 102 143 183 234 290 354 425
#     4  11  24  38  67  98 137 184 228 281 359 421
#     4  10  22  39  64  96 137 176 230 285 346 420
#     4  12  27  42  70 107 144 185 237 291 359 430
#     4  11  23  44  71  98 141 184 233 295 353 421
#
# _framework density 24.526244999999999
#
# number of rings (size 3 to 8) (size 9 to 14) (size 15 to 20)
#    0.000    1.250    1.250    4.875    3.500    3.500 
#    0.000    5.000    0.000   15.000    0.000    0.000 
#    0.000    0.000    0.000    0.000    0.000    0.000 
#
# Total GULP energy -89441.581958 kJ/mol
# GULP energy per Si atom -5590.098872 kJ/mol
# Density = 2.447042 g / cm^3
# Si number density = 24.526245 Si / 1000 Ang^3
#
#
#
# Elastic Constant Matrix: (Units=GPa)
#
#
# Indices 1 2 3 4 5 6 
#
# 1 90.3313 24.8540 25.4574 -19.8139 20.1494 -13.9277
# 2 24.8540 126.0466 34.8908 -9.6133 12.3344 -31.5991
# 3 25.4574 34.8908 147.1277 2.8244 4.4039 -15.0886
# 4 -19.8139 -9.6133 2.8244 44.4801 -8.9949 -0.3143
# 5 20.1494 12.3344 4.4039 -8.9949 47.0101 -8.5467
# 6 -13.9277 -31.5991 -15.0886 -0.3143 -8.5467 43.2569
#
#
#
# Elastic Compliance Matrix: (Units=1/GPa)
#
#
# Indices 1 2 3 4 5 6 
#
# 1 0.014418 -0.000806 -0.002021 0.005534 -0.004257 0.002547
# 2 -0.000806 0.010436 -0.001669 0.001916 -0.000658 0.006666
# 3 -0.002021 -0.001669 0.007651 -0.001654 0.000429 0.000872
# 4 0.005534 0.001916 -0.001654 0.026072 0.002880 0.003363
# 5 -0.004257 -0.000658 0.000429 0.002880 0.024349 0.003131
# 6 0.002547 0.006666 0.000872 0.003363 0.003131 0.029754
#
#
# Mechanical properties :
#
#
# Convention : Reuss Voigt Hill
#
# Bulk Modulus (GPa) = 42.53116 59.32335 50.92725
# Shear Modulus (GPa) = 38.60695 45.50299 42.05497
#
# Velocity S-wave (km/s) = 3.97181 4.31197 4.14538
# Velocity P-wave (km/s) = 6.19777 7.00221 6.61224
#
# Compressibility (1/GPa) = 0.02351217
#
# Stress axis : x y z
#
# Youngs Moduli (GPa) = 69.35803 95.82123 130.70923
#
# Poissons Ratio (x) = 0.07726 0.26417
# Poissons Ratio (y) = 0.05592 0.21814
# Poissons Ratio (z) = 0.14018 0.15991
#
# Static dielectric constant tensor:
#      x y z
#    x 2.053270 0.044720 -0.060370 
#    y 0.044720 1.961310 0.045910 
#    z -0.060370 0.045910 2.013030 
# 
# From -- ./inp_files/569933.got.cif
#   From: 2010.05.17/outbox.cif.g08.bks.cpg/sg2_285_cif.got.tgz:569933.got - 2010.06.03 11:33:40.
