data_PCOD9022680
_publ_section_title
;
Structure prediction by ZEFSAII (Michael W. Deem and Ramdas Pophale) SiO2 
 PCOD9022680
Probable space group: P -1
;
_chemical_formula_sum "Si O2"
_cell_formula_units_Z 14
_cell_length_a 13.800285
_cell_length_b 8.720957
_cell_length_c 11.569652
_cell_angle_alpha 106.030515
_cell_angle_beta 143.618595
_cell_angle_gamma 51.674879
_cell_volume 568.617624
_symmetry_space_group_name_H-M "P -1"
_symmetry_group_IT_number 2
_symmetry_cell_setting 'triclinic'
loop_
_space_group_symop_operation_xyz
x,y,z
-x,-y,-z
loop_
_atom_site_type_symbol
_atom_site_label
_atom_site_fract_x
_atom_site_fract_y
_atom_site_fract_z
Si Si1 0.466769 0.615134 0.632907
Si Si2 0.017396 0.019313 0.155623
Si Si3 0.684659 0.736792 0.760334
Si Si4 0.713665 0.509273 0.422754
Si Si5 0.796420 0.785535 0.640422
Si Si6 0.277235 0.806096 0.732081
Si Si7 0.800233 0.925654 0.092032
O O1 0.465721 0.434954 0.641361
O O2 0.391437 0.761219 0.707881
O O3 0.252933 0.783112 0.378651
O O4 0.673358 0.564455 0.760113
O O5 0.016839 0.211050 0.215646
O O6 0.835878 0.046544 0.062006
O O7 0.000000 0.000000 0.000000
O O8 0.430381 0.952573 0.516051
O O9 0.836499 0.677000 0.782121
O O10 0.722144 0.829567 0.922395
O O11 0.734525 0.683707 0.473079
O O12 0.674574 0.417926 0.257622
O O13 0.959282 0.290227 0.665507
O O14 0.344071 0.893974 0.906875
O O15 0.000000 0.000000 0.500000
#
# Coordination Sequence:
#
# PCOD9022680 Si02
#       7
#     2   2   2   2   2   2   2
#     4   8  18  33  52  74 100 136 168 202 259 299
#     4  10  17  31  51  75  99 136 169 202 249 307
#     4  10  20  32  50  78 102 141 159 205 267 304
#     4   8  18  35  53  74  98 136 172 216 234 297
#     4  10  20  34  50  73 113 130 168 206 258 304
#     4   8  15  33  57  72  97 133 179 202 246 297
#     4  10  18  34  57  75  99 135 177 207 244 300
#
# _framework density 24.621115
#
# number of rings (size 3 to 8) (size 9 to 14) (size 15 to 20)
#    0.857    2.000    2.857    0.000    0.000    1.714 
#    0.000    2.857    0.000    0.000    0.000    0.000 
#    0.000    0.000    0.000    0.000    0.000    0.000 
#
# Total GULP energy -78076.863259 kJ/mol
# GULP energy per Si atom -5576.918804 kJ/mol
# Density = 2.456508 g / cm^3
# Si number density = 24.621115 Si / 1000 Ang^3
#
#
#
# Elastic Constant Matrix: (Units=GPa)
#
#
# Indices 1 2 3 4 5 6 
#
# 1 63.6542 25.5124 15.4874 17.4443 9.2142 4.8898
# 2 25.5124 112.8454 26.1018 31.7152 -0.0371 14.0276
# 3 15.4874 26.1018 73.5458 22.8312 -19.0316 -1.9135
# 4 17.4443 31.7152 22.8312 64.9084 0.9472 -0.7367
# 5 9.2142 -0.0371 -19.0316 0.9472 26.8451 19.1399
# 6 4.8898 14.0276 -1.9135 -0.7367 19.1399 35.5618
#
#
#
# Elastic Compliance Matrix: (Units=1/GPa)
#
#
# Indices 1 2 3 4 5 6 
#
# 1 0.021303 -0.003861 -0.007321 -0.000909 -0.018139 0.007944
# 2 -0.003861 0.012261 -0.000323 -0.005040 0.007217 -0.008312
# 3 -0.007321 -0.000323 0.025085 -0.007307 0.030654 -0.014166
# 4 -0.000909 -0.005040 -0.007307 0.020948 -0.011601 0.008398
# 5 -0.018139 0.007217 0.030654 -0.011601 0.105271 -0.055602
# 6 0.007944 -0.008312 -0.014166 0.008398 -0.055602 0.059644
#
#
# Mechanical properties :
#
#
# Convention : Reuss Voigt Hill
#
# Bulk Modulus (GPa) = 28.05784 42.69431 35.37607
# Shear Modulus (GPa) = 17.89539 37.65931 27.77735
#
# Velocity S-wave (km/s) = 2.69891 3.91519 3.36250
# Velocity P-wave (km/s) = 4.59703 6.14951 5.42905
#
# Compressibility (1/GPa) = 0.03564067
#
# Stress axis : x y z
#
# Youngs Moduli (GPa) = 46.94167 81.55835 39.86412
#
# Poissons Ratio (x) = 0.31489 0.29184
# Poissons Ratio (y) = 0.18124 0.01286
# Poissons Ratio (z) = 0.34365 0.02632
#
# Static dielectric constant tensor:
#      x y z
#    x 1.964270 -0.002310 0.010070 
#    y -0.002310 2.005750 -0.026560 
#    z 0.010070 -0.026560 2.023970 
# 
# From -- ./inp_files/296429.got.cif
#   From: 2010.05.17/outbox.cif.g08.bks.cpg/sg2_149_cif.got.tgz:296429.got - 2010.06.03 11:33:40.
