data_PCOD9022654
_publ_section_title
;
Structure prediction by ZEFSAII (Michael W. Deem and Ramdas Pophale) SiO2 
 PCOD9022654
Probable space group: P -1
;
_chemical_formula_sum "Si O2"
_cell_formula_units_Z 14
_cell_length_a 24.293783
_cell_length_b 13.735598
_cell_length_c 24.219989
_cell_angle_alpha 21.618309
_cell_angle_beta 168.340890
_cell_angle_gamma 159.393769
_cell_volume 565.209943
_symmetry_space_group_name_H-M "P -1"
_symmetry_group_IT_number 2
_symmetry_cell_setting 'triclinic'
loop_
_space_group_symop_operation_xyz
x,y,z
-x,-y,-z
loop_
_atom_site_type_symbol
_atom_site_label
_atom_site_fract_x
_atom_site_fract_y
_atom_site_fract_z
Si Si1 0.679421 0.389830 0.326776
Si Si2 0.727882 0.043136 0.151984
Si Si3 0.092136 0.338999 0.967978
Si Si4 0.780733 0.777741 0.629388
Si Si5 0.621569 0.980512 0.956044
Si Si6 0.928392 0.945478 0.119747
Si Si7 0.310787 0.553095 0.564941
O O1 0.678940 0.693854 0.148958
O O2 0.973351 0.327131 0.640811
O O3 0.612803 0.361206 0.342079
O O4 0.416949 0.155553 0.161696
O O5 0.925423 0.368759 0.177823
O O6 0.571035 0.989823 0.966756
O O7 0.854154 0.787958 0.415698
O O8 0.500000 0.000000 0.000000
O O9 0.878512 0.283378 0.735322
O O10 0.408758 0.393491 0.225598
O O11 0.017751 0.111957 0.062578
O O12 0.500000 0.500000 0.500000
O O13 0.900353 0.867827 0.760368
O O14 0.067366 0.778706 0.877727
O O15 0.647235 0.989797 0.356216
#
# Coordination Sequence:
#
# PCOD9022654 Si02
#       7
#     2   2   2   2   2   2   2
#     4  11  25  44  65  98 130 172 225 263 324 395
#     4   9  21  41  67 100 131 167 219 269 329 400
#     4  11  22  38  62  93 130 174 212 268 332 375
#     4  12  27  47  70 100 131 170 222 277 334 387
#     4  11  25  45  72  96 135 177 213 277 331 383
#     4  12  26  42  65  94 132 174 224 271 313 394
#     4  10  22  39  63  93 130 169 214 270 325 393
#
# _framework density 24.769556999999999
#
# number of rings (size 3 to 8) (size 9 to 14) (size 15 to 20)
#    0.000    1.143    0.000    5.143    0.000   17.143 
#    0.000    0.000    0.000    0.000    0.000    0.000 
#    0.000    0.000    0.000    0.000    0.000    0.000 
#
# Total GULP energy -78458.470081 kJ/mol
# GULP energy per Si atom -5604.176434 kJ/mol
# Density = 2.471318 g / cm^3
# Si number density = 24.769557 Si / 1000 Ang^3
#
#
#
# Elastic Constant Matrix: (Units=GPa)
#
#
# Indices 1 2 3 4 5 6 
#
# 1 88.4849 18.8076 25.7642 5.1283 -11.9667 -6.5074
# 2 18.8076 87.4986 21.4091 4.2891 -13.2636 -7.0375
# 3 25.7642 21.4091 130.2059 7.2983 -19.6007 10.8281
# 4 5.1283 4.2891 7.2983 38.1856 4.6625 0.7557
# 5 -11.9667 -13.2636 -19.6007 4.6625 43.9989 4.0859
# 6 -6.5074 -7.0375 10.8281 0.7557 4.0859 26.8171
#
#
#
# Elastic Compliance Matrix: (Units=1/GPa)
#
#
# Indices 1 2 3 4 5 6 
#
# 1 0.012864 -0.001604 -0.002197 -0.001423 0.001877 0.003342
# 2 -0.001604 0.012886 -0.001617 -0.001301 0.002560 0.003292
# 3 -0.002197 -0.001617 0.009494 -0.001699 0.003819 -0.005325
# 4 -0.001423 -0.001301 -0.001699 0.027393 -0.004429 -0.000098
# 5 0.001877 0.002560 0.003819 -0.004429 0.026584 -0.004340
# 6 0.003342 0.003292 -0.005325 -0.000098 -0.004340 0.041778
#
#
# Mechanical properties :
#
#
# Convention : Reuss Voigt Hill
#
# Bulk Modulus (GPa) = 40.97256 48.68346 44.82801
# Shear Modulus (GPa) = 33.33983 37.81420 35.57702
#
# Velocity S-wave (km/s) = 3.67277 3.91146 3.79399
# Velocity P-wave (km/s) = 5.87903 6.33219 6.10981
#
# Compressibility (1/GPa) = 0.02440658
#
# Stress axis : x y z
#
# Youngs Moduli (GPa) = 77.73492 77.60498 105.33350
#
# Poissons Ratio (x) = 0.12452 0.23145
# Poissons Ratio (y) = 0.12472 0.17029
# Poissons Ratio (z) = 0.17081 0.12547
#
# Static dielectric constant tensor:
#      x y z
#    x 1.917410 -0.010900 -0.012860 
#    y -0.010900 2.036930 -0.030160 
#    z -0.012860 -0.030160 1.896380 
# 
# From -- ./inp_files/621319.got.cif
#   From: 2010.05.17/outbox.cif.g08.bks.cpg/sg2_311_cif.got.tgz:621319.got - 2010.06.03 11:33:40.
