data_PCOD9022329
_publ_section_title
;
Structure prediction by ZEFSAII (Michael W. Deem and Ramdas Pophale) SiO2 
 PCOD9022329
Probable space group: P -1
;
_chemical_formula_sum "Si O2"
_cell_formula_units_Z 16
_cell_length_a 22.219113
_cell_length_b 9.581799
_cell_length_c 6.360225
_cell_angle_alpha 127.622287
_cell_angle_beta 48.927346
_cell_angle_gamma 123.789905
_cell_volume 780.795960
_symmetry_space_group_name_H-M "P -1"
_symmetry_group_IT_number 2
_symmetry_cell_setting 'triclinic'
loop_
_space_group_symop_operation_xyz
x,y,z
-x,-y,-z
loop_
_atom_site_type_symbol
_atom_site_label
_atom_site_fract_x
_atom_site_fract_y
_atom_site_fract_z
Si Si1 0.842059 0.148242 0.175631
Si Si2 0.876376 0.502820 0.721841
Si Si3 0.211197 0.183370 0.713552
Si Si4 0.632637 0.661401 0.247012
Si Si5 0.962485 0.357806 0.771357
Si Si6 0.535909 0.270838 0.195335
Si Si7 0.556804 0.959071 0.148040
Si Si8 0.720075 0.907803 0.934695
O O1 0.846386 0.330489 0.471859
O O2 0.843869 0.983797 0.178611
O O3 0.912915 0.189588 0.871682
O O4 0.758902 0.067084 0.157800
O O5 0.900689 0.424696 0.815610
O O6 0.959353 0.636865 0.552487
O O7 0.815577 0.630910 0.017685
O O8 0.305874 0.223032 0.614745
O O9 0.213342 0.122336 0.412706
O O10 0.607961 0.452945 0.180452
O O11 0.544172 0.707344 0.471576
O O12 0.683659 0.719826 0.971613
O O13 0.000000 0.500000 0.000000
O O14 0.567713 0.111962 0.082450
O O15 0.496202 0.221644 0.011779
O O16 0.500000 0.000000 0.500000
O O17 0.643664 0.953462 0.036501
#
# Coordination Sequence:
#
# PCOD9022329 Si02
#       8
#     2   2   2   2   2   2   2   2
#     4  10  23  42  66  93 133 169 207 264 312 375
#     4  10  22  43  69  95 130 170 208 255 316 374
#     4  11  24  41  62  96 131 166 211 264 318 379
#     4  10  22  40  59  84 122 159 205 265 311 372
#     4   9  20  42  69  98 128 165 213 255 302 382
#     4  10  22  39  61  85 115 159 211 262 317 368
#     4  11  22  38  61  87 117 163 210 260 319 375
#     4  11  23  40  62  91 130 163 214 262 316 378
#
# _framework density 20.491907999999999
#
# number of rings (size 3 to 8) (size 9 to 14) (size 15 to 20)
#    0.000    1.750    2.500    0.750    0.000    9.000 
#    0.000    8.750    0.000    0.000    0.000    0.000 
#    0.000    0.000    0.000    0.000    0.000    0.000 
#
# Total GULP energy -89211.488013 kJ/mol
# GULP energy per Si atom -5575.718001 kJ/mol
# Density = 2.044527 g / cm^3
# Si number density = 20.491908 Si / 1000 Ang^3
#
#
#
# Elastic Constant Matrix: (Units=GPa)
#
#
# Indices 1 2 3 4 5 6 
#
# 1 72.2840 28.8172 34.4284 -0.2186 14.6996 2.3456
# 2 28.8172 109.9766 41.4262 -13.6573 8.3227 13.3674
# 3 34.4284 41.4262 81.8173 -6.4060 15.6086 -4.7521
# 4 -0.2186 -13.6573 -6.4060 33.2282 -3.7052 0.7041
# 5 14.6996 8.3227 15.6086 -3.7052 26.6469 -0.7149
# 6 2.3456 13.3674 -4.7521 0.7041 -0.7149 20.2597
#
#
#
# Elastic Compliance Matrix: (Units=1/GPa)
#
#
# Indices 1 2 3 4 5 6 
#
# 1 0.018987 -0.002321 -0.005863 -0.002665 -0.006744 -0.002187
# 2 -0.002321 0.013972 -0.006555 0.004816 0.001141 -0.010615
# 3 -0.005863 -0.006555 0.019712 0.000201 -0.005985 0.009409
# 4 -0.002665 0.004816 0.000201 0.032654 0.004287 -0.003805
# 5 -0.006744 0.001141 -0.005985 0.004287 0.044995 0.000063
# 6 -0.002187 -0.010615 0.009409 -0.003805 0.000063 0.058957
#
#
# Mechanical properties :
#
#
# Convention : Reuss Voigt Hill
#
# Bulk Modulus (GPa) = 43.11766 52.60241 47.86004
# Shear Modulus (GPa) = 22.07629 26.65401 24.36515
#
# Velocity S-wave (km/s) = 3.28581 3.61045 3.45195
# Velocity P-wave (km/s) = 5.95671 6.56552 6.26851
#
# Compressibility (1/GPa) = 0.02319235
#
# Stress axis : x y z
#
# Youngs Moduli (GPa) = 52.66838 71.57153 50.72930
#
# Poissons Ratio (x) = 0.16613 0.29745
# Poissons Ratio (y) = 0.12225 0.33252
# Poissons Ratio (z) = 0.30882 0.46913
#
# Static dielectric constant tensor:
#      x y z
#    x 1.738290 0.008010 0.013810 
#    y 0.008010 1.732750 -0.023640 
#    z 0.013810 -0.023640 1.752320 
# 
# From -- ./inp_files/51252.got.cif
#   From: 2010.05.17/outbox.cif.g08.bks.cpg/sg2_26_cif.got.tgz:51252.got - 2010.06.03 11:33:40.
