data_PCOD9022729
_publ_section_title
;
Structure prediction by ZEFSAII (Michael W. Deem and Ramdas Pophale) SiO2 
 PCOD9022729
Probable space group: P -1
;
_chemical_formula_sum "Si O2"
_cell_formula_units_Z 16
_cell_length_a 13.574989
_cell_length_b 5.043537
_cell_length_c 14.608405
_cell_angle_alpha 63.635780
_cell_angle_beta 43.139692
_cell_angle_gamma 74.622182
_cell_volume 609.934427
_symmetry_space_group_name_H-M "P -1"
_symmetry_group_IT_number 2
_symmetry_cell_setting 'triclinic'
loop_
_space_group_symop_operation_xyz
x,y,z
-x,-y,-z
loop_
_atom_site_type_symbol
_atom_site_label
_atom_site_fract_x
_atom_site_fract_y
_atom_site_fract_z
Si Si1 0.629585 0.787982 0.926262
Si Si2 0.073738 0.899675 0.370415
Si Si3 0.207204 0.408094 0.469505
Si Si4 0.337576 0.228640 0.790149
Si Si5 0.044467 0.890276 0.827587
Si Si6 0.530495 0.761511 0.792797
Si Si7 0.827588 0.365615 0.044467
Si Si8 0.209851 0.484090 0.662424
O O1 0.612314 0.737839 0.837242
O O2 0.797350 0.905300 0.797350
O O3 0.596568 0.503643 0.058147
O O4 0.500000 0.000000 0.000000
O O5 0.162758 0.636951 0.387686
O O6 0.941853 0.813072 0.403432
O O7 0.000000 0.000000 0.500000
O O8 0.354073 0.291855 0.354073
O O9 0.240893 0.544995 0.525602
O O10 0.474397 0.077985 0.759108
O O11 0.222871 0.935579 0.929348
O O12 0.304945 0.518526 0.824110
O O13 0.317208 0.318652 0.682792
O O14 0.068079 0.760935 0.931921
O O15 0.175890 0.776637 0.695054
O O16 0.070653 0.240015 0.777129
O O17 0.910710 0.678581 0.910709
#
# Coordination Sequence:
#
# PCOD9022729 Si02
#       8
#     2   2   2   2   2   2   2   2
#     4  11  24  47  73  99 135 179 232 297 356 415
#     4  11  24  47  73  99 135 179 232 297 356 415
#     4  11  25  43  69 102 137 182 233 291 352 422
#     4  10  22  39  63  98 138 182 230 279 343 420
#     4   9  18  36  58  87 132 181 228 281 335 400
#     4  11  25  43  69 102 137 182 233 291 352 422
#     4   9  18  36  58  87 132 181 228 281 335 400
#     4  10  22  39  63  98 138 182 230 279 343 420
#
# _framework density 26.232330000000001
#
# number of rings (size 3 to 8) (size 9 to 14) (size 15 to 20)
#    0.000    1.750    2.500    0.750    3.500    4.500 
#    4.500    0.000    0.000    5.250    0.000    0.000 
#    0.000    0.000    0.000    0.000    0.000    0.000 
#
# Total GULP energy -89230.701170 kJ/mol
# GULP energy per Si atom -5576.918823 kJ/mol
# Density = 2.617262 g / cm^3
# Si number density = 26.232330 Si / 1000 Ang^3
#
#
#
# Elastic Constant Matrix: (Units=GPa)
#
#
# Indices 1 2 3 4 5 6 
#
# 1 118.1013 28.6011 60.2777 -18.6698 30.7020 -16.4286
# 2 28.6011 113.1018 17.5463 10.5408 1.0333 -4.0643
# 3 60.2777 17.5463 110.7676 -1.0308 -21.3205 4.3250
# 4 -18.6698 10.5408 -1.0308 41.2625 10.9853 2.6676
# 5 30.7020 1.0333 -21.3205 10.9853 48.9703 -5.5129
# 6 -16.4286 -4.0643 4.3250 2.6676 -5.5129 47.5414
#
#
#
# Elastic Compliance Matrix: (Units=1/GPa)
#
#
# Indices 1 2 3 4 5 6 
#
# 1 0.055987 -0.010813 -0.040519 0.042393 -0.060594 0.012704
# 2 -0.010813 0.011444 0.006237 -0.010626 0.011479 -0.001398
# 3 -0.040519 0.006237 0.039488 -0.031190 0.048368 -0.009702
# 4 0.042393 -0.010626 -0.031190 0.058813 -0.052314 0.007212
# 5 -0.060594 0.011479 0.048368 -0.052314 0.089721 -0.011018
# 6 0.012704 -0.001398 -0.009702 0.007212 -0.011018 0.024505
#
#
# Mechanical properties :
#
#
# Convention : Reuss Voigt Hill
#
# Bulk Modulus (GPa) = 59.77780 61.64678 60.71229
# Shear Modulus (GPa) = 13.30765 43.25789 28.28277
#
# Velocity S-wave (km/s) = 2.25477 4.06523 3.28710
# Velocity P-wave (km/s) = 5.44206 6.75175 6.13197
#
# Compressibility (1/GPa) = 0.01672862
#
# Stress axis : x y z
#
# Youngs Moduli (GPa) = 17.86127 87.38537 25.32410
#
# Poissons Ratio (x) = 0.94488 1.02610
# Poissons Ratio (y) = 0.19313 -0.15794
# Poissons Ratio (z) = 0.72372 -0.54499
#
# Static dielectric constant tensor:
#      x y z
#    x 2.121500 0.079210 -0.137370 
#    y 0.079210 2.084490 -0.126940 
#    z -0.137370 -0.126940 2.226230 
# 
# From -- ./inp_files/38629.got.cif
#   From: 2010.05.17/outbox.cif.g08.bks.cpg/sg2_20_cif.got.tgz:38629.got - 2010.06.03 11:33:40.
