data_PCOD9022209
_publ_section_title
;
Structure prediction by ZEFSAII (Michael W. Deem and Ramdas Pophale) SiO2 
 PCOD9022209
Probable space group: P -1
;
_chemical_formula_sum "Si O2"
_cell_formula_units_Z 16
_cell_length_a 13.653551
_cell_length_b 8.925984
_cell_length_c 15.779203
_cell_angle_alpha 125.271983
_cell_angle_beta 146.767222
_cell_angle_gamma 39.417486
_cell_volume 656.009372
_symmetry_space_group_name_H-M "P -1"
_symmetry_group_IT_number 2
_symmetry_cell_setting 'triclinic'
loop_
_space_group_symop_operation_xyz
x,y,z
-x,-y,-z
loop_
_atom_site_type_symbol
_atom_site_label
_atom_site_fract_x
_atom_site_fract_y
_atom_site_fract_z
Si Si1 0.872394 0.440244 0.951892
Si Si2 0.634335 0.779165 0.150717
Si Si3 0.341661 0.004644 0.599106
Si Si4 0.511392 0.468897 0.399795
Si Si5 0.059668 0.293143 0.344573
Si Si6 0.324729 0.478002 0.619453
Si Si7 0.723889 0.939383 0.754302
Si Si8 0.608838 0.156182 0.164557
O O1 0.742752 0.382421 0.777793
O O2 0.655250 0.664326 0.924650
O O3 0.000000 0.500000 0.000000
O O4 0.054572 0.226237 0.077764
O O5 0.607561 0.866093 0.255572
O O6 0.802465 0.493067 0.187949
O O7 0.732580 0.895741 0.210407
O O8 0.421890 0.861252 0.963369
O O9 0.115983 0.141590 0.419886
O O10 0.365366 0.810348 0.609567
O O11 0.549625 0.894605 0.645781
O O12 0.500000 0.500000 0.500000
O O13 0.654239 0.516663 0.464769
O O14 0.134470 0.446977 0.483303
O O15 0.209057 0.132746 0.318836
O O16 0.293064 0.705238 0.703466
O O17 0.570350 0.226641 0.746041
#
# Coordination Sequence:
#
# PCOD9022209 Si02
#       8
#     2   2   2   2   2   2   2   2
#     4  11  20  37  63  88 118 158 203 242 293 366
#     4  11  21  41  63  84 120 165 207 237 302 369
#     4  11  21  40  61  89 123 159 201 249 298 359
#     4  11  21  36  58  89 125 150 193 252 305 341
#     4  11  23  38  66  88 121 163 202 244 303 365
#     4  10  22  39  59  90 124 154 197 260 297 347
#     4  11  21  40  64  93 118 158 205 245 306 360
#     4  10  22  39  60  89 121 161 198 259 298 346
#
# _framework density 24.389894000000002
#
# number of rings (size 3 to 8) (size 9 to 14) (size 15 to 20)
#    0.000    1.250    5.000    3.375    0.000    2.500 
#    2.250    2.500    0.000    0.000    0.000    0.000 
#    0.000    0.000    0.000    0.000    0.000    0.000 
#
# Total GULP energy -89343.240919 kJ/mol
# GULP energy per Si atom -5583.952557 kJ/mol
# Density = 2.433438 g / cm^3
# Si number density = 24.389894 Si / 1000 Ang^3
#
#
#
# Elastic Constant Matrix: (Units=GPa)
#
#
# Indices 1 2 3 4 5 6 
#
# 1 79.4989 7.2856 22.4622 -10.3460 -19.8601 2.4120
# 2 7.2856 48.1126 18.6579 -5.8336 -12.9927 12.2207
# 3 22.4622 18.6579 117.4496 -14.6711 -45.8215 0.2467
# 4 -10.3460 -5.8336 -14.6711 50.2085 5.5569 -12.0133
# 5 -19.8601 -12.9927 -45.8215 5.5569 43.8787 3.0845
# 6 2.4120 12.2207 0.2467 -12.0133 3.0845 32.9365
#
#
#
# Elastic Compliance Matrix: (Units=1/GPa)
#
#
# Indices 1 2 3 4 5 6 
#
# 1 0.014460 0.000009 -0.000052 0.002053 0.006297 -0.000903
# 2 0.000009 0.025798 -0.001454 -0.000699 0.006948 -0.010468
# 3 -0.000052 -0.001454 0.014797 0.002513 0.014682 -0.000026
# 4 0.002053 -0.000699 0.002513 0.023049 -0.000171 0.008513
# 5 0.006297 0.006948 0.014682 -0.000171 0.043563 -0.007291
# 6 -0.000903 -0.010468 -0.000026 0.008513 -0.007291 0.038100
#
#
# Mechanical properties :
#
#
# Convention : Reuss Voigt Hill
#
# Bulk Modulus (GPa) = 19.20854 37.98583 28.59718
# Shear Modulus (GPa) = 27.76007 38.51511 33.13759
#
# Velocity S-wave (km/s) = 3.37735 3.97815 3.69000
# Velocity P-wave (km/s) = 4.80639 6.05881 5.46857
#
# Compressibility (1/GPa) = 0.05206018
#
# Stress axis : x y z
#
# Youngs Moduli (GPa) = 69.15526 38.76326 67.58087
#
# Poissons Ratio (x) = -0.00036 0.00352
# Poissons Ratio (y) = -0.00063 0.09829
# Poissons Ratio (z) = 0.00360 0.05638
#
# Static dielectric constant tensor:
#      x y z
#    x 1.939930 -0.056630 0.036250 
#    y -0.056630 2.063590 0.013200 
#    z 0.036250 0.013200 1.977480 
# 
# From -- ./inp_files/498910.got.cif
#   From: 2010.05.17/outbox.cif.g08.bks.cpg/sg2_250_cif.got.tgz:498910.got - 2010.06.03 11:33:40.
