data_PCOD9022431
_publ_section_title
;
Structure prediction by ZEFSAII (Michael W. Deem and Ramdas Pophale) SiO2 
 PCOD9022431
Probable space group: P -1
;
_chemical_formula_sum "Si O2"
_cell_formula_units_Z 14
_cell_length_a 8.981037
_cell_length_b 14.827892
_cell_length_c 5.365322
_cell_angle_alpha 120.496574
_cell_angle_beta 71.756476
_cell_angle_gamma 116.143274
_cell_volume 548.962590
_symmetry_space_group_name_H-M "P -1"
_symmetry_group_IT_number 2
_symmetry_cell_setting 'triclinic'
loop_
_space_group_symop_operation_xyz
x,y,z
-x,-y,-z
loop_
_atom_site_type_symbol
_atom_site_label
_atom_site_fract_x
_atom_site_fract_y
_atom_site_fract_z
Si Si1 0.649043 0.553298 0.302983
Si Si2 0.159125 0.844861 0.875023
Si Si3 0.805405 0.078463 0.541464
Si Si4 0.341193 0.655271 0.191448
Si Si5 0.992281 0.600689 0.470663
Si Si6 0.527671 0.745685 0.704619
Si Si7 0.841031 0.926997 0.677395
O O1 0.500000 0.500000 0.500000
O O2 0.818097 0.567154 0.378958
O O3 0.636581 0.673051 0.432652
O O4 0.640184 0.466986 0.965123
O O5 0.259571 0.886070 0.625622
O O6 0.031471 0.719894 0.754620
O O7 0.253697 0.864526 0.115722
O O8 0.082924 0.945876 0.080840
O O9 0.010743 0.123526 0.475853
O O10 0.775408 0.953270 0.477088
O O11 0.395568 0.723397 0.516131
O O12 0.144225 0.629380 0.234739
O O13 0.441718 0.705103 0.958238
O O14 0.000000 0.500000 0.500000
O O15 0.672906 0.863454 0.820758
#
# Coordination Sequence:
#
# PCOD9022431 Si02
#       7
#     2   2   2   2   2   2   2
#     4  10  23  44  69 103 132 173 231 285 336 396
#     4  10  22  39  61  98 134 173 228 271 331 410
#     4   9  20  35  63  96 141 161 227 276 343 384
#     4  11  26  46  64 103 143 182 227 275 343 413
#     4  12  26  46  73  98 140 188 224 279 346 413
#     4  11  24  43  75 100 140 179 227 286 341 395
#     4   9  21  37  66  98 137 174 222 280 339 396
#
# _framework density 25.502647
#
# number of rings (size 3 to 8) (size 9 to 14) (size 15 to 20)
#    0.857    0.857    0.000    3.857    2.000    8.000 
#    0.000    1.429    0.000    0.000    0.000    0.000 
#    0.000    0.000    0.000    0.000    0.000    0.000 
#
# Total GULP energy -78093.238533 kJ/mol
# GULP energy per Si atom -5578.088467 kJ/mol
# Density = 2.544460 g / cm^3
# Si number density = 25.502647 Si / 1000 Ang^3
#
#
#
# Elastic Constant Matrix: (Units=GPa)
#
#
# Indices 1 2 3 4 5 6 
#
# 1 103.1306 30.3096 13.2348 -8.2487 -11.5603 3.7370
# 2 30.3096 104.6970 32.7505 -3.6779 -3.7487 4.2339
# 3 13.2348 32.7505 128.4412 -14.1351 15.1110 1.4738
# 4 -8.2487 -3.6779 -14.1351 53.0974 -5.8933 -4.7500
# 5 -11.5603 -3.7487 15.1110 -5.8933 29.5112 -9.8229
# 6 3.7370 4.2339 1.4738 -4.7500 -9.8229 47.6335
#
#
#
# Elastic Compliance Matrix: (Units=1/GPa)
#
#
# Indices 1 2 3 4 5 6 
#
# 1 0.011334 -0.002788 -0.000851 0.001967 0.005127 0.000638
# 2 -0.002788 0.011300 -0.002806 -0.000255 0.001597 -0.000395
# 3 -0.000851 -0.002806 0.009414 0.001478 -0.005538 -0.000970
# 4 0.001967 -0.000255 0.001478 0.020327 0.004999 0.002881
# 5 0.005127 0.001597 -0.005538 0.004999 0.042918 0.008976
# 6 0.000638 -0.000395 -0.000970 0.002881 0.008976 0.023147
#
#
# Mechanical properties :
#
#
# Convention : Reuss Voigt Hill
#
# Bulk Modulus (GPa) = 52.19477 54.31761 53.25619
# Shear Modulus (GPa) = 36.30643 43.38000 39.84322
#
# Velocity S-wave (km/s) = 3.77720 4.12879 3.95690
# Velocity P-wave (km/s) = 6.28759 6.63885 6.46561
#
# Compressibility (1/GPa) = 0.01915901
#
# Stress axis : x y z
#
# Youngs Moduli (GPa) = 88.23054 88.49273 106.22421
#
# Poissons Ratio (x) = 0.24673 0.09039
# Poissons Ratio (y) = 0.24600 0.29803
# Poissons Ratio (z) = 0.07508 0.24828
#
# Static dielectric constant tensor:
#      x y z
#    x 2.045800 -0.092330 0.052030 
#    y -0.092330 2.100420 0.042370 
#    z 0.052030 0.042370 2.186820 
# 
# From -- ./inp_files/33537.got.cif
#   From: 2010.05.17/outbox.cif.g08.bks.cpg/sg2_17_cif.got.tgz:33537.got - 2010.06.03 11:33:40.
