data_PCOD9022781
_publ_section_title
;
Structure prediction by ZEFSAII (Michael W. Deem and Ramdas Pophale) SiO2 
 PCOD9022781
Probable space group: P -1
;
_chemical_formula_sum "Si O2"
_cell_formula_units_Z 16
_cell_length_a 6.727427
_cell_length_b 15.904483
_cell_length_c 8.779303
_cell_angle_alpha 117.166886
_cell_angle_beta 100.470862
_cell_angle_gamma 60.244003
_cell_volume 724.305393
_symmetry_space_group_name_H-M "P -1"
_symmetry_group_IT_number 2
_symmetry_cell_setting 'triclinic'
loop_
_space_group_symop_operation_xyz
x,y,z
-x,-y,-z
loop_
_atom_site_type_symbol
_atom_site_label
_atom_site_fract_x
_atom_site_fract_y
_atom_site_fract_z
Si Si1 0.751406 0.689859 0.398984
Si Si2 0.075365 0.591629 0.099670
Si Si3 0.893262 0.054479 0.761478
Si Si4 0.501034 0.062958 0.900334
Si Si5 0.351710 0.923348 0.577095
Si Si6 0.514933 0.431107 0.667722
Si Si7 0.981578 0.761749 0.984077
Si Si8 0.167222 0.643772 0.618693
O O1 0.570137 0.807880 0.522251
O O2 0.615228 0.622571 0.307568
O O3 0.883318 0.683782 0.256361
O O4 0.952653 0.637042 0.507834
O O5 0.317290 0.547146 0.182364
O O6 0.081781 0.649848 0.994710
O O7 0.000000 0.500000 0.000000
O O8 0.743647 0.053508 0.882196
O O9 0.751555 0.065004 0.596240
O O10 0.938276 0.156804 0.865622
O O11 0.139681 0.950570 0.685227
O O12 0.293825 0.181726 0.993925
O O13 0.432482 0.009802 0.706563
O O14 0.500000 0.000000 0.000000
O O15 0.333233 0.536279 0.642882
O O16 0.680645 0.349921 0.493403
O O17 0.065299 0.739409 0.803766
#
# Coordination Sequence:
#
# PCOD9022781 Si02
#       8
#     2   2   2   2   2   2   2   2
#     4  11  22  40  65  90 124 168 214 261 317 381
#     4  11  25  42  65  98 131 165 213 268 320 381
#     4  10  23  42  63  91 127 166 212 260 316 384
#     4  11  24  41  63  94 130 166 208 263 321 376
#     4  10  22  39  64  91 122 167 212 260 314 375
#     4  10  23  42  63  90 125 169 212 260 323 379
#     4  11  24  41  64  94 126 167 212 260 320 379
#     4  10  23  40  61  90 125 164 214 264 314 383
#
# _framework density 22.090129999999998
#
# number of rings (size 3 to 8) (size 9 to 14) (size 15 to 20)
#    0.000    1.500    0.000    3.750    0.000   15.000 
#    0.000    0.000    0.000    0.000    0.000    0.000 
#    0.000    0.000    0.000    0.000    0.000    0.000 
#
# Total GULP energy -89471.053533 kJ/mol
# GULP energy per Si atom -5591.940846 kJ/mol
# Density = 2.203985 g / cm^3
# Si number density = 22.090130 Si / 1000 Ang^3
#
#
#
# Elastic Constant Matrix: (Units=GPa)
#
#
# Indices 1 2 3 4 5 6 
#
# 1 127.1935 31.3587 37.1353 -2.9243 -17.4938 -16.8628
# 2 31.3587 63.9463 12.1122 0.9154 -8.0500 -22.0371
# 3 37.1353 12.1122 95.7933 1.0325 -6.5068 -6.1511
# 4 -2.9243 0.9154 1.0325 28.2051 -1.9065 -5.0706
# 5 -17.4938 -8.0500 -6.5068 -1.9065 37.6475 0.6914
# 6 -16.8628 -22.0371 -6.1511 -5.0706 0.6914 35.0208
#
#
#
# Elastic Compliance Matrix: (Units=1/GPa)
#
#
# Indices 1 2 3 4 5 6 
#
# 1 0.010513 -0.003162 -0.003272 0.002052 0.003698 0.002722
# 2 -0.003162 0.021884 -0.000566 0.001392 0.002957 0.012292
# 3 -0.003272 -0.000566 0.011814 -0.000723 0.000363 0.000031
# 4 0.002052 0.001392 -0.000723 0.037111 0.002876 0.007054
# 5 0.003698 0.002957 0.000363 0.002876 0.029056 0.003548
# 6 0.002722 0.012292 0.000031 0.007054 0.003548 0.038557
#
#
# Mechanical properties :
#
#
# Convention : Reuss Voigt Hill
#
# Bulk Modulus (GPa) = 33.10002 49.79395 41.44699
# Shear Modulus (GPa) = 28.90076 33.92981 31.41528
#
# Velocity S-wave (km/s) = 3.62098 3.92340 3.77522
# Velocity P-wave (km/s) = 5.70076 6.56615 6.14869
#
# Compressibility (1/GPa) = 0.03021146
#
# Stress axis : x y z
#
# Youngs Moduli (GPa) = 95.11602 45.69476 84.64789
#
# Poissons Ratio (x) = 0.14447 0.27697
# Poissons Ratio (y) = 0.30073 0.04793
# Poissons Ratio (z) = 0.31122 0.02587
#
# Static dielectric constant tensor:
#      x y z
#    x 1.795640 -0.017140 -0.023880 
#    y -0.017140 1.795720 -0.001090 
#    z -0.023880 -0.001090 1.826420 
# 
# From -- ./inp_files/90201.got.cif
#   From: 2010.05.17/outbox.cif.g08.bks.cpg/sg2_46_cif.got.tgz:90201.got - 2010.06.03 11:33:40.
