data_PCOD9022776
_publ_section_title
;
Structure prediction by ZEFSAII (Michael W. Deem and Ramdas Pophale) SiO2 
 PCOD9022776
Probable space group: P -1
;
_chemical_formula_sum "Si O2"
_cell_formula_units_Z 16
_cell_length_a 8.082356
_cell_length_b 8.581136
_cell_length_c 14.839213
_cell_angle_alpha 126.859542
_cell_angle_beta 53.019347
_cell_angle_gamma 97.079604
_cell_volume 610.674300
_symmetry_space_group_name_H-M "P -1"
_symmetry_group_IT_number 2
_symmetry_cell_setting 'triclinic'
loop_
_space_group_symop_operation_xyz
x,y,z
-x,-y,-z
loop_
_atom_site_type_symbol
_atom_site_label
_atom_site_fract_x
_atom_site_fract_y
_atom_site_fract_z
Si Si1 0.430910 0.869184 0.854215
Si Si2 0.526334 0.858415 0.530730
Si Si3 0.803591 0.883250 0.598721
Si Si4 0.130862 0.767721 0.595011
Si Si5 0.192834 0.284611 0.170510
Si Si6 0.883855 0.806347 0.199347
Si Si7 0.362182 0.616527 0.175556
Si Si8 0.736372 0.456325 0.151406
O O1 0.583551 0.792895 0.867485
O O2 0.319422 0.698477 0.816844
O O3 0.616160 0.862979 0.719882
O O4 0.246340 0.097702 0.015069
O O5 0.749495 0.807817 0.494168
O O6 0.396334 0.703222 0.497384
O O7 0.342549 0.033638 0.715748
O O8 0.500000 0.000000 0.500000
O O9 0.037592 0.738666 0.518486
O O10 0.758084 0.131398 0.696541
O O11 0.040275 0.023122 0.718017
O O12 0.013176 0.696917 0.690566
O O13 0.195077 0.495096 0.199967
O O14 0.821577 0.637045 0.218732
O O15 0.064468 0.689196 0.027028
O O16 0.534283 0.565405 0.185660
O O17 0.500000 0.500000 0.000000
#
# Coordination Sequence:
#
# PCOD9022776 Si02
#       8
#     2   2   2   2   2   2   2   2
#     4   9  16  28  48  77 113 150 175 205 272 335
#     4  10  22  40  59  77 104 144 192 239 268 309
#     4  11  20  35  55  86 107 145 189 214 273 332
#     4   9  19  37  55  79 111 139 184 223 270 325
#     4   9  16  28  48  77 119 148 167 217 269 323
#     4   9  18  32  53  78 108 146 176 217 274 319
#     4  11  18  26  50  86 118 147 177 212 261 345
#     4  10  17  31  51  77 121 148 167 218 278 327
#
# _framework density 26.200548000000001
#
# number of rings (size 3 to 8) (size 9 to 14) (size 15 to 20)
#    0.750    1.500    3.750    0.750    0.000    0.500 
#    0.000    6.250    0.000    1.500    0.000    0.000 
#    0.000    0.000    0.000    0.000    0.000    0.000 
#
# Total GULP energy -89399.816123 kJ/mol
# GULP energy per Si atom -5587.488508 kJ/mol
# Density = 2.614091 g / cm^3
# Si number density = 26.200548 Si / 1000 Ang^3
#
#
#
# Elastic Constant Matrix: (Units=GPa)
#
#
# Indices 1 2 3 4 5 6 
#
# 1 102.1973 52.9211 37.6173 -0.5309 11.2742 4.5111
# 2 52.9211 160.5291 51.3564 -17.4467 -9.0307 50.8145
# 3 37.6173 51.3564 87.2069 11.2306 -1.0727 9.7051
# 4 -0.5309 -17.4467 11.2306 33.9086 2.3964 -10.3660
# 5 11.2742 -9.0307 -1.0727 2.3964 36.1077 -3.9571
# 6 4.5111 50.8145 9.7051 -10.3660 -3.9571 36.4948
#
#
#
# Elastic Compliance Matrix: (Units=1/GPa)
#
#
# Indices 1 2 3 4 5 6 
#
# 1 0.014646 -0.006250 -0.003660 0.000916 -0.005480 0.007531
# 2 -0.006250 0.017038 -0.005623 0.004202 0.003589 -0.019872
# 3 -0.003660 -0.005623 0.017279 -0.008303 0.000958 0.001432
# 4 0.000916 0.004202 -0.008303 0.036482 -0.001193 0.006477
# 5 -0.005480 0.003589 0.000958 -0.001193 0.030232 -0.001635
# 6 0.007531 -0.019872 0.001432 0.006477 -0.001635 0.055422
#
#
# Mechanical properties :
#
#
# Convention : Reuss Voigt Hill
#
# Bulk Modulus (GPa) = 55.87907 70.41364 63.14635
# Shear Modulus (GPa) = 24.02348 35.17146 29.59747
#
# Velocity S-wave (km/s) = 3.03133 3.66784 3.36467
# Velocity P-wave (km/s) = 5.79877 6.69856 6.26484
#
# Compressibility (1/GPa) = 0.01789579
#
# Stress axis : x y z
#
# Youngs Moduli (GPa) = 68.28007 58.69304 57.87347
#
# Poissons Ratio (x) = 0.36682 0.21184
# Poissons Ratio (y) = 0.42674 0.32543
# Poissons Ratio (z) = 0.24993 0.33004
#
# Static dielectric constant tensor:
#      x y z
#    x 2.073620 0.034650 0.031400 
#    y 0.034650 2.046050 -0.003460 
#    z 0.031400 -0.003460 2.122250 
# 
# From -- ./inp_files/491227.got.cif
#   From: 2010.05.17/outbox.cif.g08.bks.cpg/sg2_246_cif.got.tgz:491227.got - 2010.06.03 11:33:40.
