data_PCOD9022602
_publ_section_title
;
Structure prediction by ZEFSAII (Michael W. Deem and Ramdas Pophale) SiO2 
 PCOD9022602
Probable space group: P -1
;
_chemical_formula_sum "Si O2"
_cell_formula_units_Z 14
_cell_length_a 15.233280
_cell_length_b 9.184525
_cell_length_c 16.078315
_cell_angle_alpha 59.223946
_cell_angle_beta 28.754366
_cell_angle_gamma 78.063991
_cell_volume 754.087957
_symmetry_space_group_name_H-M "P -1"
_symmetry_group_IT_number 2
_symmetry_cell_setting 'triclinic'
loop_
_space_group_symop_operation_xyz
x,y,z
-x,-y,-z
loop_
_atom_site_type_symbol
_atom_site_label
_atom_site_fract_x
_atom_site_fract_y
_atom_site_fract_z
Si Si1 0.774442 0.332504 0.285941
Si Si2 0.096769 0.051725 0.147103
Si Si3 0.555527 0.472853 0.322408
Si Si4 0.221633 0.770110 0.057648
Si Si5 0.400516 0.117539 0.421259
Si Si6 0.411162 0.001022 0.984170
Si Si7 0.777244 0.397891 0.454969
O O1 0.598328 0.385599 0.394629
O O2 0.818584 0.348189 0.343172
O O3 0.676312 0.098706 0.408095
O O4 0.000000 0.500000 0.000000
O O5 0.157509 0.936384 0.063479
O O6 0.225312 0.292468 0.945662
O O7 0.216145 0.039183 0.133731
O O8 0.831683 0.931159 0.406988
O O9 0.513301 0.312521 0.332323
O O10 0.349172 0.491497 0.486651
O O11 0.004339 0.551201 0.272474
O O12 0.423635 0.838106 0.808558
O O13 0.302969 0.792227 0.079110
O O14 0.610001 0.189038 0.707866
O O15 0.500000 0.000000 0.000000
#
# Coordination Sequence:
#
# PCOD9022602 Si02
#       7
#     2   2   2   2   2   2   2
#     4  12  23  37  58  90 124 164 207 247 291 355
#     4   9  21  40  59  89 119 159 202 246 302 359
#     4  11  21  38  60  85 123 166 202 249 293 352
#     4  10  22  39  63  90 120 163 194 251 309 354
#     4  12  21  40  61  88 127 162 203 245 300 358
#     4   9  20  42  67  88 118 156 201 253 307 361
#     4  11  22  41  61  90 124 161 204 247 302 363
#
# _framework density 18.565473999999998
#
# number of rings (size 3 to 8) (size 9 to 14) (size 15 to 20)
#    0.857    0.571    4.286    1.714    0.000    0.571 
#    0.000    2.857    0.000    4.286    0.000    0.000 
#    0.000    0.000    0.000    0.000    0.000    0.000 
#
# Total GULP energy -78045.344371 kJ/mol
# GULP energy per Si atom -5574.667455 kJ/mol
# Density = 1.852322 g / cm^3
# Si number density = 18.565474 Si / 1000 Ang^3
#
#
#
# Elastic Constant Matrix: (Units=GPa)
#
#
# Indices 1 2 3 4 5 6 
#
# 1 124.1927 22.9374 42.4135 -3.8854 -7.8888 12.0937
# 2 22.9374 83.1247 23.7862 2.6022 -4.4752 15.6130
# 3 42.4135 23.7862 86.3673 11.1740 -22.9305 9.1091
# 4 -3.8854 2.6022 11.1740 28.3993 2.6620 -9.4105
# 5 -7.8888 -4.4752 -22.9305 2.6620 30.2005 -3.3071
# 6 12.0937 15.6130 9.1091 -9.4105 -3.3071 27.2167
#
#
#
# Elastic Compliance Matrix: (Units=1/GPa)
#
#
# Indices 1 2 3 4 5 6 
#
# 1 0.010287 -0.001272 -0.005663 0.003644 -0.002227 -0.000956
# 2 -0.001272 0.014660 -0.002225 -0.003354 -0.000464 -0.008316
# 3 -0.005663 -0.002225 0.021000 -0.012068 0.014582 -0.005636
# 4 0.003644 -0.003354 -0.012068 0.048319 -0.010806 0.019738
# 5 -0.002227 -0.000464 0.014582 -0.010806 0.044269 -0.001981
# 6 -0.000956 -0.008316 -0.005636 0.019738 -0.001981 0.050408
#
#
# Mechanical properties :
#
#
# Convention : Reuss Voigt Hill
#
# Bulk Modulus (GPa) = 36.19878 52.43987 44.31932
# Shear Modulus (GPa) = 23.09780 30.79981 26.94881
#
# Velocity S-wave (km/s) = 3.53104 4.07748 3.81406
# Velocity P-wave (km/s) = 6.01370 7.10458 6.58178
#
# Compressibility (1/GPa) = 0.02762524
#
# Stress axis : x y z
#
# Youngs Moduli (GPa) = 97.21296 68.21389 47.61999
#
# Poissons Ratio (x) = 0.08679 0.26968
# Poissons Ratio (y) = 0.12369 0.10595
# Poissons Ratio (z) = 0.55053 0.15177
#
# Static dielectric constant tensor:
#      x y z
#    x 1.654150 -0.010440 -0.031490 
#    y -0.010440 1.668790 0.011550 
#    z -0.031490 0.011550 1.629130 
# 
# From -- ./inp_files/312912.got.cif
#   From: 2010.05.17/outbox.cif.g08.bks.cpg/sg2_157_cif.got.tgz:312912.got - 2010.06.03 11:33:40.
