data_PCOD9022801
_publ_section_title
;
Structure prediction by ZEFSAII (Michael W. Deem and Ramdas Pophale) SiO2 
 PCOD9022801
Probable space group: P -1
;
_chemical_formula_sum "Si O2"
_cell_formula_units_Z 14
_cell_length_a 11.864658
_cell_length_b 5.593104
_cell_length_c 11.842971
_cell_angle_alpha 107.730586
_cell_angle_beta 48.354129
_cell_angle_gamma 90.642155
_cell_volume 538.829019
_symmetry_space_group_name_H-M "P -1"
_symmetry_group_IT_number 2
_symmetry_cell_setting 'triclinic'
loop_
_space_group_symop_operation_xyz
x,y,z
-x,-y,-z
loop_
_atom_site_type_symbol
_atom_site_label
_atom_site_fract_x
_atom_site_fract_y
_atom_site_fract_z
Si Si1 0.963371 0.486756 0.653708
Si Si2 0.666959 0.354945 0.808258
Si Si3 0.781190 0.813017 0.384941
Si Si4 0.036575 0.037380 0.170296
Si Si5 0.575303 0.854440 0.812160
Si Si6 0.145583 0.691058 0.868568
Si Si7 0.457762 0.770596 0.639880
O O1 0.835334 0.332755 0.749746
O O2 0.000000 0.500000 0.500000
O O3 0.122503 0.367108 0.602714
O O4 0.883168 0.787665 0.784703
O O5 0.670432 0.563541 0.739186
O O6 0.660146 0.066905 0.740651
O O7 0.500000 0.500000 0.000000
O O8 0.802610 0.613350 0.236439
O O9 0.593417 0.906658 0.534691
O O10 0.876855 0.024520 0.335265
O O11 0.119244 0.753839 0.026733
O O12 0.000603 0.195884 0.099227
O O13 0.469760 0.793323 0.771967
O O14 0.500000 0.000000 0.000000
O O15 0.272682 0.836219 0.759731
O O16 0.500000 0.500000 0.500000
#
# Coordination Sequence:
#
# PCOD9022801 Si02
#       7
#     2   2   2   2   2   2   2
#     4  11  25  40  62  92 133 174 220 279 343 405
#     4  10  24  43  68  98 136 178 231 284 343 413
#     4  10  22  41  63  94 125 173 218 277 342 407
#     4  10  22  39  64  92 129 164 222 273 339 409
#     4  10  23  44  67 102 138 176 232 285 343 413
#     4   9  21  42  62  94 126 166 219 276 336 409
#     4  10  22  43  67  95 134 175 230 280 346 407
#
# _framework density 25.982267
#
# number of rings (size 3 to 8) (size 9 to 14) (size 15 to 20)
#    0.000    2.000    0.000    1.286    8.000    2.286 
#    5.143    1.429    0.000    0.000    0.000    0.000 
#    0.000    0.000    0.000    0.000    0.000    0.000 
#
# Total GULP energy -77999.451452 kJ/mol
# GULP energy per Si atom -5571.389389 kJ/mol
# Density = 2.592313 g / cm^3
# Si number density = 25.982267 Si / 1000 Ang^3
#
#
#
# Elastic Constant Matrix: (Units=GPa)
#
#
# Indices 1 2 3 4 5 6 
#
# 1 111.1405 34.1921 42.1683 1.5570 8.2174 19.6030
# 2 34.1921 138.0029 12.4521 -7.5193 4.2854 20.1913
# 3 42.1683 12.4521 114.9969 6.8574 8.4557 17.3689
# 4 1.5570 -7.5193 6.8574 28.3742 19.7105 -4.4315
# 5 8.2174 4.2854 8.4557 19.7105 58.8494 -4.0607
# 6 19.6030 20.1913 17.3689 -4.4315 -4.0607 46.1801
#
#
#
# Elastic Compliance Matrix: (Units=1/GPa)
#
#
# Indices 1 2 3 4 5 6 
#
# 1 0.011547 -0.002103 -0.003506 0.000027 -0.001155 -0.002762
# 2 -0.002103 0.008346 0.000211 0.002899 -0.001501 -0.002690
# 3 -0.003506 0.000211 0.010567 -0.002461 -0.000416 -0.002851
# 4 0.000027 0.002899 -0.002461 0.047983 -0.015734 0.002868
# 5 -0.001155 -0.001501 -0.000416 -0.015734 0.022716 0.001791
# 6 -0.002762 -0.002690 -0.002851 0.002868 0.001791 0.025508
#
#
# Mechanical properties :
#
#
# Convention : Reuss Voigt Hill
#
# Bulk Modulus (GPa) = 50.85328 60.19616 55.52472
# Shear Modulus (GPa) = 34.71798 45.03591 39.87694
#
# Velocity S-wave (km/s) = 3.65940 4.16785 3.92187
# Velocity P-wave (km/s) = 6.12125 6.81027 6.47493
#
# Compressibility (1/GPa) = 0.01966441
#
# Stress axis : x y z
#
# Youngs Moduli (GPa) = 86.60183 119.81317 94.63739
#
# Poissons Ratio (x) = 0.25198 0.33179
# Poissons Ratio (y) = 0.18213 -0.01999
# Poissons Ratio (z) = 0.30362 -0.02530
#
# Static dielectric constant tensor:
#      x y z
#    x 2.178050 -0.018690 0.014110 
#    y -0.018690 2.081530 -0.016520 
#    z 0.014110 -0.016520 2.285550 
# 
# From -- ./inp_files/66401.got.cif
#   From: 2010.05.17/outbox.cif.g08.bks.cpg/sg2_34_cif.got.tgz:66401.got - 2010.06.03 11:33:40.
