data_PCOD9022841
_publ_section_title
;
Structure prediction by ZEFSAII (Michael W. Deem and Ramdas Pophale) SiO2 
 PCOD9022841
Probable space group: P -1
;
_chemical_formula_sum "Si O2"
_cell_formula_units_Z 14
_cell_length_a 11.356591
_cell_length_b 11.365337
_cell_length_c 14.274531
_cell_angle_alpha 137.987387
_cell_angle_beta 37.310303
_cell_angle_gamma 111.314901
_cell_volume 618.899814
_symmetry_space_group_name_H-M "P -1"
_symmetry_group_IT_number 2
_symmetry_cell_setting 'triclinic'
loop_
_space_group_symop_operation_xyz
x,y,z
-x,-y,-z
loop_
_atom_site_type_symbol
_atom_site_label
_atom_site_fract_x
_atom_site_fract_y
_atom_site_fract_z
Si Si1 0.890642 0.729603 0.662751
Si Si2 0.279083 0.801075 0.414186
Si Si3 0.069371 0.138048 0.595774
Si Si4 0.778036 0.986032 0.237161
Si Si5 0.715328 0.116046 0.144495
Si Si6 0.719398 0.699042 0.570923
Si Si7 0.219776 0.406439 0.012266
O O1 0.697531 0.767603 0.732035
O O2 0.000000 0.500000 0.500000
O O3 0.097604 0.733259 0.480844
O O4 0.793390 0.909069 0.909521
O O5 0.543212 0.652950 0.121719
O O6 0.158456 0.026487 0.572475
O O7 0.306223 0.832039 0.524880
O O8 0.265315 0.139151 0.411529
O O9 0.000000 0.000000 0.500000
O O10 0.863737 0.388036 0.877477
O O11 0.730339 0.809183 0.190463
O O12 0.672807 0.079718 0.256907
O O13 0.059151 0.872708 0.988410
O O14 0.490246 0.304854 0.343142
O O15 0.984915 0.490329 0.271830
#
# Coordination Sequence:
#
# PCOD9022841 Si02
#       7
#     2   2   2   2   2   2   2
#     4  11  23  40  66  93 126 171 215 257 329 380
#     4  11  22  44  65  95 131 169 209 268 319 381
#     4  10  22  39  64  95 130 160 209 263 324 375
#     4  10  22  42  65  90 132 173 218 256 320 376
#     4  10  22  41  64  91 130 174 211 269 308 381
#     4  10  22  40  62  99 122 165 213 262 323 375
#     4  10  23  39  65  96 126 169 211 260 322 377
#
# _framework density 22.620785999999999
#
# number of rings (size 3 to 8) (size 9 to 14) (size 15 to 20)
#    0.857    0.857    1.429    2.571    0.000    4.571 
#    7.714    0.000    0.000    0.000    0.000    0.000 
#    0.000    0.000    0.000    0.000    0.000    0.000 
#
# Total GULP energy -78108.708556 kJ/mol
# GULP energy per Si atom -5579.193468 kJ/mol
# Density = 2.256930 g / cm^3
# Si number density = 22.620786 Si / 1000 Ang^3
#
#
#
# Elastic Constant Matrix: (Units=GPa)
#
#
# Indices 1 2 3 4 5 6 
#
# 1 135.3996 5.9053 10.4066 3.3949 1.2285 -0.9240
# 2 5.9053 59.7748 -12.1435 16.7204 -2.7197 3.6113
# 3 10.4066 -12.1435 54.0870 8.3816 -4.1646 6.7250
# 4 3.3949 16.7204 8.3816 20.4139 -1.3257 -0.7558
# 5 1.2285 -2.7197 -4.1646 -1.3257 36.8434 -4.3464
# 6 -0.9240 3.6113 6.7250 -0.7558 -4.3464 29.6435
#
#
#
# Elastic Compliance Matrix: (Units=1/GPa)
#
#
# Indices 1 2 3 4 5 6 
#
# 1 0.007597 -0.001451 -0.002045 0.000765 -0.000466 0.000829
# 2 -0.001451 0.027174 0.011463 -0.026854 0.001629 -0.006402
# 3 -0.002045 0.011463 0.025604 -0.019693 0.002222 -0.007445
# 4 0.000765 -0.026854 -0.019693 0.079286 -0.000231 0.009751
# 5 -0.000466 0.001629 0.002222 -0.000231 0.027918 0.003371
# 6 0.000829 -0.006402 -0.007445 0.009751 0.003371 0.036972
#
#
# Mechanical properties :
#
#
# Convention : Reuss Voigt Hill
#
# Bulk Modulus (GPa) = 13.10466 28.62204 20.86335
# Shear Modulus (GPa) = 23.35862 33.71969 28.53916
#
# Velocity S-wave (km/s) = 3.21692 3.86508 3.55580
# Velocity P-wave (km/s) = 4.42763 5.70955 5.10895
#
# Compressibility (1/GPa) = 0.07630871
#
# Stress axis : x y z
#
# Youngs Moduli (GPa) = 131.63577 36.79966 39.05579
#
# Poissons Ratio (x) = 0.05341 0.07987
# Poissons Ratio (y) = 0.19105 -0.44770
# Poissons Ratio (z) = 0.26920 -0.42184
#
# Static dielectric constant tensor:
#      x y z
#    x 1.841100 0.013020 -0.024700 
#    y 0.013020 1.812980 -0.046170 
#    z -0.024700 -0.046170 1.920500 
# 
# From -- ./inp_files/519224.got.cif
#   From: 2010.05.17/outbox.cif.g08.bks.cpg/sg2_260_cif.got.tgz:519224.got - 2010.06.03 11:33:40.
