data_PCOD9022862
_publ_section_title
;
Structure prediction by ZEFSAII (Michael W. Deem and Ramdas Pophale) SiO2 
 PCOD9022862
Probable space group: P -1
;
_chemical_formula_sum "Si O2"
_cell_formula_units_Z 14
_cell_length_a 21.647458
_cell_length_b 9.053899
_cell_length_c 5.121617
_cell_angle_alpha 89.856093
_cell_angle_beta 73.710017
_cell_angle_gamma 142.730409
_cell_volume 537.671808
_symmetry_space_group_name_H-M "P -1"
_symmetry_group_IT_number 2
_symmetry_cell_setting 'triclinic'
loop_
_space_group_symop_operation_xyz
x,y,z
-x,-y,-z
loop_
_atom_site_type_symbol
_atom_site_label
_atom_site_fract_x
_atom_site_fract_y
_atom_site_fract_z
Si Si1 0.313432 0.554606 0.732058
Si Si2 0.085314 0.034526 0.240075
Si Si3 0.157850 0.431537 0.510426
Si Si4 0.242217 0.974091 0.774313
Si Si5 0.549304 0.454185 0.603804
Si Si6 0.886157 0.202688 0.545306
Si Si7 0.336382 0.904286 0.973734
O O1 0.252816 0.520980 0.558464
O O2 0.418306 0.640925 0.567513
O O3 0.350987 0.759687 0.879391
O O4 0.206076 0.248854 0.947263
O O5 0.108533 0.241940 0.326248
O O6 0.088494 0.923556 0.470760
O O7 0.968405 0.784791 0.212671
O O8 0.229519 0.700585 0.299253
O O9 0.134304 0.774542 0.717866
O O10 0.297904 0.919861 0.760409
O O11 0.326062 0.238531 0.497427
O O12 0.209187 0.956185 0.109311
O O13 0.500000 0.500000 0.500000
O O14 0.451246 0.212395 0.922806
O O15 0.000000 0.500000 0.500000
#
# Coordination Sequence:
#
# PCOD9022862 Si02
#       7
#     2   2   2   2   2   2   2
#     4  11  21  41  69  94 136 175 236 286 356 413
#     4  10  22  39  64  97 137 182 226 289 354 422
#     4  10  22  40  64  98 137 178 234 285 353 421
#     4  11  25  46  68 103 143 185 234 290 354 416
#     4  10  22  46  67  97 138 183 237 290 350 412
#     4  12  25  43  72 102 143 184 236 288 354 422
#     4  10  24  41  66  99 136 182 237 289 342 416
#
# _framework density 26.038184999999999
#
# number of rings (size 3 to 8) (size 9 to 14) (size 15 to 20)
#    0.000    1.429    1.429    3.000    4.000    0.571 
#    2.571    2.143    0.000    0.000    0.000    0.000 
#    0.000    0.000    0.000    0.000    0.000    0.000 
#
# Total GULP energy -78031.651884 kJ/mol
# GULP energy per Si atom -5573.689420 kJ/mol
# Density = 2.597892 g / cm^3
# Si number density = 26.038185 Si / 1000 Ang^3
#
#
#
# Elastic Constant Matrix: (Units=GPa)
#
#
# Indices 1 2 3 4 5 6 
#
# 1 96.5163 0.6559 14.3290 6.7050 -1.4621 -26.1931
# 2 0.6559 55.1607 46.6723 -31.4820 0.0124 -10.9431
# 3 14.3290 46.6723 94.4883 -32.5910 2.6542 -6.6681
# 4 6.7050 -31.4820 -32.5910 60.0106 1.9685 9.6276
# 5 -1.4621 0.0124 2.6542 1.9685 39.7472 -10.4680
# 6 -26.1931 -10.9431 -6.6681 9.6276 -10.4680 35.5092
#
#
#
# Elastic Compliance Matrix: (Units=1/GPa)
#
#
# Indices 1 2 3 4 5 6 
#
# 1 0.015480 0.004485 -0.005319 -0.004767 0.004996 0.014567
# 2 0.004485 0.039329 -0.016169 0.009483 0.003631 0.010892
# 3 -0.005319 -0.016169 0.020538 0.004574 -0.003735 -0.007391
# 4 -0.004767 0.009483 0.004574 0.026056 -0.003865 -0.007938
# 5 0.004996 0.003631 -0.003735 -0.003865 0.029423 0.013825
# 6 0.014567 0.010892 -0.007391 -0.007938 0.013825 0.047104
#
#
# Mechanical properties :
#
#
# Convention : Reuss Voigt Hill
#
# Bulk Modulus (GPa) = 24.18932 41.05330 32.62131
# Shear Modulus (GPa) = 22.15175 39.35392 30.75284
#
# Velocity S-wave (km/s) = 2.91991 3.89188 3.44039
# Velocity P-wave (km/s) = 4.54730 5.99970 5.32327
#
# Compressibility (1/GPa) = 0.04134055
#
# Stress axis : x y z
#
# Youngs Moduli (GPa) = 64.59780 25.42679 48.69123
#
# Poissons Ratio (x) = -0.11404 0.25901
# Poissons Ratio (y) = -0.28974 0.78728
# Poissons Ratio (z) = 0.34362 0.41112
#
# Static dielectric constant tensor:
#      x y z
#    x 2.178230 0.026250 -0.152400 
#    y 0.026250 2.240220 0.002480 
#    z -0.152400 0.002480 2.195550 
# 
# From -- ./inp_files/68112.got.cif
#   From: 2010.05.17/outbox.cif.g08.bks.cpg/sg2_35_cif.got.tgz:68112.got - 2010.06.03 11:33:40.
