data_PCOD9022016
_publ_section_title
;
Structure prediction by ZEFSAII (Michael W. Deem and Ramdas Pophale) SiO2 
 PCOD9022016
Probable space group: P -1
;
_chemical_formula_sum "Si O2"
_cell_formula_units_Z 15
_cell_length_a 21.671155
_cell_length_b 18.667993
_cell_length_c 8.311853
_cell_angle_alpha 141.021031
_cell_angle_beta 141.290094
_cell_angle_gamma 19.367748
_cell_volume 683.478436
_symmetry_space_group_name_H-M "P -1"
_symmetry_group_IT_number 2
_symmetry_cell_setting 'triclinic'
loop_
_space_group_symop_operation_xyz
x,y,z
-x,-y,-z
loop_
_atom_site_type_symbol
_atom_site_label
_atom_site_fract_x
_atom_site_fract_y
_atom_site_fract_z
Si Si1 0.504588 0.656210 0.352844
Si Si2 0.778176 0.506225 0.412476
Si Si3 0.900577 0.977000 0.769645
Si Si4 0.846946 0.006245 0.331836
Si Si5 0.516778 0.776843 0.066572
Si Si6 0.000000 0.500000 0.000000
Si Si7 0.259862 0.640428 0.393967
Si Si8 0.589278 0.009237 0.089430
O O1 0.652640 0.537207 0.306875
O O2 0.294761 0.818238 0.170942
O O3 0.603602 0.483389 0.389693
O O4 0.459837 0.823382 0.632470
O O5 0.857158 0.530732 0.723279
O O6 0.636163 0.696684 0.322835
O O7 0.958089 0.256565 0.276460
O O8 0.857373 0.986125 0.511459
O O9 0.000000 0.000000 0.000000
O O10 0.696139 0.062527 0.058313
O O11 0.774315 0.204760 0.487872
O O12 0.057873 0.789919 0.307174
O O13 0.635408 0.552519 0.844918
O O14 0.500231 0.889022 0.092297
O O15 0.186916 0.233885 0.893010
O O16 0.500000 0.000000 0.000000
#
# Coordination Sequence:
#
# PCOD9022016 Si02
#       8
#     2   2   2   2   2   1   2   2
#     4  11  23  43  68  98 137 182 228 277 347 404
#     4  12  26  44  70 103 137 182 233 289 339 414
#     4  12  25  41  69 104 142 184 229 278 343 410
#     4  11  21  41  65  97 136 186 228 279 336 403
#     4  11  25  42  68  99 137 175 229 284 347 404
#     4  12  24  46  74  92 136 178 230 284 354 396
#     4  10  22  38  68  95 137 185 226 278 336 404
#     4  11  23  45  73  95 128 178 227 289 344 409
#
# _framework density 21.946559000000001
#
# number of rings (size 3 to 8) (size 9 to 14) (size 15 to 20)
#    0.000    0.800    6.667    1.200    1.867    4.267 
#    0.000    0.667    0.000    0.000    0.000    0.000 
#    0.000    0.000    0.000    0.000    0.000    0.000 
#
# Total GULP energy -83666.773924 kJ/mol
# GULP energy per Si atom -5577.784928 kJ/mol
# Density = 2.189661 g / cm^3
# Si number density = 21.946559 Si / 1000 Ang^3
#
#
#
# Elastic Constant Matrix: (Units=GPa)
#
#
# Indices 1 2 3 4 5 6 
#
# 1 78.3781 28.4895 15.4087 -23.0477 16.2936 5.1564
# 2 28.4895 127.1260 19.9948 -18.9488 1.4510 -8.8443
# 3 15.4087 19.9948 57.1645 -9.1714 24.0964 -5.7005
# 4 -23.0477 -18.9488 -9.1714 32.8856 -7.3461 5.8933
# 5 16.2936 1.4510 24.0964 -7.3461 26.3633 -2.1928
# 6 5.1564 -8.8443 -5.7005 5.8933 -2.1928 34.1698
#
#
#
# Elastic Compliance Matrix: (Units=1/GPa)
#
#
# Indices 1 2 3 4 5 6 
#
# 1 0.019490 -0.003296 0.001584 0.010886 -0.010786 -0.006100
# 2 -0.003296 0.009906 -0.004762 0.003231 0.006923 0.002154
# 3 0.001584 -0.004762 0.031174 0.000258 -0.028987 0.001824
# 4 0.010886 0.003231 0.000258 0.042259 0.003985 -0.007796
# 5 -0.010786 0.006923 -0.028987 0.003985 0.072031 0.002519
# 6 -0.006100 0.002154 0.001824 -0.007796 0.002519 0.032554
#
#
# Mechanical properties :
#
#
# Convention : Reuss Voigt Hill
#
# Bulk Modulus (GPa) = 20.99816 43.38385 32.19100
# Shear Modulus (GPa) = 21.16538 31.93544 26.55041
#
# Velocity S-wave (km/s) = 3.10886 3.81878 3.48196
# Velocity P-wave (km/s) = 4.74081 6.26538 5.55564
#
# Compressibility (1/GPa) = 0.04762321
#
# Stress axis : x y z
#
# Youngs Moduli (GPa) = 51.30913 100.94764 32.07798
#
# Poissons Ratio (x) = 0.33268 -0.05081
# Poissons Ratio (y) = 0.16909 0.15275
# Poissons Ratio (z) = -0.08128 0.48070
#
# Static dielectric constant tensor:
#      x y z
#    x 1.805220 -0.003600 -0.009180 
#    y -0.003600 1.814500 -0.019150 
#    z -0.009180 -0.019150 1.825710 
# 
# From -- ./inp_files/181040.got.cif
#   From: 2010.05.17/outbox.cif.g08.bks.cpg/sg2_91_cif.got.tgz:181040.got - 2010.06.03 11:33:40.
