data_PCOD9022287
_publ_section_title
;
Structure prediction by ZEFSAII (Michael W. Deem and Ramdas Pophale) SiO2 
 PCOD9022287
Probable space group: P -1
;
_chemical_formula_sum "Si O2"
_cell_formula_units_Z 14
_cell_length_a 8.356885
_cell_length_b 14.447846
_cell_length_c 18.197450
_cell_angle_alpha 18.632994
_cell_angle_beta 129.098578
_cell_angle_gamma 125.925944
_cell_volume 544.270967
_symmetry_space_group_name_H-M "P -1"
_symmetry_group_IT_number 2
_symmetry_cell_setting 'triclinic'
loop_
_space_group_symop_operation_xyz
x,y,z
-x,-y,-z
loop_
_atom_site_type_symbol
_atom_site_label
_atom_site_fract_x
_atom_site_fract_y
_atom_site_fract_z
Si Si1 0.614553 0.578650 0.395874
Si Si2 0.711631 0.391447 0.940030
Si Si3 0.829893 0.518101 0.045609
Si Si4 0.395250 0.910337 0.460697
Si Si5 0.785480 0.086117 0.996478
Si Si6 0.364031 0.035183 0.115513
Si Si7 0.859240 0.459581 0.250897
O O1 0.500000 0.500000 0.500000
O O2 0.424121 0.727139 0.185125
O O3 0.682277 0.255231 0.635859
O O4 0.792398 0.804159 0.262996
O O5 0.755416 0.413893 0.023553
O O6 0.558314 0.662770 0.664480
O O7 0.601105 0.089194 0.123641
O O8 0.933109 0.402954 0.957616
O O9 0.677209 0.787622 0.823639
O O10 0.831729 0.319650 0.267967
O O11 0.174560 0.781080 0.516857
O O12 0.500000 0.000000 0.500000
O O13 0.950765 0.332088 0.854496
O O14 0.761018 0.966004 0.996168
O O15 0.314463 0.308675 0.945876
#
# Coordination Sequence:
#
# PCOD9022287 Si02
#       7
#     2   2   2   2   2   2   2
#     4   9  21  38  60  88 119 165 205 253 311 368
#     4   9  21  41  64  90 126 165 212 261 308 377
#     4  10  22  41  63  92 127 165 212 264 311 367
#     4   9  21  42  62  90 127 166 205 260 313 366
#     4  10  22  39  60  91 126 160 209 258 308 378
#     4  10  22  39  61  89 126 166 204 256 317 368
#     4  11  24  38  63  96 124 165 212 257 309 383
#
# _framework density 25.722480999999998
#
# number of rings (size 3 to 8) (size 9 to 14) (size 15 to 20)
#    0.000    2.286    0.000    0.429    8.000    9.143 
#    0.000    7.857    0.000    0.000    0.000    0.000 
#    0.000    0.000    0.000    0.000    0.000    0.000 
#
# Total GULP energy -78060.541493 kJ/mol
# GULP energy per Si atom -5575.752964 kJ/mol
# Density = 2.566394 g / cm^3
# Si number density = 25.722481 Si / 1000 Ang^3
#
#
#
# Elastic Constant Matrix: (Units=GPa)
#
#
# Indices 1 2 3 4 5 6 
#
# 1 62.3396 45.1867 1.2139 5.5732 -2.8265 8.8449
# 2 45.1867 89.4880 12.0099 1.5130 -22.9141 7.2403
# 3 1.2139 12.0099 69.9390 -11.5881 -9.6331 6.1989
# 4 5.5732 1.5130 -11.5881 27.7022 5.1403 -8.2153
# 5 -2.8265 -22.9141 -9.6331 5.1403 28.3117 -5.1359
# 6 8.8449 7.2403 6.1989 -8.2153 -5.1359 48.9120
#
#
#
# Elastic Compliance Matrix: (Units=1/GPa)
#
#
# Indices 1 2 3 4 5 6 
#
# 1 0.028844 -0.016967 0.000685 -0.003957 -0.010732 -0.004583
# 2 -0.016967 0.024541 -0.001818 -0.001662 0.018085 0.001286
# 3 0.000685 -0.001818 0.016033 0.005963 0.002863 -0.000584
# 4 -0.003957 -0.001662 0.005963 0.042626 -0.006233 0.006711
# 5 -0.010732 0.018085 0.002863 -0.006233 0.051586 0.003271
# 6 -0.004583 0.001286 -0.000584 0.006711 0.003271 0.022628
#
#
# Mechanical properties :
#
#
# Convention : Reuss Voigt Hill
#
# Bulk Modulus (GPa) = 30.10432 37.62085 33.86258
# Shear Modulus (GPa) = 21.41061 31.87558 26.64310
#
# Velocity S-wave (km/s) = 2.88821 3.52406 3.22186
# Velocity P-wave (km/s) = 4.78030 5.58714 5.19939
#
# Compressibility (1/GPa) = 0.03321782
#
# Stress axis : x y z
#
# Youngs Moduli (GPa) = 34.66977 40.74843 62.37233
#
# Poissons Ratio (x) = 0.69137 -0.04274
# Poissons Ratio (y) = 0.58824 0.11340
# Poissons Ratio (z) = -0.02376 0.07408
#
# Static dielectric constant tensor:
#      x y z
#    x 2.185720 0.023510 -0.054210 
#    y 0.023510 2.060790 -0.029210 
#    z -0.054210 -0.029210 2.131130 
# 
# From -- ./inp_files/104801.got.cif
#   From: 2010.05.17/outbox.cif.g08.bks.cpg/sg2_53_cif.got.tgz:104801.got - 2010.06.03 11:33:40.
