data_PCOD9022855
_publ_section_title
;
Structure prediction by ZEFSAII (Michael W. Deem and Ramdas Pophale) SiO2 
 PCOD9022855
Probable space group: P -1
;
_chemical_formula_sum "Si O2"
_cell_formula_units_Z 14
_cell_length_a 19.623207
_cell_length_b 6.197702
_cell_length_c 6.889647
_cell_angle_alpha 109.996466
_cell_angle_beta 125.820674
_cell_angle_gamma 62.377396
_cell_volume 599.067183
_symmetry_space_group_name_H-M "P -1"
_symmetry_group_IT_number 2
_symmetry_cell_setting 'triclinic'
loop_
_space_group_symop_operation_xyz
x,y,z
-x,-y,-z
loop_
_atom_site_type_symbol
_atom_site_label
_atom_site_fract_x
_atom_site_fract_y
_atom_site_fract_z
Si Si1 0.906439 0.799567 0.882717
Si Si2 0.303437 0.765135 0.951946
Si Si3 0.786461 0.330488 0.859025
Si Si4 0.517151 0.631565 0.762134
Si Si5 0.625319 0.970744 0.122838
Si Si6 0.245592 0.423527 0.504082
Si Si7 0.060346 0.478005 0.781688
O O1 0.843887 0.641209 0.677315
O O2 0.999746 0.682892 0.893420
O O3 0.854557 0.074144 0.814710
O O4 0.917668 0.767724 0.126015
O O5 0.307810 0.000041 0.921152
O O6 0.239236 0.657917 0.692654
O O7 0.273697 0.756913 0.119930
O O8 0.405560 0.577766 0.059890
O O9 0.732642 0.507821 0.654201
O O10 0.849858 0.466222 0.099109
O O11 0.500000 0.500000 0.500000
O O12 0.430040 0.773409 0.787250
O O13 0.560570 0.845161 0.874741
O O14 0.679337 0.797042 0.331970
O O15 0.000000 0.500000 0.500000
#
# Coordination Sequence:
#
# PCOD9022855 Si02
#       7
#     2   2   2   2   2   2   2
#     4  10  22  39  64  97 127 174 221 274 323 392
#     4  11  24  42  66  99 134 172 222 276 339 398
#     4  11  24  41  66  99 131 175 220 269 340 399
#     4  10  24  44  69 101 131 178 231 276 339 406
#     4  10  23  47  68  97 138 178 222 289 333 394
#     4  10  23  42  65  93 137 172 225 271 331 395
#     4  10  22  41  64  92 133 170 220 269 330 392
#
# _framework density 23.369664
#
# number of rings (size 3 to 8) (size 9 to 14) (size 15 to 20)
#    0.000    1.714    0.000    2.571    4.000    8.000 
#    0.000    0.000    0.000    0.000    0.000    0.000 
#    0.000    0.000    0.000    0.000    0.000    0.000 
#
# Total GULP energy -78241.612259 kJ/mol
# GULP energy per Si atom -5588.686590 kJ/mol
# Density = 2.331647 g / cm^3
# Si number density = 23.369664 Si / 1000 Ang^3
#
#
#
# Elastic Constant Matrix: (Units=GPa)
#
#
# Indices 1 2 3 4 5 6 
#
# 1 110.1539 45.7259 43.1958 -13.5377 -16.1440 17.3049
# 2 45.7259 79.0141 42.8725 -11.6243 -10.6013 3.2199
# 3 43.1958 42.8725 124.0302 -5.9119 -0.8155 27.5748
# 4 -13.5377 -11.6243 -5.9119 40.6338 6.8354 -0.2664
# 5 -16.1440 -10.6013 -0.8155 6.8354 28.4726 -5.0821
# 6 17.3049 3.2199 27.5748 -0.2664 -5.0821 27.7005
#
#
#
# Elastic Compliance Matrix: (Units=1/GPa)
#
#
# Indices 1 2 3 4 5 6 
#
# 1 0.013960 -0.006362 -0.001201 0.001949 0.003966 -0.006039
# 2 -0.006362 0.020667 -0.006884 0.001997 0.005085 0.009377
# 3 -0.001201 -0.006884 0.013763 0.000438 -0.005296 -0.013117
# 4 0.001949 0.001997 0.000438 0.026720 -0.005008 -0.002548
# 5 0.003966 0.005085 -0.005296 -0.005008 0.042077 0.009875
# 6 -0.006039 0.009377 -0.013117 -0.002548 0.009875 0.053628
#
#
# Mechanical properties :
#
#
# Convention : Reuss Voigt Hill
#
# Bulk Modulus (GPa) = 51.29483 64.08744 57.69114
# Shear Modulus (GPa) = 24.24746 31.45498 27.85122
#
# Velocity S-wave (km/s) = 3.22461 3.67273 3.45594
# Velocity P-wave (km/s) = 5.98842 6.74301 6.37689
#
# Compressibility (1/GPa) = 0.01949514
#
# Stress axis : x y z
#
# Youngs Moduli (GPa) = 71.63515 48.38655 72.65983
#
# Poissons Ratio (x) = 0.30783 0.08726
# Poissons Ratio (y) = 0.45573 0.50021
# Poissons Ratio (z) = 0.08603 0.33311
#
# Static dielectric constant tensor:
#      x y z
#    x 1.916450 0.006920 -0.036590 
#    y 0.006920 1.911900 -0.002740 
#    z -0.036590 -0.002740 1.884900 
# 
# From -- ./inp_files/8201.got.cif
#   From: 2010.05.17/outbox.cif.g08.bks.cpg/sg2_5_cif.got.tgz:8201.got - 2010.06.03 11:33:40.
