data_PCOD9022788
_publ_section_title
;
Structure prediction by ZEFSAII (Michael W. Deem and Ramdas Pophale) SiO2 
 PCOD9022788
Probable space group: P -1
;
_chemical_formula_sum "Si O2"
_cell_formula_units_Z 16
_cell_length_a 6.631156
_cell_length_b 11.107824
_cell_length_c 24.918997
_cell_angle_alpha 34.392368
_cell_angle_beta 129.187790
_cell_angle_gamma 133.111928
_cell_volume 746.537360
_symmetry_space_group_name_H-M "P -1"
_symmetry_group_IT_number 2
_symmetry_cell_setting 'triclinic'
loop_
_space_group_symop_operation_xyz
x,y,z
-x,-y,-z
loop_
_atom_site_type_symbol
_atom_site_label
_atom_site_fract_x
_atom_site_fract_y
_atom_site_fract_z
Si Si1 0.215834 0.525556 0.603703
Si Si2 0.943325 0.070653 0.404589
Si Si3 0.929469 0.509967 0.292420
Si Si4 0.565909 0.350288 0.874941
Si Si5 0.677994 0.978760 0.955509
Si Si6 0.097510 0.133390 0.290529
Si Si7 0.642785 0.219850 0.571790
Si Si8 0.530181 0.845971 0.246757
O O1 0.201084 0.610838 0.629285
O O2 0.386772 0.700965 0.522774
O O3 0.336686 0.322299 0.698024
O O4 0.894814 0.422968 0.566824
O O5 0.914841 0.316347 0.318340
O O6 0.130840 0.106390 0.370023
O O7 0.650648 0.867003 0.416303
O O8 0.000000 0.000000 0.500000
O O9 0.739528 0.651129 0.191765
O O10 0.249850 0.680110 0.290250
O O11 0.776525 0.606658 0.803995
O O12 0.655509 0.180174 0.915590
O O13 0.522272 0.254791 0.963331
O O14 0.568505 0.016644 0.865146
O O15 0.000000 0.000000 0.000000
O O16 0.772300 0.012364 0.263913
O O17 0.257531 0.992408 0.339173
#
# Coordination Sequence:
#
# PCOD9022788 Si02
#       8
#     2   2   2   2   2   2   2   2
#     4  10  22  39  64  91 129 168 220 252 318 373
#     4  12  25  37  62  95 133 172 217 257 310 370
#     4  12  22  38  66  92 124 169 211 261 312 375
#     4  11  24  41  67  96 123 161 213 264 317 383
#     4  11  23  44  70  96 122 160 214 266 325 381
#     4  11  25  43  62  95 134 168 211 258 319 375
#     4  10  22  41  60  92 130 173 207 267 306 376
#     4  11  23  42  67  93 128 170 208 264 320 379
#
# _framework density 21.432282000000001
#
# number of rings (size 3 to 8) (size 9 to 14) (size 15 to 20)
#    0.000    1.000    3.750    3.000    1.750    1.500 
#    0.000    5.625    0.000    0.000    0.000    0.000 
#    0.000    0.000    0.000    0.000    0.000    0.000 
#
# Total GULP energy -89445.660046 kJ/mol
# GULP energy per Si atom -5590.353753 kJ/mol
# Density = 2.138350 g / cm^3
# Si number density = 21.432282 Si / 1000 Ang^3
#
#
#
# Elastic Constant Matrix: (Units=GPa)
#
#
# Indices 1 2 3 4 5 6 
#
# 1 67.3424 20.1668 13.2644 -1.1576 -13.6508 12.3531
# 2 20.1668 62.9185 12.0329 -1.8096 -6.9180 25.6003
# 3 13.2644 12.0329 91.0427 3.7165 -15.7905 6.5188
# 4 -1.1576 -1.8096 3.7165 36.6998 3.8544 -4.4812
# 5 -13.6508 -6.9180 -15.7905 3.8544 45.8578 -5.3978
# 6 12.3531 25.6003 6.5188 -4.4812 -5.3978 36.5088
#
#
#
# Elastic Compliance Matrix: (Units=1/GPa)
#
#
# Indices 1 2 3 4 5 6 
#
# 1 0.017505 -0.004004 -0.001158 -0.000230 0.003950 -0.002352
# 2 -0.004004 0.023527 -0.001399 -0.000668 0.000172 -0.014949
# 3 -0.001158 -0.001399 0.012084 -0.001774 0.003701 -0.000456
# 4 -0.000230 -0.000668 -0.001774 0.028148 -0.002684 0.003921
# 5 0.003950 0.000172 0.003701 -0.002684 0.024649 0.001197
# 6 -0.002352 -0.014949 -0.000456 0.003921 0.001197 0.039409
#
#
# Mechanical properties :
#
#
# Convention : Reuss Voigt Hill
#
# Bulk Modulus (GPa) = 25.00373 34.69243 29.84808
# Shear Modulus (GPa) = 29.10769 35.53591 32.32180
#
# Velocity S-wave (km/s) = 3.68927 4.07634 3.88763
# Velocity P-wave (km/s) = 5.46254 6.19496 5.84024
#
# Compressibility (1/GPa) = 0.03999403
#
# Stress axis : x y z
#
# Youngs Moduli (GPa) = 57.12611 42.50478 82.75182
#
# Poissons Ratio (x) = 0.17021 0.09584
# Poissons Ratio (y) = 0.22876 0.11573
# Poissons Ratio (z) = 0.06616 0.05945
#
# Static dielectric constant tensor:
#      x y z
#    x 1.764420 0.025210 -0.005250 
#    y 0.025210 1.780440 0.020900 
#    z -0.005250 0.020900 1.791430 
# 
# From -- ./inp_files/37550.got.cif
#   From: 2010.05.17/outbox.cif.g08.bks.cpg/sg2_19_cif.got.tgz:37550.got - 2010.06.03 11:33:40.
