data_PCOD9022062
_publ_section_title
;
Structure prediction by ZEFSAII (Michael W. Deem and Ramdas Pophale) SiO2 
 PCOD9022062
Probable space group: P -1
;
_chemical_formula_sum "Si O2"
_cell_formula_units_Z 14
_cell_length_a 9.872485
_cell_length_b 12.726541
_cell_length_c 8.363360
_cell_angle_alpha 76.119702
_cell_angle_beta 116.689056
_cell_angle_gamma 57.092979
_cell_volume 602.254554
_symmetry_space_group_name_H-M "P -1"
_symmetry_group_IT_number 2
_symmetry_cell_setting 'triclinic'
loop_
_space_group_symop_operation_xyz
x,y,z
-x,-y,-z
loop_
_atom_site_type_symbol
_atom_site_label
_atom_site_fract_x
_atom_site_fract_y
_atom_site_fract_z
Si Si1 0.689711 0.018421 0.048353
Si Si2 0.811353 0.736592 0.244901
Si Si3 0.314096 0.018186 0.310297
Si Si4 0.823192 0.365546 0.032469
Si Si5 0.929690 0.567222 0.705318
Si Si6 0.464083 0.303195 0.319613
Si Si7 0.230740 0.831953 0.767984
O O1 0.457826 0.124326 0.986541
O O2 0.644534 0.014801 0.843072
O O3 0.754891 0.105685 0.085195
O O4 0.870352 0.830740 0.269300
O O5 0.832098 0.661163 0.449606
O O6 0.946161 0.609042 0.219179
O O7 0.339614 0.881023 0.435998
O O8 0.500000 0.000000 0.500000
O O9 0.057863 0.200453 0.132990
O O10 0.760578 0.298355 0.135191
O O11 0.901599 0.429117 0.150245
O O12 0.613612 0.528890 0.757848
O O13 0.751724 0.640706 0.726991
O O14 0.557578 0.255749 0.205147
O O15 0.000000 0.000000 0.500000
#
# Coordination Sequence:
#
# PCOD9022062 Si02
#       7
#     2   2   2   2   2   2   2
#     4  11  24  43  68 105 141 181 231 288 350 415
#     4  10  22  38  70 105 139 174 231 296 350 407
#     4  12  25  44  75 108 141 180 234 295 350 406
#     4  12  25  44  72 101 143 186 232 284 352 419
#     4  11  22  42  70 106 136 176 233 293 349 409
#     4  12  25  44  71 106 137 186 238 291 345 415
#     4  12  27  47  71  99 144 194 231 282 356 420
#
# _framework density 23.245982000000001
#
# number of rings (size 3 to 8) (size 9 to 14) (size 15 to 20)
#    0.000    0.571    4.286    3.429    6.000    0.571 
#    0.000    0.714    0.000    0.000    0.000    0.000 
#    0.000    0.000    0.000    0.000    0.000    0.000 
#
# Total GULP energy -78032.285212 kJ/mol
# GULP energy per Si atom -5573.734658 kJ/mol
# Density = 2.319307 g / cm^3
# Si number density = 23.245982 Si / 1000 Ang^3
#
#
#
# Elastic Constant Matrix: (Units=GPa)
#
#
# Indices 1 2 3 4 5 6 
#
# 1 115.4602 61.9859 38.2580 5.7512 -35.5532 -6.2341
# 2 61.9859 139.7373 60.9553 -24.8211 -6.1577 -20.8013
# 3 38.2580 60.9553 66.4224 -23.6753 -25.3006 3.1024
# 4 5.7512 -24.8211 -23.6753 52.3148 6.0270 -6.1041
# 5 -35.5532 -6.1577 -25.3006 6.0270 37.0435 -15.7225
# 6 -6.2341 -20.8013 3.1024 -6.1041 -15.7225 38.0202
#
#
#
# Elastic Compliance Matrix: (Units=1/GPa)
#
#
# Indices 1 2 3 4 5 6 
#
# 1 0.021921 -0.010693 0.004084 -0.007846 0.026312 0.007032
# 2 -0.010693 0.020448 -0.017746 0.005426 -0.018046 0.004291
# 3 0.004084 -0.017746 0.042635 0.007142 0.029231 0.000716
# 4 -0.007846 0.005426 0.007142 0.026722 -0.004622 0.003478
# 5 0.026312 -0.018046 0.029231 -0.004622 0.080389 0.024557
# 6 0.007032 0.004291 0.000716 0.003478 0.024557 0.040458
#
#
# Mechanical properties :
#
#
# Convention : Reuss Voigt Hill
#
# Bulk Modulus (GPa) = 27.55287 71.55760 49.55523
# Shear Modulus (GPa) = 17.04273 36.17040 26.60656
#
# Velocity S-wave (km/s) = 2.71061 3.94888 3.38681
# Velocity P-wave (km/s) = 4.65564 7.18618 6.05459
#
# Compressibility (1/GPa) = 0.03629386
#
# Stress axis : x y z
#
# Youngs Moduli (GPa) = 45.61849 48.90488 23.45500
#
# Poissons Ratio (x) = 0.52293 -0.09579
# Poissons Ratio (y) = 0.48779 0.41624
# Poissons Ratio (z) = -0.18631 0.86788
#
# Static dielectric constant tensor:
#      x y z
#    x 1.892550 0.038790 0.024450 
#    y 0.038790 1.882180 -0.075510 
#    z 0.024450 -0.075510 2.030700 
# 
# From -- ./inp_files/186015.got.cif
#   From: 2010.05.17/outbox.cif.g08.bks.cpg/sg2_94_cif.got.tgz:186015.got - 2010.06.03 11:33:40.
