data_PCOD9022069
_publ_section_title
;
Structure prediction by ZEFSAII (Michael W. Deem and Ramdas Pophale) SiO2 
 PCOD9022069
Probable space group: P -1
;
_chemical_formula_sum "Si O2"
_cell_formula_units_Z 11
_cell_length_a 12.058847
_cell_length_b 8.559570
_cell_length_c 7.821884
_cell_angle_alpha 84.469032
_cell_angle_beta 51.691725
_cell_angle_gamma 117.756787
_cell_volume 466.526129
_symmetry_space_group_name_H-M "P -1"
_symmetry_group_IT_number 2
_symmetry_cell_setting 'triclinic'
loop_
_space_group_symop_operation_xyz
x,y,z
-x,-y,-z
loop_
_atom_site_type_symbol
_atom_site_label
_atom_site_fract_x
_atom_site_fract_y
_atom_site_fract_z
Si Si1 0.365775 0.519322 0.236848
Si Si2 0.691798 0.049423 0.462726
Si Si3 0.000000 0.500000 0.000000
Si Si4 0.944126 0.957333 0.359056
Si Si5 0.270054 0.715853 0.051429
Si Si6 0.691603 0.924429 0.094874
O O1 0.205171 0.294523 0.503476
O O2 0.500000 0.500000 0.000000
O O3 0.264496 0.576328 0.212321
O O4 0.509407 0.710748 0.207766
O O5 0.494538 0.892879 0.767170
O O6 0.840061 0.037946 0.401376
O O7 0.806006 0.296083 0.309922
O O8 0.653720 0.962532 0.314707
O O9 0.131369 0.574856 0.041325
O O10 0.000000 0.000000 0.500000
O O11 0.136977 0.071346 0.059226
O O12 0.232896 0.871818 0.113092
#
# Coordination Sequence:
#
# PCOD9022069 Si02
#       6
#     2   2   1   2   2   2
#     4  12  24  44  70  95 135 182 219 270 339 387
#     4  11  24  44  68  99 138 172 221 277 328 400
#     4  10  22  38  70  94 130 170 216 262 338 374
#     4  12  24  42  67  98 136 176 222 273 326 395
#     4  11  24  46  69  99 136 172 223 275 327 401
#     4  11  25  41  66 102 132 173 227 272 329 391
#
# _framework density 23.578527999999999
#
# number of rings (size 3 to 8) (size 9 to 14) (size 15 to 20)
#    0.000    0.727    3.636    4.364    0.000    7.273 
#    0.000    0.000    0.000    0.000    0.000    0.000 
#    0.000    0.000    0.000    0.000    0.000    0.000 
#
# Total GULP energy -61337.401619 kJ/mol
# GULP energy per Si atom -5576.127420 kJ/mol
# Density = 2.352486 g / cm^3
# Si number density = 23.578528 Si / 1000 Ang^3
#
#
#
# Elastic Constant Matrix: (Units=GPa)
#
#
# Indices 1 2 3 4 5 6 
#
# 1 116.4789 33.8653 -4.4567 -8.2190 -18.9788 12.7218
# 2 33.8653 56.6769 15.2692 -16.9265 -10.5779 12.6017
# 3 -4.4567 15.2692 64.2628 -19.7281 -15.9624 6.5566
# 4 -8.2190 -16.9265 -19.7281 35.0881 -0.3196 -14.8664
# 5 -18.9788 -10.5779 -15.9624 -0.3196 37.6102 -7.4966
# 6 12.7218 12.6017 6.5566 -14.8664 -7.4966 24.7753
#
#
#
# Elastic Compliance Matrix: (Units=1/GPa)
#
#
# Indices 1 2 3 4 5 6 
#
# 1 0.011812 -0.006385 0.004435 0.001729 0.005825 -0.001192
# 2 -0.006385 0.025811 -0.003458 0.007346 0.001841 -0.003970
# 3 0.004435 -0.003458 0.024078 0.015771 0.012910 0.006479
# 4 0.001729 0.007346 0.015771 0.053283 0.015648 0.027909
# 5 0.005825 0.001841 0.012910 0.015648 0.038380 0.013659
# 6 -0.001192 -0.003970 0.006479 0.027909 0.013659 0.062159
#
#
# Mechanical properties :
#
#
# Convention : Reuss Voigt Hill
#
# Bulk Modulus (GPa) = 19.65171 36.30823 27.97997
# Shear Modulus (GPa) = 20.55078 32.34410 26.44744
#
# Velocity S-wave (km/s) = 2.95547 3.70775 3.35277
# Velocity P-wave (km/s) = 4.47203 5.81052 5.18465
#
# Compressibility (1/GPa) = 0.05088614
#
# Stress axis : x y z
#
# Youngs Moduli (GPa) = 84.65628 38.74387 41.53225
#
# Poissons Ratio (x) = 0.24737 -0.18421
# Poissons Ratio (y) = 0.54050 0.14362
# Poissons Ratio (z) = -0.37548 0.13398
#
# Static dielectric constant tensor:
#      x y z
#    x 1.914340 -0.063200 0.013260 
#    y -0.063200 1.908220 0.040600 
#    z 0.013260 0.040600 1.870510 
# 
# From -- ./inp_files/231014.got.cif
#   From: 2010.05.17/outbox.cif.g08.bks.cpg/sg2_116_cif.got.tgz:231014.got - 2010.06.03 11:33:40.
