data_PCOD9022472
_publ_section_title
;
Structure prediction by ZEFSAII (Michael W. Deem and Ramdas Pophale) SiO2 
 PCOD9022472
Probable space group: P -1
;
_chemical_formula_sum "Si O2"
_cell_formula_units_Z 14
_cell_length_a 13.704304
_cell_length_b 7.763323
_cell_length_c 9.787214
_cell_angle_alpha 73.467274
_cell_angle_beta 113.949040
_cell_angle_gamma 144.119976
_cell_volume 555.823695
_symmetry_space_group_name_H-M "P -1"
_symmetry_group_IT_number 2
_symmetry_cell_setting 'triclinic'
loop_
_space_group_symop_operation_xyz
x,y,z
-x,-y,-z
loop_
_atom_site_type_symbol
_atom_site_label
_atom_site_fract_x
_atom_site_fract_y
_atom_site_fract_z
Si Si1 0.199907 0.628989 0.712417
Si Si2 0.764750 0.005312 0.981976
Si Si3 0.023305 0.775533 0.562997
Si Si4 0.153562 0.528165 0.209659
Si Si5 0.381447 0.440888 0.644195
Si Si6 0.397559 0.584060 0.937938
Si Si7 0.523132 0.258541 0.649979
O O1 0.109149 0.698000 0.672537
O O2 0.282035 0.608983 0.877405
O O3 0.053413 0.331164 0.608076
O O4 0.365476 0.908252 0.652712
O O5 0.786958 0.185395 0.837001
O O6 0.606644 0.869735 0.020961
O O7 0.960085 0.250750 0.098299
O O8 0.698844 0.715252 0.982500
O O9 0.867430 0.571207 0.627121
O O10 0.174888 0.122082 0.585200
O O11 0.305556 0.605265 0.219722
O O12 0.402795 0.545011 0.785350
O O13 0.473452 0.372213 0.678409
O O14 0.452688 0.657246 0.513175
#
# Coordination Sequence:
#
# PCOD9022472 Si02
#       7
#     2   2   2   2   2   2   2
#     4  10  22  39  62  90 118 150 191 240 297 352
#     4  10  24  38  60  84 118 156 208 230 280 342
#     4  10  22  39  62  90 118 150 191 240 297 352
#     4  11  21  42  60  86 117 159 190 248 282 343
#     4  10  22  39  62  90 118 150 191 240 297 352
#     4  11  21  42  60  86 117 159 190 248 282 343
#     4  10  22  39  62  90 118 150 191 240 297 352
#
# _framework density 25.187843000000001
#
# number of rings (size 3 to 8) (size 9 to 14) (size 15 to 20)
#    0.000    1.714    2.857    0.857    4.000    2.286 
#    0.000    8.571    0.000    0.000    0.000    0.000 
#    0.000    0.000    0.000    0.000    0.000    0.000 
#
# Total GULP energy -78291.873121 kJ/mol
# GULP energy per Si atom -5592.276652 kJ/mol
# Density = 2.513051 g / cm^3
# Si number density = 25.187843 Si / 1000 Ang^3
#
#
#
# Elastic Constant Matrix: (Units=GPa)
#
#
# Indices 1 2 3 4 5 6 
#
# 1 77.6280 24.0428 29.5399 7.5831 35.0449 5.7558
# 2 24.0428 139.1303 36.3540 -6.4614 10.8787 6.2680
# 3 29.5399 36.3540 85.8373 -9.6966 10.3481 -6.8575
# 4 7.5831 -6.4614 -9.6966 55.6104 0.7645 13.7227
# 5 35.0449 10.8787 10.3481 0.7645 52.7018 2.9449
# 6 5.7558 6.2680 -6.8575 13.7227 2.9449 33.5189
#
#
#
# Elastic Compliance Matrix: (Units=1/GPa)
#
#
# Indices 1 2 3 4 5 6 
#
# 1 0.021910 -0.001265 -0.006010 -0.003462 -0.012956 -0.002200
# 2 -0.001265 0.008415 -0.003172 0.001213 -0.000152 -0.002489
# 3 -0.006010 -0.003172 0.015445 0.002196 0.001376 0.003765
# 4 -0.003462 0.001213 0.002196 0.020902 0.001758 -0.007895
# 5 -0.012956 -0.000152 0.001376 0.001758 0.027358 -0.000589
# 6 -0.002200 -0.002489 0.003765 -0.007895 -0.000589 0.034731
#
#
# Mechanical properties :
#
#
# Convention : Reuss Voigt Hill
#
# Bulk Modulus (GPa) = 40.19740 53.60768 46.90254
# Shear Modulus (GPa) = 31.65608 42.54349 37.09978
#
# Velocity S-wave (km/s) = 3.54898 4.11426 3.84203
# Velocity P-wave (km/s) = 5.72603 6.62562 6.19218
#
# Compressibility (1/GPa) = 0.02487723
#
# Stress axis : x y z
#
# Youngs Moduli (GPa) = 45.64028 118.83111 64.74782
#
# Poissons Ratio (x) = 0.15028 0.38910
# Poissons Ratio (y) = 0.05772 0.20540
# Poissons Ratio (z) = 0.27428 0.37697
#
# Static dielectric constant tensor:
#      x y z
#    x 2.044850 0.019160 0.029700 
#    y 0.019160 1.914440 0.035340 
#    z 0.029700 0.035340 2.010550 
# 
# From -- ./inp_files/169250.got.cif
#   From: 2010.05.17/outbox.cif.g08.bks.cpg/sg2_85_cif.got.tgz:169250.got - 2010.06.03 11:33:40.
