data_PCOD9022020
_publ_section_title
;
Structure prediction by ZEFSAII (Michael W. Deem and Ramdas Pophale) SiO2 
 PCOD9022020
Probable space group: P -1
;
_chemical_formula_sum "Si O2"
_cell_formula_units_Z 12
_cell_length_a 11.893407
_cell_length_b 15.256186
_cell_length_c 5.518851
_cell_angle_alpha 113.456002
_cell_angle_beta 93.931510
_cell_angle_gamma 38.895609
_cell_volume 523.795560
_symmetry_space_group_name_H-M "P -1"
_symmetry_group_IT_number 2
_symmetry_cell_setting 'triclinic'
loop_
_space_group_symop_operation_xyz
x,y,z
-x,-y,-z
loop_
_atom_site_type_symbol
_atom_site_label
_atom_site_fract_x
_atom_site_fract_y
_atom_site_fract_z
Si Si1 0.400464 0.032248 0.769213
Si Si2 0.112512 0.389801 0.143808
Si Si3 0.496666 0.215524 0.213281
Si Si4 0.407747 0.488114 0.655794
Si Si5 0.217168 0.747835 0.239824
Si Si6 0.100054 0.005231 0.202183
O O1 0.500000 0.000000 0.500000
O O2 0.450754 0.884970 0.652089
O O3 0.178863 0.231324 0.963204
O O4 0.500000 0.000000 0.000000
O O5 0.328522 0.287485 0.096342
O O6 0.000000 0.500000 0.500000
O O7 0.000000 0.500000 0.000000
O O8 0.409649 0.380408 0.440490
O O9 0.709784 0.076547 0.965926
O O10 0.500000 0.500000 0.500000
O O11 0.567909 0.378390 0.769406
O O12 0.216362 0.669859 0.942697
O O13 0.072740 0.813431 0.502864
O O14 0.168963 0.885884 0.288561
O O15 0.000000 0.000000 0.000000
#
# Coordination Sequence:
#
# PCOD9022020 Si02
#       6
#     2   2   2   2   2   2
#     4  10  23  48  76 106 142 187 254 323 372 447
#     4  11  25  51  75 108 145 184 259 333 371 440
#     4  11  24  45  77 102 149 206 236 305 400 434
#     4  11  21  43  64 106 153 190 242 294 355 451
#     4  10  22  38  68  96 157 191 234 302 335 426
#     4  11  21  43  64 106 148 191 246 289 353 462
#
# _framework density 22.909701999999999
#
# number of rings (size 3 to 8) (size 9 to 14) (size 15 to 20)
#    0.000    1.333    3.333    2.000    0.000    4.000 
#    6.000    0.000    0.000    0.000    0.000    0.000 
#    0.000    0.000    0.000    0.000    0.000    0.000 
#
# Total GULP energy -66852.944547 kJ/mol
# GULP energy per Si atom -5571.078712 kJ/mol
# Density = 2.285756 g / cm^3
# Si number density = 22.909702 Si / 1000 Ang^3
#
#
#
# Elastic Constant Matrix: (Units=GPa)
#
#
# Indices 1 2 3 4 5 6 
#
# 1 96.6151 17.4818 35.0493 0.5881 -9.2894 2.3340
# 2 17.4818 84.4697 -5.4563 -17.2809 1.3181 12.3675
# 3 35.0493 -5.4563 144.3157 5.1662 -15.4951 8.0799
# 4 0.5881 -17.2809 5.1662 37.2045 7.0762 1.2626
# 5 -9.2894 1.3181 -15.4951 7.0762 39.1718 7.6042
# 6 2.3340 12.3675 8.0799 1.2626 7.6042 43.0037
#
#
#
# Elastic Compliance Matrix: (Units=1/GPa)
#
#
# Indices 1 2 3 4 5 6 
#
# 1 0.012136 -0.003133 -0.002807 -0.001669 0.002087 0.000450
# 2 -0.003133 0.014651 0.001168 0.007070 -0.001225 -0.004254
# 3 -0.002807 0.001168 0.008157 -0.001069 0.003150 -0.002242
# 4 -0.001669 0.007070 -0.001069 0.031620 -0.006472 -0.001526
# 5 0.002087 -0.001225 0.003150 -0.006472 0.029525 -0.005384
# 6 0.000450 -0.004254 -0.002242 -0.001526 -0.005384 0.025871
#
#
# Mechanical properties :
#
#
# Convention : Reuss Voigt Hill
#
# Bulk Modulus (GPa) = 39.36983 46.61670 42.99326
# Shear Modulus (GPa) = 35.72226 42.43104 39.07665
#
# Velocity S-wave (km/s) = 3.95303 4.30827 4.13447
# Velocity P-wave (km/s) = 6.16907 6.71866 6.44972
#
# Compressibility (1/GPa) = 0.02540016
#
# Stress axis : x y z
#
# Youngs Moduli (GPa) = 82.40284 68.25640 122.59183
#
# Poissons Ratio (x) = 0.21383 0.34412
# Poissons Ratio (y) = 0.25815 -0.14322
# Poissons Ratio (z) = 0.23131 -0.07974
#
# Static dielectric constant tensor:
#      x y z
#    x 2.139580 0.063280 0.089960 
#    y 0.063280 2.043970 0.223970 
#    z 0.089960 0.223970 2.200920 
# 
# From -- ./inp_files/73477.got.cif
#   From: 2010.05.17/outbox.cif.g08.bks.cpg/sg2_37_cif.got.tgz:73477.got - 2010.06.03 11:33:40.
