data_PCOD9022725
_publ_section_title
;
Structure prediction by ZEFSAII (Michael W. Deem and Ramdas Pophale) SiO2 
 PCOD9022725
Probable space group: P -1
;
_chemical_formula_sum "Si O2"
_cell_formula_units_Z 14
_cell_length_a 5.036618
_cell_length_b 12.561379
_cell_length_c 11.249430
_cell_angle_alpha 56.740935
_cell_angle_beta 73.083942
_cell_angle_gamma 94.916325
_cell_volume 541.965953
_symmetry_space_group_name_H-M "P -1"
_symmetry_group_IT_number 2
_symmetry_cell_setting 'triclinic'
loop_
_space_group_symop_operation_xyz
x,y,z
-x,-y,-z
loop_
_atom_site_type_symbol
_atom_site_label
_atom_site_fract_x
_atom_site_fract_y
_atom_site_fract_z
Si Si1 0.126916 0.691790 0.566280
Si Si2 0.500412 0.287140 0.966189
Si Si3 0.848893 0.287765 0.704467
Si Si4 0.278729 0.138316 0.511657
Si Si5 0.783292 0.853204 0.126296
Si Si6 0.875612 0.609059 0.890053
Si Si7 0.356450 0.877605 0.750199
O O1 0.116497 0.633318 0.471341
O O2 0.451120 0.739289 0.548922
O O3 0.907749 0.608560 0.744793
O O4 0.011933 0.820186 0.482676
O O5 0.757157 0.347282 0.800695
O O6 0.232316 0.222886 0.951205
O O7 0.562884 0.168429 0.104970
O O8 0.419135 0.382420 0.014415
O O9 0.554889 0.161193 0.800499
O O10 0.112212 0.233196 0.736975
O O11 0.375050 0.106871 0.386340
O O12 0.263866 0.010786 0.672312
O O13 0.000000 0.000000 0.000000
O O14 0.100635 0.754303 0.805681
O O15 0.000000 0.500000 0.000000
#
# Coordination Sequence:
#
# PCOD9022725 Si02
#       7
#     2   2   2   2   2   2   2
#     4  11  23  43  65 103 135 174 216 275 335 400
#     4  10  23  40  64  94 135 175 220 271 328 396
#     4  10  23  37  62  91 136 168 216 268 325 395
#     4  10  23  38  69  96 142 171 216 269 342 400
#     4  10  22  39  63  98 134 181 216 263 324 409
#     4  11  25  45  70  96 131 178 232 280 328 392
#     4  10  22  41  64 101 131 180 219 275 334 401
#
# _framework density 25.831878
#
# number of rings (size 3 to 8) (size 9 to 14) (size 15 to 20)
#    0.857    0.857    1.429    2.143    4.000    4.571 
#    0.000    0.714    0.000    1.714    0.000    0.000 
#    0.000    0.000    0.000    0.000    0.000    0.000 
#
# Total GULP energy -78385.880349 kJ/mol
# GULP energy per Si atom -5598.991453 kJ/mol
# Density = 2.577308 g / cm^3
# Si number density = 25.831878 Si / 1000 Ang^3
#
#
#
# Elastic Constant Matrix: (Units=GPa)
#
#
# Indices 1 2 3 4 5 6 
#
# 1 95.6072 10.9866 22.2006 8.0455 9.6767 -7.1012
# 2 10.9866 96.5049 53.6540 22.0081 -2.6524 -6.7732
# 3 22.2006 53.6540 178.0712 44.9099 9.1243 -5.2080
# 4 8.0455 22.0081 44.9099 48.5750 5.8995 -2.2909
# 5 9.6767 -2.6524 9.1243 5.8995 41.0010 8.8998
# 6 -7.1012 -6.7732 -5.2080 -2.2909 8.8998 39.5491
#
#
#
# Elastic Compliance Matrix: (Units=1/GPa)
#
#
# Indices 1 2 3 4 5 6 
#
# 1 0.011251 -0.000618 -0.000930 -0.000246 -0.002985 0.002449
# 2 -0.000618 0.013003 -0.003131 -0.003072 0.001887 0.001101
# 3 -0.000930 -0.003131 0.008221 -0.005891 -0.001023 0.000268
# 4 -0.000246 -0.003072 -0.005891 0.027881 -0.003049 0.000955
# 5 -0.002985 0.001887 -0.001023 -0.003049 0.027331 -0.006675
# 6 0.002449 0.001101 0.000268 0.000955 -0.006675 0.027506
#
#
# Mechanical properties :
#
#
# Convention : Reuss Voigt Hill
#
# Bulk Modulus (GPa) = 43.25645 60.42952 51.84298
# Shear Modulus (GPa) = 37.80539 44.71448 41.25994
#
# Velocity S-wave (km/s) = 3.82974 4.16502 4.00090
# Velocity P-wave (km/s) = 6.02807 6.82452 6.43862
#
# Compressibility (1/GPa) = 0.02311794
#
# Stress axis : x y z
#
# Youngs Moduli (GPa) = 88.88007 76.90743 121.63933
#
# Poissons Ratio (x) = 0.04752 0.11312
# Poissons Ratio (y) = 0.05492 0.38079
# Poissons Ratio (z) = 0.08266 0.24076
#
# Static dielectric constant tensor:
#      x y z
#    x 1.988700 0.003690 -0.066440 
#    y 0.003690 2.080930 0.078240 
#    z -0.066440 0.078240 2.014250 
# 
# From -- ./inp_files/63716.got.cif
#   From: 2010.05.17/outbox.cif.g08.bks.cpg/sg2_32_cif.got.tgz:63716.got - 2010.06.03 11:33:40.
