data_PCOD9022924
_publ_section_title
;
Structure prediction by ZEFSAII (Michael W. Deem and Ramdas Pophale) SiO2 
 PCOD9022924
Probable space group: P -1
;
_chemical_formula_sum "Si O2"
_cell_formula_units_Z 14
_cell_length_a 13.947465
_cell_length_b 8.925567
_cell_length_c 11.428516
_cell_angle_alpha 64.793856
_cell_angle_beta 121.849778
_cell_angle_gamma 65.831274
_cell_volume 617.727050
_symmetry_space_group_name_H-M "P -1"
_symmetry_group_IT_number 2
_symmetry_cell_setting 'triclinic'
loop_
_space_group_symop_operation_xyz
x,y,z
-x,-y,-z
loop_
_atom_site_type_symbol
_atom_site_label
_atom_site_fract_x
_atom_site_fract_y
_atom_site_fract_z
Si Si1 0.459429 0.598274 0.642989
Si Si2 0.235794 0.064934 0.946142
Si Si3 0.643369 0.709321 0.021899
Si Si4 0.013340 0.812074 0.431510
Si Si5 0.826890 0.363029 0.012874
Si Si6 0.666317 0.170703 0.263476
Si Si7 0.898665 0.951985 0.905184
O O1 0.333675 0.806439 0.605733
O O2 0.313597 0.752845 0.389575
O O3 0.631069 0.529286 0.765330
O O4 0.587494 0.278417 0.855524
O O5 0.328816 0.132817 0.986005
O O6 0.058856 0.248656 0.678508
O O7 0.143883 0.120236 0.992492
O O8 0.749083 0.546459 0.018364
O O9 0.765286 0.467372 0.283259
O O10 0.422496 0.900888 0.804601
O O11 0.953242 0.050373 0.243845
O O12 0.870747 0.967932 0.400687
O O13 0.959866 0.290955 0.025296
O O14 0.500000 0.500000 0.000000
O O15 0.000000 0.000000 0.000000
#
# Coordination Sequence:
#
# PCOD9022924 Si02
#       7
#     2   2   2   2   2   2   2
#     4  10  22  41  63  88 121 154 210 247 288 367
#     4  11  24  41  58  95 126 156 199 253 303 350
#     4  11  24  40  61  93 129 152 197 256 304 352
#     4  11  21  40  63  91 124 160 202 244 295 367
#     4  10  22  39  65  91 115 164 206 240 296 358
#     4  11  21  40  64  90 118 162 205 238 301 363
#     4  12  23  41  68  87 114 166 210 243 296 356
#
# _framework density 22.663734000000002
#
# number of rings (size 3 to 8) (size 9 to 14) (size 15 to 20)
#    0.000    1.143    7.143    2.143    2.000    1.143 
#    2.571    2.857    0.000    0.000    0.000    0.000 
#    0.000    0.000    0.000    0.000    0.000    0.000 
#
# Total GULP energy -78356.038892 kJ/mol
# GULP energy per Si atom -5596.859921 kJ/mol
# Density = 2.261215 g / cm^3
# Si number density = 22.663734 Si / 1000 Ang^3
#
#
#
# Elastic Constant Matrix: (Units=GPa)
#
#
# Indices 1 2 3 4 5 6 
#
# 1 90.9308 12.6443 10.3957 1.5266 13.1350 -18.8352
# 2 12.6443 54.4772 18.3289 21.7967 4.4017 6.0236
# 3 10.3957 18.3289 109.7817 31.2436 15.2590 -4.9581
# 4 1.5266 21.7967 31.2436 24.1691 1.5634 5.7984
# 5 13.1350 4.4017 15.2590 1.5634 23.7013 9.3214
# 6 -18.8352 6.0236 -4.9581 5.7984 9.3214 41.8395
#
#
#
# Elastic Compliance Matrix: (Units=1/GPa)
#
#
# Indices 1 2 3 4 5 6 
#
# 1 0.015544 -0.003489 0.002213 -0.002489 -0.013608 0.011139
# 2 -0.003489 0.032135 0.006322 -0.036782 -0.006073 0.001003
# 3 0.002213 0.006322 0.020410 -0.033750 -0.017689 0.011123
# 4 -0.002489 -0.036782 -0.033750 0.121997 0.031206 -0.023684
# 5 -0.013608 -0.006073 -0.017689 0.031206 0.071003 -0.027491
# 6 0.011139 0.001003 0.011123 -0.023684 -0.027491 0.039496
#
#
# Mechanical properties :
#
#
# Convention : Reuss Voigt Hill
#
# Bulk Modulus (GPa) = 12.79043 37.54750 25.16897
# Shear Modulus (GPa) = 15.79513 32.19669 23.99591
#
# Velocity S-wave (km/s) = 2.64282 3.77321 3.25742
# Velocity P-wave (km/s) = 3.86891 5.96540 5.02765
#
# Compressibility (1/GPa) = 0.07818344
#
# Stress axis : x y z
#
# Youngs Moduli (GPa) = 64.33260 31.11841 48.99513
#
# Poissons Ratio (x) = 0.10857 -0.10844
# Poissons Ratio (y) = 0.22445 -0.30977
# Poissons Ratio (z) = -0.14239 -0.19675
#
# Static dielectric constant tensor:
#      x y z
#    x 1.841310 -0.011010 0.014980 
#    y -0.011010 1.881740 0.011400 
#    z 0.014980 0.011400 1.828410 
# 
# From -- ./inp_files/305661.got.cif
#   From: 2010.05.17/outbox.cif.g08.bks.cpg/sg2_153_cif.got.tgz:305661.got - 2010.06.03 11:33:40.
