data_PCOD9022175
_publ_section_title
;
Structure prediction by ZEFSAII (Michael W. Deem and Ramdas Pophale) SiO2 
 PCOD9022175
Probable space group: P -1
;
_chemical_formula_sum "Si O2"
_cell_formula_units_Z 16
_cell_length_a 7.010497
_cell_length_b 8.420873
_cell_length_c 12.912600
_cell_angle_alpha 122.000414
_cell_angle_beta 72.855987
_cell_angle_gamma 117.235841
_cell_volume 573.400746
_symmetry_space_group_name_H-M "P -1"
_symmetry_group_IT_number 2
_symmetry_cell_setting 'triclinic'
loop_
_space_group_symop_operation_xyz
x,y,z
-x,-y,-z
loop_
_atom_site_type_symbol
_atom_site_label
_atom_site_fract_x
_atom_site_fract_y
_atom_site_fract_z
Si Si1 0.846416 0.668497 0.022695
Si Si2 0.946979 0.755882 0.804270
Si Si3 0.877630 0.177389 0.623388
Si Si4 0.780732 0.387894 0.555927
Si Si5 0.454757 0.141710 0.140023
Si Si6 0.588043 0.229892 0.863085
Si Si7 0.104990 0.062845 0.714654
Si Si8 0.639967 0.594665 0.342717
O O1 0.636987 0.735085 0.076447
O O2 0.964262 0.787286 0.146187
O O3 0.977509 0.731767 0.914356
O O4 0.746061 0.427308 0.969397
O O5 0.825372 0.540600 0.698510
O O6 0.769374 0.854502 0.860649
O O7 0.108552 0.889356 0.733782
O O8 0.774729 0.172132 0.524199
O O9 0.721854 0.244775 0.742854
O O10 0.934115 0.012770 0.627803
O O11 0.121529 0.340191 0.626938
O O12 0.554326 0.389106 0.551564
O O13 0.000000 0.500000 0.500000
O O14 0.587518 0.374282 0.226420
O O15 0.457164 0.003210 0.187304
O O16 0.500000 0.000000 0.000000
O O17 0.319750 0.229477 0.689383
#
# Coordination Sequence:
#
# PCOD9022175 Si02
#       8
#     2   2   2   2   2   2   2   2
#     4  11  22  34  60  93 137 177 205 251 301 382
#     4  11  22  39  60  92 130 167 219 255 302 386
#     4  10  22  41  64  92 124 166 212 256 319 377
#     4  11  24  47  71  88 121 167 213 280 330 361
#     4  11  19  34  58  90 130 177 207 245 305 379
#     4  11  21  36  60  87 135 176 212 241 312 378
#     4  10  22  39  58  92 132 164 200 259 305 382
#     4   9  23  41  67  93 131 162 216 262 314 377
#
# _framework density 27.903694999999999
#
# number of rings (size 3 to 8) (size 9 to 14) (size 15 to 20)
#    0.750    0.750    3.750    1.875    3.500    3.000 
#    0.000    1.250    0.000    0.000    0.000    0.000 
#    0.000    0.000    0.000    0.000    0.000    0.000 
#
# Total GULP energy -89122.727616 kJ/mol
# GULP energy per Si atom -5570.170476 kJ/mol
# Density = 2.784018 g / cm^3
# Si number density = 27.903695 Si / 1000 Ang^3
#
#
#
# Elastic Constant Matrix: (Units=GPa)
#
#
# Indices 1 2 3 4 5 6 
#
# 1 110.6406 27.9381 31.3087 -9.8790 -23.5717 -8.5108
# 2 27.9381 167.8931 43.3711 13.6686 -0.2072 -0.2284
# 3 31.3087 43.3711 66.6642 1.0681 -22.9105 2.3826
# 4 -9.8790 13.6686 1.0681 51.8291 1.8546 1.8071
# 5 -23.5717 -0.2072 -22.9105 1.8546 52.3062 3.5837
# 6 -8.5108 -0.2284 2.3826 1.8071 3.5837 33.3907
#
#
#
# Elastic Compliance Matrix: (Units=1/GPa)
#
#
# Indices 1 2 3 4 5 6 
#
# 1 0.011482 -0.001155 -0.003638 0.002356 0.003308 0.002696
# 2 -0.001155 0.007719 -0.005443 -0.002062 -0.002839 0.000563
# 3 -0.003638 -0.005443 0.023415 0.000068 0.008838 -0.003588
# 4 0.002356 -0.002062 0.000068 0.020291 0.000402 -0.000560
# 5 0.003308 -0.002839 0.008838 0.000402 0.024624 -0.002471
# 6 0.002696 0.000563 -0.003588 -0.000560 -0.002471 0.031191
#
#
# Mechanical properties :
#
#
# Convention : Reuss Voigt Hill
#
# Bulk Modulus (GPa) = 45.15838 61.15930 53.15884
# Shear Modulus (GPa) = 34.11224 43.67719 38.89472
#
# Velocity S-wave (km/s) = 3.50022 3.96066 3.73754
# Velocity P-wave (km/s) = 5.70563 6.54838 6.14148
#
# Compressibility (1/GPa) = 0.02214428
#
# Stress axis : x y z
#
# Youngs Moduli (GPa) = 87.09361 129.54304 42.70795
#
# Poissons Ratio (x) = 0.14959 0.15539
# Poissons Ratio (y) = 0.10057 0.23245
# Poissons Ratio (z) = 0.31689 0.70507
#
# Static dielectric constant tensor:
#      x y z
#    x 2.064330 0.149050 -0.083500 
#    y 0.149050 2.059650 0.093070 
#    z -0.083500 0.093070 2.240320 
# 
# From -- ./inp_files/493608.got.cif
#   From: 2010.05.17/outbox.cif.g08.bks.cpg/sg2_247_cif.got.tgz:493608.got - 2010.06.03 11:33:40.
