data_PCOD9022789
_publ_section_title
;
Structure prediction by ZEFSAII (Michael W. Deem and Ramdas Pophale) SiO2 
 PCOD9022789
Probable space group: P -1
;
_chemical_formula_sum "Si O2"
_cell_formula_units_Z 16
_cell_length_a 13.709421
_cell_length_b 7.490717
_cell_length_c 7.696002
_cell_angle_alpha 117.854906
_cell_angle_beta 61.279251
_cell_angle_gamma 114.645801
_cell_volume 593.607072
_symmetry_space_group_name_H-M "P -1"
_symmetry_group_IT_number 2
_symmetry_cell_setting 'triclinic'
loop_
_space_group_symop_operation_xyz
x,y,z
-x,-y,-z
loop_
_atom_site_type_symbol
_atom_site_label
_atom_site_fract_x
_atom_site_fract_y
_atom_site_fract_z
Si Si1 0.887699 0.531557 0.372054
Si Si2 0.210245 0.100922 0.090011
Si Si3 0.337533 0.557339 0.306239
Si Si4 0.627737 0.962734 0.551018
Si Si5 0.011889 0.236689 0.250987
Si Si6 0.847154 0.927586 0.493528
Si Si7 0.431927 0.442483 0.717349
Si Si8 0.405477 0.870605 0.882035
O O1 0.750091 0.448798 0.459890
O O2 0.922711 0.611534 0.577699
O O3 0.897754 0.728319 0.330464
O O4 0.963032 0.367871 0.208706
O O5 0.285765 0.340400 0.152677
O O6 0.107046 0.116327 0.055462
O O7 0.134137 0.025253 0.297427
O O8 0.298186 0.955267 0.954693
O O9 0.464838 0.545592 0.234840
O O10 0.340008 0.789690 0.347162
O O11 0.708858 0.890186 0.590197
O O12 0.645209 0.794652 0.315468
O O13 0.490597 0.897369 0.656636
O O14 0.902544 0.101215 0.387907
O O15 0.500000 0.500000 0.500000
O O16 0.372291 0.633083 0.871640
O O17 0.500000 0.000000 0.000000
#
# Coordination Sequence:
#
# PCOD9022789 Si02
#       8
#     2   2   2   2   2   2   2   2
#     4   9  16  27  47  73 103 133 165 227 263 297
#     4  10  19  32  51  75 109 141 167 221 271 308
#     4  10  18  32  52  79 107 132 179 222 262 311
#     4  11  21  32  54  80 105 142 179 215 259 322
#     4   9  17  29  47  76 105 133 177 218 265 309
#     4  10  17  31  51  78 105 135 179 215 267 310
#     4  10  20  35  53  75 103 141 183 210 260 322
#     4  11  19  36  52  73 110 144 171 217 270 313
#
# _framework density 26.953859999999999
#
# number of rings (size 3 to 8) (size 9 to 14) (size 15 to 20)
#    0.000    2.250    3.750    4.125    0.000    0.500 
#    0.000    0.000    0.000    0.750    0.000    4.375 
#    0.000    0.125    0.000    0.000    0.000    0.000 
#
# Total GULP energy -89183.193434 kJ/mol
# GULP energy per Si atom -5573.949590 kJ/mol
# Density = 2.689251 g / cm^3
# Si number density = 26.953860 Si / 1000 Ang^3
#
#
#
# Elastic Constant Matrix: (Units=GPa)
#
#
# Indices 1 2 3 4 5 6 
#
# 1 118.0224 33.3010 53.5506 16.3803 -63.6868 -27.0512
# 2 33.3010 126.9634 51.4294 38.9485 -25.5951 -24.4331
# 3 53.5506 51.4294 108.7906 30.7129 -35.7835 -15.4262
# 4 16.3803 38.9485 30.7129 39.1051 -16.7210 -20.3208
# 5 -63.6868 -25.5951 -35.7835 -16.7210 71.5584 18.6551
# 6 -27.0512 -24.4331 -15.4262 -20.3208 18.6551 38.2989
#
#
#
# Elastic Compliance Matrix: (Units=1/GPa)
#
#
# Indices 1 2 3 4 5 6 
#
# 1 0.019596 -0.000659 -0.005576 0.006995 0.013940 0.008096
# 2 -0.000659 0.012172 -0.002708 -0.008983 -0.000071 0.001477
# 3 -0.005576 -0.002708 0.015420 -0.009171 0.000874 -0.004747
# 4 0.006995 -0.008983 -0.009171 0.051588 0.005170 0.020369
# 5 0.013940 -0.000071 0.000874 0.005170 0.028223 -0.000851
# 6 0.008096 0.001477 -0.004747 0.020369 -0.000851 0.042081
#
#
# Mechanical properties :
#
#
# Convention : Reuss Voigt Hill
#
# Bulk Modulus (GPa) = 34.12527 70.03762 52.08144
# Shear Modulus (GPa) = 25.41524 44.15886 34.78705
#
# Velocity S-wave (km/s) = 3.07403 4.05200 3.59641
# Velocity P-wave (km/s) = 5.02868 6.92331 6.05062
#
# Compressibility (1/GPa) = 0.02930380
#
# Stress axis : x y z
#
# Youngs Moduli (GPa) = 51.03042 82.15900 64.84919
#
# Poissons Ratio (x) = 0.05411 0.36160
# Poissons Ratio (y) = 0.03361 0.17558
# Poissons Ratio (z) = 0.28454 0.22245
#
# Static dielectric constant tensor:
#      x y z
#    x 2.141370 0.001600 0.112020 
#    y 0.001600 2.190250 0.033110 
#    z 0.112020 0.033110 2.367530 
# 
# From -- ./inp_files/269700.got.cif
#   From: 2010.05.17/outbox.cif.g08.bks.cpg/sg2_135_cif.got.tgz:269700.got - 2010.06.03 11:33:40.
