data_PCOD9022054
_publ_section_title
;
Structure prediction by ZEFSAII (Michael W. Deem and Ramdas Pophale) SiO2 
 PCOD9022054
Probable space group: P -1
;
_chemical_formula_sum "Si O2"
_cell_formula_units_Z 15
_cell_length_a 7.541099
_cell_length_b 13.133173
_cell_length_c 8.766832
_cell_angle_alpha 83.487352
_cell_angle_beta 54.153267
_cell_angle_gamma 96.706219
_cell_volume 680.921304
_symmetry_space_group_name_H-M "P -1"
_symmetry_group_IT_number 2
_symmetry_cell_setting 'triclinic'
loop_
_space_group_symop_operation_xyz
x,y,z
-x,-y,-z
loop_
_atom_site_type_symbol
_atom_site_label
_atom_site_fract_x
_atom_site_fract_y
_atom_site_fract_z
Si Si1 0.500000 0.000000 0.500000
Si Si2 0.189723 0.743672 0.284364
Si Si3 0.055771 0.334466 0.090997
Si Si4 0.891842 0.435702 0.418565
Si Si5 0.749051 0.623540 0.343136
Si Si6 0.648050 0.796544 0.877542
Si Si7 0.768186 0.021533 0.677774
Si Si8 0.530467 0.242797 0.360674
O O1 0.401099 0.981765 0.376461
O O2 0.492659 0.873545 0.542859
O O3 0.184195 0.681914 0.457290
O O4 0.182154 0.864536 0.290988
O O5 0.982917 0.686787 0.293376
O O6 0.422498 0.741428 0.086693
O O7 0.058155 0.427035 0.196759
O O8 0.793504 0.292508 0.188240
O O9 0.147071 0.242724 0.144855
O O10 0.206035 0.369657 0.861031
O O11 0.722483 0.504301 0.434515
O O12 0.000000 0.500000 0.500000
O O13 0.570357 0.684989 0.485822
O O14 0.611050 0.766157 0.723778
O O15 0.679523 0.922497 0.850309
O O16 0.000000 0.000000 0.500000
#
# Coordination Sequence:
#
# PCOD9022054 Si02
#       8
#     1   2   2   2   2   2   2   2
#     4  10  22  38  70 100 128 182 226 272 336 408
#     4  11  22  45  70  99 140 183 227 285 345 406
#     4  12  25  45  71 101 138 178 232 281 344 408
#     4  10  23  45  71  98 136 182 231 282 343 402
#     4  11  25  46  70 102 136 182 233 286 340 406
#     4  11  24  43  67 104 138 179 227 280 343 415
#     4  11  22  41  67  98 136 182 225 281 346 403
#     4  11  24  47  69 100 142 177 230 283 342 407
#
# _framework density 22.028980000000001
#
# number of rings (size 3 to 8) (size 9 to 14) (size 15 to 20)
#    0.000    1.067    1.333    6.400    3.733    0.533 
#    2.400    3.333    0.000    0.000    0.000    0.000 
#    0.000    0.000    0.000    0.000    0.000    0.000 
#
# Total GULP energy -83661.519262 kJ/mol
# GULP energy per Si atom -5577.434617 kJ/mol
# Density = 2.197884 g / cm^3
# Si number density = 22.028980 Si / 1000 Ang^3
#
#
#
# Elastic Constant Matrix: (Units=GPa)
#
#
# Indices 1 2 3 4 5 6 
#
# 1 83.5986 22.9886 18.6668 -4.5120 13.5178 -13.7141
# 2 22.9886 111.3862 30.3533 18.4634 15.6286 0.9726
# 3 18.6668 30.3533 90.7234 15.1875 6.2558 -16.0797
# 4 -4.5120 18.4634 15.1875 31.1189 -0.3892 5.7414
# 5 13.5178 15.6286 6.2558 -0.3892 36.7842 -4.5185
# 6 -13.7141 0.9726 -16.0797 5.7414 -4.5185 37.1029
#
#
#
# Elastic Compliance Matrix: (Units=1/GPa)
#
#
# Indices 1 2 3 4 5 6 
#
# 1 0.014460 -0.002680 -0.001859 0.003888 -0.003376 0.003596
# 2 -0.002680 0.011733 -0.002474 -0.005833 -0.003880 -0.001940
# 3 -0.001859 -0.002474 0.014654 -0.007216 0.000007 0.006846
# 4 0.003888 -0.005833 -0.007216 0.041122 0.001768 -0.007685
# 5 -0.003376 -0.003880 0.000007 0.001768 0.030373 0.002282
# 6 0.003596 -0.001940 0.006846 -0.007685 0.002282 0.032766
#
#
# Mechanical properties :
#
#
# Convention : Reuss Voigt Hill
#
# Bulk Modulus (GPa) = 37.28504 47.74729 42.51617
# Shear Modulus (GPa) = 29.74889 35.24781 32.49835
#
# Velocity S-wave (km/s) = 3.67882 4.00442 3.84507
# Velocity P-wave (km/s) = 5.91669 6.56524 6.24938
#
# Compressibility (1/GPa) = 0.02682041
#
# Stress axis : x y z
#
# Youngs Moduli (GPa) = 69.15757 85.22784 68.24195
#
# Poissons Ratio (x) = 0.22840 0.12688
# Poissons Ratio (y) = 0.18533 0.16883
# Poissons Ratio (z) = 0.12858 0.21086
#
# Static dielectric constant tensor:
#      x y z
#    x 1.851650 0.045640 -0.023550 
#    y 0.045640 1.805940 -0.027680 
#    z -0.023550 -0.027680 1.827080 
# 
# From -- ./inp_files/187279.got.cif
#   From: 2010.05.17/outbox.cif.g08.bks.cpg/sg2_94_cif.got.tgz:187279.got - 2010.06.03 11:33:40.
