data_PCOD9022348
_publ_section_title
;
Structure prediction by ZEFSAII (Michael W. Deem and Ramdas Pophale) SiO2 
 PCOD9022348
Probable space group: P -1
;
_chemical_formula_sum "Si O2"
_cell_formula_units_Z 14
_cell_length_a 13.253628
_cell_length_b 13.931529
_cell_length_c 13.761291
_cell_angle_alpha 150.121000
_cell_angle_beta 151.467555
_cell_angle_gamma 43.039672
_cell_volume 599.508925
_symmetry_space_group_name_H-M "P -1"
_symmetry_group_IT_number 2
_symmetry_cell_setting 'triclinic'
loop_
_space_group_symop_operation_xyz
x,y,z
-x,-y,-z
loop_
_atom_site_type_symbol
_atom_site_label
_atom_site_fract_x
_atom_site_fract_y
_atom_site_fract_z
Si Si1 0.250557 0.685478 0.945741
Si Si2 0.193294 0.542035 0.126943
Si Si3 0.566604 0.829928 0.774022
Si Si4 0.799712 0.132953 0.734810
Si Si5 0.236332 0.247315 0.531117
Si Si6 0.289525 0.060517 0.207242
Si Si7 0.235836 0.122677 0.803492
O O1 0.172660 0.460233 0.672276
O O2 0.162464 0.765930 0.040410
O O3 0.507040 0.717234 0.204130
O O4 0.215052 0.831655 0.956796
O O5 0.407808 0.635494 0.445123
O O6 0.128838 0.706115 0.143750
O O7 0.228582 0.331514 0.929631
O O8 0.000000 0.500000 0.000000
O O9 0.731304 0.864874 0.854258
O O10 0.407421 0.997488 0.791237
O O11 0.682608 0.834008 0.979069
O O12 0.544677 0.098890 0.471110
O O13 0.850764 0.914363 0.604793
O O14 0.209104 0.165925 0.326462
O O15 0.000000 0.000000 0.500000
#
# Coordination Sequence:
#
# PCOD9022348 Si02
#       7
#     2   2   2   2   2   2   2
#     4   8  13  24  43  73 111 144 183 233 286 345
#     4  11  21  37  58  85 123 161 202 246 292 349
#     4  10  22  39  61  88 120 158 197 246 299 352
#     4   8  16  26  43  75 113 150 188 235 283 339
#     4   8  13  24  43  72 112 143 184 236 283 345
#     4   8  15  27  46  77 112 142 186 236 284 349
#     4  11  23  41  61  85 120 157 201 249 299 354
#
# _framework density 23.352446
#
# number of rings (size 3 to 8) (size 9 to 14) (size 15 to 20)
#    0.000    2.857    1.429    2.143    0.000    6.857 
#    0.000    0.000    0.000    0.000    0.000    8.000 
#   17.143    0.000    0.000    0.286    0.000    0.429 
#
# Total GULP energy -78215.593978 kJ/mol
# GULP energy per Si atom -5586.828141 kJ/mol
# Density = 2.329930 g / cm^3
# Si number density = 23.352446 Si / 1000 Ang^3
#
#
#
# Elastic Constant Matrix: (Units=GPa)
#
#
# Indices 1 2 3 4 5 6 
#
# 1 66.5803 26.4959 43.3489 18.1321 14.2792 28.6113
# 2 26.4959 123.5642 70.2579 18.1494 1.7398 26.0380
# 3 43.3489 70.2579 148.8147 31.3402 11.8440 13.7487
# 4 18.1321 18.1494 31.3402 61.7057 -1.5120 2.8568
# 5 14.2792 1.7398 11.8440 -1.5120 38.9884 5.1519
# 6 28.6113 26.0380 13.7487 2.8568 5.1519 40.6322
#
#
#
# Elastic Compliance Matrix: (Units=1/GPa)
#
#
# Indices 1 2 3 4 5 6 
#
# 1 0.028917 0.001959 -0.005998 -0.005339 -0.006635 -0.018371
# 2 0.001959 0.012690 -0.005758 -0.000993 0.001441 -0.007676
# 3 -0.005998 -0.005758 0.011463 -0.002613 -0.001716 0.004436
# 4 -0.005339 -0.000993 -0.002613 0.019306 0.003075 0.003532
# 5 -0.006635 0.001441 -0.001716 0.003075 0.028591 0.000488
# 6 -0.018371 -0.007676 0.004436 0.003532 0.000488 0.040654
#
#
# Mechanical properties :
#
#
# Convention : Reuss Voigt Hill
#
# Bulk Modulus (GPa) = 29.87417 68.79607 49.33512
# Shear Modulus (GPa) = 29.00676 41.52236 35.26456
#
# Velocity S-wave (km/s) = 3.52821 4.22130 3.89022
# Velocity P-wave (km/s) = 5.42385 7.29952 6.43044
#
# Compressibility (1/GPa) = 0.03347374
#
# Stress axis : x y z
#
# Youngs Moduli (GPa) = 34.58203 78.80174 87.24012
#
# Poissons Ratio (x) = -0.15436 0.52330
# Poissons Ratio (y) = -0.06774 0.50235
# Poissons Ratio (z) = 0.20744 0.45376
#
# Static dielectric constant tensor:
#      x y z
#    x 1.884090 -0.036390 0.024510 
#    y -0.036390 1.981220 -0.058590 
#    z 0.024510 -0.058590 1.907000 
# 
# From -- ./inp_files/534653.got.cif
#   From: 2010.05.17/outbox.cif.g08.bks.cpg/sg2_268_cif.got.tgz:534653.got - 2010.06.03 11:33:40.
