data_PCOD9022631
_publ_section_title
;
Structure prediction by ZEFSAII (Michael W. Deem and Ramdas Pophale) SiO2 
 PCOD9022631
Probable space group: P -1
;
_chemical_formula_sum "Si O2"
_cell_formula_units_Z 16
_cell_length_a 20.773649
_cell_length_b 23.428564
_cell_length_c 5.479972
_cell_angle_alpha 76.561029
_cell_angle_beta 112.782643
_cell_angle_gamma 161.658030
_cell_volume 684.732122
_symmetry_space_group_name_H-M "P -1"
_symmetry_group_IT_number 2
_symmetry_cell_setting 'triclinic'
loop_
_space_group_symop_operation_xyz
x,y,z
-x,-y,-z
loop_
_atom_site_type_symbol
_atom_site_label
_atom_site_fract_x
_atom_site_fract_y
_atom_site_fract_z
Si Si1 0.260713 0.348951 0.280622
Si Si2 0.582346 0.762785 0.367926
Si Si3 0.078660 0.471562 0.701456
Si Si4 0.280721 0.834290 0.157396
Si Si5 0.938546 0.764978 0.398104
Si Si6 0.271174 0.526260 0.642725
Si Si7 0.120831 0.113303 0.314610
Si Si8 0.331188 0.783480 0.903046
O O1 0.500000 0.500000 0.500000
O O2 0.202052 0.335557 0.454910
O O3 0.073953 0.144975 0.212139
O O4 0.223629 0.347592 0.964344
O O5 0.428660 0.651007 0.501463
O O6 0.648317 0.745676 0.486900
O O7 0.436673 0.653372 0.007279
O O8 0.816457 0.996805 0.480976
O O9 0.149279 0.490758 0.553119
O O10 0.296506 0.686747 0.911236
O O11 0.954880 0.334656 0.872719
O O12 0.860678 0.339387 0.436427
O O13 0.500000 0.000000 0.500000
O O14 0.399071 0.975166 0.999815
O O15 0.248474 0.744783 0.074860
O O16 0.933198 0.689908 0.447019
O O17 0.000000 0.000000 0.500000
O O18 0.000000 0.000000 0.000000
#
# Coordination Sequence:
#
# PCOD9022631 Si02
#       8
#     2   2   2   2   2   2   2   2
#     4  12  23  41  70 100 125 169 222 284 343 398
#     4  12  26  48  67  99 140 180 230 279 341 414
#     4  10  22  39  63  92 128 173 217 272 334 379
#     4   9  18  36  63  95 125 159 205 274 332 383
#     4  12  25  47  66  94 142 175 220 280 337 404
#     4  12  28  46  67  99 139 191 227 272 338 427
#     4  12  21  40  69  95 124 165 225 279 338 389
#     4   9  19  39  65  95 128 159 222 281 321 386
#
# _framework density 23.366803999999998
#
# number of rings (size 3 to 8) (size 9 to 14) (size 15 to 20)
#    0.000    1.000    2.500    4.500    1.750    1.000 
#    6.750    0.000    0.000    0.000    0.000    0.000 
#    0.000    0.000    0.000    0.000    0.000    0.000 
#
# Total GULP energy -89165.448063 kJ/mol
# GULP energy per Si atom -5572.840504 kJ/mol
# Density = 2.331362 g / cm^3
# Si number density = 23.366804 Si / 1000 Ang^3
#
#
#
# Elastic Constant Matrix: (Units=GPa)
#
#
# Indices 1 2 3 4 5 6 
#
# 1 129.7773 61.7647 9.7498 -6.0773 -29.2801 6.5431
# 2 61.7647 81.8932 20.6733 -3.0783 -21.5791 7.4084
# 3 9.7498 20.6733 104.2072 -11.8960 -23.1603 8.4775
# 4 -6.0773 -3.0783 -11.8960 20.4880 11.3886 -18.4413
# 5 -29.2801 -21.5791 -23.1603 11.3886 42.3099 -3.1554
# 6 6.5431 7.4084 8.4775 -18.4413 -3.1554 40.2207
#
#
#
# Elastic Compliance Matrix: (Units=1/GPa)
#
#
# Indices 1 2 3 4 5 6 
#
# 1 0.013004 -0.008800 0.001785 0.000298 0.005385 -0.000312
# 2 -0.008800 0.021063 -0.002784 -0.008880 0.005107 -0.005532
# 3 0.001785 -0.002784 0.011565 0.004048 0.005060 0.000038
# 4 0.000298 -0.008880 0.004048 0.109131 -0.027859 0.048586
# 5 0.005385 0.005107 0.005060 -0.027859 0.039297 -0.012574
# 6 -0.000312 -0.005532 0.000038 0.048586 -0.012574 0.047215
#
#
# Mechanical properties :
#
#
# Convention : Reuss Voigt Hill
#
# Bulk Modulus (GPa) = 38.41033 55.58369 46.99701
# Shear Modulus (GPa) = 18.54927 35.51640 27.03283
#
# Velocity S-wave (km/s) = 2.82056 3.90288 3.40500
# Velocity P-wave (km/s) = 5.20395 6.64448 5.96784
#
# Compressibility (1/GPa) = 0.02603466
#
# Stress axis : x y z
#
# Youngs Moduli (GPa) = 76.89760 47.47576 86.46739
#
# Poissons Ratio (x) = 0.41780 -0.15437
# Poissons Ratio (y) = 0.67672 0.24073
# Poissons Ratio (z) = -0.13729 0.13218
#
# Static dielectric constant tensor:
#      x y z
#    x 1.847900 0.003530 0.062900 
#    y 0.003530 1.975950 0.055970 
#    z 0.062900 0.055970 1.906230 
# 
# From -- ./inp_files/120588.got.cif
#   From: 2010.05.17/outbox.cif.g08.bks.cpg/sg2_61_cif.got.tgz:120588.got - 2010.06.03 11:33:40.
