data_PCOD9022364
_publ_section_title
;
Structure prediction by ZEFSAII (Michael W. Deem and Ramdas Pophale) SiO2 
 PCOD9022364
Probable space group: P -1
;
_chemical_formula_sum "Si O2"
_cell_formula_units_Z 16
_cell_length_a 8.009687
_cell_length_b 13.167865
_cell_length_c 17.874359
_cell_angle_alpha 156.469010
_cell_angle_beta 69.190717
_cell_angle_gamma 109.808450
_cell_volume 703.128370
_symmetry_space_group_name_H-M "P -1"
_symmetry_group_IT_number 2
_symmetry_cell_setting 'triclinic'
loop_
_space_group_symop_operation_xyz
x,y,z
-x,-y,-z
loop_
_atom_site_type_symbol
_atom_site_label
_atom_site_fract_x
_atom_site_fract_y
_atom_site_fract_z
Si Si1 0.620101 0.296527 0.407474
Si Si2 0.147018 0.527869 0.062382
Si Si3 0.577855 0.261909 0.228635
Si Si4 0.977033 0.225074 0.360484
Si Si5 0.178850 0.300508 0.699749
Si Si6 0.616739 0.981869 0.640872
Si Si7 0.757119 0.998809 0.360703
Si Si8 0.708012 0.156201 0.983201
O O1 0.650574 0.378505 0.372915
O O2 0.583512 0.546499 0.632825
O O3 0.790891 0.139272 0.293072
O O4 0.447330 0.124429 0.340822
O O5 0.305558 0.735348 0.169319
O O6 0.026667 0.621755 0.212843
O O7 0.219773 0.250690 0.863084
O O8 0.000000 0.500000 0.000000
O O9 0.483267 0.994276 0.085847
O O10 0.718174 0.233773 0.122051
O O11 0.000000 0.500000 0.500000
O O12 0.907862 0.202312 0.442797
O O13 0.138345 0.035902 0.194442
O O14 0.216274 0.102554 0.627510
O O15 0.232424 0.178165 0.530725
O O16 0.282427 0.575151 0.879567
O O17 0.446338 0.934929 0.580794
#
# Coordination Sequence:
#
# PCOD9022364 Si02
#       8
#     2   2   2   2   2   2   2   2
#     4  10  22  39  61  92 121 163 216 247 313 371
#     4  10  22  39  61  90 119 164 210 250 313 369
#     4  10  22  39  61  93 120 166 208 254 309 366
#     4  11  22  41  66  91 126 164 204 261 310 372
#     4  11  22  40  61  97 124 164 210 252 314 373
#     4  11  22  40  63  90 131 162 205 267 304 373
#     4  10  23  39  64  92 125 166 208 249 317 371
#     4  11  22  40  66  89 129 162 205 263 308 371
#
# _framework density 22.755447
#
# number of rings (size 3 to 8) (size 9 to 14) (size 15 to 20)
#    0.000    1.500    3.750    1.125    3.500    0.500 
#    0.000    0.000    0.000    0.000    0.000    0.000 
#    0.000    0.000    0.000    0.000    0.000    0.000 
#
# Total GULP energy -89105.299055 kJ/mol
# GULP energy per Si atom -5569.081191 kJ/mol
# Density = 2.270365 g / cm^3
# Si number density = 22.755447 Si / 1000 Ang^3
#
#
#
# Elastic Constant Matrix: (Units=GPa)
#
#
# Indices 1 2 3 4 5 6 
#
# 1 28.4603 18.4449 3.4853 -4.5730 -6.4814 3.0052
# 2 18.4449 134.7758 24.7751 13.2155 2.1845 8.2290
# 3 3.4853 24.7751 60.5552 13.0641 -0.8763 0.0833
# 4 -4.5730 13.2155 13.0641 55.2436 10.8799 -2.2140
# 5 -6.4814 2.1845 -0.8763 10.8799 17.8632 4.6235
# 6 3.0052 8.2290 0.0833 -2.2140 4.6235 29.6495
#
#
#
# Elastic Compliance Matrix: (Units=1/GPa)
#
#
# Indices 1 2 3 4 5 6 
#
# 1 0.043777 -0.006074 -0.000111 0.001531 0.017060 -0.005297
# 2 -0.006074 0.009109 -0.003053 -0.001628 -0.002034 -0.001708
# 3 -0.000111 -0.003053 0.018806 -0.004532 0.004059 -0.000166
# 4 0.001531 -0.001628 -0.004532 0.022694 -0.014389 0.004248
# 5 0.017060 -0.002034 0.004059 -0.014389 0.074992 -0.013945
# 6 -0.005297 -0.001708 -0.000166 0.004248 -0.013945 0.037231
#
#
# Mechanical properties :
#
#
# Convention : Reuss Voigt Hill
#
# Bulk Modulus (GPa) = 18.79112 35.24467 27.01789
# Shear Modulus (GPa) = 20.59110 32.35697 26.47404
#
# Velocity S-wave (km/s) = 3.01140 3.77496 3.41459
# Velocity P-wave (km/s) = 4.51300 5.87558 5.23878
#
# Compressibility (1/GPa) = 0.05321662
#
# Stress axis : x y z
#
# Youngs Moduli (GPa) = 22.84300 109.77994 53.17422
#
# Poissons Ratio (x) = 0.66681 0.00588
# Poissons Ratio (y) = 0.13875 0.16235
# Poissons Ratio (z) = 0.00253 0.33518
#
# Static dielectric constant tensor:
#      x y z
#    x 1.943440 -0.012970 0.006230 
#    y -0.012970 1.972060 0.031990 
#    z 0.006230 0.031990 1.910910 
# 
# From -- ./inp_files/575919.got.cif
#   From: 2010.05.17/outbox.cif.g08.bks.cpg/sg2_288_cif.got.tgz:575919.got - 2010.06.03 11:33:40.
