data_PCOD9022219
_publ_section_title
;
Structure prediction by ZEFSAII (Michael W. Deem and Ramdas Pophale) SiO2 
 PCOD9022219
Probable space group: P -1
;
_chemical_formula_sum "Si O2"
_cell_formula_units_Z 14
_cell_length_a 5.194646
_cell_length_b 8.152498
_cell_length_c 19.517699
_cell_angle_alpha 127.342197
_cell_angle_beta 119.115949
_cell_angle_gamma 54.817909
_cell_volume 525.007838
_symmetry_space_group_name_H-M "P -1"
_symmetry_group_IT_number 2
_symmetry_cell_setting 'triclinic'
loop_
_space_group_symop_operation_xyz
x,y,z
-x,-y,-z
loop_
_atom_site_type_symbol
_atom_site_label
_atom_site_fract_x
_atom_site_fract_y
_atom_site_fract_z
Si Si1 0.287446 0.625613 0.425415
Si Si2 0.150904 0.016923 0.431645
Si Si3 0.306705 0.233334 0.394903
Si Si4 0.593181 0.813662 0.248717
Si Si5 0.546762 0.214348 0.032048
Si Si6 0.733718 0.924839 0.857694
Si Si7 0.259686 0.511602 0.186665
O O1 0.216467 0.406889 0.365129
O O2 0.621017 0.613836 0.498198
O O3 0.057751 0.807738 0.494465
O O4 0.225211 0.751681 0.378019
O O5 0.084631 0.130381 0.376985
O O6 0.500000 0.000000 0.500000
O O7 0.606919 0.009114 0.350972
O O8 0.478269 0.655000 0.240566
O O9 0.904108 0.668967 0.207348
O O10 0.326188 0.976339 0.201645
O O11 0.273861 0.425284 0.087311
O O12 0.893655 0.189824 0.099302
O O13 0.500000 0.000000 0.000000
O O14 0.575029 0.155443 0.940883
O O15 0.615174 0.724150 0.811933
#
# Coordination Sequence:
#
# PCOD9022219 Si02
#       7
#     2   2   2   2   2   2   2
#     4   9  19  39  65  87 121 162 218 269 322 384
#     4   9  18  36  60  88 116 153 209 265 323 384
#     4  10  22  39  59  92 123 167 214 273 321 400
#     4  12  28  42  69  99 141 184 226 272 355 406
#     4   9  20  44  74  98 138 177 229 286 329 392
#     4  10  23  47  69 103 138 179 229 285 333 401
#     4  11  25  47  65 101 139 181 225 283 332 410
#
# _framework density 26.666270000000001
#
# number of rings (size 3 to 8) (size 9 to 14) (size 15 to 20)
#    0.000    2.000    1.429    0.429    6.000    2.286 
#    5.143    0.000    0.000    0.000    0.000    0.000 
#    0.000    0.000    0.000    0.000    0.000    0.000 
#
# Total GULP energy -78057.378511 kJ/mol
# GULP energy per Si atom -5575.527036 kJ/mol
# Density = 2.660558 g / cm^3
# Si number density = 26.666270 Si / 1000 Ang^3
#
#
#
# Elastic Constant Matrix: (Units=GPa)
#
#
# Indices 1 2 3 4 5 6 
#
# 1 113.8934 57.2319 26.4782 21.7972 -24.5566 20.3327
# 2 57.2319 143.6357 47.1090 24.3148 2.1341 40.0469
# 3 26.4782 47.1090 104.6415 19.7134 -13.0411 1.3887
# 4 21.7972 24.3148 19.7134 53.2042 -2.5358 0.9379
# 5 -24.5566 2.1341 -13.0411 -2.5358 32.9035 6.4499
# 6 20.3327 40.0469 1.3887 0.9379 6.4499 49.1265
#
#
#
# Elastic Compliance Matrix: (Units=1/GPa)
#
#
# Indices 1 2 3 4 5 6 
#
# 1 0.015011 -0.004614 0.000530 -0.003585 0.012221 -0.004003
# 2 -0.004614 0.013039 -0.004744 -0.002401 -0.004804 -0.007909
# 3 0.000530 -0.004744 0.012621 -0.002535 0.004984 0.002685
# 4 -0.003585 -0.002401 -0.002535 0.022122 -0.002489 0.003417
# 5 0.012221 -0.004804 0.004984 -0.002489 0.042955 -0.006875
# 6 -0.004003 -0.007909 0.002685 0.003417 -0.006875 0.029221
#
#
# Mechanical properties :
#
#
# Convention : Reuss Voigt Hill
#
# Bulk Modulus (GPa) = 43.44840 69.31209 56.38025
# Shear Modulus (GPa) = 31.19210 42.47028 36.83119
#
# Velocity S-wave (km/s) = 3.42383 3.99514 3.72047
# Velocity P-wave (km/s) = 5.65322 6.87971 6.29640
#
# Compressibility (1/GPa) = 0.02301581
#
# Stress axis : x y z
#
# Youngs Moduli (GPa) = 66.61853 76.69113 79.23147
#
# Poissons Ratio (x) = 0.35383 -0.04201
# Poissons Ratio (y) = 0.30736 0.37590
# Poissons Ratio (z) = -0.03532 0.36385
#
# Static dielectric constant tensor:
#      x y z
#    x 2.598670 0.133270 0.038450 
#    y 0.133270 2.150640 -0.014740 
#    z 0.038450 -0.014740 2.137840 
# 
# From -- ./inp_files/582613.got.cif
#   From: 2010.05.17/outbox.cif.g08.bks.cpg/sg2_292_cif.got.tgz:582613.got - 2010.06.03 11:33:40.
