data_PCOD9022469
_publ_section_title
;
Structure prediction by ZEFSAII (Michael W. Deem and Ramdas Pophale) SiO2 
 PCOD9022469
Probable space group: P -1
;
_chemical_formula_sum "Si O2"
_cell_formula_units_Z 16
_cell_length_a 14.072219
_cell_length_b 12.977279
_cell_length_c 5.030597
_cell_angle_alpha 116.221059
_cell_angle_beta 80.057799
_cell_angle_gamma 107.545913
_cell_volume 784.967743
_symmetry_space_group_name_H-M "P -1"
_symmetry_group_IT_number 2
_symmetry_cell_setting 'triclinic'
loop_
_space_group_symop_operation_xyz
x,y,z
-x,-y,-z
loop_
_atom_site_type_symbol
_atom_site_label
_atom_site_fract_x
_atom_site_fract_y
_atom_site_fract_z
Si Si1 0.774597 0.091719 0.825866
Si Si2 0.992008 0.081881 0.845557
Si Si3 0.699283 0.943856 0.188587
Si Si4 0.333976 0.485413 0.327713
Si Si5 0.497564 0.800793 0.350319
Si Si6 0.622741 0.627119 0.318778
Si Si7 0.635109 0.253440 0.170204
Si Si8 0.800318 0.737604 0.037443
O O1 0.886328 0.112864 0.904970
O O2 0.763771 0.038111 0.473580
O O3 0.729338 0.204407 0.994284
O O4 0.707729 0.994425 0.946782
O O5 0.085038 0.196772 0.924695
O O6 0.000000 0.000000 0.500000
O O7 0.000000 0.000000 0.000000
O O8 0.588434 0.905534 0.319240
O O9 0.744819 0.829384 0.034629
O O10 0.391855 0.422409 0.436968
O O11 0.333656 0.613417 0.577439
O O12 0.381857 0.479390 0.009368
O O13 0.226932 0.389810 0.239833
O O14 0.428111 0.825060 0.649879
O O15 0.550181 0.705337 0.349232
O O16 0.431758 0.754695 0.070121
O O17 0.736706 0.706318 0.306401
#
# Coordination Sequence:
#
# PCOD9022469 Si02
#       8
#     2   2   2   2   2   2   2   2
#     4  12  25  42  62  91 129 163 194 261 296 384
#     4  12  23  39  68  96 118 153 202 257 315 359
#     4  11  23  41  64  91 126 156 209 249 317 344
#     4  10  22  39  62  89 127 163 193 267 292 358
#     4  11  24  39  64  92 119 173 203 256 293 365
#     4   9  21  37  62  90 120 155 209 252 298 340
#     4  12  26  41  58  90 131 166 212 231 309 363
#     4   9  22  38  65  94 120 149 200 263 313 347
#
# _framework density 20.383005000000001
#
# number of rings (size 3 to 8) (size 9 to 14) (size 15 to 20)
#    0.750    0.500    2.500    3.000    5.250    6.000 
#    0.000    0.625    0.000    0.750    0.000    0.000 
#    0.000    0.000    0.000    0.000    0.000    0.000 
#
# Total GULP energy -89389.741986 kJ/mol
# GULP energy per Si atom -5586.858874 kJ/mol
# Density = 2.033661 g / cm^3
# Si number density = 20.383005 Si / 1000 Ang^3
#
#
#
# Elastic Constant Matrix: (Units=GPa)
#
#
# Indices 1 2 3 4 5 6 
#
# 1 122.1178 33.3059 32.1685 18.7848 -1.1069 22.2776
# 2 33.3059 48.0920 9.1597 7.5886 3.1052 18.5847
# 3 32.1685 9.1597 78.7057 -14.9200 11.8448 1.3330
# 4 18.7848 7.5886 -14.9200 24.0624 -2.5646 3.5537
# 5 -1.1069 3.1052 11.8448 -2.5646 25.4506 4.6148
# 6 22.2776 18.5847 1.3330 3.5537 4.6148 29.8724
#
#
#
# Elastic Compliance Matrix: (Units=1/GPa)
#
#
# Indices 1 2 3 4 5 6 
#
# 1 0.015506 -0.003942 -0.009402 -0.014969 0.005428 -0.007750
# 2 -0.003942 0.031049 -0.002858 -0.006257 -0.000462 -0.015434
# 3 -0.009402 -0.002858 0.021955 0.019815 -0.009537 0.006926
# 4 -0.014969 -0.006257 0.019815 0.066094 -0.003697 0.006880
# 5 0.005428 -0.000462 -0.009537 -0.003697 0.045448 -0.009916
# 6 -0.007750 -0.015434 0.006926 0.006880 -0.009916 0.049262
#
#
# Mechanical properties :
#
#
# Convention : Reuss Voigt Hill
#
# Bulk Modulus (GPa) = 27.69496 44.24263 35.96880
# Shear Modulus (GPa) = 18.26461 27.49585 22.88023
#
# Velocity S-wave (km/s) = 2.99669 3.67680 3.35403
# Velocity P-wave (km/s) = 5.05869 6.30698 5.71700
#
# Compressibility (1/GPa) = 0.03610765
#
# Stress axis : x y z
#
# Youngs Moduli (GPa) = 64.49049 32.20730 45.54689
#
# Poissons Ratio (x) = 0.12695 0.42824
# Poissons Ratio (y) = 0.25419 0.13016
# Poissons Ratio (z) = 0.60635 0.09204
#
# Static dielectric constant tensor:
#      x y z
#    x 1.729100 0.023330 0.009850 
#    y 0.023330 1.761150 0.007070 
#    z 0.009850 0.007070 1.723940 
# 
# From -- ./inp_files/78571.got.cif
#   From: 2010.05.17/outbox.cif.g08.bks.cpg/sg2_40_cif.got.tgz:78571.got - 2010.06.03 11:33:40.
