data_PCOD9022737
_publ_section_title
;
Structure prediction by ZEFSAII (Michael W. Deem and Ramdas Pophale) SiO2 
 PCOD9022737
Probable space group: P -1
;
_chemical_formula_sum "Si O2"
_cell_formula_units_Z 16
_cell_length_a 9.125519
_cell_length_b 11.704270
_cell_length_c 22.635786
_cell_angle_alpha 149.994407
_cell_angle_beta 137.849922
_cell_angle_gamma 53.905516
_cell_volume 801.210433
_symmetry_space_group_name_H-M "P -1"
_symmetry_group_IT_number 2
_symmetry_cell_setting 'triclinic'
loop_
_space_group_symop_operation_xyz
x,y,z
-x,-y,-z
loop_
_atom_site_type_symbol
_atom_site_label
_atom_site_fract_x
_atom_site_fract_y
_atom_site_fract_z
Si Si1 0.246603 0.401854 0.865099
Si Si2 0.162132 0.158393 0.392085
Si Si3 0.898707 0.389685 0.860971
Si Si4 0.072639 0.036609 0.438312
Si Si5 0.346348 0.285639 0.123584
Si Si6 0.172127 0.819864 0.802947
Si Si7 0.338147 0.633169 0.375600
Si Si8 0.056720 0.440733 0.698889
O O1 0.182252 0.493455 0.822672
O O2 0.083667 0.453364 0.892956
O O3 0.500000 0.500000 0.000000
O O4 0.169166 0.123122 0.710212
O O5 0.110120 0.194953 0.461960
O O6 0.402762 0.289921 0.507827
O O7 0.989157 0.210724 0.314936
O O8 0.155062 0.882388 0.267304
O O9 0.679138 0.495700 0.827423
O O10 0.000000 0.500000 0.000000
O O11 0.106177 0.202876 0.578735
O O12 0.236844 0.843377 0.406529
O O13 0.585333 0.211390 0.161187
O O14 0.295551 0.391469 0.218748
O O15 0.185960 0.071575 0.950669
O O16 0.110751 0.637658 0.755115
O O17 0.201436 0.598709 0.379208
#
# Coordination Sequence:
#
# PCOD9022737 Si02
#       8
#     2   2   2   2   2   2   2   2
#     4  10  22  39  64 100 127 161 211 268 319 369
#     4  11  23  41  66  99 123 166 226 260 314 374
#     4  11  22  40  70  97 122 160 226 270 300 374
#     4  10  22  41  66  96 129 166 216 271 314 369
#     4  11  23  45  64  94 127 170 215 261 320 372
#     4  11  27  41  65  94 134 176 203 262 327 387
#     4  11  22  41  67  95 125 169 216 270 314 373
#     4  11  24  43  61  95 139 169 205 256 338 382
#
# _framework density 19.969785999999999
#
# number of rings (size 3 to 8) (size 9 to 14) (size 15 to 20)
#    0.000    1.250    5.000    2.625    3.500    5.000 
#    0.000    0.000    0.000    0.000    0.000    0.000 
#    0.000    0.000    0.000    0.000    0.000    0.000 
#
# Total GULP energy -89255.094148 kJ/mol
# GULP energy per Si atom -5578.443384 kJ/mol
# Density = 1.992433 g / cm^3
# Si number density = 19.969786 Si / 1000 Ang^3
#
#
#
# Elastic Constant Matrix: (Units=GPa)
#
#
# Indices 1 2 3 4 5 6 
#
# 1 76.6124 20.3908 42.2327 -0.6682 -19.7459 3.1314
# 2 20.3908 62.0244 23.5520 -3.9997 -8.5438 1.3339
# 3 42.2327 23.5520 72.2452 -17.8942 -11.7929 -9.0514
# 4 -0.6682 -3.9997 -17.8942 33.3881 -6.3922 1.3918
# 5 -19.7459 -8.5438 -11.7929 -6.3922 40.6077 -1.5559
# 6 3.1314 1.3339 -9.0514 1.3918 -1.5559 28.9337
#
#
#
# Elastic Compliance Matrix: (Units=1/GPa)
#
#
# Indices 1 2 3 4 5 6 
#
# 1 0.022995 -0.001626 -0.014318 -0.006096 0.005480 -0.006305
# 2 -0.001626 0.018917 -0.005306 -0.000224 0.001527 -0.002263
# 3 -0.014318 -0.005306 0.029527 0.015093 0.003274 0.010481
# 4 -0.006096 -0.000224 0.015093 0.039200 0.007693 0.003920
# 5 0.005480 0.001527 0.003274 0.007693 0.029835 0.001595
# 6 -0.006305 -0.002263 0.010481 0.003920 0.001595 0.038525
#
#
# Mechanical properties :
#
#
# Convention : Reuss Voigt Hill
#
# Bulk Modulus (GPa) = 34.55457 42.58144 38.56800
# Shear Modulus (GPa) = 21.63157 28.89966 25.26562
#
# Velocity S-wave (km/s) = 3.29479 3.80829 3.56081
# Velocity P-wave (km/s) = 5.64050 6.38018 6.02171
#
# Compressibility (1/GPa) = 0.02893973
#
# Stress axis : x y z
#
# Youngs Moduli (GPa) = 43.48778 52.86375 33.86720
#
# Poissons Ratio (x) = 0.08594 0.48489
# Poissons Ratio (y) = 0.07069 0.17971
# Poissons Ratio (z) = 0.62264 0.28051
#
# Static dielectric constant tensor:
#      x y z
#    x 1.727580 0.000790 -0.021840 
#    y 0.000790 1.708730 -0.001720 
#    z -0.021840 -0.001720 1.732590 
# 
# From -- ./inp_files/607710.got.cif
#   From: 2010.05.17/outbox.cif.g08.bks.cpg/sg2_304_cif.got.tgz:607710.got - 2010.06.03 11:33:40.
