data_PCOD9022280
_publ_section_title
;
Structure prediction by ZEFSAII (Michael W. Deem and Ramdas Pophale) SiO2 
 PCOD9022280
Probable space group: P -1
;
_chemical_formula_sum "Si O2"
_cell_formula_units_Z 12
_cell_length_a 9.635042
_cell_length_b 9.614876
_cell_length_c 13.046123
_cell_angle_alpha 130.079548
_cell_angle_beta 33.067515
_cell_angle_gamma 110.006141
_cell_volume 444.575856
_symmetry_space_group_name_H-M "P -1"
_symmetry_group_IT_number 2
_symmetry_cell_setting 'triclinic'
loop_
_space_group_symop_operation_xyz
x,y,z
-x,-y,-z
loop_
_atom_site_type_symbol
_atom_site_label
_atom_site_fract_x
_atom_site_fract_y
_atom_site_fract_z
Si Si1 0.832571 0.215844 0.564527
Si Si2 0.276598 0.191097 0.869288
Si Si3 0.680225 0.446634 0.467750
Si Si4 0.840643 0.269070 0.819515
Si Si5 0.694650 0.748863 0.350781
Si Si6 0.333468 0.248053 0.214227
O O1 0.887221 0.267546 0.669814
O O2 0.005990 0.291701 0.417567
O O3 0.990564 0.965004 0.348836
O O4 0.503367 0.715095 0.207262
O O5 0.213736 0.195786 0.788461
O O6 0.475710 0.946501 0.646989
O O7 0.006043 0.289328 0.158372
O O8 0.500000 0.500000 0.500000
O O9 0.504534 0.356821 0.598742
O O10 0.654535 0.644423 0.636468
O O11 0.013528 0.369810 0.819752
O O12 0.510539 0.317118 0.060963
O O13 0.500000 0.000000 0.000000
#
# Coordination Sequence:
#
# PCOD9022280 Si02
#       6
#     2   2   2   2   2   2
#     4   9  19  37  61  88 122 165 211 258 315 379
#     4  10  23  42  65  95 132 169 212 271 329 384
#     4  12  25  40  67 100 129 170 222 271 321 388
#     4   9  18  36  63  89 119 165 212 258 313 379
#     4  10  22  42  66  95 131 170 213 267 329 386
#     4  10  22  39  60  90 127 167 211 260 317 378
#
# _framework density 26.992018000000002
#
# number of rings (size 3 to 8) (size 9 to 14) (size 15 to 20)
#    0.000    2.000    0.000    2.500    0.000    8.667 
#    0.000    6.667    0.000    0.000    0.000    0.000 
#    0.000    0.000    0.000    0.000    0.000    0.000 
#
# Total GULP energy -67192.611713 kJ/mol
# GULP energy per Si atom -5599.384309 kJ/mol
# Density = 2.693058 g / cm^3
# Si number density = 26.992018 Si / 1000 Ang^3
#
#
#
# Elastic Constant Matrix: (Units=GPa)
#
#
# Indices 1 2 3 4 5 6 
#
# 1 109.9836 28.5639 28.1854 -17.5925 -9.8959 33.9857
# 2 28.5639 122.2176 63.0271 -25.0683 -5.9530 37.9556
# 3 28.1854 63.0271 183.8630 -9.0255 -18.9862 22.0186
# 4 -17.5925 -25.0683 -9.0255 59.6121 9.5232 -3.2678
# 5 -9.8959 -5.9530 -18.9862 9.5232 50.5096 -8.6069
# 6 33.9857 37.9556 22.0186 -3.2678 -8.6069 46.0227
#
#
#
# Elastic Compliance Matrix: (Units=1/GPa)
#
#
# Indices 1 2 3 4 5 6 
#
# 1 0.012560 0.001338 -0.001064 0.003596 -0.000101 -0.009633
# 2 0.001338 0.014248 -0.003745 0.005599 -0.002396 -0.010997
# 3 -0.001064 -0.003745 0.006963 -0.001159 0.002339 0.000898
# 4 0.003596 0.005599 -0.001159 0.020313 -0.003925 -0.006011
# 5 -0.000101 -0.002396 0.002339 -0.003925 0.021925 0.004753
# 6 -0.009633 -0.010997 0.000898 -0.006011 0.004753 0.037943
#
#
# Mechanical properties :
#
#
# Convention : Reuss Voigt Hill
#
# Bulk Modulus (GPa) = 37.27477 72.84635 55.06056
# Shear Modulus (GPa) = 38.50963 50.98138 44.74550
#
# Velocity S-wave (km/s) = 3.78127 4.35070 4.07594
# Velocity P-wave (km/s) = 5.73616 7.23082 6.52642
#
# Compressibility (1/GPa) = 0.02682780
#
# Stress axis : x y z
#
# Youngs Moduli (GPa) = 79.61564 70.18772 143.62274
#
# Poissons Ratio (x) = -0.09388 0.15286
# Poissons Ratio (y) = -0.10649 0.53781
# Poissons Ratio (z) = 0.08473 0.26283
#
# Static dielectric constant tensor:
#      x y z
#    x 2.071980 -0.007920 -0.052890 
#    y -0.007920 2.226920 0.056880 
#    z -0.052890 0.056880 2.121490 
# 
# From -- ./inp_files/151466.got.cif
#   From: 2010.05.17/outbox.cif.g08.bks.cpg/sg2_76_cif.got.tgz:151466.got - 2010.06.03 11:33:40.
