data_PCOD9022053
_publ_section_title
;
Structure prediction by ZEFSAII (Michael W. Deem and Ramdas Pophale) SiO2 
 PCOD9022053
Probable space group: P -1
;
_chemical_formula_sum "Si O2"
_cell_formula_units_Z 15
_cell_length_a 17.997248
_cell_length_b 12.263993
_cell_length_c 8.532195
_cell_angle_alpha 83.788404
_cell_angle_beta 136.305940
_cell_angle_gamma 128.265961
_cell_volume 796.446462
_symmetry_space_group_name_H-M "P -1"
_symmetry_group_IT_number 2
_symmetry_cell_setting 'triclinic'
loop_
_space_group_symop_operation_xyz
x,y,z
-x,-y,-z
loop_
_atom_site_type_symbol
_atom_site_label
_atom_site_fract_x
_atom_site_fract_y
_atom_site_fract_z
Si Si1 0.639986 0.027523 0.783728
Si Si2 0.438021 0.668402 0.693491
Si Si3 0.823828 0.090998 0.749902
Si Si4 0.191548 0.650301 0.840652
Si Si5 0.520369 0.268742 0.886151
Si Si6 0.416748 0.413082 0.557562
Si Si7 0.000000 0.000000 0.000000
Si Si8 0.093600 0.479396 0.051121
O O1 0.774215 0.103963 0.839067
O O2 0.500000 0.000000 0.500000
O O3 0.552204 0.844600 0.736611
O O4 0.728077 0.164224 0.039741
O O5 0.455827 0.556042 0.690127
O O6 0.239276 0.542623 0.373310
O O7 0.484537 0.724243 0.936150
O O8 0.647757 0.927577 0.410964
O O9 0.924688 0.058293 0.927129
O O10 0.947965 0.273628 0.819340
O O11 0.000000 0.500000 0.500000
O O12 0.314334 0.669631 0.924640
O O13 0.179725 0.592720 0.007106
O O14 0.512288 0.384018 0.782528
O O15 0.500000 0.500000 0.500000
O O16 0.208448 0.219370 0.269887
O O17 0.000000 0.500000 0.000000
#
# Coordination Sequence:
#
# PCOD9022053 Si02
#       8
#     2   2   2   2   2   2   1   2
#     4  12  23  44  66  95 132 182 229 275 343 415
#     4  12  24  43  66  96 137 175 221 280 343 402
#     4  11  22  42  66  95 132 173 228 272 341 405
#     4  12  26  42  64  98 135 173 230 283 339 410
#     4  11  26  42  66 100 134 175 223 284 340 408
#     4  11  23  46  73  99 134 184 232 281 347 409
#     4  10  22  38  70 100 126 168 230 276 328 412
#     4  12  22  40  66  92 128 181 218 277 337 401
#
# _framework density 18.833658
#
# number of rings (size 3 to 8) (size 9 to 14) (size 15 to 20)
#    0.000    0.533    5.333    3.600    1.867    0.533 
#    0.000    0.000    0.000    4.800    0.000    0.000 
#    0.000    0.000    0.000    0.000    0.000    0.000 
#
# Total GULP energy -83547.252033 kJ/mol
# GULP energy per Si atom -5569.816802 kJ/mol
# Density = 1.879079 g / cm^3
# Si number density = 18.833658 Si / 1000 Ang^3
#
#
#
# Elastic Constant Matrix: (Units=GPa)
#
#
# Indices 1 2 3 4 5 6 
#
# 1 103.1633 16.9441 27.5511 8.1353 10.5016 -15.3586
# 2 16.9441 99.0975 17.0284 25.1965 -3.9485 -15.5938
# 3 27.5511 17.0284 95.7591 5.9991 10.5930 -12.4225
# 4 8.1353 25.1965 5.9991 29.3946 1.5898 -6.5368
# 5 10.5016 -3.9485 10.5930 1.5898 35.0441 -2.7819
# 6 -15.3586 -15.5938 -12.4225 -6.5368 -2.7819 41.2875
#
#
#
# Elastic Compliance Matrix: (Units=1/GPa)
#
#
# Indices 1 2 3 4 5 6 
#
# 1 0.011226 -0.000892 -0.002367 -0.001106 -0.002478 0.002785
# 2 -0.000892 0.013828 -0.001475 -0.010814 0.002995 0.002937
# 3 -0.002367 -0.001475 0.011961 0.000076 -0.002919 0.001977
# 4 -0.001106 -0.010814 0.000076 0.044250 -0.002731 0.002349
# 5 -0.002478 0.002995 -0.002919 -0.002731 0.030699 0.000967
# 6 0.002785 0.002937 0.001977 0.002349 0.000967 0.027397
#
#
# Mechanical properties :
#
#
# Convention : Reuss Voigt Hill
#
# Bulk Modulus (GPa) = 36.30148 46.78523 41.54336
# Shear Modulus (GPa) = 31.64341 36.91166 34.27753
#
# Velocity S-wave (km/s) = 4.10341 4.43185 4.27079
# Velocity P-wave (km/s) = 6.46276 7.14728 6.81362
#
# Compressibility (1/GPa) = 0.02754708
#
# Stress axis : x y z
#
# Youngs Moduli (GPa) = 89.07912 72.31626 83.60763
#
# Poissons Ratio (x) = 0.06452 0.19786
# Poissons Ratio (y) = 0.07947 0.12334
# Poissons Ratio (z) = 0.21081 0.10668
#
# Static dielectric constant tensor:
#      x y z
#    x 1.642550 -0.027410 -0.011560 
#    y -0.027410 1.691530 0.032820 
#    z -0.011560 0.032820 1.656200 
# 
# From -- ./inp_files/175838.got.cif
#   From: 2010.05.17/outbox.cif.g08.bks.cpg/sg2_88_cif.got.tgz:175838.got - 2010.06.03 11:33:40.
