data_PCOD9022027
_publ_section_title
;
Structure prediction by ZEFSAII (Michael W. Deem and Ramdas Pophale) SiO2 
 PCOD9022027
Probable space group: P -1
;
_chemical_formula_sum "Si O2"
_cell_formula_units_Z 16
_cell_length_a 9.378545
_cell_length_b 12.223712
_cell_length_c 9.901953
_cell_angle_alpha 88.337450
_cell_angle_beta 136.385893
_cell_angle_gamma 103.693128
_cell_volume 743.414268
_symmetry_space_group_name_H-M "P -1"
_symmetry_group_IT_number 2
_symmetry_cell_setting 'triclinic'
loop_
_space_group_symop_operation_xyz
x,y,z
-x,-y,-z
loop_
_atom_site_type_symbol
_atom_site_label
_atom_site_fract_x
_atom_site_fract_y
_atom_site_fract_z
Si Si1 0.148983 0.358339 0.617395
Si Si2 0.380207 0.706584 0.377467
Si Si3 0.982181 0.894582 0.395099
Si Si4 0.858805 0.106961 0.781755
Si Si5 0.342478 0.133109 0.214941
Si Si6 0.393774 0.663197 0.082672
Si Si7 0.493004 0.126880 0.030516
Si Si8 0.951719 0.492460 0.693209
O O1 0.027557 0.221616 0.529773
O O2 0.401360 0.375081 0.826363
O O3 0.127300 0.424725 0.464134
O O4 0.033108 0.407773 0.654474
O O5 0.219041 0.783370 0.256240
O O6 0.562142 0.773442 0.607151
O O7 0.458273 0.700387 0.279333
O O8 0.243560 0.582471 0.345635
O O9 0.747499 0.871502 0.168925
O O10 0.143212 0.920340 0.378106
O O11 0.000000 0.000000 0.500000
O O12 0.704281 0.995507 0.754979
O O13 0.103858 0.134364 0.004737
O O14 0.504925 0.150199 0.198016
O O15 0.367178 0.769108 0.970959
O O16 0.163537 0.564636 0.919093
O O17 0.500000 0.000000 0.000000
#
# Coordination Sequence:
#
# PCOD9022027 Si02
#       8
#     2   2   2   2   2   2   2   2
#     4  10  24  45  67 102 129 182 226 271 338 401
#     4  12  25  42  69  99 133 180 221 279 340 394
#     4  10  22  38  68  98 133 170 218 279 330 397
#     4  10  22  43  63  97 138 178 217 269 343 401
#     4  10  24  40  64  95 136 178 219 270 335 406
#     4  11  26  43  68 100 134 173 229 285 328 394
#     4  10  23  39  62  99 129 172 218 272 334 395
#     4  11  25  44  71  94 135 182 227 276 335 400
#
# _framework density 21.522320000000001
#
# number of rings (size 3 to 8) (size 9 to 14) (size 15 to 20)
#    0.000    1.500    1.250    1.875   10.500    2.500 
#    0.000    0.000    0.000    0.000    0.000    0.000 
#    0.000    0.000    0.000    0.000    0.000    0.000 
#
# Total GULP energy -89448.257606 kJ/mol
# GULP energy per Si atom -5590.516100 kJ/mol
# Density = 2.147333 g / cm^3
# Si number density = 21.522320 Si / 1000 Ang^3
#
#
#
# Elastic Constant Matrix: (Units=GPa)
#
#
# Indices 1 2 3 4 5 6 
#
# 1 66.8781 40.2925 21.0903 -10.3049 -17.3067 14.9173
# 2 40.2925 121.0514 42.5279 -3.4136 -11.4347 9.4209
# 3 21.0903 42.5279 98.3490 5.7332 -5.7832 13.8089
# 4 -10.3049 -3.4136 5.7332 33.0619 -3.2259 4.5759
# 5 -17.3067 -11.4347 -5.7832 -3.2259 35.2916 -1.4081
# 6 14.9173 9.4209 13.8089 4.5759 -1.4081 36.2445
#
#
#
# Elastic Compliance Matrix: (Units=1/GPa)
#
#
# Indices 1 2 3 4 5 6 
#
# 1 0.025341 -0.005880 -0.001549 0.009879 0.010806 -0.009138
# 2 -0.005880 0.011513 -0.003825 -0.000082 0.000249 0.000905
# 3 -0.001549 -0.003825 0.012699 -0.002709 -0.000280 -0.002875
# 4 0.009879 -0.000082 -0.002709 0.035500 0.007331 -0.007210
# 5 0.010806 0.000249 -0.000280 0.007331 0.034180 -0.004003
# 6 -0.009138 0.000905 -0.002875 -0.007210 -0.004003 0.032967
#
#
# Mechanical properties :
#
#
# Convention : Reuss Voigt Hill
#
# Bulk Modulus (GPa) = 36.97585 54.89998 45.93792
# Shear Modulus (GPa) = 27.21514 33.07744 30.14629
#
# Velocity S-wave (km/s) = 3.55985 3.92457 3.74665
# Velocity P-wave (km/s) = 5.84074 6.78971 6.33302
#
# Compressibility (1/GPa) = 0.02704468
#
# Stress axis : x y z
#
# Youngs Moduli (GPa) = 39.46252 86.86057 78.74496
#
# Poissons Ratio (x) = 0.51074 0.12196
# Poissons Ratio (y) = 0.23204 0.30120
# Poissons Ratio (z) = 0.06112 0.33225
#
# Static dielectric constant tensor:
#      x y z
#    x 1.769280 -0.020630 -0.029800 
#    y -0.020630 1.736490 -0.015810 
#    z -0.029800 -0.015810 1.805090 
# 
# From -- ./inp_files/188064.got.cif
#   From: 2010.05.17/outbox.cif.g08.bks.cpg/sg2_95_cif.got.tgz:188064.got - 2010.06.03 11:33:40.
