data_PCOD9022233
_publ_section_title
;
Structure prediction by ZEFSAII (Michael W. Deem and Ramdas Pophale) SiO2 
 PCOD9022233
Probable space group: P -1
;
_chemical_formula_sum "Si O2"
_cell_formula_units_Z 12
_cell_length_a 10.908191
_cell_length_b 5.207898
_cell_length_c 9.794384
_cell_angle_alpha 73.358060
_cell_angle_beta 118.510488
_cell_angle_gamma 81.653477
_cell_volume 441.419923
_symmetry_space_group_name_H-M "P -1"
_symmetry_group_IT_number 2
_symmetry_cell_setting 'triclinic'
loop_
_space_group_symop_operation_xyz
x,y,z
-x,-y,-z
loop_
_atom_site_type_symbol
_atom_site_label
_atom_site_fract_x
_atom_site_fract_y
_atom_site_fract_z
Si Si1 0.396700 0.345928 0.532076
Si Si2 0.130292 0.718192 0.993642
Si Si3 0.213313 0.120182 0.795293
Si Si4 0.377447 0.577589 0.804926
Si Si5 0.088037 0.775641 0.287812
Si Si6 0.600953 0.770073 0.749952
O O1 0.500000 0.500000 0.500000
O O2 0.243410 0.580991 0.459459
O O3 0.358054 0.205371 0.390723
O O4 0.504158 0.074790 0.709322
O O5 0.096712 0.724407 0.135810
O O6 0.243605 0.406999 0.070579
O O7 0.223663 0.921319 0.966058
O O8 0.979689 0.874574 0.804807
O O9 0.307239 0.328294 0.804179
O O10 0.039747 0.298384 0.688507
O O11 0.257918 0.884038 0.734389
O O12 0.481901 0.606483 0.732447
O O13 0.500000 0.500000 0.000000
#
# Coordination Sequence:
#
# PCOD9022233 Si02
#       6
#     2   2   2   2   2   2
#     4  10  22  41  64  87 125 164 218 263 313 373
#     4   8  16  38  62  88 124 159 213 265 313 363
#     4  10  22  39  59  97 126 168 201 262 319 372
#     4  12  23  38  65  95 135 163 209 261 318 385
#     4   8  17  40  60  90 124 161 214 260 317 367
#     4  10  22  39  60  94 119 168 212 260 316 372
#
# _framework density 27.184996000000002
#
# number of rings (size 3 to 8) (size 9 to 14) (size 15 to 20)
#    1.000    1.333    1.667    0.500    2.333    1.333 
#    9.000    4.167    0.000    0.000    0.000    0.000 
#    0.000    0.000    0.000    0.000    0.000    0.000 
#
# Total GULP energy -66922.165277 kJ/mol
# GULP energy per Si atom -5576.847106 kJ/mol
# Density = 2.712312 g / cm^3
# Si number density = 27.184996 Si / 1000 Ang^3
#
#
#
# Elastic Constant Matrix: (Units=GPa)
#
#
# Indices 1 2 3 4 5 6 
#
# 1 161.5023 75.3982 48.0071 -19.5891 6.6870 -28.2660
# 2 75.3982 158.1837 38.8147 -42.2195 16.7128 -10.0587
# 3 48.0071 38.8147 105.2377 -37.3415 22.7625 -21.3636
# 4 -19.5891 -42.2195 -37.3415 50.2992 -32.0972 3.2418
# 5 6.6870 16.7128 22.7625 -32.0972 68.0834 -15.0736
# 6 -28.2660 -10.0587 -21.3636 3.2418 -15.0736 54.2603
#
#
#
# Elastic Compliance Matrix: (Units=1/GPa)
#
#
# Indices 1 2 3 4 5 6 
#
# 1 0.009266 -0.003984 -0.002771 -0.001284 0.001140 0.003391
# 2 -0.003984 0.010163 0.000785 0.008664 0.001737 0.000082
# 3 -0.002771 0.000785 0.015103 0.011376 0.001355 0.004345
# 4 -0.001284 0.008664 0.011376 0.045731 0.017421 0.007524
# 5 0.001140 0.001737 0.001355 0.017421 0.023441 0.006921
# 6 0.003391 0.000082 0.004345 0.007524 0.006921 0.023395
#
#
# Mechanical properties :
#
#
# Convention : Reuss Voigt Hill
#
# Bulk Modulus (GPa) = 44.26926 83.26265 63.76596
# Shear Modulus (GPa) = 34.11332 52.04215 43.07773
#
# Velocity S-wave (km/s) = 3.54624 4.38010 3.98504
# Velocity P-wave (km/s) = 5.75218 7.50167 6.68441
#
# Compressibility (1/GPa) = 0.02258904
#
# Stress axis : x y z
#
# Youngs Moduli (GPa) = 107.91878 98.40093 66.21358
#
# Poissons Ratio (x) = 0.39206 0.18351
# Poissons Ratio (y) = 0.42998 -0.05195
# Poissons Ratio (z) = 0.29909 -0.07720
#
# Static dielectric constant tensor:
#      x y z
#    x 2.099090 -0.015890 -0.007370 
#    y -0.015890 2.318150 0.150490 
#    z -0.007370 0.150490 2.234870 
# 
# From -- ./inp_files/61810.got.cif
#   From: 2010.05.17/outbox.cif.g08.bks.cpg/sg2_31_cif.got.tgz:61810.got - 2010.06.03 11:33:40.
