data_PCOD9022447
_publ_section_title
;
Structure prediction by ZEFSAII (Michael W. Deem and Ramdas Pophale) SiO2 
 PCOD9022447
Probable space group: P -1
;
_chemical_formula_sum "Si O2"
_cell_formula_units_Z 16
_cell_length_a 19.398199
_cell_length_b 32.258716
_cell_length_c 14.782637
_cell_angle_alpha 164.380754
_cell_angle_beta 163.414408
_cell_angle_gamma 13.451315
_cell_volume 543.335902
_symmetry_space_group_name_H-M "P -1"
_symmetry_group_IT_number 2
_symmetry_cell_setting 'triclinic'
loop_
_space_group_symop_operation_xyz
x,y,z
-x,-y,-z
loop_
_atom_site_type_symbol
_atom_site_label
_atom_site_fract_x
_atom_site_fract_y
_atom_site_fract_z
Si Si1 0.821427 0.943437 0.879811
Si Si2 0.724241 0.631199 0.292524
Si Si3 0.958307 0.734275 0.963166
Si Si4 0.335745 0.056254 0.662663
Si Si5 0.643191 0.593737 0.714899
Si Si6 0.423675 0.841690 0.651531
Si Si7 0.755255 0.477700 0.407605
Si Si8 0.938686 0.200797 0.317662
O O1 0.562749 0.980482 0.701499
O O2 0.858382 0.862852 0.654795
O O3 0.665069 0.178487 0.168674
O O4 0.130712 0.746365 0.907451
O O5 0.919006 0.675586 0.692958
O O6 0.385575 0.855479 0.329821
O O7 0.764348 0.457705 0.034048
O O8 0.936999 0.556055 0.313202
O O9 0.655288 0.785251 0.741930
O O10 0.904854 0.940342 0.330274
O O11 0.019780 0.235021 0.591278
O O12 0.445637 0.107412 0.993948
O O13 0.674960 0.580716 0.620142
O O14 0.623199 0.423311 0.362551
O O15 0.000000 0.500000 0.000000
O O16 0.476433 0.647165 0.344814
O O17 0.000000 0.000000 0.000000
#
# Coordination Sequence:
#
# PCOD9022447 Si02
#       8
#     2   2   2   2   2   2   2   2
#     4  10  20  33  54  72 100 135 179 219 254 306
#     4   8  15  24  41  68 106 137 163 202 265 315
#     4   8  14  23  38  69 109 136 148 208 273 310
#     4  10  17  31  51  74 101 141 178 210 254 308
#     4  11  20  33  54  76 100 135 183 220 256 305
#     4   9  14  25  44  71 106 133 165 206 262 314
#     4   9  17  26  44  74  97 131 168 209 244 302
#     4  11  24  37  51  76 109 140 176 219 262 300
#
# _framework density 29.447713
#
# number of rings (size 3 to 8) (size 9 to 14) (size 15 to 20)
#    0.000    2.500    2.500    0.375    3.500    0.500 
#    0.000    0.000    0.000    0.000    0.000    0.000 
#    0.000  296.000    0.000    0.000    0.000    0.000 
#
# Total GULP energy -89347.763521 kJ/mol
# GULP energy per Si atom -5584.235220 kJ/mol
# Density = 2.938069 g / cm^3
# Si number density = 29.447713 Si / 1000 Ang^3
#
#
#
# Elastic Constant Matrix: (Units=GPa)
#
#
# Indices 1 2 3 4 5 6 
#
# 1 149.0483 38.6681 38.2241 10.4321 -8.0632 3.8233
# 2 38.6681 155.5905 49.3995 64.7461 3.1500 15.5787
# 3 38.2241 49.3995 159.2298 59.5084 14.7841 8.4901
# 4 10.4321 64.7461 59.5084 81.8098 10.5326 12.9298
# 5 -8.0632 3.1500 14.7841 10.5326 53.6086 21.8308
# 6 3.8233 15.5787 8.4901 12.9298 21.8308 43.5703
#
#
#
# Elastic Compliance Matrix: (Units=1/GPa)
#
#
# Indices 1 2 3 4 5 6 
#
# 1 0.007778 -0.002067 -0.002141 0.002131 0.001919 -0.001120
# 2 -0.002067 0.010343 0.000243 -0.007976 0.001343 -0.001870
# 3 -0.002141 0.000243 0.009328 -0.006639 -0.002145 0.001328
# 4 0.002131 -0.007976 -0.006639 0.023624 -0.000978 -0.002562
# 5 0.001919 0.001343 -0.002145 -0.000978 0.024653 -0.012293
# 6 -0.001120 -0.001870 0.001328 -0.002562 -0.012293 0.030379
#
#
# Mechanical properties :
#
#
# Convention : Reuss Voigt Hill
#
# Bulk Modulus (GPa) = 51.22909 79.60578 65.41743
# Shear Modulus (GPa) = 41.47998 58.30286 49.89142
#
# Velocity S-wave (km/s) = 3.75720 4.45441 4.12058
# Velocity P-wave (km/s) = 6.02133 7.31760 6.70089
#
# Compressibility (1/GPa) = 0.01952016
#
# Stress axis : x y z
#
# Youngs Moduli (GPa) = 128.56998 96.68617 107.20389
#
# Poissons Ratio (x) = 0.19983 0.22951
# Poissons Ratio (y) = 0.26573 -0.02609
# Poissons Ratio (z) = 0.27525 -0.02353
#
# Static dielectric constant tensor:
#      x y z
#    x 2.175600 -0.018870 0.058040 
#    y -0.018870 2.486550 -0.091490 
#    z 0.058040 -0.091490 2.507670 
# 
# From -- ./inp_files/453987.got.cif
#   From: 2010.05.17/outbox.cif.g08.bks.cpg/sg2_227_cif.got.tgz:453987.got - 2010.06.03 11:33:40.
