data_PCOD9022098
_publ_section_title
;
Structure prediction by ZEFSAII (Michael W. Deem and Ramdas Pophale) SiO2 
 PCOD9022098
Probable space group: P -1
;
_chemical_formula_sum "Si O2"
_cell_formula_units_Z 13
_cell_length_a 12.974608
_cell_length_b 9.284038
_cell_length_c 7.936690
_cell_angle_alpha 89.774999
_cell_angle_beta 114.751820
_cell_angle_gamma 42.219511
_cell_volume 500.247141
_symmetry_space_group_name_H-M "P -1"
_symmetry_group_IT_number 2
_symmetry_cell_setting 'triclinic'
loop_
_space_group_symop_operation_xyz
x,y,z
-x,-y,-z
loop_
_atom_site_type_symbol
_atom_site_label
_atom_site_fract_x
_atom_site_fract_y
_atom_site_fract_z
Si Si1 0.443062 0.662462 0.803882
Si Si2 0.846376 0.924937 0.134892
Si Si3 0.500000 0.000000 0.000000
Si Si4 0.186430 0.402116 0.289143
Si Si5 0.572918 0.079584 0.697007
Si Si6 0.807835 0.476701 0.061703
Si Si7 0.912698 0.056565 0.624840
O O1 0.638682 0.539634 0.886392
O O2 0.292434 0.928255 0.795521
O O3 0.318888 0.719231 0.569536
O O4 0.500000 0.500000 0.000000
O O5 0.987231 0.640564 0.249977
O O6 0.698968 0.070682 0.875190
O O7 0.990944 0.910573 0.209412
O O8 0.538428 0.003975 0.828568
O O9 0.692847 0.688007 0.122328
O O10 0.294954 0.136357 0.353338
O O11 0.129799 0.500258 0.059201
O O12 0.358819 0.328204 0.475058
O O13 0.988378 0.194478 0.250968
O O14 0.000000 0.000000 0.500000
#
# Coordination Sequence:
#
# PCOD9022098 Si02
#       7
#     2   2   1   2   2   2   2
#     4  11  22  40  66  97 126 169 217 269 315 379
#     4  11  22  38  69  91 124 175 208 263 325 375
#     4  10  22  38  72  90 122 174 212 262 308 392
#     4  10  25  40  65  94 137 165 210 271 317 389
#     4  10  22  44  64  94 132 171 214 259 326 375
#     4  11  22  44  62  98 130 166 219 263 325 375
#     4  10  23  38  66  96 127 164 217 273 303 386
#
# _framework density 25.987152999999999
#
# number of rings (size 3 to 8) (size 9 to 14) (size 15 to 20)
#    0.000    1.538    4.615    0.462    6.462    1.846 
#    0.000    7.692    0.000    0.000    0.000    0.000 
#    0.000    0.000    0.000    0.000    0.000    0.000 
#
# Total GULP energy -72494.374086 kJ/mol
# GULP energy per Si atom -5576.490314 kJ/mol
# Density = 2.592801 g / cm^3
# Si number density = 25.987153 Si / 1000 Ang^3
#
#
#
# Elastic Constant Matrix: (Units=GPa)
#
#
# Indices 1 2 3 4 5 6 
#
# 1 77.1599 10.7135 34.4200 -7.2617 14.2157 -5.5229
# 2 10.7135 70.7848 33.7902 -1.3191 5.2194 2.4447
# 3 34.4200 33.7902 153.8573 -12.4909 34.9904 11.1382
# 4 -7.2617 -1.3191 -12.4909 33.4168 7.0300 5.9989
# 5 14.2157 5.2194 34.9904 7.0300 51.7747 4.0040
# 6 -5.5229 2.4447 11.1382 5.9989 4.0040 20.9056
#
#
#
# Elastic Compliance Matrix: (Units=1/GPa)
#
#
# Indices 1 2 3 4 5 6 
#
# 1 0.015490 -0.000926 -0.002866 0.001838 -0.002918 0.005759
# 2 -0.000926 0.015906 -0.003678 -0.001214 0.001305 -0.000046
# 3 -0.002866 -0.003678 0.010197 0.005410 -0.005991 -0.006165
# 4 0.001838 -0.001214 0.005410 0.035977 -0.008071 -0.011033
# 5 -0.002918 0.001305 -0.005991 -0.008071 0.025147 -0.000232
# 6 0.005759 -0.000046 -0.006165 -0.011033 -0.000232 0.055856
#
#
# Mechanical properties :
#
#
# Convention : Reuss Voigt Hill
#
# Bulk Modulus (GPa) = 37.52007 51.07214 44.29611
# Shear Modulus (GPa) = 27.41282 36.07799 31.74540
#
# Velocity S-wave (km/s) = 3.25138 3.73003 3.49890
# Velocity P-wave (km/s) = 5.34459 6.18436 5.77975
#
# Compressibility (1/GPa) = 0.02665240
#
# Stress axis : x y z
#
# Youngs Moduli (GPa) = 64.55816 62.86919 98.07216
#
# Poissons Ratio (x) = 0.05820 0.28109
# Poissons Ratio (y) = 0.05977 0.36073
# Poissons Ratio (z) = 0.18503 0.23124
#
# Static dielectric constant tensor:
#      x y z
#    x 2.143310 0.135080 0.135280 
#    y 0.135080 2.126670 0.069750 
#    z 0.135280 0.069750 2.068830 
# 
# From -- ./inp_files/331135.got.cif
#   From: 2010.05.17/outbox.cif.g08.bks.cpg/sg2_166_cif.got.tgz:331135.got - 2010.06.03 11:33:40.
