data_PCOD9022343
_publ_section_title
;
Structure prediction by ZEFSAII (Michael W. Deem and Ramdas Pophale) SiO2 
 PCOD9022343
Probable space group: P -1
;
_chemical_formula_sum "Si O2"
_cell_formula_units_Z 12
_cell_length_a 4.788182
_cell_length_b 5.900676
_cell_length_c 19.345781
_cell_angle_alpha 75.991605
_cell_angle_beta 116.544049
_cell_angle_gamma 82.355467
_cell_volume 455.743355
_symmetry_space_group_name_H-M "P -1"
_symmetry_group_IT_number 2
_symmetry_cell_setting 'triclinic'
loop_
_space_group_symop_operation_xyz
x,y,z
-x,-y,-z
loop_
_atom_site_type_symbol
_atom_site_label
_atom_site_fract_x
_atom_site_fract_y
_atom_site_fract_z
Si Si1 0.658943 0.908474 0.318562
Si Si2 0.124910 0.380710 0.276787
Si Si3 0.790745 0.160139 0.833307
Si Si4 0.330802 0.689496 0.872754
Si Si5 0.771799 0.764901 0.019672
Si Si6 0.664811 0.377247 0.596427
O O1 0.583925 0.700047 0.374279
O O2 0.545828 0.873866 0.229824
O O3 0.420956 0.154312 0.303341
O O4 0.041666 0.865103 0.367316
O O5 0.160835 0.611850 0.220384
O O6 0.168153 0.446022 0.355709
O O7 0.782141 0.342946 0.215330
O O8 0.881433 0.203316 0.919359
O O9 0.062362 0.925717 0.853268
O O10 0.281282 0.461890 0.926851
O O11 0.677787 0.722307 0.933294
O O12 0.500000 0.000000 0.000000
O O13 0.500000 0.500000 0.500000
#
# Coordination Sequence:
#
# PCOD9022343 Si02
#       6
#     2   2   2   2   2   2
#     4  10  22  39  61  88 118 155 195 239 296 353
#     4   9  19  35  56  82 117 155 195 244 294 348
#     4   8  15  29  49  79 114 153 195 239 287 343
#     4   8  13  24  45  78 114 155 197 238 289 342
#     4   8  12  20  42  77 116 154 195 240 284 338
#     4  11  24  41  62  89 118 151 195 244 296 356
#
# _framework density 26.330608000000002
#
# number of rings (size 3 to 8) (size 9 to 14) (size 15 to 20)
#    0.000    3.000    0.000    0.500    0.000    4.000 
#    0.000    0.000    0.000    1.000    0.000  227.500 
#    0.000    0.000    0.000    0.000    0.000    0.000 
#
# Total GULP energy -67230.736410 kJ/mol
# GULP energy per Si atom -5602.561367 kJ/mol
# Density = 2.627068 g / cm^3
# Si number density = 26.330608 Si / 1000 Ang^3
#
#
#
# Elastic Constant Matrix: (Units=GPa)
#
#
# Indices 1 2 3 4 5 6 
#
# 1 114.9026 26.9616 45.2174 -4.7766 -1.9496 -6.7850
# 2 26.9616 144.2351 67.0881 2.3081 4.1104 -3.8936
# 3 45.2174 67.0881 232.5025 18.3335 14.8610 -7.6152
# 4 -4.7766 2.3081 18.3335 41.1644 -1.9696 3.5261
# 5 -1.9496 4.1104 14.8610 -1.9696 33.3599 -2.5463
# 6 -6.7850 -3.8936 -7.6152 3.5261 -2.5463 26.9461
#
#
#
# Elastic Compliance Matrix: (Units=1/GPa)
#
#
# Indices 1 2 3 4 5 6 
#
# 1 0.009880 -0.001028 -0.001836 0.001958 0.001770 0.001731
# 2 -0.001028 0.008134 -0.002164 0.000364 -0.000058 0.000252
# 3 -0.001836 -0.002164 0.005695 -0.002830 -0.002471 0.000971
# 4 0.001958 0.000364 -0.002830 0.026179 0.002614 -0.003433
# 5 0.001770 -0.000058 -0.002471 0.002614 0.031523 0.002376
# 6 0.001731 0.000252 0.000971 -0.003433 0.002376 0.038532
#
#
# Mechanical properties :
#
#
# Convention : Reuss Voigt Hill
#
# Bulk Modulus (GPa) = 73.23576 85.57492 79.40534
# Shear Modulus (GPa) = 37.16070 43.78565 40.47318
#
# Velocity S-wave (km/s) = 3.76082 4.08231 3.92486
# Velocity P-wave (km/s) = 6.83613 7.40210 7.12474
#
# Compressibility (1/GPa) = 0.01365453
#
# Stress axis : x y z
#
# Youngs Moduli (GPa) = 101.21128 122.93373 175.58292
#
# Poissons Ratio (x) = 0.12639 0.32231
# Poissons Ratio (y) = 0.10406 0.37996
# Poissons Ratio (z) = 0.18579 0.26603
#
# Static dielectric constant tensor:
#      x y z
#    x 2.018590 0.056650 0.034620 
#    y 0.056650 2.130780 0.022970 
#    z 0.034620 0.022970 2.053470 
# 
# From -- ./inp_files/52056.got.cif
#   From: 2010.05.17/outbox.cif.g08.bks.cpg/sg2_27_cif.got.tgz:52056.got - 2010.06.03 11:33:40.
