data_PCOD9022509
_publ_section_title
;
Structure prediction by ZEFSAII (Michael W. Deem and Ramdas Pophale) SiO2 
 PCOD9022509
Probable space group: P -1
;
_chemical_formula_sum "Si O2"
_cell_formula_units_Z 16
_cell_length_a 5.130131
_cell_length_b 8.486773
_cell_length_c 18.093129
_cell_angle_alpha 84.859291
_cell_angle_beta 55.689026
_cell_angle_gamma 81.915517
_cell_volume 644.150490
_symmetry_space_group_name_H-M "P -1"
_symmetry_group_IT_number 2
_symmetry_cell_setting 'triclinic'
loop_
_space_group_symop_operation_xyz
x,y,z
-x,-y,-z
loop_
_atom_site_type_symbol
_atom_site_label
_atom_site_fract_x
_atom_site_fract_y
_atom_site_fract_z
Si Si1 0.666835 0.638182 0.425249
Si Si2 0.472395 0.555974 0.917280
Si Si3 0.196714 0.369349 0.326226
Si Si4 0.728707 0.841346 0.820063
Si Si5 0.199225 0.472639 0.811633
Si Si6 0.156987 0.106068 0.048706
Si Si7 0.981020 0.188070 0.513390
Si Si8 0.665501 0.847568 0.131042
O O1 0.500000 0.500000 0.500000
O O2 0.385546 0.737389 0.420928
O O3 0.955929 0.529158 0.345802
O O4 0.812729 0.759819 0.452977
O O5 0.441580 0.748182 0.903455
O O6 0.243075 0.510085 0.890956
O O7 0.840776 0.500954 0.838860
O O8 0.500000 0.500000 0.000000
O O9 0.183016 0.242047 0.267521
O O10 0.543731 0.430263 0.272840
O O11 0.110035 0.280808 0.418373
O O12 0.944670 0.815048 0.859484
O O13 0.651987 0.030652 0.816644
O O14 0.301017 0.283604 0.806409
O O15 0.249066 0.219167 0.962545
O O16 0.926035 0.970114 0.086807
O O17 0.500000 0.000000 0.000000
O O18 0.000000 0.000000 0.500000
#
# Coordination Sequence:
#
# PCOD9022509 Si02
#       8
#     2   2   2   2   2   2   2   2
#     4  10  22  45  77 105 142 188 224 277 356 437
#     4  11  25  41  62  91 132 177 235 278 341 412
#     4  10  24  46  66 101 147 175 227 287 359 422
#     4  10  23  39  62  94 128 180 222 292 346 387
#     4  11  26  41  63  94 132 180 220 287 353 400
#     4   9  20  37  65  85 129 174 237 294 342 398
#     4  11  24  46  80 112 136 185 237 280 344 441
#     4  10  22  39  62  92 125 180 242 283 347 410
#
# _framework density 24.838915
#
# number of rings (size 3 to 8) (size 9 to 14) (size 15 to 20)
#    0.000    1.750    0.000    3.000   12.250    7.000 
#    0.000    1.250    5.500    0.000    0.000    0.000 
#    0.000    0.000    0.000    0.000    0.000    0.000 
#
# Total GULP energy -89252.951031 kJ/mol
# GULP energy per Si atom -5578.309439 kJ/mol
# Density = 2.478238 g / cm^3
# Si number density = 24.838915 Si / 1000 Ang^3
#
#
#
# Elastic Constant Matrix: (Units=GPa)
#
#
# Indices 1 2 3 4 5 6 
#
# 1 89.9033 17.8109 6.3148 9.1169 -0.1876 -7.3217
# 2 17.8109 132.9829 17.5441 -0.7098 -3.1816 -14.5908
# 3 6.3148 17.5441 106.4060 10.9042 5.1895 -5.8947
# 4 9.1169 -0.7098 10.9042 36.3316 -1.6445 7.3719
# 5 -0.1876 -3.1816 5.1895 -1.6445 29.0666 14.8443
# 6 -7.3217 -14.5908 -5.8947 7.3719 14.8443 37.9042
#
#
#
# Elastic Compliance Matrix: (Units=1/GPa)
#
#
# Indices 1 2 3 4 5 6 
#
# 1 0.012042 -0.001335 0.000193 -0.003890 -0.002063 0.003407
# 2 -0.001335 0.008145 -0.001120 0.000251 -0.000323 0.002781
# 3 0.000193 -0.001120 0.010389 -0.004103 -0.004050 0.003606
# 4 -0.003890 0.000251 -0.004103 0.032275 0.008034 -0.010716
# 5 -0.002063 -0.000323 -0.004050 0.008034 0.046149 -0.020789
# 6 0.003407 0.002781 0.003606 -0.010716 -0.020789 0.038897
#
#
# Mechanical properties :
#
#
# Convention : Reuss Voigt Hill
#
# Bulk Modulus (GPa) = 38.38203 45.84798 42.11500
# Shear Modulus (GPa) = 31.03595 39.83530 35.43562
#
# Velocity S-wave (km/s) = 3.53865 4.00902 3.78116
# Velocity P-wave (km/s) = 5.67291 6.31885 6.00457
#
# Compressibility (1/GPa) = 0.02605386
#
# Stress axis : x y z
#
# Youngs Moduli (GPa) = 83.04585 122.77500 96.25660
#
# Poissons Ratio (x) = 0.16386 -0.01862
# Poissons Ratio (y) = 0.11083 0.10777
# Poissons Ratio (z) = -0.01607 0.13746
#
# Static dielectric constant tensor:
#      x y z
#    x 2.305530 0.128180 0.013460 
#    y 0.128180 2.156220 0.080940 
#    z 0.013460 0.080940 2.042480 
# 
# From -- ./inp_files/581930.got.cif
#   From: 2010.05.17/outbox.cif.g08.bks.cpg/sg2_291_cif.got.tgz:581930.got - 2010.06.03 11:33:40.
