data_PCOD9022623
_publ_section_title
;
Structure prediction by ZEFSAII (Michael W. Deem and Ramdas Pophale) SiO2 
 PCOD9022623
Probable space group: P -1
;
_chemical_formula_sum "Si O2"
_cell_formula_units_Z 16
_cell_length_a 11.775952
_cell_length_b 14.256225
_cell_length_c 13.717611
_cell_angle_alpha 139.838027
_cell_angle_beta 149.356677
_cell_angle_gamma 53.450110
_cell_volume 743.451390
_symmetry_space_group_name_H-M "P -1"
_symmetry_group_IT_number 2
_symmetry_cell_setting 'triclinic'
loop_
_space_group_symop_operation_xyz
x,y,z
-x,-y,-z
loop_
_atom_site_type_symbol
_atom_site_label
_atom_site_fract_x
_atom_site_fract_y
_atom_site_fract_z
Si Si1 0.783852 0.982912 0.532623
Si Si2 0.077633 0.301531 0.686401
Si Si3 0.727112 0.466072 0.273022
Si Si4 0.644679 0.384536 0.926793
Si Si5 0.125087 0.137114 0.768228
Si Si6 0.300760 0.006128 0.127090
Si Si7 0.882050 0.118858 0.901999
Si Si8 0.642223 0.216823 0.173114
O O1 0.782269 0.983008 0.648200
O O2 0.002615 0.099944 0.750308
O O3 0.566065 0.038376 0.372534
O O4 0.798950 0.823250 0.371924
O O5 0.823492 0.263922 0.428600
O O6 0.200214 0.461836 0.870787
O O7 0.083850 0.277920 0.787967
O O8 0.644540 0.388849 0.047894
O O9 0.643786 0.358004 0.215638
O O10 0.000000 0.500000 0.500000
O O11 0.603804 0.608116 0.293273
O O12 0.767814 0.251425 0.884859
O O13 0.394138 0.150123 0.977537
O O14 0.000000 0.000000 0.500000
O O15 0.190869 0.913959 0.066787
O O16 0.275899 0.904032 0.931924
O O17 0.153819 0.134138 0.110039
#
# Coordination Sequence:
#
# PCOD9022623 Si02
#       8
#     2   2   2   2   2   2   2   2
#     4  11  23  42  63  90 120 166 209 257 314 359
#     4  11  22  38  66  91 121 160 208 260 307 358
#     4  11  22  36  63  93 126 163 203 254 314 370
#     4  11  23  39  60  92 128 160 202 254 309 375
#     4  10  22  39  63  92 121 161 213 272 303 349
#     4  11  22  40  61  91 131 158 206 253 307 388
#     4  11  25  39  61  92 129 168 196 248 320 378
#     4  12  20  38  66  97 121 159 213 261 310 365
#
# _framework density 21.521245
#
# number of rings (size 3 to 8) (size 9 to 14) (size 15 to 20)
#    0.000    1.000    7.500    0.375    1.750    4.000 
#    0.000    0.625    0.000    1.500    0.000    0.000 
#    0.000    0.000    0.000    0.000    0.000    0.000 
#
# Total GULP energy -89408.930252 kJ/mol
# GULP energy per Si atom -5588.058141 kJ/mol
# Density = 2.147226 g / cm^3
# Si number density = 21.521245 Si / 1000 Ang^3
#
#
#
# Elastic Constant Matrix: (Units=GPa)
#
#
# Indices 1 2 3 4 5 6 
#
# 1 61.2335 32.9314 22.7198 -3.4758 19.5366 1.5370
# 2 32.9314 143.8677 39.7510 -27.7733 23.3368 -19.4748
# 3 22.7198 39.7510 85.1615 -28.1227 28.8950 -6.1447
# 4 -3.4758 -27.7733 -28.1227 36.1206 -1.6628 6.7747
# 5 19.5366 23.3368 28.8950 -1.6628 35.7826 -6.0447
# 6 1.5370 -19.4748 -6.1447 6.7747 -6.0447 26.6892
#
#
#
# Elastic Compliance Matrix: (Units=1/GPa)
#
#
# Indices 1 2 3 4 5 6 
#
# 1 0.022310 -0.004362 -0.002020 -0.001981 -0.008885 -0.006442
# 2 -0.004362 0.010466 -0.000217 0.006277 -0.003039 0.005557
# 3 -0.002020 -0.000217 0.024369 0.018378 -0.018120 -0.003200
# 4 -0.001981 0.006277 0.018378 0.047140 -0.016819 -0.006850
# 5 -0.008885 -0.003039 -0.018120 -0.016819 0.050282 0.009780
# 6 -0.006442 0.005557 -0.003200 -0.006850 0.009780 0.045111
#
#
# Mechanical properties :
#
#
# Convention : Reuss Voigt Hill
#
# Bulk Modulus (GPa) = 22.75450 53.45191 38.10321
# Shear Modulus (GPa) = 21.97560 32.70918 27.34239
#
# Velocity S-wave (km/s) = 3.19895 3.90276 3.56825
# Velocity P-wave (km/s) = 4.92345 6.72305 5.89236
#
# Compressibility (1/GPa) = 0.04394735
#
# Stress axis : x y z
#
# Youngs Moduli (GPa) = 44.82208 95.54774 41.03618
#
# Poissons Ratio (x) = 0.41676 0.08290
# Poissons Ratio (y) = 0.19551 0.00890
# Poissons Ratio (z) = 0.09055 0.02072
#
# Static dielectric constant tensor:
#      x y z
#    x 1.819020 0.003610 0.005270 
#    y 0.003610 1.835610 -0.030130 
#    z 0.005270 -0.030130 1.808720 
# 
# From -- ./inp_files/465072.got.cif
#   From: 2010.05.17/outbox.cif.g08.bks.cpg/sg2_233_cif.got.tgz:465072.got - 2010.06.03 11:33:40.
