data_PCOD9022184
_publ_section_title
;
Structure prediction by ZEFSAII (Michael W. Deem and Ramdas Pophale) SiO2 
 PCOD9022184
Probable space group: P -1
;
_chemical_formula_sum "Si O2"
_cell_formula_units_Z 16
_cell_length_a 14.201704
_cell_length_b 5.381583
_cell_length_c 14.341210
_cell_angle_alpha 77.556632
_cell_angle_beta 138.778909
_cell_angle_gamma 113.701458
_cell_volume 654.457066
_symmetry_space_group_name_H-M "P -1"
_symmetry_group_IT_number 2
_symmetry_cell_setting 'triclinic'
loop_
_space_group_symop_operation_xyz
x,y,z
-x,-y,-z
loop_
_atom_site_type_symbol
_atom_site_label
_atom_site_fract_x
_atom_site_fract_y
_atom_site_fract_z
Si Si1 0.989843 0.279479 0.931937
Si Si2 0.929310 0.114460 0.241035
Si Si3 0.525234 0.397977 0.341078
Si Si4 0.254669 0.269940 0.025152
Si Si5 0.369568 0.795959 0.982827
Si Si6 0.081764 0.774418 0.479010
Si Si7 0.411708 0.995697 0.709941
Si Si8 0.203075 0.661752 0.375593
O O1 0.845262 0.215867 0.761162
O O2 0.140947 0.409577 0.969992
O O3 0.000000 0.500000 0.000000
O O4 0.000000 0.000000 0.000000
O O5 0.963428 0.923153 0.359073
O O6 0.856733 0.969826 0.101655
O O7 0.094291 0.342133 0.321888
O O8 0.798170 0.220254 0.169955
O O9 0.350085 0.241952 0.188847
O O10 0.606322 0.297573 0.324003
O O11 0.618860 0.308817 0.497081
O O12 0.554937 0.719627 0.345665
O O13 0.365948 0.489476 0.017423
O O14 0.434883 0.926715 0.121077
O O15 0.500000 0.000000 0.000000
O O16 0.246031 0.946445 0.635235
O O17 0.141396 0.754795 0.417730
O O18 0.000000 0.500000 0.500000
#
# Coordination Sequence:
#
# PCOD9022184 Si02
#       8
#     2   2   2   2   2   2   2   2
#     4  12  27  45  78 111 140 183 250 308 366 424
#     4  12  21  43  70  94 143 195 248 287 361 418
#     4  10  22  43  68  94 136 185 226 279 363 420
#     4  11  24  45  69 102 141 190 236 304 360 430
#     4  11  25  39  64  99 141 190 242 291 354 433
#     4  11  25  39  64  99 141 190 242 291 354 433
#     4  10  22  39  58  97 135 181 232 280 340 412
#     4  11  24  45  69 102 141 190 236 304 360 430
#
# _framework density 24.447745999999999
#
# number of rings (size 3 to 8) (size 9 to 14) (size 15 to 20)
#    0.000    1.000    5.000    0.750    3.500    5.000 
#    0.000    1.250    0.000    0.000    0.000    0.000 
#    0.000    0.000    0.000    0.000    0.000    0.000 
#
# Total GULP energy -89161.628290 kJ/mol
# GULP energy per Si atom -5572.601768 kJ/mol
# Density = 2.439210 g / cm^3
# Si number density = 24.447746 Si / 1000 Ang^3
#
#
#
# Elastic Constant Matrix: (Units=GPa)
#
#
# Indices 1 2 3 4 5 6 
#
# 1 38.1331 9.1283 9.8493 -10.3892 -2.0522 -7.6216
# 2 9.1283 97.7808 20.7975 -21.3185 -9.1959 1.5462
# 3 9.8493 20.7975 163.2168 -28.6677 28.1317 -2.3633
# 4 -10.3892 -21.3185 -28.6677 51.9823 -4.1954 -0.0870
# 5 -2.0522 -9.1959 28.1317 -4.1954 34.9212 -0.9950
# 6 -7.6216 1.5462 -2.3633 -0.0870 -0.9950 26.5258
#
#
#
# Elastic Compliance Matrix: (Units=1/GPa)
#
#
# Indices 1 2 3 4 5 6 
#
# 1 0.030163 -0.001277 -0.001193 0.005125 0.003263 0.008774
# 2 -0.001277 0.012072 -0.001570 0.004219 0.004847 -0.001015
# 3 -0.001193 -0.001570 0.008077 0.003038 -0.006618 0.000230
# 4 0.005125 0.004219 0.003038 0.023821 0.001874 0.001646
# 5 0.003263 0.004847 -0.006618 0.001874 0.035701 0.001411
# 6 0.008774 -0.001015 0.000230 0.001646 0.001411 0.040358
#
#
# Mechanical properties :
#
#
# Convention : Reuss Voigt Hill
#
# Bulk Modulus (GPa) = 23.67849 42.07566 32.87707
# Shear Modulus (GPa) = 29.01101 39.97623 34.49362
#
# Velocity S-wave (km/s) = 3.44852 4.04811 3.76029
# Velocity P-wave (km/s) = 5.05596 6.25279 5.68596
#
# Compressibility (1/GPa) = 0.04223243
#
# Stress axis : x y z
#
# Youngs Moduli (GPa) = 33.15303 82.83735 123.81564
#
# Poissons Ratio (x) = 0.10576 0.14767
# Poissons Ratio (y) = 0.04233 0.19441
# Poissons Ratio (z) = 0.03954 0.13007
#
# Static dielectric constant tensor:
#      x y z
#    x 2.083870 -0.011440 -0.050300 
#    y -0.011440 2.059170 0.013590 
#    z -0.050300 0.013590 2.069300 
# 
# From -- ./inp_files/483976.got.cif
#   From: 2010.05.17/outbox.cif.g08.bks.cpg/sg2_242_cif.got.tgz:483976.got - 2010.06.03 11:33:40.
