data_PCOD9022865
_publ_section_title
;
Structure prediction by ZEFSAII (Michael W. Deem and Ramdas Pophale) SiO2 
 PCOD9022865
Probable space group: P -1
;
_chemical_formula_sum "Si O2"
_cell_formula_units_Z 16
_cell_length_a 11.602546
_cell_length_b 14.969087
_cell_length_c 9.014065
_cell_angle_alpha 44.719905
_cell_angle_beta 141.181493
_cell_angle_gamma 134.346099
_cell_volume 651.956742
_symmetry_space_group_name_H-M "P -1"
_symmetry_group_IT_number 2
_symmetry_cell_setting 'triclinic'
loop_
_space_group_symop_operation_xyz
x,y,z
-x,-y,-z
loop_
_atom_site_type_symbol
_atom_site_label
_atom_site_fract_x
_atom_site_fract_y
_atom_site_fract_z
Si Si1 0.974831 0.670603 0.436681
Si Si2 0.404836 0.777111 0.714646
Si Si3 0.203282 0.493158 0.273020
Si Si4 0.769898 0.014414 0.182840
Si Si5 0.390228 0.298678 0.516383
Si Si6 0.931712 0.059790 0.600426
Si Si7 0.502817 0.967923 0.329721
Si Si8 0.349232 0.355563 0.060983
O O1 0.839300 0.556861 0.541510
O O2 0.195139 0.667328 0.657080
O O3 0.995470 0.812670 0.370600
O O4 0.869998 0.658886 0.187720
O O5 0.472700 0.875891 0.804382
O O6 0.575653 0.730057 0.882115
O O7 0.377931 0.875577 0.441424
O O8 0.271304 0.383746 0.379793
O O9 0.385537 0.630577 0.292076
O O10 0.000000 0.500000 0.000000
O O11 0.694960 0.857477 0.340468
O O12 0.918191 0.017807 0.192499
O O13 0.876383 0.096299 0.335922
O O14 0.605839 0.068702 0.890396
O O15 0.374330 0.319925 0.298419
O O16 0.722351 0.967693 0.558117
O O17 0.500000 0.500000 0.000000
#
# Coordination Sequence:
#
# PCOD9022865 Si02
#       8
#     2   2   2   2   2   2   2   2
#     4  11  24  46  70  99 134 184 227 278 343 405
#     4  10  25  41  68 100 139 181 231 272 348 408
#     4  11  26  45  72  99 137 180 233 283 336 404
#     4  11  22  39  68  98 141 171 222 287 340 402
#     4  11  26  44  69 106 134 183 229 275 347 403
#     4  10  22  39  64  98 130 169 226 267 346 397
#     4  10  22  43  65  99 135 182 222 281 339 406
#     4  12  26  46  69  98 143 180 228 284 335 410
#
# _framework density 24.541505000000001
#
# number of rings (size 3 to 8) (size 9 to 14) (size 15 to 20)
#    0.000    1.250    2.500    1.875    5.250    4.500 
#    0.000    5.625    0.000    0.000    0.000    0.000 
#    0.000    0.000    0.000    0.000    0.000    0.000 
#
# Total GULP energy -89546.191058 kJ/mol
# GULP energy per Si atom -5596.636941 kJ/mol
# Density = 2.448565 g / cm^3
# Si number density = 24.541505 Si / 1000 Ang^3
#
#
#
# Elastic Constant Matrix: (Units=GPa)
#
#
# Indices 1 2 3 4 5 6 
#
# 1 96.8306 4.3861 11.4230 -1.1762 8.4178 15.5072
# 2 4.3861 69.0785 30.7335 14.5160 -3.9759 16.9122
# 3 11.4230 30.7335 87.1921 27.6949 2.3964 5.3005
# 4 -1.1762 14.5160 27.6949 32.1253 2.7985 1.8721
# 5 8.4178 -3.9759 2.3964 2.7985 32.5227 4.2028
# 6 15.5072 16.9122 5.3005 1.8721 4.2028 30.4219
#
#
#
# Elastic Compliance Matrix: (Units=1/GPa)
#
#
# Indices 1 2 3 4 5 6 
#
# 1 0.011732 0.001115 -0.002273 0.002426 -0.002159 -0.006055
# 2 0.001115 0.020879 -0.005552 -0.004328 0.004540 -0.011569
# 3 -0.002273 -0.005552 0.017720 -0.012921 -0.000546 0.002029
# 4 0.002426 -0.004328 -0.012921 0.044605 -0.004206 0.001257
# 5 -0.002159 0.004540 -0.000546 -0.004206 0.032991 -0.005627
# 6 -0.006055 -0.011569 0.002029 0.001257 -0.005627 0.042735
#
#
# Mechanical properties :
#
#
# Convention : Reuss Voigt Hill
#
# Bulk Modulus (GPa) = 27.09371 38.46517 32.77944
# Shear Modulus (GPa) = 25.46008 32.78455 29.12232
#
# Velocity S-wave (km/s) = 3.22441 3.65894 3.44852
# Velocity P-wave (km/s) = 4.99263 5.79292 5.40760
#
# Compressibility (1/GPa) = 0.03690893
#
# Stress axis : x y z
#
# Youngs Moduli (GPa) = 85.23821 47.89522 56.43493
#
# Poissons Ratio (x) = -0.05339 0.12829
# Poissons Ratio (y) = -0.09501 0.31333
# Poissons Ratio (z) = 0.19376 0.26592
#
# Static dielectric constant tensor:
#      x y z
#    x 1.969600 -0.020170 0.010560 
#    y -0.020170 1.956750 -0.012670 
#    z 0.010560 -0.012670 1.936450 
# 
# From -- ./inp_files/255826.got.cif
#   From: 2010.05.17/outbox.cif.g08.bks.cpg/sg2_128_cif.got.tgz:255826.got - 2010.06.03 11:33:40.
