data_PCOD9022936
_publ_section_title
;
Structure prediction by ZEFSAII (Michael W. Deem and Ramdas Pophale) SiO2 
 PCOD9022936
Probable space group: P -1
;
_chemical_formula_sum "Si O2"
_cell_formula_units_Z 16
_cell_length_a 11.915668
_cell_length_b 8.307691
_cell_length_c 10.714362
_cell_angle_alpha 60.273733
_cell_angle_beta 129.312732
_cell_angle_gamma 96.682863
_cell_volume 681.048423
_symmetry_space_group_name_H-M "P -1"
_symmetry_group_IT_number 2
_symmetry_cell_setting 'triclinic'
loop_
_space_group_symop_operation_xyz
x,y,z
-x,-y,-z
loop_
_atom_site_type_symbol
_atom_site_label
_atom_site_fract_x
_atom_site_fract_y
_atom_site_fract_z
Si Si1 0.429349 0.740289 0.512567
Si Si2 0.233825 0.137040 0.914670
Si Si3 0.014877 0.876464 0.431493
Si Si4 0.158743 0.179472 0.361479
Si Si5 0.750508 0.514940 0.836952
Si Si6 0.889548 0.459679 0.212555
Si Si7 0.477227 0.942142 0.711753
Si Si8 0.854644 0.172119 0.874348
O O1 0.575305 0.556275 0.658525
O O2 0.447021 0.787542 0.652199
O O3 0.263783 0.736422 0.355370
O O4 0.456007 0.918892 0.382735
O O5 0.129545 0.321770 0.846177
O O6 0.144404 0.143998 0.720330
O O7 0.404960 0.140572 0.061949
O O8 0.227831 0.936805 0.046717
O O9 0.122781 0.665474 0.626170
O O10 0.081397 0.012089 0.336982
O O11 0.000000 0.000000 0.500000
O O12 0.209416 0.284791 0.239137
O O13 0.048135 0.343308 0.305616
O O14 0.311827 0.072765 0.584690
O O15 0.865133 0.352402 0.896119
O O16 0.773215 0.461943 0.018004
O O17 0.000000 0.000000 0.000000
#
# Coordination Sequence:
#
# PCOD9022936 Si02
#       8
#     2   2   2   2   2   2   2   2
#     4   9  19  35  58  86 132 162 199 249 313 364
#     4  11  22  40  62  89 121 167 208 247 311 369
#     4  10  23  42  64  89 125 164 205 255 308 367
#     4  10  22  39  65  92 125 162 202 258 305 359
#     4  11  21  39  61  93 128 164 204 251 311 363
#     4  11  22  39  63  91 122 165 204 254 306 366
#     4   9  19  37  61  89 122 164 200 253 308 365
#     4  11  23  33  59 100 127 160 206 257 305 365
#
# _framework density 23.493189999999998
#
# number of rings (size 3 to 8) (size 9 to 14) (size 15 to 20)
#    0.000    1.750    1.250    3.375    5.250    0.000 
#    0.000    3.125    0.000    0.000    0.000    0.000 
#    0.000    0.000    0.000    0.000    0.000    0.000 
#
# Total GULP energy -89271.644218 kJ/mol
# GULP energy per Si atom -5579.477764 kJ/mol
# Density = 2.343972 g / cm^3
# Si number density = 23.493190 Si / 1000 Ang^3
#
#
#
# Elastic Constant Matrix: (Units=GPa)
#
#
# Indices 1 2 3 4 5 6 
#
# 1 24.7504 13.5728 31.7813 -3.9298 19.8518 -8.8906
# 2 13.5728 80.8314 49.9014 4.8539 -2.5296 -8.3235
# 3 31.7813 49.9014 188.6220 24.4958 19.4685 -6.3819
# 4 -3.9298 4.8539 24.4958 48.4669 2.7763 -3.9127
# 5 19.8518 -2.5296 19.4685 2.7763 33.9307 -10.6215
# 6 -8.8906 -8.3235 -6.3819 -3.9127 -10.6215 30.9725
#
#
#
# Elastic Compliance Matrix: (Units=1/GPa)
#
#
# Indices 1 2 3 4 5 6 
#
# 1 0.125464 -0.015627 -0.012817 0.022761 -0.066147 0.009365
# 2 -0.015627 0.017899 -0.003128 -0.001930 0.013727 0.004143
# 3 -0.012817 -0.003128 0.008714 -0.005460 0.001842 -0.002783
# 4 0.022761 -0.001930 -0.005460 0.026424 -0.011107 0.004419
# 5 -0.066147 0.013727 0.001842 -0.011107 0.071628 0.008242
# 6 0.009365 0.004143 -0.002783 0.004419 0.008242 0.038900
#
#
# Mechanical properties :
#
#
# Convention : Reuss Voigt Hill
#
# Bulk Modulus (GPa) = 11.24457 53.85720 32.55088
# Shear Modulus (GPa) = 13.09527 35.93725 24.51626
#
# Velocity S-wave (km/s) = 2.36351 3.91537 3.23390
# Velocity P-wave (km/s) = 3.49928 6.58897 5.27539
#
# Compressibility (1/GPa) = 0.08893185
#
# Stress axis : x y z
#
# Youngs Moduli (GPa) = 7.97038 55.86956 114.76276
#
# Poissons Ratio (x) = 0.87308 1.47094
# Poissons Ratio (y) = 0.12455 0.35900
# Poissons Ratio (z) = 0.10216 0.17477
#
# Static dielectric constant tensor:
#      x y z
#    x 1.996200 0.044380 -0.002160 
#    y 0.044380 1.897490 0.011630 
#    z -0.002160 0.011630 1.957230 
# 
# From -- ./inp_files/445692.got.cif
#   From: 2010.05.17/outbox.cif.g08.bks.cpg/sg2_223_cif.got.tgz:445692.got - 2010.06.03 11:33:40.
