data_PCOD9022358
_publ_section_title
;
Structure prediction by ZEFSAII (Michael W. Deem and Ramdas Pophale) SiO2 
 PCOD9022358
Probable space group: P -1
;
_chemical_formula_sum "Si O2"
_cell_formula_units_Z 14
_cell_length_a 12.308471
_cell_length_b 8.604151
_cell_length_c 13.018822
_cell_angle_alpha 102.676704
_cell_angle_beta 142.390646
_cell_angle_gamma 52.671252
_cell_volume 564.118658
_symmetry_space_group_name_H-M "P -1"
_symmetry_group_IT_number 2
_symmetry_cell_setting 'triclinic'
loop_
_space_group_symop_operation_xyz
x,y,z
-x,-y,-z
loop_
_atom_site_type_symbol
_atom_site_label
_atom_site_fract_x
_atom_site_fract_y
_atom_site_fract_z
Si Si1 0.181658 0.054070 0.675494
Si Si2 0.419408 0.973235 0.109535
Si Si3 0.298638 0.773012 0.302496
Si Si4 0.022299 0.050801 0.347462
Si Si5 0.844322 0.453327 0.764954
Si Si6 0.806188 0.476802 0.339975
Si Si7 0.675622 0.913429 0.719293
O O1 0.182263 0.941092 0.756690
O O2 0.391430 0.054569 0.827378
O O3 0.213769 0.941265 0.574094
O O4 0.895023 0.316079 0.481574
O O5 0.517506 0.727586 0.152500
O O6 0.473781 0.991334 0.271124
O O7 0.126933 0.215626 0.906313
O O8 0.607489 0.580487 0.526590
O O9 0.223623 0.636034 0.211220
O O10 0.226680 0.967176 0.202522
O O11 0.160377 0.910652 0.327220
O O12 0.888503 0.311280 0.282674
O O13 0.847109 0.641245 0.814055
O O14 0.000000 0.500000 0.500000
O O15 0.500000 0.000000 0.500000
#
# Coordination Sequence:
#
# PCOD9022358 Si02
#       7
#     2   2   2   2   2   2   2
#     4   8  17  33  58  88 115 157 195 244 299 350
#     4  11  20  39  60  94 122 147 216 248 300 362
#     4  10  22  43  61  89 122 163 205 243 317 364
#     4   9  17  37  59  87 118 155 206 242 294 373
#     4  10  23  40  61  90 121 166 199 256 304 354
#     4   8  17  31  57  89 113 157 195 249 294 356
#     4  10  22  39  61  89 121 163 193 253 306 355
#
# _framework density 24.817471999999999
#
# number of rings (size 3 to 8) (size 9 to 14) (size 15 to 20)
#    0.857    1.714    0.000    2.143    0.000    4.000 
#    7.714    1.429    0.000    0.000    0.000    0.000 
#    0.000    0.000    0.000    0.000    0.000    0.000 
#
# Total GULP energy -78016.063354 kJ/mol
# GULP energy per Si atom -5572.575954 kJ/mol
# Density = 2.476099 g / cm^3
# Si number density = 24.817472 Si / 1000 Ang^3
#
#
#
# Elastic Constant Matrix: (Units=GPa)
#
#
# Indices 1 2 3 4 5 6 
#
# 1 105.4117 43.4656 42.8171 -14.1324 -4.7520 11.1173
# 2 43.4656 144.4887 50.6207 -38.9103 -3.6121 23.5807
# 3 42.8171 50.6207 131.5496 -33.9187 6.9663 0.4909
# 4 -14.1324 -38.9103 -33.9187 34.4358 -12.9632 -9.1255
# 5 -4.7520 -3.6121 6.9663 -12.9632 33.9042 -1.2910
# 6 11.1173 23.5807 0.4909 -9.1255 -1.2910 59.3778
#
#
#
# Elastic Compliance Matrix: (Units=1/GPa)
#
#
# Indices 1 2 3 4 5 6 
#
# 1 0.011903 -0.002364 -0.003218 -0.000633 0.001785 -0.001322
# 2 -0.002364 0.012095 -0.000625 0.013910 0.006325 -0.002080
# 3 -0.003218 -0.000625 0.011490 0.010361 0.001173 0.002374
# 4 -0.000633 0.013910 0.010361 0.065228 0.024397 0.005064
# 5 0.001785 0.006325 0.001173 0.024397 0.039573 0.001754
# 6 -0.001322 -0.002080 0.002374 0.005064 0.001754 0.018712
#
#
# Mechanical properties :
#
#
# Convention : Reuss Voigt Hill
#
# Bulk Modulus (GPa) = 43.33784 72.80631 58.07207
# Shear Modulus (GPa) = 27.91650 41.84668 34.88159
#
# Velocity S-wave (km/s) = 3.35755 4.11076 3.75310
# Velocity P-wave (km/s) = 5.70363 7.20636 6.49858
#
# Compressibility (1/GPa) = 0.02307453
#
# Stress axis : x y z
#
# Youngs Moduli (GPa) = 84.01103 82.68189 87.03096
#
# Poissons Ratio (x) = 0.19543 0.28003
# Poissons Ratio (y) = 0.19858 0.05443
# Poissons Ratio (z) = 0.27032 0.05171
#
# Static dielectric constant tensor:
#      x y z
#    x 1.923420 0.042490 0.010920 
#    y 0.042490 2.103290 0.066140 
#    z 0.010920 0.066140 2.040660 
# 
# From -- ./inp_files/514217.got.cif
#   From: 2010.05.17/outbox.cif.g08.bks.cpg/sg2_258_cif.got.tgz:514217.got - 2010.06.03 11:33:40.
