data_PCOD9022363
_publ_section_title
;
Structure prediction by ZEFSAII (Michael W. Deem and Ramdas Pophale) SiO2 
 PCOD9022363
Probable space group: P -1
;
_chemical_formula_sum "Si O2"
_cell_formula_units_Z 14
_cell_length_a 7.502238
_cell_length_b 5.221203
_cell_length_c 23.127608
_cell_angle_alpha 117.980125
_cell_angle_beta 138.328529
_cell_angle_gamma 61.629465
_cell_volume 519.769096
_symmetry_space_group_name_H-M "P -1"
_symmetry_group_IT_number 2
_symmetry_cell_setting 'triclinic'
loop_
_space_group_symop_operation_xyz
x,y,z
-x,-y,-z
loop_
_atom_site_type_symbol
_atom_site_label
_atom_site_fract_x
_atom_site_fract_y
_atom_site_fract_z
Si Si1 0.526335 0.828093 0.322562
Si Si2 0.235376 0.307360 0.858248
Si Si3 0.816949 0.412954 0.871641
Si Si4 0.705408 0.673786 0.470162
Si Si5 0.715248 0.957113 0.993449
Si Si6 0.997149 0.277665 0.256789
Si Si7 0.140176 0.723076 0.432682
O O1 0.451282 0.615464 0.232329
O O2 0.503031 0.715678 0.370756
O O3 0.834282 0.869630 0.397595
O O4 0.294286 0.118142 0.287681
O O5 0.038833 0.443017 0.878584
O O6 0.177228 0.524744 0.813612
O O7 0.556475 0.226159 0.943792
O O8 0.142488 0.996928 0.789388
O O9 0.744643 0.674005 0.928032
O O10 0.981132 0.114290 0.912588
O O11 0.669431 0.460429 0.491087
O O12 0.000000 0.500000 0.500000
O O13 0.746153 0.999437 0.533449
O O14 0.500000 0.000000 0.000000
O O15 0.064745 0.486553 0.345389
#
# Coordination Sequence:
#
# PCOD9022363 Si02
#       7
#     2   2   2   2   2   2   2
#     4  10  22  39  61  89 127 162 211 260 304 374
#     4  10  22  40  61  93 131 164 207 255 305 371
#     4   9  19  37  64  94 124 168 206 253 316 365
#     4  10  22  40  63  90 124 168 210 256 314 367
#     4   9  18  38  66  95 129 162 206 256 309 376
#     4  11  24  39  64  96 124 167 213 253 309 366
#     4  11  23  41  64  90 126 168 208 259 315 360
#
# _framework density 26.935039
#
# number of rings (size 3 to 8) (size 9 to 14) (size 15 to 20)
#    0.000    2.000    0.000    3.429    0.000   10.286 
#    0.000   11.429    0.000   24.000    0.000    0.000 
#    0.000    0.000    0.000    0.000    0.000    0.000 
#
# Total GULP energy -78430.227285 kJ/mol
# GULP energy per Si atom -5602.159092 kJ/mol
# Density = 2.687373 g / cm^3
# Si number density = 26.935039 Si / 1000 Ang^3
#
#
#
# Elastic Constant Matrix: (Units=GPa)
#
#
# Indices 1 2 3 4 5 6 
#
# 1 90.9931 34.2002 35.6659 3.3587 -0.1715 2.3232
# 2 34.2002 166.0284 70.1577 3.5679 -10.7237 2.4280
# 3 35.6659 70.1577 209.0305 -9.4553 -9.8197 6.9330
# 4 3.3587 3.5679 -9.4553 70.3216 -2.1903 -8.3591
# 5 -0.1715 -10.7237 -9.8197 -2.1903 43.7569 3.8327
# 6 2.3232 2.4280 6.9330 -8.3591 3.8327 41.5735
#
#
#
# Elastic Compliance Matrix: (Units=1/GPa)
#
#
# Indices 1 2 3 4 5 6 
#
# 1 0.012347 -0.001930 -0.001516 -0.000768 -0.000768 -0.000408
# 2 -0.001930 0.007415 -0.002115 -0.000552 0.001325 -0.000206
# 3 -0.001516 -0.002115 0.005858 0.000916 0.000895 -0.000667
# 4 -0.000768 -0.000552 0.000916 0.014763 0.000558 0.002839
# 5 -0.000768 0.001325 0.000895 0.000558 0.023601 -0.002247
# 6 -0.000408 -0.000206 -0.000667 0.002839 -0.002247 0.024978
#
#
# Mechanical properties :
#
#
# Convention : Reuss Voigt Hill
#
# Bulk Modulus (GPa) = 68.97796 82.89994 75.93895
# Shear Modulus (GPa) = 47.65683 52.86562 50.26123
#
# Velocity S-wave (km/s) = 4.21090 4.43505 4.32443
# Velocity P-wave (km/s) = 7.02188 7.55452 7.29307
#
# Compressibility (1/GPa) = 0.01449738
#
# Stress axis : x y z
#
# Youngs Moduli (GPa) = 80.99287 134.86404 170.69929
#
# Poissons Ratio (x) = 0.26025 0.25883
# Poissons Ratio (y) = 0.15629 0.36108
# Poissons Ratio (z) = 0.12281 0.28528
#
# Static dielectric constant tensor:
#      x y z
#    x 2.225090 -0.032980 -0.024360 
#    y -0.032980 2.105570 0.052860 
#    z -0.024360 0.052860 2.086580 
# 
# From -- ./inp_files/616284.got.cif
#   From: 2010.05.17/outbox.cif.g08.bks.cpg/sg2_309_cif.got.tgz:616284.got - 2010.06.03 11:33:40.
