data_PCOD9022815
_publ_section_title
;
Structure prediction by ZEFSAII (Michael W. Deem and Ramdas Pophale) SiO2 
 PCOD9022815
Probable space group: P -1
;
_chemical_formula_sum "Si O2"
_cell_formula_units_Z 16
_cell_length_a 15.064437
_cell_length_b 13.547750
_cell_length_c 11.036324
_cell_angle_alpha 47.361981
_cell_angle_beta 25.325460
_cell_angle_gamma 40.477905
_cell_volume 625.028801
_symmetry_space_group_name_H-M "P -1"
_symmetry_group_IT_number 2
_symmetry_cell_setting 'triclinic'
loop_
_space_group_symop_operation_xyz
x,y,z
-x,-y,-z
loop_
_atom_site_type_symbol
_atom_site_label
_atom_site_fract_x
_atom_site_fract_y
_atom_site_fract_z
Si Si1 0.882575 0.176284 0.951357
Si Si2 0.509876 0.501308 0.132852
Si Si3 0.991735 0.771074 0.606249
Si Si4 0.181835 0.330413 0.878476
Si Si5 0.896991 0.786316 0.145948
Si Si6 0.398500 0.681085 0.490074
Si Si7 0.225891 0.924808 0.078486
Si Si8 0.607420 0.729866 0.953625
O O1 0.827848 0.164671 0.889634
O O2 0.638956 0.326276 0.160829
O O3 0.071177 0.220106 0.744913
O O4 0.000000 0.000000 0.000000
O O5 0.668377 0.572627 0.938310
O O6 0.246889 0.619756 0.403257
O O7 0.500000 0.500000 0.000000
O O8 0.023313 0.919651 0.417371
O O9 0.903113 0.771871 0.852275
O O10 0.812499 0.750984 0.750290
O O11 0.431368 0.287803 0.659723
O O12 0.000000 0.500000 0.000000
O O13 0.174111 0.321577 0.750788
O O14 0.146641 0.749979 0.805423
O O15 0.741986 0.951005 0.143262
O O16 0.500000 0.500000 0.500000
O O17 0.432030 0.739004 0.270790
O O18 0.455229 0.851932 0.939625
#
# Coordination Sequence:
#
# PCOD9022815 Si02
#       8
#     2   2   2   2   2   2   2   2
#     4  10  22  41  62  91 129 166 212 262 312 377
#     4  11  20  39  66  92 121 165 215 257 317 375
#     4  10  23  40  64  93 129 156 210 271 310 381
#     4  11  24  39  59  97 127 157 214 262 315 386
#     4  11  23  40  67  87 129 174 204 265 322 375
#     4  11  22  39  62  92 125 164 206 259 322 375
#     4  10  22  44  62  91 126 170 216 254 322 381
#     4  10  22  39  64  93 127 160 208 272 311 378
#
# _framework density 25.598821000000001
#
# number of rings (size 3 to 8) (size 9 to 14) (size 15 to 20)
#    0.000    1.500    3.750    2.250    3.500    3.500 
#    0.000    3.750    0.000    5.250    0.000    0.000 
#    0.000    0.000    0.000    0.000    0.000    0.000 
#
# Total GULP energy -89202.905300 kJ/mol
# GULP energy per Si atom -5575.181581 kJ/mol
# Density = 2.554056 g / cm^3
# Si number density = 25.598821 Si / 1000 Ang^3
#
#
#
# Elastic Constant Matrix: (Units=GPa)
#
#
# Indices 1 2 3 4 5 6 
#
# 1 202.4415 4.6529 2.8937 17.2128 -24.0689 -3.3597
# 2 4.6529 79.5160 1.6907 6.4205 -1.5984 -19.1856
# 3 2.8937 1.6907 62.7720 1.7420 -20.5399 -7.8648
# 4 17.2128 6.4205 1.7420 15.4532 -2.2805 -9.1594
# 5 -24.0689 -1.5984 -20.5399 -2.2805 38.6323 -1.7080
# 6 -3.3597 -19.1856 -7.8648 -9.1594 -1.7080 44.2405
#
#
#
# Elastic Compliance Matrix: (Units=1/GPa)
#
#
# Indices 1 2 3 4 5 6 
#
# 1 0.005927 0.000112 0.001112 -0.006496 0.003883 -0.000499
# 2 0.000112 0.014184 0.000804 -0.002472 0.001196 0.005837
# 3 0.001112 0.000804 0.020260 0.000610 0.011738 0.004614
# 4 -0.006496 -0.002472 0.000610 0.082456 0.001736 0.015682
# 5 0.003883 0.001196 0.011738 0.001736 0.034901 0.004607
# 6 -0.000499 0.005837 0.004614 0.015682 0.004607 0.029342
#
#
# Mechanical properties :
#
#
# Convention : Reuss Voigt Hill
#
# Bulk Modulus (GPa) = 22.50865 40.35600 31.43233
# Shear Modulus (GPa) = 25.27509 42.03136 33.65323
#
# Velocity S-wave (km/s) = 3.14563 4.05646 3.62973
# Velocity P-wave (km/s) = 4.69097 6.14320 5.46553
#
# Compressibility (1/GPa) = 0.04442736
#
# Stress axis : x y z
#
# Youngs Moduli (GPa) = 168.72016 70.49954 49.35904
#
# Poissons Ratio (x) = -0.00788 -0.05489
# Poissons Ratio (y) = -0.01886 -0.03969
# Poissons Ratio (z) = -0.18764 -0.05669
#
# Static dielectric constant tensor:
#      x y z
#    x 1.810010 -0.215830 0.040300 
#    y -0.215830 1.893590 -0.046720 
#    z 0.040300 -0.046720 2.052820 
# 
# From -- ./inp_files/454603.got.cif
#   From: 2010.05.17/outbox.cif.g08.bks.cpg/sg2_228_cif.got.tgz:454603.got - 2010.06.03 11:33:40.
