data_PCOD9022366
_publ_section_title
;
Structure prediction by ZEFSAII (Michael W. Deem and Ramdas Pophale) SiO2 
 PCOD9022366
Probable space group: P -1
;
_chemical_formula_sum "Si O2"
_cell_formula_units_Z 12
_cell_length_a 7.920813
_cell_length_b 8.831997
_cell_length_c 13.153486
_cell_angle_alpha 76.562593
_cell_angle_beta 34.990878
_cell_angle_gamma 92.557099
_cell_volume 465.448044
_symmetry_space_group_name_H-M "P -1"
_symmetry_group_IT_number 2
_symmetry_cell_setting 'triclinic'
loop_
_space_group_symop_operation_xyz
x,y,z
-x,-y,-z
loop_
_atom_site_type_symbol
_atom_site_label
_atom_site_fract_x
_atom_site_fract_y
_atom_site_fract_z
Si Si1 0.779050 0.762808 0.990888
Si Si2 0.722301 0.158002 0.452574
Si Si3 0.924724 0.500028 0.656255
Si Si4 0.737340 0.729202 0.474146
Si Si5 0.572233 0.013757 0.843836
Si Si6 0.369992 0.790518 0.800937
O O1 0.030031 0.839195 0.760329
O O2 0.992492 0.723477 0.975504
O O3 0.459169 0.610578 0.127340
O O4 0.646933 0.887453 0.094138
O O5 0.445009 0.205129 0.529522
O O6 0.933353 0.311461 0.398543
O O7 0.552446 0.979965 0.625873
O O8 0.000000 0.500000 0.500000
O O9 0.125720 0.399132 0.619805
O O10 0.487079 0.666173 0.701312
O O11 0.047667 0.868915 0.359854
O O12 0.469681 0.839608 0.859710
O O13 0.500000 0.000000 0.000000
#
# Coordination Sequence:
#
# PCOD9022366 Si02
#       6
#     2   2   2   2   2   2
#     4  10  22  39  61  90 120 160 205 251 301 357
#     4  11  21  41  65  89 121 162 205 253 302 358
#     4  11  24  41  61  88 128 167 200 245 308 366
#     4  10  22  39  61  90 120 160 205 251 301 357
#     4  11  21  34  57  92 124 155 199 252 302 357
#     4  11  22  40  65  91 121 160 205 254 302 357
#
# _framework density 25.781610000000001
#
# number of rings (size 3 to 8) (size 9 to 14) (size 15 to 20)
#    0.000    1.333    0.000    8.000    0.000    2.667 
#    0.000    3.333    0.000    0.000    0.000    0.000 
#    0.000    0.000    0.000    0.000    0.000    0.000 
#
# Total GULP energy -67137.524783 kJ/mol
# GULP energy per Si atom -5594.793732 kJ/mol
# Density = 2.572293 g / cm^3
# Si number density = 25.781610 Si / 1000 Ang^3
#
#
#
# Elastic Constant Matrix: (Units=GPa)
#
#
# Indices 1 2 3 4 5 6 
#
# 1 81.6679 21.0378 48.8349 -0.3321 -9.8565 7.6271
# 2 21.0378 103.3389 36.6661 -16.2551 -12.6611 21.7205
# 3 48.8349 36.6661 113.6848 -2.1386 -32.3843 -10.4163
# 4 -0.3321 -16.2551 -2.1386 30.3925 -2.0706 -6.7799
# 5 -9.8565 -12.6611 -32.3843 -2.0706 48.1801 9.2950
# 6 7.6271 21.7205 -10.4163 -6.7799 9.2950 48.0201
#
#
#
# Elastic Compliance Matrix: (Units=1/GPa)
#
#
# Indices 1 2 3 4 5 6 
#
# 1 0.017479 -0.000055 -0.008273 -0.001512 -0.001191 -0.004529
# 2 -0.000055 0.013828 -0.004300 0.005729 0.002293 -0.006814
# 3 -0.008273 -0.004300 0.016262 0.000459 0.007070 0.005483
# 4 -0.001512 0.005729 0.000459 0.036702 0.002614 0.002424
# 5 -0.001191 0.002293 0.007070 0.002614 0.026775 -0.004128
# 6 -0.004529 -0.006814 0.005483 0.002424 -0.004128 0.026957
#
#
# Mechanical properties :
#
#
# Convention : Reuss Voigt Hill
#
# Bulk Modulus (GPa) = 44.81574 56.86324 50.83949
# Shear Modulus (GPa) = 29.29195 38.12873 33.71034
#
# Velocity S-wave (km/s) = 3.37435 3.84983 3.61991
# Velocity P-wave (km/s) = 5.70983 6.47034 6.10194
#
# Compressibility (1/GPa) = 0.02231359
#
# Stress axis : x y z
#
# Youngs Moduli (GPa) = 57.21108 72.31801 61.49355
#
# Poissons Ratio (x) = 0.00395 0.50876
# Poissons Ratio (y) = 0.00313 0.26440
# Poissons Ratio (z) = 0.47333 0.31094
#
# Static dielectric constant tensor:
#      x y z
#    x 2.137390 -0.136980 0.017800 
#    y -0.136980 2.107040 0.010360 
#    z 0.017800 0.010360 2.154310 
# 
# From -- ./inp_files/153654.got.cif
#   From: 2010.05.17/outbox.cif.g08.bks.cpg/sg2_77_cif.got.tgz:153654.got - 2010.06.03 11:33:40.
