data_PCOD9022424
_publ_section_title
;
Structure prediction by ZEFSAII (Michael W. Deem and Ramdas Pophale) SiO2 
 PCOD9022424
Probable space group: P -1
;
_chemical_formula_sum "Si O2"
_cell_formula_units_Z 15
_cell_length_a 9.564976
_cell_length_b 6.660613
_cell_length_c 11.912483
_cell_angle_alpha 97.047103
_cell_angle_beta 88.928164
_cell_angle_gamma 122.506875
_cell_volume 634.177223
_symmetry_space_group_name_H-M "P -1"
_symmetry_group_IT_number 2
_symmetry_cell_setting 'triclinic'
loop_
_space_group_symop_operation_xyz
x,y,z
-x,-y,-z
loop_
_atom_site_type_symbol
_atom_site_label
_atom_site_fract_x
_atom_site_fract_y
_atom_site_fract_z
Si Si1 0.490253 0.184568 0.265466
Si Si2 0.004707 0.239857 0.998105
Si Si3 0.093125 0.492023 0.353518
Si Si4 0.500000 0.000000 0.500000
Si Si5 0.221866 0.704915 0.138004
Si Si6 0.219334 0.865951 0.793166
Si Si7 0.897692 0.726100 0.445199
Si Si8 0.595440 0.690330 0.316845
O O1 0.675593 0.252904 0.238157
O O2 0.469089 0.409197 0.274338
O O3 0.458536 0.090052 0.387594
O O4 0.379117 0.971877 0.163807
O O5 0.870885 0.206511 0.091893
O O6 0.178340 0.486500 0.039726
O O7 0.930807 0.260150 0.883679
O O8 0.000000 0.000000 0.000000
O O9 0.208004 0.590643 0.251477
O O10 0.172454 0.458252 0.460306
O O11 0.927830 0.241044 0.304446
O O12 0.028423 0.667766 0.389080
O O13 0.546074 0.831415 0.411836
O O14 0.339563 0.147410 0.785352
O O15 0.749400 0.690776 0.370264
O O16 0.000000 0.000000 0.500000
#
# Coordination Sequence:
#
# PCOD9022424 Si02
#       8
#     2   2   2   1   2   2   2   2
#     4  11  24  43  65  94 139 177 216 267 332 392
#     4  10  24  46  71  97 128 165 224 287 337 387
#     4  10  22  39  61  97 131 167 227 270 317 393
#     4  10  26  42  56  98 140 178 218 256 316 410
#     4  10  25  43  68  98 126 172 220 280 329 397
#     4  10  22  42  64  94 127 169 223 269 323 403
#     4  11  22  35  64  96 128 177 224 266 323 385
#     4  11  23  41  64  94 136 181 217 272 326 388
#
# _framework density 23.652692999999999
#
# number of rings (size 3 to 8) (size 9 to 14) (size 15 to 20)
#    0.000    1.600    2.667    0.400    5.600    3.733 
#    0.000    1.333    0.000    0.000    0.000    0.000 
#    0.000    0.000    0.000    0.000    0.000    0.000 
#
# Total GULP energy -83553.556750 kJ/mol
# GULP energy per Si atom -5570.237117 kJ/mol
# Density = 2.359886 g / cm^3
# Si number density = 23.652693 Si / 1000 Ang^3
#
#
#
# Elastic Constant Matrix: (Units=GPa)
#
#
# Indices 1 2 3 4 5 6 
#
# 1 47.1143 37.5642 11.1735 -0.3027 3.7841 -9.5756
# 2 37.5642 162.9608 22.7575 18.0264 5.5449 -29.4606
# 3 11.1735 22.7575 59.9996 -9.1428 0.1012 -1.0010
# 4 -0.3027 18.0264 -9.1428 25.7320 4.6508 13.2992
# 5 3.7841 5.5449 0.1012 4.6508 19.1064 -0.9458
# 6 -9.5756 -29.4606 -1.0010 13.2992 -0.9458 38.2858
#
#
#
# Elastic Compliance Matrix: (Units=1/GPa)
#
#
# Indices 1 2 3 4 5 6 
#
# 1 0.027179 -0.006410 -0.001856 0.005033 -0.004740 -0.000049
# 2 -0.006410 0.013756 -0.006986 -0.021177 0.003273 0.016236
# 3 -0.001856 -0.006986 0.022468 0.019713 -0.003125 -0.012177
# 4 0.005033 -0.021177 0.019713 0.087572 -0.018519 -0.045398
# 5 -0.004740 0.003273 -0.003125 -0.018519 0.057302 0.009100
# 6 -0.000049 0.016236 -0.012177 -0.045398 0.009100 0.054277
#
#
# Mechanical properties :
#
#
# Convention : Reuss Voigt Hill
#
# Bulk Modulus (GPa) = 30.39526 45.89612 38.14569
# Shear Modulus (GPa) = 16.44605 29.86348 23.15477
#
# Velocity S-wave (km/s) = 2.63974 3.55714 3.13221
# Velocity P-wave (km/s) = 4.70845 6.02638 5.40772
#
# Compressibility (1/GPa) = 0.03289987
#
# Stress axis : x y z
#
# Youngs Moduli (GPa) = 36.79297 72.69543 44.50755
#
# Poissons Ratio (x) = 0.46598 0.08261
# Poissons Ratio (y) = 0.23584 0.31091
# Poissons Ratio (z) = 0.06829 0.50782
#
# Static dielectric constant tensor:
#      x y z
#    x 1.922730 0.085700 0.021310 
#    y 0.085700 1.990900 0.046050 
#    z 0.021310 0.046050 1.905660 
# 
# From -- ./inp_files/410593.got.cif
#   From: 2010.05.17/outbox.cif.g08.bks.cpg/sg2_206_cif.got.tgz:410593.got - 2010.06.03 11:33:40.
