data_PCOD9022804
_publ_section_title
;
Structure prediction by ZEFSAII (Michael W. Deem and Ramdas Pophale) SiO2 
 PCOD9022804
Probable space group: P -1
;
_chemical_formula_sum "Si O2"
_cell_formula_units_Z 10
_cell_length_a 8.785873
_cell_length_b 16.000475
_cell_length_c 5.720803
_cell_angle_alpha 125.916773
_cell_angle_beta 84.119328
_cell_angle_gamma 129.564478
_cell_volume 452.265715
_symmetry_space_group_name_H-M "P -1"
_symmetry_group_IT_number 2
_symmetry_cell_setting 'triclinic'
loop_
_space_group_symop_operation_xyz
x,y,z
-x,-y,-z
loop_
_atom_site_type_symbol
_atom_site_label
_atom_site_fract_x
_atom_site_fract_y
_atom_site_fract_z
Si Si1 0.571562 0.914528 0.842088
Si Si2 0.243104 0.593854 0.535245
Si Si3 0.432872 0.550549 0.785394
Si Si4 0.171899 0.346572 0.870886
Si Si5 0.291508 0.977672 0.502262
O O1 0.359758 0.739073 0.608489
O O2 0.692219 0.956497 0.643073
O O3 0.500000 0.000000 0.000000
O O4 0.697948 0.960078 0.144641
O O5 0.384024 0.635000 0.811672
O O6 0.000000 0.500000 0.500000
O O7 0.228116 0.481032 0.209066
O O8 0.500000 0.500000 0.500000
O O9 0.210724 0.397347 0.680777
O O10 0.637323 0.644312 0.084381
O O11 0.935788 0.194406 0.732973
O O12 0.500000 0.000000 0.500000
#
# Coordination Sequence:
#
# PCOD9022804 Si02
#       5
#     2   2   2   2   2
#     4  10  23  40  58  96 137 170 209 269 337 390
#     4  11  23  38  68  99 130 169 226 276 323 397
#     4   9  22  41  66  93 129 169 229 270 330 384
#     4  10  22  42  69  92 129 178 220 273 327 398
#     4  10  22  39  64  92 133 173 213 266 336 391
#
# _framework density 22.110894999999999
#
# number of rings (size 3 to 8) (size 9 to 14) (size 15 to 20)
#    0.000    2.000    0.000    2.400   14.000    0.800 
#    0.000    2.000    0.000    0.000    0.000    0.000 
#    0.000    0.000    0.000    0.000    0.000    0.000 
#
# Total GULP energy -55769.829831 kJ/mol
# GULP energy per Si atom -5576.982983 kJ/mol
# Density = 2.206057 g / cm^3
# Si number density = 22.110895 Si / 1000 Ang^3
#
#
#
# Elastic Constant Matrix: (Units=GPa)
#
#
# Indices 1 2 3 4 5 6 
#
# 1 74.6798 48.5360 7.7740 13.5426 5.8832 2.9915
# 2 48.5360 242.8600 68.5162 14.0558 8.1175 12.4724
# 3 7.7740 68.5162 87.8820 0.0948 2.8061 2.8477
# 4 13.5426 14.0558 0.0948 57.8053 6.5481 3.3026
# 5 5.8832 8.1175 2.8061 6.5481 13.4280 0.5899
# 6 2.9915 12.4724 2.8477 3.3026 0.5899 30.7972
#
#
#
# Elastic Compliance Matrix: (Units=1/GPa)
#
#
# Indices 1 2 3 4 5 6 
#
# 1 0.016194 -0.003315 0.001287 -0.002522 -0.004130 0.000000
# 2 -0.003315 0.006184 -0.004439 -0.000505 -0.001037 -0.001698
# 3 0.001287 -0.004439 0.014762 0.000900 -0.001415 0.000238
# 4 -0.002522 -0.000505 0.000900 0.019002 -0.007977 -0.001519
# 5 -0.004130 -0.001037 -0.001415 -0.007977 0.081082 0.000254
# 6 0.000000 -0.001698 0.000238 -0.001519 0.000254 0.033294
#
#
# Mechanical properties :
#
#
# Convention : Reuss Voigt Hill
#
# Bulk Modulus (GPa) = 41.31398 72.78603 57.05001
# Shear Modulus (GPa) = 26.10668 39.11247 32.60958
#
# Velocity S-wave (km/s) = 3.43988 4.21042 3.84450
# Velocity P-wave (km/s) = 5.87388 7.52509 6.75016
#
# Compressibility (1/GPa) = 0.02420488
#
# Stress axis : x y z
#
# Youngs Moduli (GPa) = 61.75111 161.71694 67.73973
#
# Poissons Ratio (x) = 0.53617 -0.08718
# Poissons Ratio (y) = 0.20474 0.30070
# Poissons Ratio (z) = -0.07947 0.71787
#
# Static dielectric constant tensor:
#      x y z
#    x 1.815170 0.001160 -0.016920 
#    y 0.001160 1.958160 -0.236670 
#    z -0.016920 -0.236670 2.101400 
# 
# From -- ./inp_files/15321.got.cif
#   From: 2010.05.17/outbox.cif.g08.bks.cpg/sg2_8_cif.got.tgz:15321.got - 2010.06.03 11:33:40.
