data_PCOD9022480
_publ_section_title
;
Structure prediction by ZEFSAII (Michael W. Deem and Ramdas Pophale) SiO2 
 PCOD9022480
Probable space group: P -1
;
_chemical_formula_sum "Si O2"
_cell_formula_units_Z 12
_cell_length_a 6.801963
_cell_length_b 9.689559
_cell_length_c 12.063490
_cell_angle_alpha 67.060388
_cell_angle_beta 55.677594
_cell_angle_gamma 45.413540
_cell_volume 467.628679
_symmetry_space_group_name_H-M "P -1"
_symmetry_group_IT_number 2
_symmetry_cell_setting 'triclinic'
loop_
_space_group_symop_operation_xyz
x,y,z
-x,-y,-z
loop_
_atom_site_type_symbol
_atom_site_label
_atom_site_fract_x
_atom_site_fract_y
_atom_site_fract_z
Si Si1 0.358331 0.906131 0.406529
Si Si2 0.821536 0.973109 0.974579
Si Si3 0.601726 0.274354 0.776701
Si Si4 0.483659 0.593870 0.593466
Si Si5 0.796167 0.774354 0.776705
Si Si6 0.783088 0.473108 0.974583
O O1 0.473012 0.786074 0.292480
O O2 0.529894 0.750000 0.499995
O O3 0.343257 0.090143 0.331593
O O4 0.000000 0.000000 0.500000
O O5 0.834972 0.074489 0.831015
O O6 0.977820 0.750001 0.999997
O O7 0.470332 0.092554 0.089698
O O8 0.000000 0.000000 0.000000
O O9 0.686740 0.409857 0.668399
O O10 0.334844 0.407447 0.910298
O O11 0.500000 0.500000 0.500000
O O12 0.130126 0.713929 0.707518
O O13 0.854028 0.574487 0.831019
O O14 0.500000 0.500000 0.000000
#
# Coordination Sequence:
#
# PCOD9022480 Si02
#       6
#     2   2   2   2   2   2
#     4   9  20  40  62  87 120 160 201 253 306 355
#     4  11  23  40  60  90 124 166 203 250 306 364
#     4  10  22  39  62  90 124 161 201 254 310 364
#     4   9  20  40  62  87 120 160 201 253 306 355
#     4  10  22  39  62  90 124 161 201 254 310 364
#     4  11  23  40  60  90 124 166 203 250 306 364
#
# _framework density 25.661384999999999
#
# number of rings (size 3 to 8) (size 9 to 14) (size 15 to 20)
#    0.000    2.000    3.333    0.000    9.333    5.333 
#    0.000    0.000    0.000   26.000    0.000    0.000 
#    0.000    0.000    0.000    0.000    0.000    0.000 
#
# Total GULP energy -67005.097910 kJ/mol
# GULP energy per Si atom -5583.758159 kJ/mol
# Density = 2.560298 g / cm^3
# Si number density = 25.661385 Si / 1000 Ang^3
#
#
#
# Elastic Constant Matrix: (Units=GPa)
#
#
# Indices 1 2 3 4 5 6 
#
# 1 61.2323 38.9882 32.4257 -9.9713 0.2069 0.6400
# 2 38.9882 241.2001 97.3586 -58.0963 -4.0713 4.9815
# 3 32.4257 97.3586 146.9565 -54.9978 -5.8246 4.1721
# 4 -9.9713 -58.0963 -54.9978 116.1709 3.8988 -5.6895
# 5 0.2069 -4.0713 -5.8246 3.8988 12.5100 2.1977
# 6 0.6400 4.9815 4.1721 -5.6895 2.1977 27.4665
#
#
#
# Elastic Compliance Matrix: (Units=1/GPa)
#
#
# Indices 1 2 3 4 5 6 
#
# 1 0.019245 -0.002017 -0.003327 -0.000832 -0.002341 0.000438
# 2 -0.002017 0.006034 -0.003013 0.001395 0.000215 -0.000318
# 3 -0.003327 -0.003013 0.010887 0.003222 0.003248 -0.000622
# 4 -0.000832 0.001395 0.003222 0.010900 -0.001723 0.001672
# 5 -0.002341 0.000215 0.003248 -0.001723 0.083413 -0.007509
# 6 0.000438 -0.000318 -0.000622 0.001672 -0.007509 0.037497
#
#
# Mechanical properties :
#
#
# Convention : Reuss Voigt Hill
#
# Bulk Modulus (GPa) = 51.40430 87.43709 69.42070
# Shear Modulus (GPa) = 26.15408 49.93724 38.04566
#
# Velocity S-wave (km/s) = 3.19595 4.41614 3.85464
# Velocity P-wave (km/s) = 5.80466 7.75567 6.84998
#
# Compressibility (1/GPa) = 0.01945363
#
# Stress axis : x y z
#
# Youngs Moduli (GPa) = 51.96152 165.71557 91.85059
#
# Poissons Ratio (x) = 0.33424 0.30555
# Poissons Ratio (y) = 0.10480 0.27674
# Poissons Ratio (z) = 0.17286 0.49930
#
# Static dielectric constant tensor:
#      x y z
#    x 2.103910 0.000430 0.001500 
#    y 0.000430 2.101910 -0.007730 
#    z 0.001500 -0.007730 2.076320 
# 
# From -- ./inp_files/392292.got.cif
#   From: 2010.05.17/outbox.cif.g08.bks.cpg/sg2_197_cif.got.tgz:392292.got - 2010.06.03 11:33:40.
