data_PCOD9022889
_publ_section_title
;
Structure prediction by ZEFSAII (Michael W. Deem and Ramdas Pophale) SiO2 
 PCOD9022889
Probable space group: P -1
;
_chemical_formula_sum "Si O2"
_cell_formula_units_Z 16
_cell_length_a 10.356044
_cell_length_b 15.985211
_cell_length_c 7.433884
_cell_angle_alpha 116.498330
_cell_angle_beta 129.877895
_cell_angle_gamma 93.128303
_cell_volume 733.906860
_symmetry_space_group_name_H-M "P -1"
_symmetry_group_IT_number 2
_symmetry_cell_setting 'triclinic'
loop_
_space_group_symop_operation_xyz
x,y,z
-x,-y,-z
loop_
_atom_site_type_symbol
_atom_site_label
_atom_site_fract_x
_atom_site_fract_y
_atom_site_fract_z
Si Si1 0.014950 0.756024 0.058636
Si Si2 0.996252 0.786723 0.681515
Si Si3 0.289537 0.966829 0.351214
Si Si4 0.453231 0.499134 0.167680
Si Si5 0.630870 0.354051 0.295555
Si Si6 0.618460 0.740606 0.687792
Si Si7 0.002449 0.366217 0.737063
Si Si8 0.623487 0.803818 0.362835
O O1 0.978631 0.719183 0.782034
O O2 0.840566 0.779383 0.974576
O O3 0.210301 0.871336 0.335242
O O4 0.013399 0.668842 0.104735
O O5 0.787593 0.771978 0.438488
O O6 0.069763 0.744823 0.545454
O O7 0.136920 0.907175 0.994358
O O8 0.500000 0.000000 0.500000
O O9 0.300957 0.076614 0.525682
O O10 0.552114 0.437795 0.294064
O O11 0.540364 0.619687 0.430109
O O12 0.500000 0.500000 0.000000
O O13 0.224153 0.439805 0.947099
O O14 0.510526 0.270281 0.266979
O O15 0.856106 0.407815 0.594348
O O16 0.570758 0.285063 0.991795
O O17 0.605961 0.803628 0.563434
#
# Coordination Sequence:
#
# PCOD9022889 Si02
#       8
#     2   2   2   2   2   2   2   2
#     4   9  22  42  65  94 131 177 213 268 336 375
#     4   9  20  41  67  90 134 174 214 273 326 384
#     4  10  22  39  65 100 134 171 222 274 326 395
#     4  12  24  49  68  96 137 173 221 276 333 389
#     4  12  26  41  70  99 130 177 220 269 334 389
#     4  11  23  44  70  93 133 175 220 277 325 396
#     4  12  24  44  67 101 137 170 224 272 323 401
#     4  11  21  45  64  96 131 175 225 264 334 389
#
# _framework density 21.801131000000002
#
# number of rings (size 3 to 8) (size 9 to 14) (size 15 to 20)
#    0.750    0.500    3.750    2.250    1.750    1.000 
#    2.250    2.500    0.000    0.000    0.000    0.000 
#    0.000    0.000    0.000    0.000    0.000    0.000 
#
# Total GULP energy -89394.868649 kJ/mol
# GULP energy per Si atom -5587.179291 kJ/mol
# Density = 2.175151 g / cm^3
# Si number density = 21.801131 Si / 1000 Ang^3
#
#
#
# Elastic Constant Matrix: (Units=GPa)
#
#
# Indices 1 2 3 4 5 6 
#
# 1 64.8987 23.3786 28.7858 -13.2066 24.0301 8.7286
# 2 23.3786 58.3834 47.3321 -2.9966 18.3667 9.5741
# 3 28.7858 47.3321 84.3059 -9.0609 31.1936 0.1819
# 4 -13.2066 -2.9966 -9.0609 35.5360 -3.2725 1.2098
# 5 24.0301 18.3667 31.1936 -3.2725 43.8398 2.9313
# 6 8.7286 9.5741 0.1819 1.2098 2.9313 24.8727
#
#
#
# Elastic Compliance Matrix: (Units=1/GPa)
#
#
# Indices 1 2 3 4 5 6 
#
# 1 0.023080 -0.003695 -0.001706 0.007209 -0.008952 -0.005960
# 2 -0.003695 0.036148 -0.019936 -0.002826 0.001694 -0.012534
# 3 -0.001706 -0.019936 0.028082 0.003515 -0.011047 0.009198
# 4 0.007209 -0.002826 0.003515 0.031315 -0.002753 -0.002667
# 5 -0.008952 0.001694 -0.011047 -0.002753 0.034755 -0.001392
# 6 -0.005960 -0.012534 0.009198 -0.002667 -0.001392 0.047347
#
#
# Mechanical properties :
#
#
# Convention : Reuss Voigt Hill
#
# Bulk Modulus (GPa) = 27.29611 45.17566 36.23589
# Shear Modulus (GPa) = 18.96711 28.05581 23.51146
#
# Velocity S-wave (km/s) = 2.95279 3.59123 3.28754
# Velocity P-wave (km/s) = 4.91660 6.16138 5.57385
#
# Compressibility (1/GPa) = 0.03663526
#
# Stress axis : x y z
#
# Youngs Moduli (GPa) = 43.32788 27.66405 35.60985
#
# Poissons Ratio (x) = 0.10223 0.06074
# Poissons Ratio (y) = 0.16012 0.70993
# Poissons Ratio (z) = 0.07390 0.55152
#
# Static dielectric constant tensor:
#      x y z
#    x 1.808340 0.015730 -0.009050 
#    y 0.015730 1.824340 -0.002310 
#    z -0.009050 -0.002310 1.845360 
# 
# From -- ./inp_files/273953.got.cif
#   From: 2010.05.17/outbox.cif.g08.bks.cpg/sg2_137_cif.got.tgz:273953.got - 2010.06.03 11:33:40.
