data_PCOD9022641
_publ_section_title
;
Structure prediction by ZEFSAII (Michael W. Deem and Ramdas Pophale) SiO2 
 PCOD9022641
Probable space group: P -1
;
_chemical_formula_sum "Si O2"
_cell_formula_units_Z 14
_cell_length_a 11.496918
_cell_length_b 12.133087
_cell_length_c 11.929603
_cell_angle_alpha 39.960449
_cell_angle_beta 38.474829
_cell_angle_gamma 41.708578
_cell_volume 618.683038
_symmetry_space_group_name_H-M "P -1"
_symmetry_group_IT_number 2
_symmetry_cell_setting 'triclinic'
loop_
_space_group_symop_operation_xyz
x,y,z
-x,-y,-z
loop_
_atom_site_type_symbol
_atom_site_label
_atom_site_fract_x
_atom_site_fract_y
_atom_site_fract_z
Si Si1 0.780832 0.915926 0.053158
Si Si2 0.830226 0.555192 0.179877
Si Si3 0.376284 0.163858 0.544605
Si Si4 0.426606 0.230580 0.976792
Si Si5 0.009801 0.819076 0.301736
Si Si6 0.961192 0.836544 0.590684
Si Si7 0.447003 0.518558 0.157082
O O1 0.870326 0.706800 0.108281
O O2 0.632072 0.915018 0.265664
O O3 0.639874 0.060862 0.955726
O O4 0.946893 0.996081 0.905292
O O5 0.861833 0.362822 0.364721
O O6 0.623046 0.667524 0.184877
O O7 0.000000 0.500000 0.000000
O O8 0.465176 0.323332 0.346719
O O9 0.153399 0.225426 0.613435
O O10 0.500000 0.000000 0.500000
O O11 0.245426 0.167541 0.198459
O O12 0.425199 0.383436 0.949791
O O13 0.219526 0.654436 0.247638
O O14 0.948593 0.849159 0.455503
O O15 0.000000 0.000000 0.500000
O O16 0.500000 0.500000 0.000000
#
# Coordination Sequence:
#
# PCOD9022641 Si02
#       7
#     2   2   2   2   2   2   2
#     4  11  23  42  65  95 129 168 213 264 319 381
#     4  10  22  39  63  93 124 165 210 257 318 379
#     4  12  25  41  65  97 127 168 216 265 323 383
#     4  10  23  43  64  91 130 169 212 267 319 379
#     4  11  23  42  65  93 130 170 211 266 321 380
#     4  11  23  42  66  96 128 167 213 266 323 383
#     4  11  24  43  64  91 128 173 217 265 319 379
#
# _framework density 22.628712
#
# number of rings (size 3 to 8) (size 9 to 14) (size 15 to 20)
#    0.000    1.143    0.000    7.286    0.000    8.000 
#    0.000    4.286    0.000    0.000    0.000    0.000 
#    0.000    0.000    0.000    0.000    0.000    0.000 
#
# Total GULP energy -78316.283142 kJ/mol
# GULP energy per Si atom -5594.020224 kJ/mol
# Density = 2.257721 g / cm^3
# Si number density = 22.628712 Si / 1000 Ang^3
#
#
#
# Elastic Constant Matrix: (Units=GPa)
#
#
# Indices 1 2 3 4 5 6 
#
# 1 56.9404 2.6753 10.5547 -21.0957 -15.4395 0.3596
# 2 2.6753 99.5226 15.0323 -20.3577 -9.5691 24.9749
# 3 10.5547 15.0323 82.1173 -23.7836 -11.2766 4.7521
# 4 -21.0957 -20.3577 -23.7836 46.2529 7.9195 -6.5532
# 5 -15.4395 -9.5691 -11.2766 7.9195 43.3405 -5.1814
# 6 0.3596 24.9749 4.7521 -6.5532 -5.1814 33.4700
#
#
#
# Elastic Compliance Matrix: (Units=1/GPa)
#
#
# Indices 1 2 3 4 5 6 
#
# 1 0.023235 0.001762 0.000680 0.010730 0.007066 0.001534
# 2 0.001762 0.013438 -0.000542 0.004940 0.001503 -0.008770
# 3 0.000680 -0.000542 0.014616 0.007155 0.002634 0.000130
# 4 0.010730 0.004940 0.007155 0.032428 0.001052 0.001695
# 5 0.007066 0.001503 0.002634 0.001052 0.026747 0.002775
# 6 0.001534 -0.008770 0.000130 0.001695 0.002775 0.037148
#
#
# Mechanical properties :
#
#
# Convention : Reuss Voigt Hill
#
# Bulk Modulus (GPa) = 18.15216 32.78943 25.47079
# Shear Modulus (GPa) = 30.83124 38.63390 34.73257
#
# Velocity S-wave (km/s) = 3.69519 4.13643 3.92202
# Velocity P-wave (km/s) = 5.12299 6.11024 5.63826
#
# Compressibility (1/GPa) = 0.05508987
#
# Stress axis : x y z
#
# Youngs Moduli (GPa) = 43.03862 74.41534 68.41896
#
# Poissons Ratio (x) = -0.13112 -0.04655
# Poissons Ratio (y) = -0.07584 0.03707
# Poissons Ratio (z) = -0.02928 0.04032
#
# Static dielectric constant tensor:
#      x y z
#    x 1.970380 -0.063980 -0.033000 
#    y -0.063980 1.831030 -0.027210 
#    z -0.033000 -0.027210 1.859090 
# 
# From -- ./inp_files/218167.got.cif
#   From: 2010.05.17/outbox.cif.g08.bks.cpg/sg2_110_cif.got.tgz:218167.got - 2010.06.03 11:33:40.
