data_PCOD9022056
_publ_section_title
;
Structure prediction by ZEFSAII (Michael W. Deem and Ramdas Pophale) SiO2 
 PCOD9022056
Probable space group: P -1
;
_chemical_formula_sum "Si O2"
_cell_formula_units_Z 16
_cell_length_a 17.282799
_cell_length_b 12.581582
_cell_length_c 14.497875
_cell_angle_alpha 126.531185
_cell_angle_beta 32.483272
_cell_angle_gamma 149.659243
_cell_volume 745.841486
_symmetry_space_group_name_H-M "P -1"
_symmetry_group_IT_number 2
_symmetry_cell_setting 'triclinic'
loop_
_space_group_symop_operation_xyz
x,y,z
-x,-y,-z
loop_
_atom_site_type_symbol
_atom_site_label
_atom_site_fract_x
_atom_site_fract_y
_atom_site_fract_z
Si Si1 0.554770 0.419043 0.193250
Si Si2 0.487494 0.066446 0.141486
Si Si3 0.070380 0.937637 0.040105
Si Si4 0.754140 0.676995 0.399947
Si Si5 0.022107 0.429924 0.851845
Si Si6 0.875048 0.257590 0.495433
Si Si7 0.388857 0.919498 0.671505
Si Si8 0.680368 0.596262 0.956358
O O1 0.561764 0.275186 0.151956
O O2 0.303293 0.291064 0.431338
O O3 0.813012 0.694077 0.115331
O O4 0.550526 0.427464 0.090616
O O5 0.232384 0.864585 0.358153
O O6 0.720876 0.164462 0.005936
O O7 0.500000 0.000000 0.000000
O O8 0.989379 0.894741 0.206976
O O9 0.193338 0.171618 0.010312
O O10 0.273315 0.973144 0.843054
O O11 0.500000 0.500000 0.500000
O O12 0.795721 0.555663 0.316146
O O13 0.153046 0.632187 0.755182
O O14 0.000000 0.500000 0.000000
O O15 0.619169 0.057936 0.582962
O O16 0.000000 0.500000 0.500000
O O17 0.092225 0.324557 0.271339
O O18 0.500000 0.000000 0.500000
O O19 0.500000 0.500000 0.000000
#
# Coordination Sequence:
#
# PCOD9022056 Si02
#       8
#     2   2   2   2   2   2   2   2
#     4  11  24  45  69 104 134 183 238 287 348 418
#     4  12  26  46  75 103 141 184 238 298 351 417
#     4  11  22  44  68 103 138 179 231 290 347 411
#     4  10  22  38  70 101 137 171 231 285 343 400
#     4  12  22  45  70 107 136 186 233 292 343 416
#     4  12  27  47  71 103 144 187 231 292 359 420
#     4  12  26  41  74 102 143 178 240 286 348 417
#     4  12  28  46  68  98 148 187 233 284 360 426
#
# _framework density 21.452280999999999
#
# number of rings (size 3 to 8) (size 9 to 14) (size 15 to 20)
#    0.000    0.500    3.750    4.125    7.000    2.000 
#    0.000    1.875    0.000    0.000    0.000    0.000 
#    0.000    0.000    0.000    0.000    0.000    0.000 
#
# Total GULP energy -89327.299867 kJ/mol
# GULP energy per Si atom -5582.956242 kJ/mol
# Density = 2.140346 g / cm^3
# Si number density = 21.452281 Si / 1000 Ang^3
#
#
#
# Elastic Constant Matrix: (Units=GPa)
#
#
# Indices 1 2 3 4 5 6 
#
# 1 89.8608 18.1168 70.1147 8.9397 18.4050 -6.6148
# 2 18.1168 66.7958 13.4366 7.2800 -7.8223 -23.4893
# 3 70.1147 13.4366 180.3554 19.6581 8.6468 -17.1103
# 4 8.9397 7.2800 19.6581 33.0618 -18.1181 2.5713
# 5 18.4050 -7.8223 8.6468 -18.1181 49.5607 0.5411
# 6 -6.6148 -23.4893 -17.1103 2.5713 0.5411 44.8309
#
#
#
# Elastic Compliance Matrix: (Units=1/GPa)
#
#
# Indices 1 2 3 4 5 6 
#
# 1 0.019179 -0.005054 -0.006311 -0.004881 -0.008583 -0.001843
# 2 -0.005054 0.020551 0.001601 -0.002950 0.003645 0.010759
# 3 -0.006311 0.001601 0.008720 -0.004420 -0.000579 0.003496
# 4 -0.004881 -0.002950 -0.004420 0.045738 0.018913 -0.006804
# 5 -0.008583 0.003645 -0.000579 0.018913 0.030967 -0.001036
# 6 -0.001843 0.010759 0.003496 -0.006804 -0.001036 0.029408
#
#
# Mechanical properties :
#
#
# Convention : Reuss Voigt Hill
#
# Bulk Modulus (GPa) = 34.57418 60.03868 47.30643
# Shear Modulus (GPa) = 27.21362 41.18028 34.19695
#
# Velocity S-wave (km/s) = 3.56556 4.38610 3.99694
# Velocity P-wave (km/s) = 5.75349 7.32792 6.58791
#
# Compressibility (1/GPa) = 0.02892332
#
# Stress axis : x y z
#
# Youngs Moduli (GPa) = 52.13950 48.65858 114.67897
#
# Poissons Ratio (x) = 0.24591 0.72373
# Poissons Ratio (y) = 0.26350 -0.18360
# Poissons Ratio (z) = 0.32905 -0.07790
#
# Static dielectric constant tensor:
#      x y z
#    x 1.780950 0.033060 -0.031290 
#    y 0.033060 1.762410 -0.057130 
#    z -0.031290 -0.057130 1.660460 
# 
# From -- ./inp_files/538462.got.cif
#   From: 2010.05.17/outbox.cif.g08.bks.cpg/sg2_270_cif.got.tgz:538462.got - 2010.06.03 11:33:40.
