data_PCOD9022253
_publ_section_title
;
Structure prediction by ZEFSAII (Michael W. Deem and Ramdas Pophale) SiO2 
 PCOD9022253
Probable space group: P -1
;
_chemical_formula_sum "Si O2"
_cell_formula_units_Z 14
_cell_length_a 9.149821
_cell_length_b 15.788997
_cell_length_c 9.210566
_cell_angle_alpha 86.800492
_cell_angle_beta 32.422850
_cell_angle_gamma 85.569299
_cell_volume 711.186873
_symmetry_space_group_name_H-M "P -1"
_symmetry_group_IT_number 2
_symmetry_cell_setting 'triclinic'
loop_
_space_group_symop_operation_xyz
x,y,z
-x,-y,-z
loop_
_atom_site_type_symbol
_atom_site_label
_atom_site_fract_x
_atom_site_fract_y
_atom_site_fract_z
Si Si1 0.888174 0.278076 0.785359
Si Si2 0.391276 0.585294 0.503096
Si Si3 0.905087 0.137242 0.126337
Si Si4 0.764080 0.975658 0.378838
Si Si5 0.076538 0.316068 0.943859
Si Si6 0.554104 0.828527 0.709189
Si Si7 0.732796 0.446474 0.723271
O O1 0.935300 0.314950 0.903919
O O2 0.180877 0.234797 0.502178
O O3 0.792455 0.354772 0.755149
O O4 0.664879 0.206654 0.993039
O O5 0.500000 0.500000 0.500000
O O6 0.621044 0.653066 0.323794
O O7 0.353593 0.565945 0.368280
O O8 0.108008 0.621603 0.805856
O O9 0.608213 0.170962 0.310125
O O10 0.041446 0.087364 0.877300
O O11 0.065943 0.219563 0.018519
O O12 0.895570 0.066838 0.267057
O O13 0.664652 0.923589 0.605481
O O14 0.500000 0.000000 0.500000
O O15 0.000000 0.500000 0.500000
O O16 0.500000 0.500000 0.000000
#
# Coordination Sequence:
#
# PCOD9022253 Si02
#       7
#     2   2   2   2   2   2   2
#     4  11  21  35  59  85 116 157 195 244 290 352
#     4  12  25  41  61  87 117 155 192 247 304 354
#     4   9  18  30  51  86 126 160 187 244 296 343
#     4   9  16  28  50  83 132 152 194 235 299 337
#     4  11  21  37  60  87 121 150 197 238 301 350
#     4  10  17  31  50  83 119 153 194 236 288 335
#     4  12  25  44  63  85 115 153 202 248 301 356
#
# _framework density 19.685400999999999
#
# number of rings (size 3 to 8) (size 9 to 14) (size 15 to 20)
#    0.000    1.429    2.857    5.571    2.000    0.000 
#    0.000    0.000    0.000    0.000    0.000    6.000 
#    0.000    0.000    0.000    0.000    0.000    0.000 
#
# Total GULP energy -78123.895019 kJ/mol
# GULP energy per Si atom -5580.278216 kJ/mol
# Density = 1.964060 g / cm^3
# Si number density = 19.685401 Si / 1000 Ang^3
#
#
#
# Elastic Constant Matrix: (Units=GPa)
#
#
# Indices 1 2 3 4 5 6 
#
# 1 63.5711 31.7879 13.3135 -6.7388 7.9274 -16.1317
# 2 31.7879 130.3924 24.9898 -24.9307 -11.0654 -27.1744
# 3 13.3135 24.9898 90.8065 -2.6795 -20.6839 -15.4264
# 4 -6.7388 -24.9307 -2.6795 52.7480 0.9666 -5.2569
# 5 7.9274 -11.0654 -20.6839 0.9666 21.4545 1.1830
# 6 -16.1317 -27.1744 -15.4264 -5.2569 1.1830 26.6018
#
#
#
# Elastic Compliance Matrix: (Units=1/GPa)
#
#
# Indices 1 2 3 4 5 6 
#
# 1 0.022784 -0.003877 -0.004195 0.001986 -0.015020 0.008483
# 2 -0.003877 0.013029 0.001233 0.006833 0.008335 0.012653
# 3 -0.004195 0.001233 0.016727 0.001356 0.017816 0.007891
# 4 0.001986 0.006833 0.001356 0.023822 0.002276 0.013578
# 5 -0.015020 0.008335 0.017816 0.002276 0.073150 0.006935
# 6 0.008483 0.012653 0.007891 0.013578 0.006935 0.062612
#
#
# Mechanical properties :
#
#
# Convention : Reuss Voigt Hill
#
# Bulk Modulus (GPa) = 25.73308 47.21695 36.47502
# Shear Modulus (GPa) = 20.94189 34.47276 27.70733
#
# Velocity S-wave (km/s) = 3.26518 4.18926 3.75574
# Velocity P-wave (km/s) = 5.22644 6.88750 6.11365
#
# Compressibility (1/GPa) = 0.03886049
#
# Stress axis : x y z
#
# Youngs Moduli (GPa) = 43.89036 76.75225 59.78422
#
# Poissons Ratio (x) = 0.29760 0.25079
# Poissons Ratio (y) = 0.17018 -0.07369
# Poissons Ratio (z) = 0.18411 -0.09461
#
# Static dielectric constant tensor:
#      x y z
#    x 1.675990 0.012160 -0.020690 
#    y 0.012160 1.745350 -0.045150 
#    z -0.020690 -0.045150 1.740750 
# 
# From -- ./inp_files/110848.got.cif
#   From: 2010.05.17/outbox.cif.g08.bks.cpg/sg2_56_cif.got.tgz:110848.got - 2010.06.03 11:33:40.
