data_PCOD9022700
_publ_section_title
;
Structure prediction by ZEFSAII (Michael W. Deem and Ramdas Pophale) SiO2 
 PCOD9022700
Probable space group: P -1
;
_chemical_formula_sum "Si O2"
_cell_formula_units_Z 14
_cell_length_a 15.433364
_cell_length_b 8.085324
_cell_length_c 8.181190
_cell_angle_alpha 131.188817
_cell_angle_beta 53.029706
_cell_angle_gamma 106.746756
_cell_volume 603.830209
_symmetry_space_group_name_H-M "P -1"
_symmetry_group_IT_number 2
_symmetry_cell_setting 'triclinic'
loop_
_space_group_symop_operation_xyz
x,y,z
-x,-y,-z
loop_
_atom_site_type_symbol
_atom_site_label
_atom_site_fract_x
_atom_site_fract_y
_atom_site_fract_z
Si Si1 0.098907 0.928602 0.085962
Si Si2 0.581201 0.545175 0.082255
Si Si3 0.513185 0.238439 0.361574
Si Si4 0.113163 0.040612 0.507164
Si Si5 0.644488 0.044952 0.820931
Si Si6 0.035492 0.501546 0.721535
Si Si7 0.175012 0.331562 0.131020
O O1 0.969919 0.051704 0.337248
O O2 0.132671 0.912325 0.227777
O O3 0.169114 0.070172 0.991009
O O4 0.087571 0.700238 0.867516
O O5 0.513345 0.736549 0.401175
O O6 0.500000 0.500000 0.000000
O O7 0.607042 0.297770 0.969834
O O8 0.702409 0.612218 0.966486
O O9 0.500000 0.500000 0.500000
O O10 0.423910 0.128520 0.291739
O O11 0.623035 0.078723 0.063432
O O12 0.058833 0.291304 0.680040
O O13 0.233083 0.034669 0.432229
O O14 0.107748 0.430883 0.432493
O O15 0.906821 0.577051 0.867171
#
# Coordination Sequence:
#
# PCOD9022700 Si02
#       7
#     2   2   2   2   2   2   2
#     4  10  22  39  63  95 138 167 213 260 324 390
#     4  11  26  44  68  96 131 175 227 275 332 391
#     4   9  22  45  68  94 124 170 229 274 329 384
#     4  10  23  38  64 100 129 167 219 258 326 402
#     4  10  23  42  70  94 132 173 220 280 329 387
#     4  10  22  40  63  96 138 170 211 264 324 393
#     4  10  24  40  64  97 133 170 219 264 327 394
#
# _framework density 23.185326
#
# number of rings (size 3 to 8) (size 9 to 14) (size 15 to 20)
#    0.000    2.000    0.000    0.857   10.000   12.000 
#    0.000    0.000    0.000    0.000    0.000    0.000 
#    0.000    0.000    0.000    0.000    0.000    0.000 
#
# Total GULP energy -78100.259433 kJ/mol
# GULP energy per Si atom -5578.589959 kJ/mol
# Density = 2.313256 g / cm^3
# Si number density = 23.185326 Si / 1000 Ang^3
#
#
#
# Elastic Constant Matrix: (Units=GPa)
#
#
# Indices 1 2 3 4 5 6 
#
# 1 87.5123 59.7923 45.4010 4.0036 -0.6156 33.6200
# 2 59.7923 128.4583 35.9525 9.2953 6.3254 34.1862
# 3 45.4010 35.9525 82.3851 -3.5136 17.2856 22.5913
# 4 4.0036 9.2953 -3.5136 30.8173 16.9148 -0.6311
# 5 -0.6156 6.3254 17.2856 16.9148 33.7810 0.4905
# 6 33.6200 34.1862 22.5913 -0.6311 0.4905 45.2467
#
#
#
# Elastic Compliance Matrix: (Units=1/GPa)
#
#
# Indices 1 2 3 4 5 6 
#
# 1 0.026125 -0.006223 -0.012559 -0.010516 0.013460 -0.008732
# 2 -0.006223 0.012258 -0.000728 -0.002726 -0.000609 -0.004306
# 3 -0.012559 -0.000728 0.025071 0.016189 -0.020996 -0.002182
# 4 -0.010516 -0.002726 0.016189 0.056455 -0.036277 0.002971
# 5 0.013460 -0.000609 -0.020996 -0.036277 0.058873 -0.000203
# 6 -0.008732 -0.004306 -0.002182 0.002971 -0.000203 0.032975
#
#
# Mechanical properties :
#
#
# Convention : Reuss Voigt Hill
#
# Bulk Modulus (GPa) = 40.92765 64.51637 52.72201
# Shear Modulus (GPa) = 19.31080 32.44965 25.88023
#
# Velocity S-wave (km/s) = 2.88911 3.74515 3.34463
# Velocity P-wave (km/s) = 5.36843 6.82556 6.14037
#
# Compressibility (1/GPa) = 0.02443336
#
# Stress axis : x y z
#
# Youngs Moduli (GPa) = 38.27758 81.57945 39.88658
#
# Poissons Ratio (x) = 0.50768 0.50095
# Poissons Ratio (y) = 0.23821 0.02902
# Poissons Ratio (z) = 0.48075 0.05936
#
# Static dielectric constant tensor:
#      x y z
#    x 1.917460 -0.011950 0.012300 
#    y -0.011950 1.958220 -0.067080 
#    z 0.012300 -0.067080 1.957680 
# 
# From -- ./inp_files/296577.got.cif
#   From: 2010.05.17/outbox.cif.g08.bks.cpg/sg2_149_cif.got.tgz:296577.got - 2010.06.03 11:33:40.
