data_PCOD9022269
_publ_section_title
;
Structure prediction by ZEFSAII (Michael W. Deem and Ramdas Pophale) SiO2 
 PCOD9022269
Probable space group: P -1
;
_chemical_formula_sum "Si O2"
_cell_formula_units_Z 14
_cell_length_a 6.621867
_cell_length_b 5.416155
_cell_length_c 23.913673
_cell_angle_alpha 70.919540
_cell_angle_beta 64.189535
_cell_angle_gamma 47.478096
_cell_volume 568.366972
_symmetry_space_group_name_H-M "P -1"
_symmetry_group_IT_number 2
_symmetry_cell_setting 'triclinic'
loop_
_space_group_symop_operation_xyz
x,y,z
-x,-y,-z
loop_
_atom_site_type_symbol
_atom_site_label
_atom_site_fract_x
_atom_site_fract_y
_atom_site_fract_z
Si Si1 0.983153 0.817821 0.961873
Si Si2 0.194098 0.584949 0.325145
Si Si3 0.807920 0.074823 0.240929
Si Si4 0.742712 0.874603 0.876971
Si Si5 0.769897 0.283995 0.565273
Si Si6 0.187251 0.135744 0.858989
Si Si7 0.204672 0.541518 0.564027
O O1 0.724116 0.998161 0.933386
O O2 0.213198 0.809214 0.896440
O O3 0.000000 0.500000 0.000000
O O4 0.000000 0.000000 0.000000
O O5 0.472771 0.375715 0.267925
O O6 0.294488 0.619760 0.369915
O O7 0.035220 0.438581 0.374951
O O8 0.946514 0.908567 0.296077
O O9 0.019915 0.137064 0.185280
O O10 0.811782 0.847662 0.209390
O O11 0.887758 0.480878 0.890194
O O12 0.446099 0.084917 0.863962
O O13 0.512726 0.287868 0.573743
O O14 0.768418 0.514970 0.501825
O O15 0.084250 0.924711 0.553697
#
# Coordination Sequence:
#
# PCOD9022269 Si02
#       7
#     2   2   2   2   2   2   2
#     4  11  24  48  76 116 145 188 241 292 355 426
#     4  12  23  40  64  94 128 172 224 276 346 402
#     4  11  26  40  63  98 129 174 232 276 344 416
#     4  11  25  47  71  99 142 186 229 289 345 412
#     4  10  22  39  60  89 124 166 218 279 344 410
#     4  11  25  47  71  99 142 186 229 289 345 412
#     4  10  22  39  60  89 124 166 218 279 344 410
#
# _framework density 24.631972999999999
#
# number of rings (size 3 to 8) (size 9 to 14) (size 15 to 20)
#    0.000    1.143    1.429    3.857    0.000   11.429 
#    0.000    5.714    0.000    0.000    0.000    0.000 
#    0.000    0.000    0.000    0.000    0.000    0.000 
#
# Total GULP energy -78091.194097 kJ/mol
# GULP energy per Si atom -5577.942435 kJ/mol
# Density = 2.457591 g / cm^3
# Si number density = 24.631973 Si / 1000 Ang^3
#
#
#
# Elastic Constant Matrix: (Units=GPa)
#
#
# Indices 1 2 3 4 5 6 
#
# 1 126.2378 25.2100 36.8850 -2.3266 15.4967 -5.1757
# 2 25.2100 68.0508 5.3515 -3.8530 3.2596 -8.3086
# 3 36.8850 5.3515 104.8867 -11.8653 13.2569 10.1035
# 4 -2.3266 -3.8530 -11.8653 40.3906 1.5474 0.0619
# 5 15.4967 3.2596 13.2569 1.5474 55.1403 6.5854
# 6 -5.1757 -8.3086 10.1035 0.0619 6.5854 39.2976
#
#
#
# Elastic Compliance Matrix: (Units=1/GPa)
#
#
# Indices 1 2 3 4 5 6 
#
# 1 0.009805 -0.003093 -0.003285 -0.000622 -0.001982 0.001815
# 2 -0.003093 0.016310 0.000192 0.001451 -0.000550 0.003082
# 3 -0.003285 0.000192 0.011551 0.003288 -0.001587 -0.003101
# 4 -0.000622 0.001451 0.003288 0.025880 -0.001376 -0.000431
# 5 -0.001982 -0.000550 -0.001587 -0.001376 0.019532 -0.003240
# 6 0.001815 0.003082 -0.003101 -0.000431 -0.003240 0.027678
#
#
# Mechanical properties :
#
#
# Convention : Reuss Voigt Hill
#
# Bulk Modulus (GPa) = 39.53333 48.22981 43.88157
# Shear Modulus (GPa) = 38.00540 42.41428 40.20984
#
# Velocity S-wave (km/s) = 3.93228 4.15410 4.04471
# Velocity P-wave (km/s) = 6.05818 6.52928 6.29813
#
# Compressibility (1/GPa) = 0.02529511
#
# Stress axis : x y z
#
# Youngs Moduli (GPa) = 101.98495 61.31116 86.57418
#
# Poissons Ratio (x) = 0.18962 0.28440
# Poissons Ratio (y) = 0.31542 -0.01664
# Poissons Ratio (z) = 0.33503 -0.01178
#
# Static dielectric constant tensor:
#      x y z
#    x 1.981690 0.108860 -0.007270 
#    y 0.108860 2.005850 -0.027270 
#    z -0.007270 -0.027270 2.054100 
# 
# From -- ./inp_files/14335.got.cif
#   From: 2010.05.17/outbox.cif.g08.bks.cpg/sg2_8_cif.got.tgz:14335.got - 2010.06.03 11:33:40.
