data_PCOD9022425
_publ_section_title
;
Structure prediction by ZEFSAII (Michael W. Deem and Ramdas Pophale) SiO2 
 PCOD9022425
Probable space group: P -1
;
_chemical_formula_sum "Si O2"
_cell_formula_units_Z 16
_cell_length_a 5.330002
_cell_length_b 7.672722
_cell_length_c 20.743629
_cell_angle_alpha 116.923934
_cell_angle_beta 111.695020
_cell_angle_gamma 64.863722
_cell_volume 668.015982
_symmetry_space_group_name_H-M "P -1"
_symmetry_group_IT_number 2
_symmetry_cell_setting 'triclinic'
loop_
_space_group_symop_operation_xyz
x,y,z
-x,-y,-z
loop_
_atom_site_type_symbol
_atom_site_label
_atom_site_fract_x
_atom_site_fract_y
_atom_site_fract_z
Si Si1 0.127661 0.261254 0.957520
Si Si2 0.633236 0.325375 0.217990
Si Si3 0.708765 0.459659 0.665849
Si Si4 0.691425 0.778937 0.282585
Si Si5 0.170693 0.989023 0.185417
Si Si6 0.316544 0.073585 0.075034
Si Si7 0.353057 0.152242 0.567166
Si Si8 0.828995 0.452980 0.537420
O O1 0.947879 0.200795 0.873514
O O2 0.457657 0.153899 0.950995
O O3 0.125332 0.149243 0.007288
O O4 0.000000 0.500000 0.000000
O O5 0.435834 0.361403 0.268410
O O6 0.648939 0.552640 0.243153
O O7 0.501900 0.229830 0.130850
O O8 0.936038 0.157023 0.231892
O O9 0.476754 0.346476 0.607066
O O10 0.823320 0.537161 0.624559
O O11 0.966785 0.287930 0.697440
O O12 0.484835 0.905770 0.229894
O O13 0.604452 0.901392 0.362524
O O14 0.165873 0.085157 0.130500
O O15 0.018263 0.221047 0.531734
O O16 0.500000 0.000000 0.500000
O O17 0.500000 0.500000 0.500000
O O18 0.000000 0.500000 0.500000
#
# Coordination Sequence:
#
# PCOD9022425 Si02
#       8
#     2   2   2   2   2   2   2   2
#     4  10  22  40  64  93 134 178 224 280 350 414
#     4  10  22  42  64  92 133 179 229 284 350 416
#     4  10  22  43  67  92 137 180 226 286 354 424
#     4  10  23  41  64  94 135 176 227 283 354 419
#     4  11  23  40  67 101 131 177 231 285 350 417
#     4  10  22  39  61  97 132 170 231 288 340 420
#     4  10  23  44  65  96 135 178 224 291 351 427
#     4  11  22  42  68  99 131 174 230 284 352 422
#
# _framework density 23.951523999999999
#
# number of rings (size 3 to 8) (size 9 to 14) (size 15 to 20)
#    0.000    1.750    1.250    1.875    0.000    9.500 
#    2.250    0.000    0.000    0.000    0.000    0.000 
#    0.000    0.000    0.000    0.000    0.000    0.000 
#
# Total GULP energy -89308.539557 kJ/mol
# GULP energy per Si atom -5581.783722 kJ/mol
# Density = 2.389701 g / cm^3
# Si number density = 23.951524 Si / 1000 Ang^3
#
#
#
# Elastic Constant Matrix: (Units=GPa)
#
#
# Indices 1 2 3 4 5 6 
#
# 1 87.9978 38.6066 39.1972 -4.7238 -15.6898 -31.8646
# 2 38.6066 102.0750 67.2742 0.1681 3.8980 -32.7547
# 3 39.1972 67.2742 133.2544 11.5432 -6.6327 -33.4401
# 4 -4.7238 0.1681 11.5432 52.6628 -9.1066 6.5496
# 5 -15.6898 3.8980 -6.6327 -9.1066 47.9465 3.4335
# 6 -31.8646 -32.7547 -33.4401 6.5496 3.4335 38.4288
#
#
#
# Elastic Compliance Matrix: (Units=1/GPa)
#
#
# Indices 1 2 3 4 5 6 
#
# 1 0.018092 -0.002914 -0.000952 0.001432 0.005513 0.010954
# 2 -0.002914 0.017622 -0.006283 -0.000558 -0.003904 0.007581
# 3 -0.000952 -0.006283 0.012630 -0.003336 0.000931 0.005331
# 4 0.001432 -0.000558 -0.003336 0.021417 0.004568 -0.006249
# 5 0.005513 -0.003904 0.000931 0.004568 0.024037 -0.000872
# 6 0.010954 0.007581 0.005331 -0.006249 -0.000872 0.047348
#
#
# Mechanical properties :
#
#
# Convention : Reuss Voigt Hill
#
# Bulk Modulus (GPa) = 35.65424 68.16480 51.90952
# Shear Modulus (GPa) = 29.27523 39.69089 34.48306
#
# Velocity S-wave (km/s) = 3.49989 4.07521 3.79846
# Velocity P-wave (km/s) = 5.59023 7.11789 6.39980
#
# Compressibility (1/GPa) = 0.02804715
#
# Stress axis : x y z
#
# Youngs Moduli (GPa) = 55.27176 56.74592 79.17934
#
# Poissons Ratio (x) = 0.16533 0.07536
# Poissons Ratio (y) = 0.16104 0.49751
# Poissons Ratio (z) = 0.05261 0.35655
#
# Static dielectric constant tensor:
#      x y z
#    x 2.057270 0.033930 0.039100 
#    y 0.033930 1.899960 0.011660 
#    z 0.039100 0.011660 1.957400 
# 
# From -- ./inp_files/582526.got.cif
#   From: 2010.05.17/outbox.cif.g08.bks.cpg/sg2_292_cif.got.tgz:582526.got - 2010.06.03 11:33:40.
