data_PCOD9022586
_publ_section_title
;
Structure prediction by ZEFSAII (Michael W. Deem and Ramdas Pophale) SiO2 
 PCOD9022586
Probable space group: P -1
;
_chemical_formula_sum "Si O2"
_cell_formula_units_Z 14
_cell_length_a 19.117258
_cell_length_b 22.401834
_cell_length_c 8.764977
_cell_angle_alpha 146.189980
_cell_angle_beta 41.969792
_cell_angle_gamma 162.820216
_cell_volume 587.321948
_symmetry_space_group_name_H-M "P -1"
_symmetry_group_IT_number 2
_symmetry_cell_setting 'triclinic'
loop_
_space_group_symop_operation_xyz
x,y,z
-x,-y,-z
loop_
_atom_site_type_symbol
_atom_site_label
_atom_site_fract_x
_atom_site_fract_y
_atom_site_fract_z
Si Si1 0.595817 0.380940 0.905662
Si Si2 0.312422 0.759841 0.682897
Si Si3 0.126126 0.509616 0.762018
Si Si4 0.910125 0.081652 0.916147
Si Si5 0.615031 0.022794 0.236574
Si Si6 0.434468 0.534509 0.564220
Si Si7 0.956646 0.113685 0.252425
O O1 0.588614 0.250163 0.592093
O O2 0.838172 0.665225 0.048208
O O3 0.612394 0.411905 0.126203
O O4 0.325807 0.173090 0.848202
O O5 0.144895 0.547529 0.631578
O O6 0.238306 0.774446 0.702356
O O7 0.500000 0.000000 0.000000
O O8 0.994094 0.277971 0.534371
O O9 0.000000 0.500000 0.000000
O O10 0.391255 0.759638 0.945771
O O11 0.777546 0.073890 0.134805
O O12 0.979345 0.101810 0.013656
O O13 0.682884 0.794761 0.617710
O O14 0.500000 0.000000 0.500000
O O15 0.500000 0.500000 0.500000
O O16 0.184327 0.282905 0.341788
#
# Coordination Sequence:
#
# PCOD9022586 Si02
#       7
#     2   2   2   2   2   2   2
#     4  11  25  44  73 105 141 188 239 288 360 426
#     4  10  22  39  63 104 143 192 237 276 342 424
#     4  11  21  38  65  97 141 194 233 285 348 410
#     4  11  24  45  70 104 141 187 236 295 360 424
#     4  11  22  39  65 102 148 191 239 289 341 429
#     4  11  27  50  76 104 136 183 241 306 372 427
#     4  11  23  46  69  98 146 180 234 297 357 422
#
# _framework density 23.837009999999999
#
# number of rings (size 3 to 8) (size 9 to 14) (size 15 to 20)
#    0.000    1.143    2.857    4.286    0.000    8.000 
#    0.000    1.429    0.000    0.000    0.000    0.000 
#    0.000    0.000    0.000    0.000    0.000    0.000 
#
# Total GULP energy -78192.658072 kJ/mol
# GULP energy per Si atom -5585.189862 kJ/mol
# Density = 2.378276 g / cm^3
# Si number density = 23.837010 Si / 1000 Ang^3
#
#
#
# Elastic Constant Matrix: (Units=GPa)
#
#
# Indices 1 2 3 4 5 6 
#
# 1 150.2893 51.7245 14.8827 8.0635 12.4259 8.7649
# 2 51.7245 147.3796 24.6321 47.3538 5.8066 -8.5238
# 3 14.8827 24.6321 58.3305 7.1598 7.8437 4.0333
# 4 8.0635 47.3538 7.1598 50.8796 4.2577 6.6392
# 5 12.4259 5.8066 7.8437 4.2577 44.7754 6.8331
# 6 8.7649 -8.5238 4.0333 6.6392 6.8331 27.7296
#
#
#
# Elastic Compliance Matrix: (Units=1/GPa)
#
#
# Indices 1 2 3 4 5 6 
#
# 1 0.008274 -0.004068 -0.000306 0.003187 -0.001370 -0.004247
# 2 -0.004068 0.013331 -0.003668 -0.012399 -0.000140 0.008920
# 3 -0.000306 -0.003668 0.019163 0.001431 -0.002387 -0.003572
# 4 0.003187 -0.012399 0.001431 0.032183 -0.000670 -0.012567
# 5 -0.001370 -0.000140 -0.002387 -0.000670 0.023979 -0.005011
# 6 -0.004247 0.008920 -0.003572 -0.012567 -0.005011 0.044910
#
#
# Mechanical properties :
#
#
# Convention : Reuss Voigt Hill
#
# Bulk Modulus (GPa) = 40.51288 59.83090 50.17189
# Shear Modulus (GPa) = 30.09254 42.32759 36.21006
#
# Velocity S-wave (km/s) = 3.55692 4.21849 3.90175
# Velocity P-wave (km/s) = 5.82251 6.99157 6.43365
#
# Compressibility (1/GPa) = 0.02468351
#
# Stress axis : x y z
#
# Youngs Moduli (GPa) = 120.85532 75.01121 52.18388
#
# Poissons Ratio (x) = 0.30518 0.01599
# Poissons Ratio (y) = 0.49169 0.19139
# Poissons Ratio (z) = 0.03703 0.27512
#
# Static dielectric constant tensor:
#      x y z
#    x 1.921990 0.052870 -0.055210 
#    y 0.052870 2.014580 0.031580 
#    z -0.055210 0.031580 1.978590 
# 
# From -- ./inp_files/337907.got.cif
#   From: 2010.05.17/outbox.cif.g08.bks.cpg/sg2_169_cif.got.tgz:337907.got - 2010.06.03 11:33:40.
