data_PCOD9022785
_publ_section_title
;
Structure prediction by ZEFSAII (Michael W. Deem and Ramdas Pophale) SiO2 
 PCOD9022785
Probable space group: P -1
;
_chemical_formula_sum "Si O2"
_cell_formula_units_Z 14
_cell_length_a 14.977310
_cell_length_b 6.350991
_cell_length_c 15.250795
_cell_angle_alpha 91.886329
_cell_angle_beta 26.871394
_cell_angle_gamma 99.536107
_cell_volume 624.787345
_symmetry_space_group_name_H-M "P -1"
_symmetry_group_IT_number 2
_symmetry_cell_setting 'triclinic'
loop_
_space_group_symop_operation_xyz
x,y,z
-x,-y,-z
loop_
_atom_site_type_symbol
_atom_site_label
_atom_site_fract_x
_atom_site_fract_y
_atom_site_fract_z
Si Si1 0.988685 0.293222 0.444981
Si Si2 0.668219 0.889807 0.813308
Si Si3 0.398049 0.715787 0.889733
Si Si4 0.848166 0.582199 0.230221
Si Si5 0.786978 0.972005 0.041281
Si Si6 0.587669 0.534130 0.302771
Si Si7 0.001058 0.344409 0.245430
O O1 0.212815 0.248852 0.235844
O O2 0.888995 0.286782 0.435573
O O3 0.000000 0.500000 0.500000
O O4 0.844341 0.093335 0.622981
O O5 0.562765 0.743555 0.821144
O O6 0.500000 0.000000 0.000000
O O7 0.434485 0.577518 0.773611
O O8 0.369240 0.938348 0.878210
O O9 0.176003 0.573389 0.118714
O O10 0.780381 0.504096 0.189598
O O11 0.625806 0.589661 0.463031
O O12 0.031516 0.813617 0.079113
O O13 0.892744 0.406094 0.255495
O O14 0.899135 0.840086 0.877876
O O15 0.659583 0.798469 0.223766
#
# Coordination Sequence:
#
# PCOD9022785 Si02
#       7
#     2   2   2   2   2   2   2
#     4  11  26  42  68  97 129 172 220 272 338 395
#     4  11  25  44  67  98 133 170 218 275 330 404
#     4  10  23  40  65  91 128 163 217 262 318 392
#     4  10  23  40  62  91 133 163 219 265 309 392
#     4  10  22  39  64  91 127 173 210 263 322 379
#     4  10  23  40  61  95 125 174 212 261 323 377
#     4  10  23  41  63  93 124 166 213 267 322 381
#
# _framework density 22.407623000000001
#
# number of rings (size 3 to 8) (size 9 to 14) (size 15 to 20)
#    0.000    1.714    0.000    2.143    6.000   12.000 
#    0.000    2.857    0.000    0.000    0.000    0.000 
#    0.000    0.000    0.000    0.000    0.000    0.000 
#
# Total GULP energy -78123.086328 kJ/mol
# GULP energy per Si atom -5580.220452 kJ/mol
# Density = 2.235662 g / cm^3
# Si number density = 22.407623 Si / 1000 Ang^3
#
#
#
# Elastic Constant Matrix: (Units=GPa)
#
#
# Indices 1 2 3 4 5 6 
#
# 1 103.9104 26.7224 10.7333 -6.4942 -0.8777 6.9645
# 2 26.7224 58.0264 13.2451 -3.2860 4.9953 2.9134
# 3 10.7333 13.2451 53.8546 -4.8644 -4.6715 4.1255
# 4 -6.4942 -3.2860 -4.8644 21.8619 0.6961 6.1039
# 5 -0.8777 4.9953 -4.6715 0.6961 29.2117 3.0105
# 6 6.9645 2.9134 4.1255 6.1039 3.0105 33.3196
#
#
#
# Elastic Compliance Matrix: (Units=1/GPa)
#
#
# Indices 1 2 3 4 5 6 
#
# 1 0.011317 -0.004910 -0.000448 0.003205 0.001298 -0.002585
# 2 -0.004910 0.020951 -0.004486 0.000834 -0.004468 0.000001
# 3 -0.000448 -0.004486 0.020807 0.004613 0.004314 -0.003325
# 4 0.003205 0.000834 0.004613 0.050807 0.000581 -0.010674
# 5 0.001298 -0.004468 0.004314 0.000581 0.036102 -0.003783
# 6 -0.002585 0.000001 -0.003325 -0.010674 -0.003783 0.033262
#
#
# Mechanical properties :
#
#
# Convention : Reuss Voigt Hill
#
# Bulk Modulus (GPa) = 29.95258 35.24368 32.59813
# Shear Modulus (GPa) = 24.50234 27.88467 26.19351
#
# Velocity S-wave (km/s) = 3.31037 3.53147 3.42271
# Velocity P-wave (km/s) = 5.29222 5.69131 5.49539
#
# Compressibility (1/GPa) = 0.03338611
#
# Stress axis : x y z
#
# Youngs Moduli (GPa) = 88.36138 47.73140 48.06131
#
# Poissons Ratio (x) = 0.23436 0.02152
# Poissons Ratio (y) = 0.43386 0.21562
# Poissons Ratio (z) = 0.03957 0.21414
#
# Static dielectric constant tensor:
#      x y z
#    x 1.883340 -0.057520 0.005670 
#    y -0.057520 1.838580 0.015630 
#    z 0.005670 0.015630 1.893990 
# 
# From -- ./inp_files/54445.got.cif
#   From: 2010.05.17/outbox.cif.g08.bks.cpg/sg2_28_cif.got.tgz:54445.got - 2010.06.03 11:33:40.
