data_PCOD9022044
_publ_section_title
;
Structure prediction by ZEFSAII (Michael W. Deem and Ramdas Pophale) SiO2 
 PCOD9022044
Probable space group: P -1
;
_chemical_formula_sum "Si O2"
_cell_formula_units_Z 15
_cell_length_a 8.642969
_cell_length_b 27.338941
_cell_length_c 17.002504
_cell_angle_alpha 161.416127
_cell_angle_beta 149.493802
_cell_angle_gamma 29.957355
_cell_volume 618.455582
_symmetry_space_group_name_H-M "P -1"
_symmetry_group_IT_number 2
_symmetry_cell_setting 'triclinic'
loop_
_space_group_symop_operation_xyz
x,y,z
-x,-y,-z
loop_
_atom_site_type_symbol
_atom_site_label
_atom_site_fract_x
_atom_site_fract_y
_atom_site_fract_z
Si Si1 0.331829 0.753390 0.296651
Si Si2 0.386251 0.988728 0.242163
Si Si3 0.984914 0.504981 0.263380
Si Si4 0.044548 0.871499 0.520331
Si Si5 0.571375 0.194860 0.852903
Si Si6 0.388525 0.526405 0.613137
Si Si7 0.645160 0.157340 0.159126
Si Si8 0.500000 0.000000 0.000000
O O1 0.686067 0.632556 0.285282
O O2 0.173373 0.803186 0.388393
O O3 0.373953 0.906650 0.503778
O O4 0.130485 0.651260 0.010331
O O5 0.415733 0.891368 0.187386
O O6 0.420935 0.869456 0.002033
O O7 0.027069 0.110331 0.263551
O O8 0.093661 0.574537 0.496361
O O9 0.293400 0.464426 0.279766
O O10 0.313761 0.866275 0.694191
O O11 0.784490 0.784144 0.301260
O O12 0.836556 0.061702 0.717898
O O13 0.658474 0.355725 0.153774
O O14 0.459375 0.339579 0.377642
O O15 0.537129 0.028768 0.966509
#
# Coordination Sequence:
#
# PCOD9022044 Si02
#       8
#     2   2   2   2   2   2   2   1
#     4  11  22  41  68 105 136 178 234 278 340 403
#     4  11  22  40  72 103 132 180 234 284 330 410
#     4  10  22  38  69 104 144 171 222 297 340 398
#     4  11  25  43  69  96 139 188 221 283 339 405
#     4  11  25  45  70  98 146 179 228 278 348 403
#     4  11  22  43  67 102 137 183 221 284 347 407
#     4  11  24  40  71 103 132 179 232 279 350 399
#     4  12  24  46  70  96 134 176 232 280 334 410
#
# _framework density 24.253965999999998
#
# number of rings (size 3 to 8) (size 9 to 14) (size 15 to 20)
#    0.000    1.067    5.333    1.600    3.733    1.600 
#    0.000    1.333   11.733    0.000    0.000    0.000 
#    0.000    0.000    0.000    0.000    0.000    0.000 
#
# Total GULP energy -83781.471392 kJ/mol
# GULP energy per Si atom -5585.431426 kJ/mol
# Density = 2.419876 g / cm^3
# Si number density = 24.253966 Si / 1000 Ang^3
#
#
#
# Elastic Constant Matrix: (Units=GPa)
#
#
# Indices 1 2 3 4 5 6 
#
# 1 59.4635 10.0662 11.0736 -4.2233 3.1509 -5.4506
# 2 10.0662 66.8481 20.5605 -18.0586 3.9281 -1.9309
# 3 11.0736 20.5605 143.2862 -11.2247 -10.2307 -10.0710
# 4 -4.2233 -18.0586 -11.2247 39.7661 -2.7329 0.5839
# 5 3.1509 3.9281 -10.2307 -2.7329 39.4946 -1.4399
# 6 -5.4506 -1.9309 -10.0710 0.5839 -1.4399 22.6944
#
#
#
# Elastic Compliance Matrix: (Units=1/GPa)
#
#
# Indices 1 2 3 4 5 6 
#
# 1 0.017768 -0.002079 -0.000868 0.000558 -0.001265 0.003611
# 2 -0.002079 0.017930 -0.001970 0.007256 -0.001631 -0.000138
# 3 -0.000868 -0.001970 0.007841 0.001351 0.002507 0.003228
# 4 0.000558 0.007256 0.001351 0.028983 0.001615 0.000708
# 5 -0.001265 -0.001631 0.002507 0.001615 0.026428 0.002305
# 6 0.003611 -0.000138 0.003228 0.000708 0.002305 0.046480
#
#
# Mechanical properties :
#
#
# Convention : Reuss Voigt Hill
#
# Bulk Modulus (GPa) = 29.66915 39.22206 34.44560
# Shear Modulus (GPa) = 30.03019 35.58417 32.80718
#
# Velocity S-wave (km/s) = 3.52256 3.83449 3.68183
# Velocity P-wave (km/s) = 5.36692 5.98423 5.68396
#
# Compressibility (1/GPa) = 0.03370504
#
# Stress axis : x y z
#
# Youngs Moduli (GPa) = 56.28005 55.77193 127.54275
#
# Poissons Ratio (x) = 0.11597 0.11066
# Poissons Ratio (y) = 0.11703 0.25125
# Poissons Ratio (z) = 0.04883 0.10987
#
# Static dielectric constant tensor:
#      x y z
#    x 1.806260 -0.008070 -0.117510 
#    y -0.008070 1.981930 -0.013180 
#    z -0.117510 -0.013180 1.781030 
# 
# From -- ./inp_files/563474.got.cif
#   From: 2010.05.17/outbox.cif.g08.bks.cpg/sg2_282_cif.got.tgz:563474.got - 2010.06.03 11:33:40.
