data_PCOD9022311
_publ_section_title
;
Structure prediction by ZEFSAII (Michael W. Deem and Ramdas Pophale) SiO2 
 PCOD9022311
Probable space group: P -1
;
_chemical_formula_sum "Si O2"
_cell_formula_units_Z 15
_cell_length_a 9.696317
_cell_length_b 11.357425
_cell_length_c 11.965740
_cell_angle_alpha 38.100812
_cell_angle_beta 58.555592
_cell_angle_gamma 86.498516
_cell_volume 518.824724
_symmetry_space_group_name_H-M "P -1"
_symmetry_group_IT_number 2
_symmetry_cell_setting 'triclinic'
loop_
_space_group_symop_operation_xyz
x,y,z
-x,-y,-z
loop_
_atom_site_type_symbol
_atom_site_label
_atom_site_fract_x
_atom_site_fract_y
_atom_site_fract_z
Si Si1 0.500000 0.000000 0.000000
Si Si2 0.194482 0.146835 0.964124
Si Si3 0.265172 0.504598 0.849360
Si Si4 0.749938 0.295189 0.902796
Si Si5 0.720383 0.750899 0.777574
Si Si6 0.260658 0.149356 0.694361
Si Si7 0.820875 0.151387 0.627442
Si Si8 0.636945 0.020351 0.526980
O O1 0.319454 0.750893 0.162733
O O2 0.349685 0.812936 0.316088
O O3 0.296146 0.044576 0.064811
O O4 0.184670 0.315273 0.924221
O O5 0.302929 0.265906 0.711754
O O6 0.944742 0.903447 0.227590
O O7 0.208010 0.382002 0.087261
O O8 0.525540 0.678090 0.598043
O O9 0.219275 0.689943 0.712150
O O10 0.942912 0.588183 0.639564
O O11 0.539910 0.173305 0.159885
O O12 0.804332 0.121284 0.048475
O O13 0.500000 0.500000 0.000000
O O14 0.778650 0.943058 0.508434
O O15 0.798146 0.965759 0.684921
O O16 0.500000 0.000000 0.500000
#
# Coordination Sequence:
#
# PCOD9022311 Si02
#       8
#     1   2   2   2   2   2   2   2
#     4  12  22  42  70 100 152 180 226 282 342 432
#     4  10  22  39  60  95 135 175 216 275 332 407
#     4  10  23  41  64  94 131 173 230 268 348 406
#     4  11  25  43  68 105 136 184 232 280 352 418
#     4  11  23  45  71  96 133 182 233 293 348 407
#     4  10  22  39  60  95 135 175 216 275 332 407
#     4  11  25  43  68 105 136 184 232 280 352 418
#     4  11  23  45  71  96 133 182 233 293 348 407
#
# _framework density 28.911497000000001
#
# number of rings (size 3 to 8) (size 9 to 14) (size 15 to 20)
#    0.000    1.333    4.000    0.800    3.733    0.000 
#    9.600    2.667    0.000    0.000    0.000    0.000 
#    0.000    0.000    0.000    0.000    0.000    0.000 
#
# Total GULP energy -83592.960901 kJ/mol
# GULP energy per Si atom -5572.864060 kJ/mol
# Density = 2.884569 g / cm^3
# Si number density = 28.911497 Si / 1000 Ang^3
#
#
#
# Elastic Constant Matrix: (Units=GPa)
#
#
# Indices 1 2 3 4 5 6 
#
# 1 129.1619 18.9992 61.7358 -11.4569 -1.6953 13.4847
# 2 18.9992 164.5896 71.1503 -19.4608 -2.7024 20.1991
# 3 61.7358 71.1503 116.3284 -17.5670 -10.3279 -2.6591
# 4 -11.4569 -19.4608 -17.5670 58.0187 -1.5914 -5.9508
# 5 -1.6953 -2.7024 -10.3279 -1.5914 62.8071 -6.7150
# 6 13.4847 20.1991 -2.6591 -5.9508 -6.7150 44.5215
#
#
#
# Elastic Compliance Matrix: (Units=1/GPa)
#
#
# Indices 1 2 3 4 5 6 
#
# 1 0.011872 0.002911 -0.008316 0.000185 -0.001518 -0.005617
# 2 0.002911 0.009883 -0.007709 0.000912 -0.001373 -0.005911
# 3 -0.008316 -0.007709 0.018555 0.002299 0.003403 0.007945
# 4 0.000185 0.000912 0.002299 0.018543 0.001140 0.002318
# 5 -0.001518 -0.001373 0.003403 0.001140 0.016835 0.003977
# 6 -0.005617 -0.005911 0.007945 0.002318 0.003977 0.028228
#
#
# Mechanical properties :
#
#
# Convention : Reuss Voigt Hill
#
# Bulk Modulus (GPa) = 71.01139 79.31672 75.16405
# Shear Modulus (GPa) = 37.08140 50.28243 43.68192
#
# Velocity S-wave (km/s) = 3.58520 4.17488 3.89123
# Velocity P-wave (km/s) = 6.46167 7.12273 6.80024
#
# Compressibility (1/GPa) = 0.01408225
#
# Stress axis : x y z
#
# Youngs Moduli (GPa) = 84.23354 101.18618 53.89282
#
# Poissons Ratio (x) = -0.29453 0.44817
# Poissons Ratio (y) = -0.24519 0.41544
# Poissons Ratio (z) = 0.70048 0.78001
#
# Static dielectric constant tensor:
#      x y z
#    x 3.156120 -0.508070 -0.158730 
#    y -0.508070 2.706090 0.056850 
#    z -0.158730 0.056850 2.276100 
# 
# From -- ./inp_files/424982.got.cif
#   From: 2010.05.17/outbox.cif.g08.bks.cpg/sg2_213_cif.got.tgz:424982.got - 2010.06.03 11:33:40.
