data_PCOD9022649
_publ_section_title
;
Structure prediction by ZEFSAII (Michael W. Deem and Ramdas Pophale) SiO2 
 PCOD9022649
Probable space group: P -1
;
_chemical_formula_sum "Si O2"
_cell_formula_units_Z 14
_cell_length_a 23.556003
_cell_length_b 14.678181
_cell_length_c 6.460842
_cell_angle_alpha 59.139081
_cell_angle_beta 119.451338
_cell_angle_gamma 161.392203
_cell_volume 611.761526
_symmetry_space_group_name_H-M "P -1"
_symmetry_group_IT_number 2
_symmetry_cell_setting 'triclinic'
loop_
_space_group_symop_operation_xyz
x,y,z
-x,-y,-z
loop_
_atom_site_type_symbol
_atom_site_label
_atom_site_fract_x
_atom_site_fract_y
_atom_site_fract_z
Si Si1 0.923046 0.640087 0.591413
Si Si2 0.189871 0.070144 0.933974
Si Si3 0.876858 0.802775 0.308585
Si Si4 0.845728 0.346258 0.467483
Si Si5 0.479302 0.215956 0.170586
Si Si6 0.627496 0.115223 0.967833
Si Si7 0.519170 0.520287 0.750363
O O1 0.940928 0.785747 0.361909
O O2 0.926949 0.560963 0.509424
O O3 0.736250 0.345014 0.721466
O O4 0.059621 0.827547 0.808817
O O5 0.109240 0.054312 0.910177
O O6 0.366401 0.358016 0.773778
O O7 0.286466 0.153610 0.194357
O O8 0.663363 0.468629 0.323577
O O9 0.000000 0.000000 0.500000
O O10 0.757738 0.261057 0.202116
O O11 0.000000 0.500000 0.500000
O O12 0.689002 0.058412 0.663186
O O13 0.484073 0.343662 0.948273
O O14 0.467644 0.121037 0.060316
O O15 0.500000 0.000000 0.000000
O O16 0.500000 0.500000 0.500000
#
# Coordination Sequence:
#
# PCOD9022649 Si02
#       7
#     2   2   2   2   2   2   2
#     4  10  22  41  66  93 136 167 222 279 322 398
#     4   9  21  39  61  94 130 167 216 267 328 393
#     4   9  18  40  68  92 126 175 208 271 343 386
#     4  11  26  42  66  99 133 183 227 271 343 393
#     4  10  23  42  67  95 138 168 221 283 328 403
#     4  11  24  40  66 100 130 177 227 270 342 395
#     4  10  22  39  63  93 128 172 215 264 335 395
#
# _framework density 22.884732
#
# number of rings (size 3 to 8) (size 9 to 14) (size 15 to 20)
#    0.000    2.000    0.000    1.714    4.000    9.143 
#    0.000    0.000    0.000   12.000    0.000    0.000 
#    0.000    0.000    0.000    0.000    0.000    0.000 
#
# Total GULP energy -78081.193286 kJ/mol
# GULP energy per Si atom -5577.228092 kJ/mol
# Density = 2.283265 g / cm^3
# Si number density = 22.884732 Si / 1000 Ang^3
#
#
#
# Elastic Constant Matrix: (Units=GPa)
#
#
# Indices 1 2 3 4 5 6 
#
# 1 180.9788 69.8742 79.8540 23.1267 -20.7653 -11.0419
# 2 69.8742 117.0053 47.7992 33.7810 -14.0971 -7.8277
# 3 79.8540 47.7992 105.6939 9.8045 -10.2166 4.2072
# 4 23.1267 33.7810 9.8045 31.1544 4.2763 -3.2402
# 5 -20.7653 -14.0971 -10.2166 4.2763 32.8061 3.4145
# 6 -11.0419 -7.8277 4.2072 -3.2402 3.4145 38.7445
#
#
#
# Elastic Compliance Matrix: (Units=1/GPa)
#
#
# Indices 1 2 3 4 5 6 
#
# 1 0.009993 -0.001674 -0.006144 -0.003951 0.003947 0.002499
# 2 -0.001674 0.017054 -0.004281 -0.016710 0.006966 0.001422
# 3 -0.006144 -0.004281 0.015736 0.003973 -0.000939 -0.003910
# 4 -0.003951 -0.016710 0.003973 0.054142 -0.015602 0.000969
# 5 0.003947 0.006966 -0.000939 -0.015602 0.037925 -0.002013
# 6 0.002499 0.001422 -0.003910 0.000969 -0.002013 0.027492
#
#
# Mechanical properties :
#
#
# Convention : Reuss Voigt Hill
#
# Bulk Modulus (GPa) = 53.80921 88.74809 71.27865
# Shear Modulus (GPa) = 25.94222 34.28438 30.11330
#
# Velocity S-wave (km/s) = 3.37056 3.87477 3.63143
# Velocity P-wave (km/s) = 6.22187 7.67354 6.98552
#
# Compressibility (1/GPa) = 0.01858418
#
# Stress axis : x y z
#
# Youngs Moduli (GPa) = 100.06699 58.63719 63.54968
#
# Poissons Ratio (x) = 0.09818 0.39047
# Poissons Ratio (y) = 0.16754 0.27204
# Poissons Ratio (z) = 0.61485 0.25101
#
# Static dielectric constant tensor:
#      x y z
#    x 1.898750 -0.043350 0.051460 
#    y -0.043350 1.941300 -0.029520 
#    z 0.051460 -0.029520 1.871590 
# 
# From -- ./inp_files/124010.got.cif
#   From: 2010.05.17/outbox.cif.g08.bks.cpg/sg2_63_cif.got.tgz:124010.got - 2010.06.03 11:33:40.
