data_PCOD9022356
_publ_section_title
;
Structure prediction by ZEFSAII (Michael W. Deem and Ramdas Pophale) SiO2 
 PCOD9022356
Probable space group: P -1
;
_chemical_formula_sum "Si O2"
_cell_formula_units_Z 14
_cell_length_a 27.199941
_cell_length_b 5.432181
_cell_length_c 30.495382
_cell_angle_alpha 64.464818
_cell_angle_beta 171.590754
_cell_angle_gamma 115.973161
_cell_volume 592.311569
_symmetry_space_group_name_H-M "P -1"
_symmetry_group_IT_number 2
_symmetry_cell_setting 'triclinic'
loop_
_space_group_symop_operation_xyz
x,y,z
-x,-y,-z
loop_
_atom_site_type_symbol
_atom_site_label
_atom_site_fract_x
_atom_site_fract_y
_atom_site_fract_z
Si Si1 0.576473 0.541935 0.498109
Si Si2 0.577306 0.922655 0.265050
Si Si3 0.341614 0.631879 0.768874
Si Si4 0.006578 0.698627 0.048561
Si Si5 0.593215 0.953357 0.136225
Si Si6 0.062122 0.333471 0.321595
Si Si7 0.096259 0.963551 0.299752
O O1 0.276827 0.557154 0.267758
O O2 0.844663 0.341684 0.768629
O O3 0.759947 0.840570 0.627500
O O4 0.367412 0.437993 0.279020
O O5 0.720008 0.165067 0.340660
O O6 0.834786 0.769284 0.532296
O O7 0.307798 0.037203 0.052025
O O8 0.335457 0.716854 0.037152
O O9 0.514113 0.366265 0.925560
O O10 0.000000 0.500000 0.500000
O O11 0.537614 0.819217 0.964393
O O12 0.000000 0.000000 0.000000
O O13 0.000000 0.000000 0.500000
O O14 0.500000 0.000000 0.000000
O O15 0.181042 0.652602 0.396997
O O16 0.209354 0.129023 0.431344
#
# Coordination Sequence:
#
# PCOD9022356 Si02
#       7
#     2   2   2   2   2   2   2
#     4  10  23  38  63  92 127 166 217 258 319 378
#     4  10  26  43  67  96 131 169 219 271 331 387
#     4  10  23  42  65  94 127 166 210 264 326 391
#     4  10  22  40  61  95 128 167 209 265 316 380
#     4  10  22  39  61  89 121 158 204 249 311 382
#     4  10  26  42  68  94 132 168 223 272 323 385
#     4  10  26  44  68  97 130 175 221 269 323 387
#
# _framework density 23.636209000000001
#
# number of rings (size 3 to 8) (size 9 to 14) (size 15 to 20)
#    0.857    1.143    0.000    0.857    8.000    4.571 
#    0.000    0.000    0.000    0.000    0.000    0.000 
#    0.000    0.000    0.000    0.000    0.000    0.000 
#
# Total GULP energy -78114.933091 kJ/mol
# GULP energy per Si atom -5579.638078 kJ/mol
# Density = 2.358241 g / cm^3
# Si number density = 23.636209 Si / 1000 Ang^3
#
#
#
# Elastic Constant Matrix: (Units=GPa)
#
#
# Indices 1 2 3 4 5 6 
#
# 1 73.2439 47.6378 68.5628 -1.0566 -17.9957 2.1813
# 2 47.6378 197.5677 54.9881 1.4497 -24.3632 2.3875
# 3 68.5628 54.9881 114.6952 -5.2078 -41.8085 15.4209
# 4 -1.0566 1.4497 -5.2078 24.4459 13.6164 2.6236
# 5 -17.9957 -24.3632 -41.8085 13.6164 38.5244 -4.2155
# 6 2.1813 2.3875 15.4209 2.6236 -4.2155 52.2673
#
#
#
# Elastic Compliance Matrix: (Units=1/GPa)
#
#
# Indices 1 2 3 4 5 6 
#
# 1 0.036356 -0.003411 -0.025541 0.003346 -0.013538 0.004914
# 2 -0.003411 0.006282 0.000124 -0.002403 0.003387 0.000213
# 3 -0.025541 0.000124 0.034652 -0.008700 0.028121 -0.006459
# 4 0.003346 -0.002403 -0.008700 0.056059 -0.029503 -0.002656
# 5 -0.013538 0.003387 0.028121 -0.029503 0.062573 -0.001359
# 6 0.004914 0.000213 -0.006459 -0.002656 -0.001359 0.020847
#
#
# Mechanical properties :
#
#
# Convention : Reuss Voigt Hill
#
# Bulk Modulus (GPa) = 50.93421 80.87602 65.90511
# Shear Modulus (GPa) = 17.79553 37.33539 27.56546
#
# Velocity S-wave (km/s) = 2.74687 3.97871 3.41873
# Velocity P-wave (km/s) = 5.62640 7.44299 6.59752
#
# Compressibility (1/GPa) = 0.01963317
#
# Stress axis : x y z
#
# Youngs Moduli (GPa) = 27.50557 159.18045 28.85870
#
# Poissons Ratio (x) = 0.54293 0.73709
# Poissons Ratio (y) = 0.09382 -0.00357
# Poissons Ratio (z) = 0.70253 -0.01971
#
# Static dielectric constant tensor:
#      x y z
#    x 1.509080 0.558690 -1.189300 
#    y 0.558690 1.060330 1.672180 
#    z -1.189300 1.672180 -1.475860 
# 
# From -- ./inp_files/624245.got.cif
#   From: 2010.05.17/outbox.cif.g08.bks.cpg/sg2_313_cif.got.tgz:624245.got - 2010.06.03 11:33:40.
