data_PCOD9022968
_publ_section_title
;
Structure prediction by ZEFSAII (Michael W. Deem and Ramdas Pophale) SiO2 
 PCOD9022968
Probable space group: P -1
;
_chemical_formula_sum "Si O2"
_cell_formula_units_Z 15
_cell_length_a 19.309253
_cell_length_b 12.500307
_cell_length_c 16.071486
_cell_angle_alpha 139.771580
_cell_angle_beta 159.875186
_cell_angle_gamma 29.807206
_cell_volume 632.970509
_symmetry_space_group_name_H-M "P -1"
_symmetry_group_IT_number 2
_symmetry_cell_setting 'triclinic'
loop_
_space_group_symop_operation_xyz
x,y,z
-x,-y,-z
loop_
_atom_site_type_symbol
_atom_site_label
_atom_site_fract_x
_atom_site_fract_y
_atom_site_fract_z
Si Si1 0.065663 0.201977 0.223279
Si Si2 0.000000 0.000000 0.500000
Si Si3 0.132969 0.189185 0.984561
Si Si4 0.472980 0.446905 0.076078
Si Si5 0.391706 0.318679 0.743750
Si Si6 0.245710 0.557768 0.144740
Si Si7 0.095043 0.287786 0.808024
Si Si8 0.443076 0.313752 0.493190
O O1 0.197137 0.290731 0.466705
O O2 0.771785 0.344308 0.019979
O O3 0.004367 0.262649 0.093451
O O4 0.279009 0.934587 0.316587
O O5 0.129669 0.110334 0.684905
O O6 0.700083 0.227526 0.257138
O O7 0.294263 0.268662 0.235836
O O8 0.310627 0.935291 0.065017
O O9 0.098173 0.205999 0.856353
O O10 0.861742 0.346540 0.827589
O O11 0.600241 0.522441 0.208776
O O12 0.337744 0.399777 0.826600
O O13 0.479749 0.552441 0.378485
O O14 0.292235 0.335270 0.054337
O O15 0.782989 0.531820 0.598832
#
# Coordination Sequence:
#
# PCOD9022968 Si02
#       8
#     2   1   2   2   2   2   2   2
#     4  11  23  40  66 101 132 168 221 278 326 391
#     4  12  24  44  70  92 136 176 214 278 322 386
#     4  10  22  41  65  95 134 171 218 271 329 394
#     4  11  23  43  69  96 134 176 223 266 328 394
#     4  10  22  43  69  95 131 182 219 266 328 393
#     4  11  22  38  63  95 131 168 217 269 331 386
#     4  11  24  42  62  94 134 175 219 269 328 395
#     4  10  22  39  65  94 129 169 211 276 326 385
#
# _framework density 23.697787000000002
#
# number of rings (size 3 to 8) (size 9 to 14) (size 15 to 20)
#    0.000    1.333    1.333    4.800    0.000    9.067 
#    0.000    6.000    0.000    0.000    0.000    0.000 
#    0.000    0.000    0.000    0.000    0.000    0.000 
#
# Total GULP energy -83626.393216 kJ/mol
# GULP energy per Si atom -5575.092881 kJ/mol
# Density = 2.364385 g / cm^3
# Si number density = 23.697787 Si / 1000 Ang^3
#
#
#
# Elastic Constant Matrix: (Units=GPa)
#
#
# Indices 1 2 3 4 5 6 
#
# 1 67.1405 24.6477 25.0477 -12.5803 -4.4358 8.5051
# 2 24.6477 124.4185 32.2464 -2.7784 13.5678 7.2964
# 3 25.0477 32.2464 81.1135 -11.2503 -3.1440 10.6944
# 4 -12.5803 -2.7784 -11.2503 48.6284 16.1576 -4.9113
# 5 -4.4358 13.5678 -3.1440 16.1576 32.4461 6.9183
# 6 8.5051 7.2964 10.6944 -4.9113 6.9183 29.7478
#
#
#
# Elastic Compliance Matrix: (Units=1/GPa)
#
#
# Indices 1 2 3 4 5 6 
#
# 1 0.018357 -0.002733 -0.003670 0.002451 0.002825 -0.003511
# 2 -0.002733 0.010025 -0.003345 0.001067 -0.005637 0.001012
# 3 -0.003670 -0.003345 0.015608 0.001138 0.002736 -0.004190
# 4 0.002451 0.001067 0.001138 0.027145 -0.014922 0.006580
# 5 0.002825 -0.005637 0.002736 -0.014922 0.044057 -0.013118
# 6 -0.003511 0.001012 -0.004190 0.006580 -0.013118 0.040015
#
#
# Mechanical properties :
#
#
# Convention : Reuss Voigt Hill
#
# Bulk Modulus (GPa) = 40.82694 48.50623 44.66658
# Shear Modulus (GPa) = 27.34213 34.87984 31.11098
#
# Velocity S-wave (km/s) = 3.40042 3.84065 3.62722
# Velocity P-wave (km/s) = 5.71688 6.33881 6.03586
#
# Compressibility (1/GPa) = 0.02449363
#
# Stress axis : x y z
#
# Youngs Moduli (GPa) = 54.47482 99.75001 64.06994
#
# Poissons Ratio (x) = 0.27261 0.23513
# Poissons Ratio (y) = 0.14888 0.21435
# Poissons Ratio (z) = 0.19991 0.33371
#
# Static dielectric constant tensor:
#      x y z
#    x 1.909300 -0.048390 -0.055300 
#    y -0.048390 1.945160 0.043930 
#    z -0.055300 0.043930 1.945960 
# 
# From -- ./inp_files/578000.got.cif
#   From: 2010.05.17/outbox.cif.g08.bks.cpg/sg2_289_cif.got.tgz:578000.got - 2010.06.03 11:33:40.
