data_PCOD9022860
_publ_section_title
;
Structure prediction by ZEFSAII (Michael W. Deem and Ramdas Pophale) SiO2 
 PCOD9022860
Probable space group: P -1
;
_chemical_formula_sum "Si O2"
_cell_formula_units_Z 14
_cell_length_a 11.440351
_cell_length_b 12.222198
_cell_length_c 5.181470
_cell_angle_alpha 75.606910
_cell_angle_beta 49.382236
_cell_angle_gamma 72.039204
_cell_volume 522.001019
_symmetry_space_group_name_H-M "P -1"
_symmetry_group_IT_number 2
_symmetry_cell_setting 'triclinic'
loop_
_space_group_symop_operation_xyz
x,y,z
-x,-y,-z
loop_
_atom_site_type_symbol
_atom_site_label
_atom_site_fract_x
_atom_site_fract_y
_atom_site_fract_z
Si Si1 0.037693 0.240826 0.039849
Si Si2 0.258008 0.966926 0.256690
Si Si3 0.446732 0.729974 0.336499
Si Si4 0.047958 0.882328 0.246340
Si Si5 0.607503 0.877238 0.324274
Si Si6 0.653239 0.557917 0.784429
Si Si7 0.791991 0.446327 0.156036
O O1 0.985354 0.195312 0.415228
O O2 0.961569 0.375389 0.041227
O O3 0.947157 0.192588 0.966109
O O4 0.222715 0.185712 0.769938
O O5 0.354544 0.848343 0.281397
O O6 0.193578 0.938332 0.084703
O O7 0.101734 0.014267 0.612371
O O8 0.343021 0.074144 0.050846
O O9 0.511853 0.776717 0.476677
O O10 0.334730 0.638916 0.590695
O O11 0.584057 0.673639 0.975458
O O12 0.500000 0.000000 0.500000
O O13 0.730042 0.545689 0.397941
O O14 0.500000 0.500000 0.000000
O O15 0.775317 0.488638 0.860193
#
# Coordination Sequence:
#
# PCOD9022860 Si02
#       7
#     2   2   2   2   2   2   2
#     4  11  23  43  68  95 133 174 222 269 331 381
#     4  10  22  39  64  97 133 174 222 262 325 399
#     4  11  22  41  64  97 133 178 212 277 340 384
#     4  10  22  40  65  97 128 172 223 274 306 391
#     4  11  26  40  62 102 145 177 214 264 336 414
#     4  10  23  42  67 100 127 163 228 287 325 379
#     4  11  23  43  70  97 123 170 234 278 320 384
#
# _framework density 26.819870999999999
#
# number of rings (size 3 to 8) (size 9 to 14) (size 15 to 20)
#    0.000    1.429    1.429    3.857    4.000    7.429 
#    0.000    1.429    0.000    0.000    0.000    0.000 
#    0.000    0.000    0.000    0.000    0.000    0.000 
#
# Total GULP energy -78352.104026 kJ/mol
# GULP energy per Si atom -5596.578859 kJ/mol
# Density = 2.675883 g / cm^3
# Si number density = 26.819871 Si / 1000 Ang^3
#
#
#
# Elastic Constant Matrix: (Units=GPa)
#
#
# Indices 1 2 3 4 5 6 
#
# 1 108.6293 47.5174 48.1611 17.0238 1.4298 -9.9497
# 2 47.5174 137.3551 25.6452 38.2260 -7.0064 -12.7486
# 3 48.1611 25.6452 76.5744 16.3571 2.9097 8.4857
# 4 17.0238 38.2260 16.3571 48.3119 -0.8010 -2.9786
# 5 1.4298 -7.0064 2.9097 -0.8010 51.8471 -0.2489
# 6 -9.9497 -12.7486 8.4857 -2.9786 -0.2489 54.1330
#
#
#
# Elastic Compliance Matrix: (Units=1/GPa)
#
#
# Indices 1 2 3 4 5 6 
#
# 1 0.014699 -0.003355 -0.008597 0.000582 -0.000351 0.003290
# 2 -0.003355 0.010658 -0.000174 -0.007073 0.001441 0.001538
# 3 -0.008597 -0.000174 0.019948 -0.003910 -0.000990 -0.004968
# 4 0.000582 -0.007073 -0.003910 0.027443 -0.000326 0.000563
# 5 -0.000351 0.001441 -0.000990 -0.000326 0.019545 0.000502
# 6 0.003290 0.001538 -0.004968 0.000563 0.000502 0.020252
#
#
# Mechanical properties :
#
#
# Convention : Reuss Voigt Hill
#
# Bulk Modulus (GPa) = 47.49705 62.80069 55.14887
# Shear Modulus (GPa) = 34.76698 44.27407 39.52053
#
# Velocity S-wave (km/s) = 3.60434 4.06740 3.84285
# Velocity P-wave (km/s) = 5.92198 6.74722 6.34802
#
# Compressibility (1/GPa) = 0.02105394
#
# Stress axis : x y z
#
# Youngs Moduli (GPa) = 68.03049 93.82466 50.13084
#
# Poissons Ratio (x) = 0.31475 0.43098
# Poissons Ratio (y) = 0.22822 0.00871
# Poissons Ratio (z) = 0.58487 0.01631
#
# Static dielectric constant tensor:
#      x y z
#    x 2.144310 0.001720 -0.013880 
#    y 0.001720 2.126700 -0.048120 
#    z -0.013880 -0.048120 2.158720 
# 
# From -- ./inp_files/69516.got.cif
#   From: 2010.05.17/outbox.cif.g08.bks.cpg/sg2_35_cif.got.tgz:69516.got - 2010.06.03 11:33:40.
