data_PCOD9022877
_publ_section_title
;
Structure prediction by ZEFSAII (Michael W. Deem and Ramdas Pophale) SiO2 
 PCOD9022877
Probable space group: P -1
;
_chemical_formula_sum "Si O2"
_cell_formula_units_Z 12
_cell_length_a 20.403635
_cell_length_b 11.828102
_cell_length_c 5.165471
_cell_angle_alpha 97.787425
_cell_angle_beta 94.640461
_cell_angle_gamma 25.509689
_cell_volume 529.412890
_symmetry_space_group_name_H-M "P -1"
_symmetry_group_IT_number 2
_symmetry_cell_setting 'triclinic'
loop_
_space_group_symop_operation_xyz
x,y,z
-x,-y,-z
loop_
_atom_site_type_symbol
_atom_site_label
_atom_site_fract_x
_atom_site_fract_y
_atom_site_fract_z
Si Si1 0.893537 0.675330 0.266228
Si Si2 0.662689 0.704528 0.844369
Si Si3 0.175898 0.004132 0.400023
Si Si4 0.581620 0.579706 0.623760
Si Si5 0.178722 0.455288 0.665607
Si Si6 0.578296 0.256641 0.893867
O O1 0.824752 0.910013 0.328496
O O2 0.795683 0.713605 0.274954
O O3 0.000000 0.500000 0.500000
O O4 0.000000 0.500000 0.000000
O O5 0.647667 0.601808 0.689378
O O6 0.728608 0.673519 0.612738
O O7 0.770818 0.543025 0.081132
O O8 0.500000 0.000000 0.000000
O O9 0.002150 0.244570 0.353379
O O10 0.285114 0.724489 0.389542
O O11 0.254168 0.967368 0.207655
O O12 0.502529 0.677912 0.355185
O O13 0.458420 0.756967 0.868593
O O14 0.500000 0.500000 0.000000
#
# Coordination Sequence:
#
# PCOD9022877 Si02
#       6
#     2   2   2   2   2   2
#     4  10  22  39  64  99 132 165 210 277 346 388
#     4  12  28  46  68  92 142 187 230 270 325 418
#     4  10  23  42  72 100 136 163 231 291 338 396
#     4  11  25  43  68 103 134 185 223 269 342 399
#     4  11  25  45  68 100 130 182 227 278 342 390
#     4  10  22  41  67 103 137 169 216 279 348 397
#
# _framework density 22.666620000000002
#
# number of rings (size 3 to 8) (size 9 to 14) (size 15 to 20)
#    0.000    1.333    0.000    5.500    4.667   13.333 
#    0.000    0.000    0.000    0.000    0.000    0.000 
#    0.000    0.000    0.000    0.000    0.000    0.000 
#
# Total GULP energy -67103.309741 kJ/mol
# GULP energy per Si atom -5591.942478 kJ/mol
# Density = 2.261503 g / cm^3
# Si number density = 22.666620 Si / 1000 Ang^3
#
#
#
# Elastic Constant Matrix: (Units=GPa)
#
#
# Indices 1 2 3 4 5 6 
#
# 1 119.3913 59.7999 67.0151 15.2454 6.6187 -8.7050
# 2 59.7999 134.7337 67.9711 9.9804 0.2912 -3.6632
# 3 67.0151 67.9711 209.4058 0.6349 -2.5473 -15.3045
# 4 15.2454 9.9804 0.6349 44.5304 -9.3707 6.5226
# 5 6.6187 0.2912 -2.5473 -9.3707 45.4760 4.9371
# 6 -8.7050 -3.6632 -15.3045 6.5226 4.9371 36.6596
#
#
#
# Elastic Compliance Matrix: (Units=1/GPa)
#
#
# Indices 1 2 3 4 5 6 
#
# 1 0.012785 -0.003923 -0.002640 -0.004546 -0.003223 0.002785
# 2 -0.003923 0.010271 -0.002123 -0.000762 0.000305 -0.000697
# 3 -0.002640 -0.002123 0.006426 0.001246 0.000851 0.001507
# 4 -0.004546 -0.000762 0.001246 0.026536 0.006886 -0.006284
# 5 -0.003223 0.000305 0.000851 0.006886 0.024455 -0.004898
# 6 0.002785 -0.000697 0.001507 -0.006284 -0.004898 0.030277
#
#
# Mechanical properties :
#
#
# Convention : Reuss Voigt Hill
#
# Bulk Modulus (GPa) = 82.58034 94.78922 88.68478
# Shear Modulus (GPa) = 37.83312 43.24952 40.54132
#
# Velocity S-wave (km/s) = 4.08991 4.37289 4.23376
# Velocity P-wave (km/s) = 7.66908 8.21011 7.94420
#
# Compressibility (1/GPa) = 0.01210942
#
# Stress axis : x y z
#
# Youngs Moduli (GPa) = 78.21780 97.35788 155.61178
#
# Poissons Ratio (x) = 0.38195 0.41081
# Poissons Ratio (y) = 0.30686 0.33043
# Poissons Ratio (z) = 0.20649 0.20673
#
# Static dielectric constant tensor:
#      x y z
#    x 1.882970 -0.023210 -0.014980 
#    y -0.023210 1.904950 0.017970 
#    z -0.014980 0.017970 1.856890 
# 
# From -- ./inp_files/109288.got.cif
#   From: 2010.05.17/outbox.cif.g08.bks.cpg/sg2_55_cif.got.tgz:109288.got - 2010.06.03 11:33:40.
