data_PCOD9022953
_publ_section_title
;
Structure prediction by ZEFSAII (Michael W. Deem and Ramdas Pophale) SiO2 
 PCOD9022953
Probable space group: P -1
;
_chemical_formula_sum "Si O2"
_cell_formula_units_Z 16
_cell_length_a 14.450678
_cell_length_b 9.491540
_cell_length_c 15.052342
_cell_angle_alpha 34.205674
_cell_angle_beta 63.063682
_cell_angle_gamma 90.464278
_cell_volume 667.987818
_symmetry_space_group_name_H-M "P -1"
_symmetry_group_IT_number 2
_symmetry_cell_setting 'triclinic'
loop_
_space_group_symop_operation_xyz
x,y,z
-x,-y,-z
loop_
_atom_site_type_symbol
_atom_site_label
_atom_site_fract_x
_atom_site_fract_y
_atom_site_fract_z
Si Si1 0.103294 0.309507 0.688518
Si Si2 0.560534 0.039504 0.835696
Si Si3 0.898851 0.055923 0.762759
Si Si4 0.122804 0.303429 0.212053
Si Si5 0.481974 0.561767 0.755233
Si Si6 0.516071 0.248261 0.164495
Si Si7 0.901100 0.225032 0.936552
Si Si8 0.429518 0.324790 0.720078
O O1 0.254042 0.614832 0.398102
O O2 0.944092 0.986317 0.867322
O O3 0.068695 0.488839 0.672699
O O4 0.126883 0.097560 0.841205
O O5 0.465228 0.115703 0.852183
O O6 0.477381 0.640775 0.119310
O O7 0.578661 0.071205 0.703526
O O8 0.000000 0.500000 0.500000
O O9 0.936682 0.943868 0.722034
O O10 0.711421 0.771669 0.982711
O O11 0.115333 0.591204 0.077411
O O12 0.302716 0.528046 0.033990
O O13 0.000000 0.000000 0.500000
O O14 0.543399 0.857229 0.652663
O O15 0.512120 0.648196 0.592105
O O16 0.500000 0.500000 0.000000
O O17 0.760517 0.012640 0.037021
O O18 0.500000 0.500000 0.500000
#
# Coordination Sequence:
#
# PCOD9022953 Si02
#       8
#     2   2   2   2   2   2   2   2
#     4  11  23  41  67  93 127 181 216 260 336 391
#     4  11  21  39  68  95 127 164 220 270 323 389
#     4  11  21  39  67  94 127 166 215 267 323 390
#     4  11  24  39  65  97 128 170 216 269 322 380
#     4  10  22  39  65  93 126 169 218 269 324 384
#     4   9  21  40  61  94 132 163 210 276 325 386
#     4  11  24  42  63  92 135 173 218 267 324 396
#     4  12  23  41  64  92 128 170 215 269 329 384
#
# _framework density 23.952531
#
# number of rings (size 3 to 8) (size 9 to 14) (size 15 to 20)
#    0.000    1.250    5.000    1.125    3.500    0.500 
#    4.500    0.625    5.500    0.000    0.000    0.000 
#    0.000    0.000    0.000    0.000    0.000    0.000 
#
# Total GULP energy -89279.885788 kJ/mol
# GULP energy per Si atom -5579.992862 kJ/mol
# Density = 2.389801 g / cm^3
# Si number density = 23.952531 Si / 1000 Ang^3
#
#
#
# Elastic Constant Matrix: (Units=GPa)
#
#
# Indices 1 2 3 4 5 6 
#
# 1 123.9696 50.0196 12.0560 -3.4547 -5.2254 -29.4314
# 2 50.0196 188.4240 10.9057 11.8168 12.2770 5.1998
# 3 12.0560 10.9057 39.1455 9.1804 -2.4204 -11.5727
# 4 -3.4547 11.8168 9.1804 33.2305 0.1628 2.9417
# 5 -5.2254 12.2770 -2.4204 0.1628 22.0438 3.6958
# 6 -29.4314 5.1998 -11.5727 2.9417 3.6958 47.6296
#
#
#
# Elastic Compliance Matrix: (Units=1/GPa)
#
#
# Indices 1 2 3 4 5 6 
#
# 1 0.011384 -0.003516 -0.000768 0.002023 0.003410 0.006842
# 2 -0.003516 0.006813 -0.001407 -0.002131 -0.004298 -0.002793
# 3 -0.000768 -0.001407 0.030583 -0.008700 0.002778 0.007432
# 4 0.002023 -0.002131 -0.008700 0.033707 0.000929 -0.002785
# 5 0.003410 -0.004298 0.002778 0.000929 0.048966 -0.000606
# 6 0.006842 -0.002793 0.007432 -0.002785 -0.000606 0.027553
#
#
# Mechanical properties :
#
#
# Convention : Reuss Voigt Hill
#
# Bulk Modulus (GPa) = 26.73778 55.27795 41.00786
# Shear Modulus (GPa) = 27.34451 39.15129 33.24790
#
# Velocity S-wave (km/s) = 3.38244 4.04733 3.72973
# Velocity P-wave (km/s) = 5.14214 6.70592 5.97541
#
# Compressibility (1/GPa) = 0.03740026
#
# Stress axis : x y z
#
# Youngs Moduli (GPa) = 87.84162 146.78662 32.69758
#
# Poissons Ratio (x) = 0.51603 0.02510
# Poissons Ratio (y) = 0.30881 0.04600
# Poissons Ratio (z) = 0.06742 0.20651
#
# Static dielectric constant tensor:
#      x y z
#    x 1.944390 -0.002870 0.041050 
#    y -0.002870 2.114870 0.029720 
#    z 0.041050 0.029720 1.973680 
# 
# From -- ./inp_files/206820.got.cif
#   From: 2010.05.17/outbox.cif.g08.bks.cpg/sg2_104_cif.got.tgz:206820.got - 2010.06.03 11:33:40.
