data_PCOD9022589
_publ_section_title
;
Structure prediction by ZEFSAII (Michael W. Deem and Ramdas Pophale) SiO2 
 PCOD9022589
Probable space group: P -1
;
_chemical_formula_sum "Si O2"
_cell_formula_units_Z 14
_cell_length_a 16.864768
_cell_length_b 11.657167
_cell_length_c 11.426748
_cell_angle_alpha 64.272058
_cell_angle_beta 147.816270
_cell_angle_gamma 137.907003
_cell_volume 673.443967
_symmetry_space_group_name_H-M "P -1"
_symmetry_group_IT_number 2
_symmetry_cell_setting 'triclinic'
loop_
_space_group_symop_operation_xyz
x,y,z
-x,-y,-z
loop_
_atom_site_type_symbol
_atom_site_label
_atom_site_fract_x
_atom_site_fract_y
_atom_site_fract_z
Si Si1 0.077200 0.426462 0.203296
Si Si2 0.055527 0.491212 0.405671
Si Si3 0.427711 0.254047 0.409972
Si Si4 0.170031 0.331636 0.041637
Si Si5 0.909947 0.226800 0.541798
Si Si6 0.739026 0.078263 0.787827
Si Si7 0.532893 0.226352 0.793716
O O1 0.145351 0.513083 0.380528
O O2 0.311914 0.523019 0.396920
O O3 0.000000 0.500000 0.000000
O O4 0.852128 0.184730 0.007934
O O5 0.155710 0.686663 0.505451
O O6 0.063692 0.383805 0.557363
O O7 0.775009 0.327567 0.099686
O O8 0.469955 0.177706 0.598292
O O9 0.324849 0.109257 0.235763
O O10 0.256816 0.254379 0.230896
O O11 0.059479 0.245071 0.813143
O O12 0.959735 0.250087 0.896109
O O13 0.394727 0.576180 0.198523
O O14 0.687688 0.993326 0.326914
O O15 0.500000 0.000000 0.500000
#
# Coordination Sequence:
#
# PCOD9022589 Si02
#       7
#     2   2   2   2   2   2   2
#     4  12  22  38  59  92 126 156 201 260 312 360
#     4  10  22  40  59  93 123 160 211 260 298 364
#     4  12  24  37  63  95 129 162 200 259 317 368
#     4  11  24  40  60  97 126 162 208 253 311 373
#     4  10  22  39  63  86 125 166 210 250 303 370
#     4  12  23  37  61  92 127 162 203 256 314 362
#     4  11  20  36  63  86 123 161 211 250 305 362
#
# _framework density 20.788663
#
# number of rings (size 3 to 8) (size 9 to 14) (size 15 to 20)
#    0.000    0.857    5.714    2.143    0.000    0.000 
#    0.000    0.714    0.000    1.714    0.000    0.000 
#    0.000    0.000    0.000    0.000    0.000    0.000 
#
# Total GULP energy -78048.171872 kJ/mol
# GULP energy per Si atom -5574.869419 kJ/mol
# Density = 2.074135 g / cm^3
# Si number density = 20.788663 Si / 1000 Ang^3
#
#
#
# Elastic Constant Matrix: (Units=GPa)
#
#
# Indices 1 2 3 4 5 6 
#
# 1 69.7550 9.1913 19.3413 -4.4383 4.2149 -0.4035
# 2 9.1913 64.4455 29.2405 25.2966 5.5661 -6.1341
# 3 19.3413 29.2405 67.4963 8.3016 4.2564 -5.2449
# 4 -4.4383 25.2966 8.3016 40.1335 -2.3423 -11.6320
# 5 4.2149 5.5661 4.2564 -2.3423 29.1275 -2.5044
# 6 -0.4035 -6.1341 -5.2449 -11.6320 -2.5044 26.2374
#
#
#
# Elastic Compliance Matrix: (Units=1/GPa)
#
#
# Indices 1 2 3 4 5 6 
#
# 1 0.016043 -0.001755 -0.004201 0.003869 -0.001008 0.000616
# 2 -0.001755 0.026229 -0.008811 -0.016155 -0.005054 -0.003301
# 3 -0.004201 -0.008811 0.019841 0.001718 -0.000248 0.002580
# 4 0.003869 -0.016155 0.001718 0.039904 0.006772 0.014963
# 5 -0.001008 -0.005054 -0.000248 0.006772 0.036474 0.005237
# 6 0.000616 -0.003301 0.002580 0.014963 0.005237 0.045001
#
#
# Mechanical properties :
#
#
# Convention : Reuss Voigt Hill
#
# Bulk Modulus (GPa) = 30.69449 35.24921 32.97185
# Shear Modulus (GPa) = 22.33289 28.69460 25.51374
#
# Velocity S-wave (km/s) = 3.28118 3.71927 3.50707
# Velocity P-wave (km/s) = 5.39925 5.95288 5.68281
#
# Compressibility (1/GPa) = 0.03257914
#
# Stress axis : x y z
#
# Youngs Moduli (GPa) = 62.33386 38.12635 50.40009
#
# Poissons Ratio (x) = 0.06690 0.21175
# Poissons Ratio (y) = 0.10938 0.44406
# Poissons Ratio (z) = 0.26188 0.33592
#
# Static dielectric constant tensor:
#      x y z
#    x 1.814320 0.005150 -0.033510 
#    y 0.005150 1.785850 0.054250 
#    z -0.033510 0.054250 1.776790 
# 
# From -- ./inp_files/345719.got.cif
#   From: 2010.05.17/outbox.cif.g08.bks.cpg/sg2_173_cif.got.tgz:345719.got - 2010.06.03 11:33:40.
