data_PCOD9022479
_publ_section_title
;
Structure prediction by ZEFSAII (Michael W. Deem and Ramdas Pophale) SiO2 
 PCOD9022479
Probable space group: P -1
;
_chemical_formula_sum "Si O2"
_cell_formula_units_Z 14
_cell_length_a 11.498595
_cell_length_b 14.539163
_cell_length_c 16.025327
_cell_angle_alpha 162.304380
_cell_angle_beta 136.974084
_cell_angle_gamma 43.544675
_cell_volume 550.423207
_symmetry_space_group_name_H-M "P -1"
_symmetry_group_IT_number 2
_symmetry_cell_setting 'triclinic'
loop_
_space_group_symop_operation_xyz
x,y,z
-x,-y,-z
loop_
_atom_site_type_symbol
_atom_site_label
_atom_site_fract_x
_atom_site_fract_y
_atom_site_fract_z
Si Si1 0.280322 0.526160 0.102693
Si Si2 0.606614 0.497936 0.138559
Si Si3 0.817572 0.879178 0.672196
Si Si4 0.930988 0.878693 0.445720
Si Si5 0.636991 0.786951 0.786975
Si Si6 0.206499 0.628364 0.638099
Si Si7 0.261486 0.065699 0.848980
O O1 0.139606 0.435063 0.883327
O O2 0.467252 0.461994 0.105672
O O3 0.231415 0.878578 0.404169
O O4 0.259453 0.323444 0.998801
O O5 0.694193 0.798315 0.463028
O O6 0.500000 0.500000 0.000000
O O7 0.758577 0.214267 0.966424
O O8 0.792655 0.632107 0.517135
O O9 0.014602 0.808509 0.687928
O O10 0.000000 0.000000 0.500000
O O11 0.088595 0.910690 0.616820
O O12 0.723506 0.538221 0.553419
O O13 0.712580 0.786392 0.919742
O O14 0.675350 0.115974 0.057783
O O15 0.430408 0.819078 0.709263
#
# Coordination Sequence:
#
# PCOD9022479 Si02
#       7
#     2   2   2   2   2   2   2
#     4  11  23  41  65  89 126 170 210 259 317 380
#     4  12  26  44  68  99 129 167 216 269 324 380
#     4  11  24  45  70  94 131 169 215 267 321 387
#     4  10  22  39  62  90 122 167 215 255 307 379
#     4  11  25  39  64  97 131 166 213 266 313 380
#     4  11  24  44  68  97 127 173 216 262 324 374
#     4  10  23  41  62  93 130 168 210 258 318 376
#
# _framework density 25.434974
#
# number of rings (size 3 to 8) (size 9 to 14) (size 15 to 20)
#    0.000    1.143    0.000    6.429    0.000   16.000 
#    0.000    0.000    0.000    0.000    0.000    0.000 
#    0.000    0.000    0.000    0.000    0.000    0.000 
#
# Total GULP energy -78575.369615 kJ/mol
# GULP energy per Si atom -5612.526401 kJ/mol
# Density = 2.537708 g / cm^3
# Si number density = 25.434974 Si / 1000 Ang^3
#
#
#
# Elastic Constant Matrix: (Units=GPa)
#
#
# Indices 1 2 3 4 5 6 
#
# 1 120.2309 37.9943 23.6117 7.3907 -26.7132 -15.5793
# 2 37.9943 94.5059 7.1350 -10.2435 -20.4020 -11.1226
# 3 23.6117 7.1350 91.3274 11.9644 -19.0164 -25.6833
# 4 7.3907 -10.2435 11.9644 42.6015 -16.5120 1.1138
# 5 -26.7132 -20.4020 -19.0164 -16.5120 35.2694 10.7496
# 6 -15.5793 -11.1226 -25.6833 1.1138 10.7496 39.7432
#
#
#
# Elastic Compliance Matrix: (Units=1/GPa)
#
#
# Indices 1 2 3 4 5 6 
#
# 1 0.010854 -0.002988 -0.001053 -0.000237 0.005424 0.001277
# 2 -0.002988 0.014851 0.000888 0.007816 0.010296 0.000555
# 3 -0.001053 0.000888 0.014618 -0.002393 0.003954 0.008280
# 4 -0.000237 0.007816 -0.002393 0.034363 0.020997 -0.006094
# 5 0.005424 0.010296 0.003954 0.020997 0.052589 -0.007249
# 6 0.001277 0.000555 0.008280 -0.006094 -0.007249 0.033300
#
#
# Mechanical properties :
#
#
# Convention : Reuss Voigt Hill
#
# Bulk Modulus (GPa) = 29.39756 49.28293 39.34025
# Shear Modulus (GPa) = 28.05534 39.34438 33.69986
#
# Velocity S-wave (km/s) = 3.32478 3.93728 3.64392
# Velocity P-wave (km/s) = 5.13049 6.33149 5.76236
#
# Compressibility (1/GPa) = 0.03401643
#
# Stress axis : x y z
#
# Youngs Moduli (GPa) = 92.13460 67.33541 68.41008
#
# Poissons Ratio (x) = 0.20123 0.07203
# Poissons Ratio (y) = 0.27534 -0.06078
# Poissons Ratio (z) = 0.09702 -0.05982
#
# Static dielectric constant tensor:
#      x y z
#    x 1.998690 0.039390 0.032420 
#    y 0.039390 2.042660 -0.018340 
#    z 0.032420 -0.018340 1.950960 
# 
# From -- ./inp_files/522071.got.cif
#   From: 2010.05.17/outbox.cif.g08.bks.cpg/sg2_262_cif.got.tgz:522071.got - 2010.06.03 11:33:40.
