data_PCOD9022162
_publ_section_title
;
Structure prediction by ZEFSAII (Michael W. Deem and Ramdas Pophale) SiO2 
 PCOD9022162
Probable space group: P -1
;
_chemical_formula_sum "Si O2"
_cell_formula_units_Z 14
_cell_length_a 15.567994
_cell_length_b 8.821000
_cell_length_c 16.231983
_cell_angle_alpha 45.398382
_cell_angle_beta 152.822978
_cell_angle_gamma 117.015772
_cell_volume 617.392438
_symmetry_space_group_name_H-M "P -1"
_symmetry_group_IT_number 2
_symmetry_cell_setting 'triclinic'
loop_
_space_group_symop_operation_xyz
x,y,z
-x,-y,-z
loop_
_atom_site_type_symbol
_atom_site_label
_atom_site_fract_x
_atom_site_fract_y
_atom_site_fract_z
Si Si1 0.472364 0.205410 0.460989
Si Si2 0.979486 0.744548 0.277896
Si Si3 0.689524 0.529536 0.053889
Si Si4 0.417753 0.774322 0.287109
Si Si5 0.082560 0.560281 0.891000
Si Si6 0.809170 0.153594 0.434784
Si Si7 0.257112 0.544592 0.435848
O O1 0.490751 0.125533 0.601786
O O2 0.668268 0.257981 0.591165
O O3 0.500000 0.000000 0.500000
O O4 0.236215 0.447635 0.144949
O O5 0.811647 0.649372 0.160201
O O6 0.048873 0.766299 0.419770
O O7 0.181924 0.572486 0.455198
O O8 0.840068 0.029004 0.015377
O O9 0.757259 0.499002 0.028147
O O10 0.776820 0.262825 0.273672
O O11 0.431078 0.701061 0.784147
O O12 0.500000 0.500000 0.500000
O O13 0.534065 0.715921 0.319911
O O14 0.942831 0.430944 0.799117
O O15 0.922234 0.856873 0.646249
#
# Coordination Sequence:
#
# PCOD9022162 Si02
#       7
#     2   2   2   2   2   2   2
#     4  11  23  40  63  91 122 160 205 246 293 361
#     4  11  22  40  63  87 122 161 199 247 303 355
#     4  10  23  41  60  92 124 152 203 256 298 360
#     4  10  22  39  58  87 122 154 199 247 290 355
#     4  11  23  40  63  88 122 162 199 246 305 358
#     4  11  22  39  66  90 118 161 201 247 307 358
#     4  10  23  40  58  85 121 157 196 247 296 344
#
# _framework density 22.676013999999999
#
# number of rings (size 3 to 8) (size 9 to 14) (size 15 to 20)
#    0.000    1.429    0.000    6.000    0.000    6.857 
#    0.000    1.429    0.000   12.000    0.000    0.000 
#    0.000    0.000    0.000    0.000    0.000    0.000 
#
# Total GULP energy -78249.711922 kJ/mol
# GULP energy per Si atom -5589.265137 kJ/mol
# Density = 2.262440 g / cm^3
# Si number density = 22.676014 Si / 1000 Ang^3
#
#
#
# Elastic Constant Matrix: (Units=GPa)
#
#
# Indices 1 2 3 4 5 6 
#
# 1 33.6430 9.9246 25.5172 1.2503 6.1703 -18.6013
# 2 9.9246 68.0175 27.3002 -1.7902 2.8282 -9.8402
# 3 25.5172 27.3002 87.4918 -14.3618 -3.9241 0.6887
# 4 1.2503 -1.7902 -14.3618 33.3946 -1.8952 5.0855
# 5 6.1703 2.8282 -3.9241 -1.8952 30.3385 -1.2532
# 6 -18.6013 -9.8402 0.6887 5.0855 -1.2532 37.8216
#
#
#
# Elastic Compliance Matrix: (Units=1/GPa)
#
#
# Indices 1 2 3 4 5 6 
#
# 1 0.080228 0.007350 -0.030880 -0.023831 -0.020649 0.044452
# 2 0.007350 0.018617 -0.009003 -0.004783 -0.004317 0.009123
# 3 -0.030880 -0.009003 0.026453 0.015667 0.010703 -0.019763
# 4 -0.023831 -0.004783 0.015667 0.040639 0.009097 -0.018413
# 5 -0.020649 -0.004317 0.010703 0.009097 0.039045 -0.011403
# 6 0.044452 0.009123 -0.019763 -0.018413 -0.011403 0.053134
#
#
# Mechanical properties :
#
#
# Convention : Reuss Voigt Hill
#
# Bulk Modulus (GPa) = 16.60278 34.95959 25.78118
# Shear Modulus (GPa) = 14.56630 28.73828 21.65229
#
# Velocity S-wave (km/s) = 2.53724 3.56384 3.09342
# Velocity P-wave (km/s) = 3.99013 5.69079 4.91458
#
# Compressibility (1/GPa) = 0.06023088
#
# Stress axis : x y z
#
# Youngs Moduli (GPa) = 12.46451 53.71528 37.80349
#
# Poissons Ratio (x) = -0.39483 1.16738
# Poissons Ratio (y) = -0.09162 0.34036
# Poissons Ratio (z) = 0.38491 0.48362
#
# Static dielectric constant tensor:
#      x y z
#    x 1.855840 0.006380 -0.003010 
#    y 0.006380 1.902430 -0.030160 
#    z -0.003010 -0.030160 1.846110 
# 
# From -- ./inp_files/313213.got.cif
#   From: 2010.05.17/outbox.cif.g08.bks.cpg/sg2_157_cif.got.tgz:313213.got - 2010.06.03 11:33:40.
