data_PCOD9022502
_publ_section_title
;
Structure prediction by ZEFSAII (Michael W. Deem and Ramdas Pophale) SiO2 
 PCOD9022502
Probable space group: P -1
;
_chemical_formula_sum "Si O2"
_cell_formula_units_Z 14
_cell_length_a 8.057995
_cell_length_b 5.290056
_cell_length_c 15.278361
_cell_angle_alpha 88.289007
_cell_angle_beta 67.444515
_cell_angle_gamma 91.422321
_cell_volume 600.724960
_symmetry_space_group_name_H-M "P -1"
_symmetry_group_IT_number 2
_symmetry_cell_setting 'triclinic'
loop_
_space_group_symop_operation_xyz
x,y,z
-x,-y,-z
loop_
_atom_site_type_symbol
_atom_site_label
_atom_site_fract_x
_atom_site_fract_y
_atom_site_fract_z
Si Si1 0.995894 0.754203 0.942284
Si Si2 0.950465 0.243935 0.563440
Si Si3 0.713979 0.790806 0.408858
Si Si4 0.321568 0.777803 0.245901
Si Si5 0.395450 0.851812 0.823055
Si Si6 0.465855 0.713150 0.623724
Si Si7 0.293939 0.279895 0.147600
O O1 0.187534 0.787619 0.853955
O O2 0.821195 0.738712 0.916276
O O3 0.000000 0.500000 0.000000
O O4 0.000000 0.000000 0.000000
O O5 0.075665 0.239391 0.623684
O O6 0.000000 0.500000 0.500000
O O7 0.748345 0.245157 0.640516
O O8 0.000000 0.000000 0.500000
O O9 0.633422 0.762437 0.524261
O O10 0.623701 0.557882 0.377678
O O11 0.663885 0.060176 0.378479
O O12 0.264134 0.539011 0.201743
O O13 0.535510 0.853643 0.196240
O O14 0.240786 0.030538 0.217676
O O15 0.497657 0.736153 0.720014
O O16 0.487242 0.745069 0.893958
#
# Coordination Sequence:
#
# PCOD9022502 Si02
#       7
#     2   2   2   2   2   2   2
#     4  12  29  49  77 110 139 176 230 291 368 438
#     4  12  24  38  64  93 144 192 237 291 346 394
#     4  10  23  37  58  97 135 181 240 283 327 390
#     4  10  24  43  69 102 139 186 238 284 342 412
#     4  10  27  44  78  98 145 188 230 287 356 418
#     4  10  22  39  62  91 135 183 230 282 336 399
#     4  10  25  48  71 105 138 178 236 283 352 431
#
# _framework density 23.305177
#
# number of rings (size 3 to 8) (size 9 to 14) (size 15 to 20)
#    0.857    0.571    0.000    3.429   10.000    2.286 
#    0.000    0.000    0.000    0.000    0.000    0.000 
#    0.000    0.000    0.000    0.000    0.000    0.000 
#
# Total GULP energy -78223.704509 kJ/mol
# GULP energy per Si atom -5587.407465 kJ/mol
# Density = 2.325213 g / cm^3
# Si number density = 23.305177 Si / 1000 Ang^3
#
#
#
# Elastic Constant Matrix: (Units=GPa)
#
#
# Indices 1 2 3 4 5 6 
#
# 1 91.5080 2.7484 6.2196 -2.0453 19.4712 -3.4824
# 2 2.7484 151.7119 25.3459 11.7199 4.7665 3.4278
# 3 6.2196 25.3459 43.9707 6.5686 15.2298 7.5534
# 4 -2.0453 11.7199 6.5686 39.2594 6.5831 6.7290
# 5 19.4712 4.7665 15.2298 6.5831 34.8943 -2.1185
# 6 -3.4824 3.4278 7.5534 6.7290 -2.1185 26.6220
#
#
#
# Elastic Compliance Matrix: (Units=1/GPa)
#
#
# Indices 1 2 3 4 5 6 
#
# 1 0.012560 -0.000247 0.000643 0.001816 -0.007572 0.000431
# 2 -0.000247 0.007454 -0.004688 -0.001879 0.001578 0.000939
# 3 0.000643 -0.004688 0.031907 0.000116 -0.014245 -0.009528
# 4 0.001816 -0.001879 0.000116 0.028465 -0.006619 -0.007275
# 5 -0.007572 0.001578 -0.014245 -0.006619 0.040604 0.007752
# 6 0.000431 0.000939 -0.009528 -0.007275 0.007752 0.042658
#
#
# Mechanical properties :
#
#
# Convention : Reuss Voigt Hill
#
# Bulk Modulus (GPa) = 23.07549 39.53538 31.30544
# Shear Modulus (GPa) = 26.78418 37.01358 31.89888
#
# Velocity S-wave (km/s) = 3.39378 3.98956 3.70367
# Velocity P-wave (km/s) = 5.02792 6.18249 5.63485
#
# Compressibility (1/GPa) = 0.04333602
#
# Stress axis : x y z
#
# Youngs Moduli (GPa) = 79.61875 134.16383 31.34077
#
# Poissons Ratio (x) = 0.03316 -0.02016
# Poissons Ratio (y) = 0.01968 0.14694
# Poissons Ratio (z) = -0.05121 0.62902
#
# Static dielectric constant tensor:
#      x y z
#    x 1.994060 -0.033040 -0.045080 
#    y -0.033040 1.849880 0.000070 
#    z -0.045080 0.000070 1.894420 
# 
# From -- ./inp_files/488524.got.cif
#   From: 2010.05.17/outbox.cif.g08.bks.cpg/sg2_245_cif.got.tgz:488524.got - 2010.06.03 11:33:40.
