data_PCOD9022234
_publ_section_title
;
Structure prediction by ZEFSAII (Michael W. Deem and Ramdas Pophale) SiO2 
 PCOD9022234
Probable space group: P -1
;
_chemical_formula_sum "Si O2"
_cell_formula_units_Z 16
_cell_length_a 10.483965
_cell_length_b 12.616167
_cell_length_c 8.720999
_cell_angle_alpha 98.309851
_cell_angle_beta 95.071460
_cell_angle_gamma 33.529318
_cell_volume 629.377438
_symmetry_space_group_name_H-M "P -1"
_symmetry_group_IT_number 2
_symmetry_cell_setting 'triclinic'
loop_
_space_group_symop_operation_xyz
x,y,z
-x,-y,-z
loop_
_atom_site_type_symbol
_atom_site_label
_atom_site_fract_x
_atom_site_fract_y
_atom_site_fract_z
Si Si1 0.220958 0.203599 0.164791
Si Si2 0.728379 0.483499 0.076170
Si Si3 0.936572 0.963712 0.623075
Si Si4 0.559399 0.141708 0.051778
Si Si5 0.575430 0.681140 0.415342
Si Si6 0.168236 0.630863 0.407896
Si Si7 0.927612 0.165290 0.854088
Si Si8 0.762786 0.777228 0.481616
O O1 0.379814 0.194625 0.139967
O O2 0.156857 0.255218 0.344899
O O3 0.984278 0.359823 0.076489
O O4 0.365325 0.994119 0.103576
O O5 0.620987 0.575666 0.251026
O O6 0.566528 0.664527 0.982629
O O7 0.783006 0.322037 0.006814
O O8 0.684612 0.097270 0.580509
O O9 0.918454 0.045191 0.792987
O O10 0.000000 0.000000 0.500000
O O11 0.114108 0.744906 0.572053
O O12 0.800106 0.998844 0.132679
O O13 0.618525 0.588975 0.559878
O O14 0.742929 0.665863 0.423887
O O15 0.178519 0.698264 0.275629
O O16 0.945517 0.709063 0.378600
O O17 0.500000 0.000000 0.500000
#
# Coordination Sequence:
#
# PCOD9022234 Si02
#       8
#     2   2   2   2   2   2   2   2
#     4  10  22  39  59  99 136 176 217 261 327 407
#     4  11  24  41  65  98 137 170 219 270 329 400
#     4  10  25  47  67  96 130 175 230 276 324 390
#     4  10  22  40  64  93 139 180 215 265 330 390
#     4  12  26  42  69 103 135 172 218 274 339 392
#     4  11  24  44  69  99 136 171 220 278 327 396
#     4  10  25  44  68  97 128 180 231 265 326 388
#     4  12  22  39  69 100 139 171 212 269 340 393
#
# _framework density 25.421948
#
# number of rings (size 3 to 8) (size 9 to 14) (size 15 to 20)
#    0.000    1.250    2.500    2.250    3.500    5.500 
#    0.000    1.250    0.000    0.000    0.000    0.000 
#    0.000    0.000    0.000    0.000    0.000    0.000 
#
# Total GULP energy -89616.926541 kJ/mol
# GULP energy per Si atom -5601.057909 kJ/mol
# Density = 2.536409 g / cm^3
# Si number density = 25.421948 Si / 1000 Ang^3
#
#
#
# Elastic Constant Matrix: (Units=GPa)
#
#
# Indices 1 2 3 4 5 6 
#
# 1 74.5920 -1.4363 6.4080 -5.4165 11.7894 1.6500
# 2 -1.4363 97.6671 9.9320 -9.9652 -0.0920 17.5425
# 3 6.4080 9.9320 63.3126 7.0304 13.0408 15.7543
# 4 -5.4165 -9.9652 7.0304 33.3384 4.0653 -2.2971
# 5 11.7894 -0.0920 13.0408 4.0653 33.3153 2.9784
# 6 1.6500 17.5425 15.7543 -2.2971 2.9784 33.7942
#
#
#
# Elastic Compliance Matrix: (Units=1/GPa)
#
#
# Indices 1 2 3 4 5 6 
#
# 1 0.014565 0.000633 -0.000890 0.003385 -0.005223 0.000065
# 2 0.000633 0.011668 -0.000975 0.003390 0.000261 -0.005426
# 3 -0.000890 -0.000975 0.019921 -0.004469 -0.006181 -0.008497
# 4 0.003385 0.003390 -0.004469 0.033145 -0.003729 0.002740
# 5 -0.005223 0.000261 -0.006181 -0.003729 0.034768 -0.000317
# 6 0.000065 -0.005426 -0.008497 0.002740 -0.000317 0.036579
#
#
# Mechanical properties :
#
#
# Convention : Reuss Voigt Hill
#
# Bulk Modulus (GPa) = 22.88753 29.48657 26.18705
# Shear Modulus (GPa) = 29.82018 34.80078 32.31048
#
# Velocity S-wave (km/s) = 3.42864 3.70391 3.56893
# Velocity P-wave (km/s) = 4.96958 5.46955 5.22555
#
# Compressibility (1/GPa) = 0.04369191
#
# Stress axis : x y z
#
# Youngs Moduli (GPa) = 68.65910 85.70400 50.19800
#
# Poissons Ratio (x) = -0.05428 0.04467
# Poissons Ratio (y) = -0.04349 0.04892
# Poissons Ratio (z) = 0.06109 0.08353
#
# Static dielectric constant tensor:
#      x y z
#    x 2.029050 -0.046890 0.035550 
#    y -0.046890 2.036210 0.010750 
#    z 0.035550 0.010750 2.017500 
# 
# From -- ./inp_files/273818.got.cif
#   From: 2010.05.17/outbox.cif.g08.bks.cpg/sg2_137_cif.got.tgz:273818.got - 2010.06.03 11:33:40.
