data_PCOD9022278
_publ_section_title
;
Structure prediction by ZEFSAII (Michael W. Deem and Ramdas Pophale) SiO2 
 PCOD9022278
Probable space group: P -1
;
_chemical_formula_sum "Si O2"
_cell_formula_units_Z 14
_cell_length_a 12.088194
_cell_length_b 11.288827
_cell_length_c 11.834977
_cell_angle_alpha 90.289479
_cell_angle_beta 115.318550
_cell_angle_gamma 145.264594
_cell_volume 600.378964
_symmetry_space_group_name_H-M "P -1"
_symmetry_group_IT_number 2
_symmetry_cell_setting 'triclinic'
loop_
_space_group_symop_operation_xyz
x,y,z
-x,-y,-z
loop_
_atom_site_type_symbol
_atom_site_label
_atom_site_fract_x
_atom_site_fract_y
_atom_site_fract_z
Si Si1 0.036614 0.620821 0.121757
Si Si2 0.239612 0.655115 0.765626
Si Si3 0.645756 0.067240 0.371609
Si Si4 0.186481 0.192673 0.231263
Si Si5 0.608464 0.403410 0.817571
Si Si6 0.557116 0.704465 0.855837
Si Si7 0.898567 0.896915 0.326239
O O1 0.841304 0.404852 0.139944
O O2 0.897582 0.619663 0.015671
O O3 0.382666 0.917529 0.306311
O O4 0.000000 0.500000 0.000000
O O5 0.301398 0.831682 0.729391
O O6 0.502448 0.792147 0.862682
O O7 0.947691 0.344540 0.574102
O O8 0.529232 0.831479 0.306532
O O9 0.311547 0.425837 0.237277
O O10 0.372984 0.258021 0.245813
O O11 0.157857 0.148726 0.351590
O O12 0.839530 0.891530 0.039379
O O13 0.365085 0.239104 0.797407
O O14 0.262283 0.371144 0.759245
O O15 0.000000 0.000000 0.500000
#
# Coordination Sequence:
#
# PCOD9022278 Si02
#       7
#     2   2   2   2   2   2   2
#     4  10  22  39  61  90 121 159 205 250 301 362
#     4  11  22  40  64  90 126 161 202 257 307 361
#     4  10  23  40  61  92 123 163 206 249 308 361
#     4  10  22  41  63  90 124 161 206 253 301 363
#     4  10  22  39  60  90 123 163 207 247 303 365
#     4  10  22  39  63  92 121 164 207 250 303 360
#     4  11  23  40  63  93 126 161 201 251 309 366
#
# _framework density 23.318604000000001
#
# number of rings (size 3 to 8) (size 9 to 14) (size 15 to 20)
#    0.000    1.714    0.000    3.429    0.000   10.286 
#    0.000    8.571    0.000    0.000    0.000    0.000 
#    0.000    0.000    0.000    0.000    0.000    0.000 
#
# Total GULP energy -78336.230763 kJ/mol
# GULP energy per Si atom -5595.445054 kJ/mol
# Density = 2.326553 g / cm^3
# Si number density = 23.318604 Si / 1000 Ang^3
#
#
#
# Elastic Constant Matrix: (Units=GPa)
#
#
# Indices 1 2 3 4 5 6 
#
# 1 81.4462 52.4915 10.5036 -14.1101 8.7683 15.2760
# 2 52.4915 160.1126 17.7113 -14.9000 -18.3613 28.7003
# 3 10.5036 17.7113 53.4811 -1.6550 5.2571 4.5062
# 4 -14.1101 -14.9000 -1.6550 39.9376 5.7377 -13.1046
# 5 8.7683 -18.3613 5.2571 5.7377 34.9234 10.3859
# 6 15.2760 28.7003 4.5062 -13.1046 10.3859 42.7303
#
#
#
# Elastic Compliance Matrix: (Units=1/GPa)
#
#
# Indices 1 2 3 4 5 6 
#
# 1 0.018575 -0.007085 -0.000329 0.006177 -0.010098 0.002502
# 2 -0.007085 0.011411 -0.002861 -0.002712 0.011143 -0.008370
# 3 -0.000329 -0.002861 0.020110 0.000822 -0.004996 0.001385
# 4 0.006177 -0.002712 0.000822 0.031989 -0.012000 0.012253
# 5 -0.010098 0.011143 -0.004996 -0.012000 0.045102 -0.017990
# 6 0.002502 -0.008370 0.001385 0.012253 -0.017990 0.036114
#
#
# Mechanical properties :
#
#
# Convention : Reuss Voigt Hill
#
# Bulk Modulus (GPa) = 33.84625 50.71698 42.28162
# Shear Modulus (GPa) = 25.81331 37.80716 31.81023
#
# Velocity S-wave (km/s) = 3.33075 4.03094 3.69746
# Velocity P-wave (km/s) = 5.41646 6.59253 6.03322
#
# Compressibility (1/GPa) = 0.02954537
#
# Stress axis : x y z
#
# Youngs Moduli (GPa) = 53.83712 87.63787 49.72595
#
# Poissons Ratio (x) = 0.62089 0.01635
# Poissons Ratio (y) = 0.38142 0.14229
# Poissons Ratio (z) = 0.01770 0.25077
#
# Static dielectric constant tensor:
#      x y z
#    x 1.877600 0.007160 0.011210 
#    y 0.007160 1.871750 0.019760 
#    z 0.011210 0.019760 1.968120 
# 
# From -- ./inp_files/61086.got.cif
#   From: 2010.05.17/outbox.cif.g08.bks.cpg/sg2_31_cif.got.tgz:61086.got - 2010.06.03 11:33:40.
