data_PCOD9022010
_publ_section_title
;
Structure prediction by ZEFSAII (Michael W. Deem and Ramdas Pophale) SiO2 
 PCOD9022010
Probable space group: P -1
;
_chemical_formula_sum "Si O2"
_cell_formula_units_Z 16
_cell_length_a 12.249528
_cell_length_b 11.399654
_cell_length_c 7.897201
_cell_angle_alpha 122.575376
_cell_angle_beta 49.311064
_cell_angle_gamma 111.073835
_cell_volume 704.576675
_symmetry_space_group_name_H-M "P -1"
_symmetry_group_IT_number 2
_symmetry_cell_setting 'triclinic'
loop_
_space_group_symop_operation_xyz
x,y,z
-x,-y,-z
loop_
_atom_site_type_symbol
_atom_site_label
_atom_site_fract_x
_atom_site_fract_y
_atom_site_fract_z
Si Si1 0.099907 0.188621 0.436851
Si Si2 0.341356 0.391586 0.308774
Si Si3 0.181862 0.158813 0.808728
Si Si4 0.559990 0.923579 0.717971
Si Si5 0.111769 0.380729 0.270961
Si Si6 0.625141 0.297477 0.407457
Si Si7 0.454279 0.168049 0.789786
Si Si8 0.896668 0.117459 0.894928
O O1 0.219208 0.302643 0.461301
O O2 0.055331 0.253986 0.350988
O O3 0.975301 0.174505 0.689976
O O4 0.161779 0.035737 0.216225
O O5 0.259150 0.433543 0.249140
O O6 0.380980 0.536462 0.465364
O O7 0.445762 0.274890 0.039671
O O8 0.273963 0.102117 0.513949
O O9 0.298217 0.145138 0.835694
O O10 0.023677 0.094587 0.886249
O O11 0.141322 0.320569 0.008597
O O12 0.483833 0.773358 0.669919
O O13 0.505888 0.022509 0.697116
O O14 0.500000 0.000000 0.000000
O O15 0.000000 0.500000 0.500000
O O16 0.561342 0.242469 0.607350
O O17 0.778229 0.224797 0.162620
#
# Coordination Sequence:
#
# PCOD9022010 Si02
#       8
#     2   2   2   2   2   2   2   2
#     4   9  23  39  63  90 143 168 210 272 335 373
#     4   9  20  40  66  88 128 173 213 269 327 384
#     4  10  22  38  68  95 126 170 219 263 325 388
#     4  11  26  44  66  94 133 172 225 273 323 386
#     4   9  19  40  58  95 132 171 208 267 324 390
#     4  11  22  40  70  96 128 171 222 262 334 396
#     4  10  22  45  66  94 130 174 214 278 321 387
#     4  11  23  40  66 103 129 170 219 272 331 390
#
# _framework density 22.708672
#
# number of rings (size 3 to 8) (size 9 to 14) (size 15 to 20)
#    0.750    1.250    0.000    3.375    7.000    1.000 
#    4.500    0.625    2.750    0.000    0.000    0.000 
#    0.000    0.000    0.000    0.000    0.000    0.000 
#
# Total GULP energy -89156.321083 kJ/mol
# GULP energy per Si atom -5572.270068 kJ/mol
# Density = 2.265699 g / cm^3
# Si number density = 22.708672 Si / 1000 Ang^3
#
#
#
# Elastic Constant Matrix: (Units=GPa)
#
#
# Indices 1 2 3 4 5 6 
#
# 1 51.5062 11.8091 14.7714 6.2844 0.6716 4.9645
# 2 11.8091 112.6355 39.9489 15.9946 12.0890 10.7856
# 3 14.7714 39.9489 124.8497 7.9638 -0.2713 -3.6953
# 4 6.2844 15.9946 7.9638 49.9672 5.3974 9.8981
# 5 0.6716 12.0890 -0.2713 5.3974 37.5616 3.9967
# 6 4.9645 10.7856 -3.6953 9.8981 3.9967 29.6349
#
#
#
# Elastic Compliance Matrix: (Units=1/GPa)
#
#
# Indices 1 2 3 4 5 6 
#
# 1 0.020704 -0.000977 -0.002134 -0.001411 0.000448 -0.002968
# 2 -0.000977 0.011094 -0.003415 -0.001919 -0.002955 -0.003260
# 3 -0.002134 -0.003415 0.009497 -0.000842 0.001015 0.002929
# 4 -0.001411 -0.001919 -0.000842 0.022412 -0.001903 -0.006399
# 5 0.000448 -0.002955 0.001015 -0.001903 0.028062 -0.002022
# 6 -0.002968 -0.003260 0.002929 -0.006399 -0.002022 0.038203
#
#
# Mechanical properties :
#
#
# Convention : Reuss Voigt Hill
#
# Bulk Modulus (GPa) = 35.40655 46.89445 41.15050
# Shear Modulus (GPa) = 32.80047 38.26353 35.53200
#
# Velocity S-wave (km/s) = 3.80465 4.10930 3.95991
# Velocity P-wave (km/s) = 5.90982 6.57346 6.25046
#
# Compressibility (1/GPa) = 0.02824336
#
# Stress axis : x y z
#
# Youngs Moduli (GPa) = 48.30091 90.14252 105.29363
#
# Poissons Ratio (x) = 0.08810 0.22466
# Poissons Ratio (y) = 0.04721 0.35953
# Poissons Ratio (z) = 0.10306 0.30780
#
# Static dielectric constant tensor:
#      x y z
#    x 1.955550 -0.012320 0.045770 
#    y -0.012320 1.834790 -0.020490 
#    z 0.045770 -0.020490 1.911710 
# 
# From -- ./inp_files/263288.got.cif
#   From: 2010.05.17/outbox.cif.g08.bks.cpg/sg2_132_cif.got.tgz:263288.got - 2010.06.03 11:33:40.
