data_PCOD9022799
_publ_section_title
;
Structure prediction by ZEFSAII (Michael W. Deem and Ramdas Pophale) SiO2 
 PCOD9022799
Probable space group: P -1
;
_chemical_formula_sum "Si O2"
_cell_formula_units_Z 12
_cell_length_a 16.633517
_cell_length_b 9.822162
_cell_length_c 15.267137
_cell_angle_alpha 35.806127
_cell_angle_beta 154.512641
_cell_angle_gamma 154.228925
_cell_volume 466.633547
_symmetry_space_group_name_H-M "P -1"
_symmetry_group_IT_number 2
_symmetry_cell_setting 'triclinic'
loop_
_space_group_symop_operation_xyz
x,y,z
-x,-y,-z
loop_
_atom_site_type_symbol
_atom_site_label
_atom_site_fract_x
_atom_site_fract_y
_atom_site_fract_z
Si Si1 0.571328 0.810726 0.269131
Si Si2 0.277091 0.150086 0.226900
Si Si3 0.863929 0.228435 0.934948
Si Si4 0.142802 0.802458 0.812873
Si Si5 0.021838 0.952381 0.336685
Si Si6 0.640636 0.251353 0.379955
O O1 0.418647 0.472257 0.251987
O O2 0.393064 0.884836 0.050659
O O3 0.689889 0.849881 0.458393
O O4 0.802653 0.067042 0.298507
O O5 0.471413 0.252782 0.284337
O O6 0.263670 0.905493 0.399937
O O7 0.000000 0.000000 0.000000
O O8 0.933299 0.426713 0.811420
O O9 0.970137 0.058997 0.143280
O O10 0.000000 0.500000 0.000000
O O11 0.567404 0.974570 0.780366
O O12 0.074098 0.954046 0.729725
O O13 0.858775 0.586400 0.377357
#
# Coordination Sequence:
#
# PCOD9022799 Si02
#       6
#     2   2   2   2   2   2
#     4  11  23  39  66  94 124 165 210 255 311 364
#     4  11  24  39  64  94 128 160 207 261 310 365
#     4  10  22  42  65  88 127 170 207 250 312 375
#     4  10  22  39  64  92 125 164 211 250 305 368
#     4  11  23  40  66  93 129 165 205 256 310 372
#     4  11  24  39  63  94 126 162 208 259 310 365
#
# _framework density 25.71611
#
# number of rings (size 3 to 8) (size 9 to 14) (size 15 to 20)
#    0.000    1.333    1.667    4.000    9.333    0.667 
#    0.000    3.333    0.000    8.000    0.000    0.000 
#    0.000    0.000    0.000    0.000    0.000    0.000 
#
# Total GULP energy -67259.758813 kJ/mol
# GULP energy per Si atom -5604.979901 kJ/mol
# Density = 2.565758 g / cm^3
# Si number density = 25.716110 Si / 1000 Ang^3
#
#
#
# Elastic Constant Matrix: (Units=GPa)
#
#
# Indices 1 2 3 4 5 6 
#
# 1 69.1679 23.0869 30.2722 -9.0349 8.5164 -2.8293
# 2 23.0869 176.6366 83.2322 -5.3212 -25.2863 14.5760
# 3 30.2722 83.2322 199.8305 -4.2782 -3.7361 -25.3797
# 4 -9.0349 -5.3212 -4.2782 47.3301 -5.1261 -9.6230
# 5 8.5164 -25.2863 -3.7361 -5.1261 39.4008 -4.3842
# 6 -2.8293 14.5760 -25.3797 -9.6230 -4.3842 25.1162
#
#
#
# Elastic Compliance Matrix: (Units=1/GPa)
#
#
# Indices 1 2 3 4 5 6 
#
# 1 0.016845 -0.002335 -0.001334 0.002764 -0.004667 0.002148
# 2 -0.002335 0.009943 -0.005107 -0.001460 0.005001 -0.010881
# 3 -0.001334 -0.005107 0.009011 0.002554 -0.000375 0.012832
# 4 0.002764 -0.001460 0.002554 0.024928 0.003498 0.013901
# 5 -0.004667 0.005001 -0.000375 0.003498 0.030333 0.002828
# 6 0.002148 -0.010881 0.012832 0.013901 0.002828 0.065158
#
#
# Mechanical properties :
#
#
# Convention : Reuss Voigt Hill
#
# Bulk Modulus (GPa) = 54.80943 79.86860 67.33901
# Shear Modulus (GPa) = 27.80062 42.97234 35.38648
#
# Velocity S-wave (km/s) = 3.29151 4.09226 3.71353
# Velocity P-wave (km/s) = 5.98372 7.31122 6.68053
#
# Compressibility (1/GPa) = 0.01824504
#
# Stress axis : x y z
#
# Youngs Moduli (GPa) = 59.36649 100.57446 110.97377
#
# Poissons Ratio (x) = 0.23484 0.14809
# Poissons Ratio (y) = 0.13862 0.56678
# Poissons Ratio (z) = 0.07922 0.51366
#
# Static dielectric constant tensor:
#      x y z
#    x 2.142890 0.022520 -0.008960 
#    y 0.022520 1.983200 -0.002840 
#    z -0.008960 -0.002840 1.959900 
# 
# From -- ./inp_files/173703.got.cif
#   From: 2010.05.17/outbox.cif.g08.bks.cpg/sg2_87_cif.got.tgz:173703.got - 2010.06.03 11:33:40.
