data_PCOD9022117
_publ_section_title
;
Structure prediction by ZEFSAII (Michael W. Deem and Ramdas Pophale) SiO2 
 PCOD9022117
Probable space group: P -1
;
_chemical_formula_sum "Si O2"
_cell_formula_units_Z 14
_cell_length_a 9.639586
_cell_length_b 27.916388
_cell_length_c 13.788738
_cell_angle_alpha 19.632124
_cell_angle_beta 146.852607
_cell_angle_gamma 153.200415
_cell_volume 561.947607
_symmetry_space_group_name_H-M "P -1"
_symmetry_group_IT_number 2
_symmetry_cell_setting 'triclinic'
loop_
_space_group_symop_operation_xyz
x,y,z
-x,-y,-z
loop_
_atom_site_type_symbol
_atom_site_label
_atom_site_fract_x
_atom_site_fract_y
_atom_site_fract_z
Si Si1 0.596737 0.292845 0.627805
Si Si2 0.885189 0.683404 0.794270
Si Si3 0.777402 0.740333 0.284611
Si Si4 0.742447 0.066723 0.634261
Si Si5 0.814489 0.075628 0.984381
Si Si6 0.900736 0.018655 0.512555
Si Si7 0.125593 0.510723 0.388163
O O1 0.432255 0.386628 0.315451
O O2 0.318142 0.091978 0.845306
O O3 0.754987 0.353541 0.708680
O O4 0.861581 0.339098 0.616460
O O5 0.162709 0.827611 0.612547
O O6 0.880396 0.787465 0.685948
O O7 0.966575 0.555582 0.126950
O O8 0.456738 0.558259 0.458167
O O9 0.973536 0.806466 0.370841
O O10 0.700285 0.883193 0.946213
O O11 0.005733 0.762662 0.290290
O O12 0.443600 0.034181 0.575156
O O13 0.049581 0.090780 0.172080
O O14 0.500000 0.000000 0.000000
O O15 0.000000 0.000000 0.500000
#
# Coordination Sequence:
#
# PCOD9022117 Si02
#       7
#     2   2   2   2   2   2   2
#     4  10  22  39  54  91 118 153 196 244 297 352
#     4  11  20  36  59  87 118 156 199 241 296 352
#     4  11  19  35  62  86 116 156 197 245 296 344
#     4  11  19  35  58  87 121 148 205 247 287 351
#     4  11  23  39  59  86 119 157 199 244 296 357
#     4  11  22  33  53  88 123 150 191 247 300 345
#     4  11  21  35  62  85 121 152 193 246 301 349
#
# _framework density 24.913356
#
# number of rings (size 3 to 8) (size 9 to 14) (size 15 to 20)
#    0.000    1.143    5.714    3.429    2.000    0.000 
#    0.000    0.714    0.000    0.000    0.000    7.000 
#    0.000    0.000    0.000    0.000    0.000    0.000 
#
# Total GULP energy -78298.052846 kJ/mol
# GULP energy per Si atom -5592.718060 kJ/mol
# Density = 2.485665 g / cm^3
# Si number density = 24.913356 Si / 1000 Ang^3
#
#
#
# Elastic Constant Matrix: (Units=GPa)
#
#
# Indices 1 2 3 4 5 6 
#
# 1 161.7374 21.7525 9.7068 0.9003 -29.1317 23.3389
# 2 21.7525 116.1390 37.0715 1.2372 -9.7882 21.5694
# 3 9.7068 37.0715 72.4668 8.9683 -10.3452 -1.3194
# 4 0.9003 1.2372 8.9683 45.8632 10.5997 -6.7149
# 5 -29.1317 -9.7882 -10.3452 10.5997 38.8326 3.5702
# 6 23.3389 21.5694 -1.3194 -6.7149 3.5702 43.7177
#
#
#
# Elastic Compliance Matrix: (Units=1/GPa)
#
#
# Indices 1 2 3 4 5 6 
#
# 1 0.008342 0.000081 0.000165 -0.002761 0.007584 -0.005532
# 2 0.000081 0.011807 -0.005765 -0.000641 0.002258 -0.006325
# 3 0.000165 -0.005765 0.017879 -0.003999 0.004311 0.002329
# 4 -0.002761 -0.000641 -0.003999 0.026176 -0.011049 0.006592
# 5 0.007584 0.002258 0.004311 -0.011049 0.037072 -0.009757
# 6 -0.005532 -0.006325 0.002329 0.006592 -0.009757 0.030828
#
#
# Mechanical properties :
#
#
# Convention : Reuss Voigt Hill
#
# Bulk Modulus (GPa) = 37.04989 54.15608 45.60299
# Shear Modulus (GPa) = 32.86492 44.47021 38.66757
#
# Velocity S-wave (km/s) = 3.63598 4.22950 3.94392
# Velocity P-wave (km/s) = 5.70359 6.75548 6.25170
#
# Compressibility (1/GPa) = 0.02699063
#
# Stress axis : x y z
#
# Youngs Moduli (GPa) = 119.87872 84.69492 55.93132
#
# Poissons Ratio (x) = -0.00686 -0.00923
# Poissons Ratio (y) = -0.00970 0.32242
# Poissons Ratio (z) = -0.01977 0.48823
#
# Static dielectric constant tensor:
#      x y z
#    x 2.154260 -0.000700 0.047520 
#    y -0.000700 1.976730 -0.016310 
#    z 0.047520 -0.016310 1.977700 
# 
# From -- ./inp_files/285654.got.cif
#   From: 2010.05.17/outbox.cif.g08.bks.cpg/sg2_143_cif.got.tgz:285654.got - 2010.06.03 11:33:40.
