data_PCOD9022689
_publ_section_title
;
Structure prediction by ZEFSAII (Michael W. Deem and Ramdas Pophale) SiO2 
 PCOD9022689
Probable space group: P -1
;
_chemical_formula_sum "Si O2"
_cell_formula_units_Z 12
_cell_length_a 5.029782
_cell_length_b 9.011954
_cell_length_c 12.927593
_cell_angle_alpha 115.840548
_cell_angle_beta 64.799289
_cell_angle_gamma 117.401984
_cell_volume 449.238578
_symmetry_space_group_name_H-M "P -1"
_symmetry_group_IT_number 2
_symmetry_cell_setting 'triclinic'
loop_
_space_group_symop_operation_xyz
x,y,z
-x,-y,-z
loop_
_atom_site_type_symbol
_atom_site_label
_atom_site_fract_x
_atom_site_fract_y
_atom_site_fract_z
Si Si1 0.724086 0.466712 0.327559
Si Si2 0.644683 0.794867 0.515257
Si Si3 0.513724 0.113191 0.656644
Si Si4 0.377687 0.503308 0.192534
Si Si5 0.516190 0.789324 0.010794
Si Si6 0.040487 0.968477 0.146440
O O1 0.841244 0.667196 0.414200
O O2 0.581464 0.331144 0.401222
O O3 0.479725 0.470915 0.281484
O O4 0.006508 0.419187 0.217226
O O5 0.490970 0.827610 0.443295
O O6 0.729837 0.993804 0.604679
O O7 0.559592 0.291294 0.765766
O O8 0.163678 0.993734 0.716005
O O9 0.544862 0.413603 0.058960
O O10 0.667321 0.874475 0.900597
O O11 0.205802 0.827863 0.103681
O O12 0.791390 0.889854 0.073285
#
# Coordination Sequence:
#
# PCOD9022689 Si02
#       6
#     2   2   2   2   2   2
#     4  10  22  41  65  91 124 167 206 244 300 372
#     4   9  21  41  63  91 127 165 206 250 302 364
#     4  10  22  39  63  95 127 160 203 258 309 355
#     4  11  23  40  65  94 124 161 204 253 308 363
#     4  10  22  41  63  88 120 161 205 248 305 371
#     4  10  22  40  63  89 120 160 204 252 304 362
#
# _framework density 26.711866000000001
#
# number of rings (size 3 to 8) (size 9 to 14) (size 15 to 20)
#    0.000    2.000    0.000    2.000    0.000   13.333 
#    0.000    6.667    0.000    0.000    0.000    0.000 
#    0.000    0.000    0.000    0.000    0.000    0.000 
#
# Total GULP energy -67085.365744 kJ/mol
# GULP energy per Si atom -5590.447145 kJ/mol
# Density = 2.665107 g / cm^3
# Si number density = 26.711866 Si / 1000 Ang^3
#
#
#
# Elastic Constant Matrix: (Units=GPa)
#
#
# Indices 1 2 3 4 5 6 
#
# 1 134.8912 44.9290 48.6119 27.6628 -0.4896 -2.4363
# 2 44.9290 145.0617 60.3656 28.5151 27.9221 -17.2346
# 3 48.6119 60.3656 115.5825 31.0306 -9.5938 -10.7021
# 4 27.6628 28.5151 31.0306 76.5505 -1.6157 17.1838
# 5 -0.4896 27.9221 -9.5938 -1.6157 49.5755 17.2508
# 6 -2.4363 -17.2346 -10.7021 17.1838 17.2508 46.7945
#
#
#
# Elastic Compliance Matrix: (Units=1/GPa)
#
#
# Indices 1 2 3 4 5 6 
#
# 1 0.009204 -0.001605 -0.002588 -0.001595 0.000554 -0.000323
# 2 -0.001605 0.014633 -0.005641 -0.005304 -0.013304 0.010868
# 3 -0.002588 -0.005641 0.013767 -0.002337 0.005868 -0.000369
# 4 -0.001595 -0.005304 -0.002337 0.019530 0.007510 -0.012511
# 5 0.000554 -0.013304 0.005868 0.007510 0.035834 -0.019497
# 6 -0.000323 0.010868 -0.000369 -0.012511 -0.019497 0.037053
#
#
# Mechanical properties :
#
#
# Convention : Reuss Voigt Hill
#
# Bulk Modulus (GPa) = 55.75815 78.14981 66.95398
# Shear Modulus (GPa) = 32.11930 50.69270 41.40600
#
# Velocity S-wave (km/s) = 3.47138 4.36105 3.94140
# Velocity P-wave (km/s) = 6.08165 7.39449 6.76997
#
# Compressibility (1/GPa) = 0.01793460
#
# Stress axis : x y z
#
# Youngs Moduli (GPa) = 108.64768 68.33900 72.63674
#
# Poissons Ratio (x) = 0.10969 0.18802
# Poissons Ratio (y) = 0.17439 0.40976
# Poissons Ratio (z) = 0.28123 0.38551
#
# Static dielectric constant tensor:
#      x y z
#    x 2.007200 0.059230 0.023710 
#    y 0.059230 2.264780 0.013960 
#    z 0.023710 0.013960 2.146960 
# 
# From -- ./inp_files/19662.got.cif
#   From: 2010.05.17/outbox.cif.g08.bks.cpg/sg2_10_cif.got.tgz:19662.got - 2010.06.03 11:33:40.
