data_PCOD9022963
_publ_section_title
;
Structure prediction by ZEFSAII (Michael W. Deem and Ramdas Pophale) SiO2 
 PCOD9022963
Probable space group: P -1
;
_chemical_formula_sum "Si O2"
_cell_formula_units_Z 16
_cell_length_a 7.148596
_cell_length_b 12.126479
_cell_length_c 11.771100
_cell_angle_alpha 86.517635
_cell_angle_beta 61.712494
_cell_angle_gamma 115.043696
_cell_volume 769.152540
_symmetry_space_group_name_H-M "P -1"
_symmetry_group_IT_number 2
_symmetry_cell_setting 'triclinic'
loop_
_space_group_symop_operation_xyz
x,y,z
-x,-y,-z
loop_
_atom_site_type_symbol
_atom_site_label
_atom_site_fract_x
_atom_site_fract_y
_atom_site_fract_z
Si Si1 0.671253 0.823062 0.295218
Si Si2 0.052073 0.544312 0.265672
Si Si3 0.952382 0.888609 0.755124
Si Si4 0.613713 0.753539 0.674881
Si Si5 0.220366 0.490153 0.883014
Si Si6 0.245970 0.362149 0.560538
Si Si7 0.371081 0.288794 0.932066
Si Si8 0.243417 0.752518 0.597070
O O1 0.754745 0.731199 0.336452
O O2 0.652534 0.792981 0.169020
O O3 0.416674 0.791032 0.433671
O O4 0.873106 0.968911 0.258057
O O5 0.868485 0.537738 0.219837
O O6 0.982775 0.614718 0.376769
O O7 0.962171 0.399162 0.335615
O O8 0.000000 0.500000 0.000000
O O9 0.117504 0.833664 0.659480
O O10 0.781738 0.874930 0.697509
O O11 0.780421 0.800656 0.913464
O O12 0.463068 0.630578 0.807906
O O13 0.748783 0.706662 0.552360
O O14 0.424853 0.770225 0.649282
O O15 0.266238 0.382930 0.928531
O O16 0.333850 0.621026 0.140060
O O17 0.500000 0.500000 0.500000
#
# Coordination Sequence:
#
# PCOD9022963 Si02
#       8
#     2   2   2   2   2   2   2   2
#     4  11  24  45  66  92 131 173 218 268 311 384
#     4  11  22  39  69 100 124 158 217 277 329 372
#     4  12  26  44  60  94 137 177 215 252 318 395
#     4  10  22  39  65  94 126 168 213 265 323 381
#     4  11  21  39  65  94 132 165 209 272 324 381
#     4  11  19  43  69  97 125 161 215 277 329 369
#     4  12  25  41  65  98 131 175 215 261 326 385
#     4  10  23  42  69  96 126 164 215 276 323 372
#
# _framework density 20.802116999999999
#
# number of rings (size 3 to 8) (size 9 to 14) (size 15 to 20)
#    0.000    1.000    5.000    3.750    1.750    4.000 
#    2.250    0.625    0.000    0.000    0.000    0.000 
#    0.000    0.000    0.000    0.000    0.000    0.000 
#
# Total GULP energy -89445.331938 kJ/mol
# GULP energy per Si atom -5590.333246 kJ/mol
# Density = 2.075477 g / cm^3
# Si number density = 20.802117 Si / 1000 Ang^3
#
#
#
# Elastic Constant Matrix: (Units=GPa)
#
#
# Indices 1 2 3 4 5 6 
#
# 1 65.9094 37.1497 27.7507 2.0030 -10.6645 4.0319
# 2 37.1497 70.0955 23.0322 3.1934 -8.9184 16.0667
# 3 27.7507 23.0322 91.9467 12.3795 -8.8987 8.6721
# 4 2.0030 3.1934 12.3795 24.9215 0.4261 -3.7628
# 5 -10.6645 -8.9184 -8.8987 0.4261 33.0182 5.9383
# 6 4.0319 16.0667 8.6721 -3.7628 5.9383 27.0813
#
#
#
# Elastic Compliance Matrix: (Units=1/GPa)
#
#
# Indices 1 2 3 4 5 6 
#
# 1 0.024024 -0.012147 -0.004843 0.002760 0.002224 0.005077
# 2 -0.012147 0.025049 -0.000053 -0.004550 0.005565 -0.014888
# 3 -0.004843 -0.000053 0.014222 -0.007570 0.003357 -0.005590
# 4 0.002760 -0.004550 -0.007570 0.046188 -0.005180 0.012266
# 5 0.002224 0.005565 0.003357 -0.005180 0.035870 -0.013293
# 6 0.005077 -0.014888 -0.005590 0.012266 -0.013293 0.051412
#
#
# Mechanical properties :
#
#
# Convention : Reuss Voigt Hill
#
# Bulk Modulus (GPa) = 34.23654 44.86855 39.55254
# Shear Modulus (GPa) = 20.78233 26.33878 23.56056
#
# Velocity S-wave (km/s) = 3.16420 3.56217 3.36907
# Velocity P-wave (km/s) = 5.46292 6.20764 5.84715
#
# Compressibility (1/GPa) = 0.02920856
#
# Stress axis : x y z
#
# Youngs Moduli (GPa) = 41.62546 39.92099 70.31250
#
# Poissons Ratio (x) = 0.48493 0.34052
# Poissons Ratio (y) = 0.50564 0.00374
# Poissons Ratio (z) = 0.20159 0.00212
#
# Static dielectric constant tensor:
#      x y z
#    x 1.760260 0.036430 0.023800 
#    y 0.036430 1.742100 0.061420 
#    z 0.023800 0.061420 1.833620 
# 
# From -- ./inp_files/390368.got.cif
#   From: 2010.05.17/outbox.cif.g08.bks.cpg/sg2_196_cif.got.tgz:390368.got - 2010.06.03 11:33:40.
