data_PCOD9022952
_publ_section_title
;
Structure prediction by ZEFSAII (Michael W. Deem and Ramdas Pophale) SiO2 
 PCOD9022952
Probable space group: P -1
;
_chemical_formula_sum "Si O2"
_cell_formula_units_Z 14
_cell_length_a 9.252473
_cell_length_b 13.684064
_cell_length_c 9.385164
_cell_angle_alpha 54.605456
_cell_angle_beta 110.143025
_cell_angle_gamma 72.110120
_cell_volume 681.603963
_symmetry_space_group_name_H-M "P -1"
_symmetry_group_IT_number 2
_symmetry_cell_setting 'triclinic'
loop_
_space_group_symop_operation_xyz
x,y,z
-x,-y,-z
loop_
_atom_site_type_symbol
_atom_site_label
_atom_site_fract_x
_atom_site_fract_y
_atom_site_fract_z
Si Si1 0.043246 0.197540 0.515055
Si Si2 0.388768 0.906446 0.691142
Si Si3 0.356117 0.653628 0.920441
Si Si4 0.403473 0.960216 0.353029
Si Si5 0.164229 0.385493 0.277819
Si Si6 0.292921 0.576714 0.276080
Si Si7 0.957913 0.881646 0.096409
O O1 0.066429 0.327844 0.385556
O O2 0.010063 0.183815 0.679223
O O3 0.862205 0.237002 0.324437
O O4 0.245978 0.029848 0.663140
O O5 0.443456 0.742710 0.878793
O O6 0.288210 0.968160 0.446728
O O7 0.567793 0.911860 0.731093
O O8 0.500000 0.500000 0.000000
O O9 0.328702 0.614195 0.100624
O O10 0.622671 0.780364 0.570507
O O11 0.275850 0.009388 0.125994
O O12 0.230953 0.469779 0.316306
O O13 0.000000 0.500000 0.000000
O O14 0.500000 0.500000 0.500000
O O15 0.105771 0.735407 0.161630
O O16 0.000000 0.000000 0.000000
#
# Coordination Sequence:
#
# PCOD9022952 Si02
#       7
#     2   2   2   2   2   2   2
#     4  11  24  42  66  96 129 181 220 271 335 397
#     4  10  22  39  65  93 125 167 228 264 327 400
#     4  12  23  39  66  95 133 173 225 272 328 403
#     4  10  23  41  67  96 128 175 219 277 337 389
#     4  11  24  45  70  96 139 171 227 279 331 404
#     4  12  26  43  67  98 137 178 217 279 343 386
#     4  12  25  43  67  96 140 172 223 279 333 403
#
# _framework density 20.539784999999998
#
# number of rings (size 3 to 8) (size 9 to 14) (size 15 to 20)
#    0.000    0.857    1.429    5.571    4.000    4.000 
#    0.000    0.000    0.000    0.000    0.000    0.000 
#    0.000    0.000    0.000    0.000    0.000    0.000 
#
# Total GULP energy -78249.375021 kJ/mol
# GULP energy per Si atom -5589.241073 kJ/mol
# Density = 2.049304 g / cm^3
# Si number density = 20.539785 Si / 1000 Ang^3
#
#
#
# Elastic Constant Matrix: (Units=GPa)
#
#
# Indices 1 2 3 4 5 6 
#
# 1 100.3157 64.0282 51.8445 -5.9214 -32.8652 11.2120
# 2 64.0282 142.5584 53.2002 -8.8783 -24.5868 6.0613
# 3 51.8445 53.2002 119.0268 19.2954 -10.0835 3.2353
# 4 -5.9214 -8.8783 19.2954 43.8766 1.5311 -10.0066
# 5 -32.8652 -24.5868 -10.0835 1.5311 50.1583 3.2942
# 6 11.2120 6.0613 3.2353 -10.0066 3.2942 55.2941
#
#
#
# Elastic Compliance Matrix: (Units=1/GPa)
#
#
# Indices 1 2 3 4 5 6 
#
# 1 0.019797 -0.004561 -0.006250 0.003457 0.009577 -0.003093
# 2 -0.004561 0.010661 -0.003143 0.002960 0.001490 0.000387
# 3 -0.006250 -0.003143 0.013513 -0.007411 -0.002669 -0.000361
# 4 0.003457 0.002960 -0.007411 0.028088 0.001078 0.004427
# 5 0.009577 0.001490 -0.002669 0.001078 0.026592 -0.003338
# 6 -0.003093 0.000387 -0.000361 0.004427 -0.003338 0.019691
#
#
# Mechanical properties :
#
#
# Convention : Reuss Voigt Hill
#
# Bulk Modulus (GPa) = 62.24585 77.78297 70.01441
# Shear Modulus (GPa) = 32.98104 42.72099 37.85101
#
# Velocity S-wave (km/s) = 4.01148 4.56556 4.29746
# Velocity P-wave (km/s) = 7.19908 8.10827 7.66716
#
# Compressibility (1/GPa) = 0.01606533
#
# Stress axis : x y z
#
# Youngs Moduli (GPa) = 50.51338 93.80350 74.00110
#
# Poissons Ratio (x) = 0.42780 0.46247
# Poissons Ratio (y) = 0.23037 0.23255
# Poissons Ratio (z) = 0.31568 0.29478
#
# Static dielectric constant tensor:
#      x y z
#    x 1.674920 0.002870 -0.018810 
#    y 0.002870 1.747090 0.017250 
#    z -0.018810 0.017250 1.714700 
# 
# From -- ./inp_files/159570.got.cif
#   From: 2010.05.17/outbox.cif.g08.bks.cpg/sg2_80_cif.got.tgz:159570.got - 2010.06.03 11:33:40.
