data_PCOD9022807
_publ_section_title
;
Structure prediction by ZEFSAII (Michael W. Deem and Ramdas Pophale) SiO2 
 PCOD9022807
Probable space group: P -1
;
_chemical_formula_sum "Si O2"
_cell_formula_units_Z 14
_cell_length_a 5.372261
_cell_length_b 14.634880
_cell_length_c 12.031136
_cell_angle_alpha 40.256854
_cell_angle_beta 61.069686
_cell_angle_gamma 68.042256
_cell_volume 534.966320
_symmetry_space_group_name_H-M "P -1"
_symmetry_group_IT_number 2
_symmetry_cell_setting 'triclinic'
loop_
_space_group_symop_operation_xyz
x,y,z
-x,-y,-z
loop_
_atom_site_type_symbol
_atom_site_label
_atom_site_fract_x
_atom_site_fract_y
_atom_site_fract_z
Si Si1 0.807689 0.841988 0.885682
Si Si2 0.166133 0.676124 0.697431
Si Si3 0.577874 0.033531 0.326038
Si Si4 0.713924 0.369679 0.591628
Si Si5 0.404282 0.878899 0.309860
Si Si6 0.141360 0.598911 0.015723
Si Si7 0.694472 0.485165 0.717180
O O1 0.681941 0.877050 0.757687
O O2 0.127702 0.885992 0.805487
O O3 0.631360 0.962454 0.876550
O O4 0.843588 0.674776 0.046816
O O5 0.140588 0.818634 0.499472
O O6 0.913061 0.564605 0.849884
O O7 0.436161 0.595501 0.658726
O O8 0.231982 0.682290 0.808505
O O9 0.500000 0.000000 0.500000
O O10 0.616551 0.906442 0.343620
O O11 0.500000 0.500000 0.500000
O O12 0.584980 0.232335 0.688547
O O13 0.747066 0.368465 0.718865
O O14 0.018965 0.419420 0.432947
O O15 0.336163 0.591058 0.087654
#
# Coordination Sequence:
#
# PCOD9022807 Si02
#       7
#     2   2   2   2   2   2   2
#     4  10  25  41  64  98 139 183 221 281 340 416
#     4  11  23  40  65  99 136 175 226 281 344 412
#     4  10  22  39  64  92 137 178 230 272 334 403
#     4  11  22  43  66  99 129 176 234 295 331 402
#     4  10  23  40  68  99 135 174 239 277 343 398
#     4  11  24  42  61  99 144 179 218 279 354 421
#     4  11  23  39  70  95 135 176 232 286 345 403
#
# _framework density 26.169872000000002
#
# number of rings (size 3 to 8) (size 9 to 14) (size 15 to 20)
#    0.857    0.571    2.857    1.714    6.000    0.000 
#    2.571    0.714    0.000    4.286    0.000    0.000 
#    0.000    0.000    0.000    0.000    0.000    0.000 
#
# Total GULP energy -78083.380057 kJ/mol
# GULP energy per Si atom -5577.384290 kJ/mol
# Density = 2.611031 g / cm^3
# Si number density = 26.169872 Si / 1000 Ang^3
#
#
#
# Elastic Constant Matrix: (Units=GPa)
#
#
# Indices 1 2 3 4 5 6 
#
# 1 109.2646 36.6258 13.9033 2.0103 6.0639 23.7610
# 2 36.6258 148.9997 28.6382 -4.4435 7.4532 38.4467
# 3 13.9033 28.6382 74.0319 2.1035 4.2210 11.5483
# 4 2.0103 -4.4435 2.1035 39.5316 0.0097 4.7849
# 5 6.0639 7.4532 4.2210 0.0097 37.2201 2.4065
# 6 23.7610 38.4467 11.5483 4.7849 2.4065 54.4545
#
#
#
# Elastic Compliance Matrix: (Units=1/GPa)
#
#
# Indices 1 2 3 4 5 6 
#
# 1 0.010550 -0.001549 -0.000802 -0.000272 -0.001106 -0.003267
# 2 -0.001549 0.009021 -0.002369 0.001862 -0.000942 -0.005313
# 3 -0.000802 -0.002369 0.014813 -0.000893 -0.001010 -0.000996
# 4 -0.000272 0.001862 -0.000893 0.025965 -0.000022 -0.003287
# 5 -0.001106 -0.000942 -0.001010 -0.000022 0.027341 0.000156
# 6 -0.003267 -0.005313 -0.000996 -0.003287 0.000156 0.024034
#
#
# Mechanical properties :
#
#
# Convention : Reuss Voigt Hill
#
# Bulk Modulus (GPa) = 40.08896 54.51455 47.30175
# Shear Modulus (GPa) = 38.61655 43.11651 40.86653
#
# Velocity S-wave (km/s) = 3.84554 4.06342 3.95598
# Velocity P-wave (km/s) = 5.92195 6.54916 6.24344
#
# Compressibility (1/GPa) = 0.02494452
#
# Stress axis : x y z
#
# Youngs Moduli (GPa) = 94.78476 110.85102 67.50804
#
# Poissons Ratio (x) = 0.17171 0.05412
# Poissons Ratio (y) = 0.14683 0.15994
# Poissons Ratio (z) = 0.07599 0.26263
#
# Static dielectric constant tensor:
#      x y z
#    x 2.087710 0.039910 -0.012160 
#    y 0.039910 2.223240 -0.033800 
#    z -0.012160 -0.033800 2.115540 
# 
# From -- ./inp_files/366697.got.cif
#   From: 2010.05.17/outbox.cif.g08.bks.cpg/sg2_184_cif.got.tgz:366697.got - 2010.06.03 11:33:40.
