data_PCOD9022852
_publ_section_title
;
Structure prediction by ZEFSAII (Michael W. Deem and Ramdas Pophale) SiO2 
 PCOD9022852
Probable space group: P -1
;
_chemical_formula_sum "Si O2"
_cell_formula_units_Z 16
_cell_length_a 9.700617
_cell_length_b 17.312171
_cell_length_c 5.515669
_cell_angle_alpha 87.181823
_cell_angle_beta 134.119253
_cell_angle_gamma 102.698798
_cell_volume 641.539694
_symmetry_space_group_name_H-M "P -1"
_symmetry_group_IT_number 2
_symmetry_cell_setting 'triclinic'
loop_
_space_group_symop_operation_xyz
x,y,z
-x,-y,-z
loop_
_atom_site_type_symbol
_atom_site_label
_atom_site_fract_x
_atom_site_fract_y
_atom_site_fract_z
Si Si1 0.398422 0.839322 0.968297
Si Si2 0.344545 0.662183 0.769609
Si Si3 0.074900 0.174792 0.572163
Si Si4 0.270043 0.339385 0.521427
Si Si5 0.425196 0.908550 0.497750
Si Si6 0.440121 0.414327 0.303627
Si Si7 0.030527 0.095393 0.034327
Si Si8 0.932362 0.578384 0.457515
O O1 0.419472 0.756753 0.888398
O O2 0.490674 0.900377 0.856097
O O3 0.162790 0.834472 0.702020
O O4 0.474665 0.858451 0.335063
O O5 0.377592 0.616973 0.571709
O O6 0.116856 0.643337 0.565703
O O7 0.494502 0.629487 0.130717
O O8 0.177413 0.265113 0.592269
O O9 0.127879 0.140900 0.900846
O O10 0.119176 0.124745 0.402006
O O11 0.301318 0.334694 0.276708
O O12 0.118724 0.396501 0.341811
O O13 0.186556 0.887458 0.225099
O O14 0.500000 0.000000 0.500000
O O15 0.500000 0.500000 0.500000
O O16 0.284300 0.428998 0.913764
O O17 0.000000 0.000000 0.000000
O O18 0.000000 0.500000 0.500000
#
# Coordination Sequence:
#
# PCOD9022852 Si02
#       8
#     2   2   2   2   2   2   2   2
#     4  10  22  41  65  97 134 186 231 289 355 424
#     4  11  25  42  68 100 137 182 240 289 366 425
#     4  10  22  41  66  95 137 182 235 288 353 425
#     4  11  25  42  68 100 137 180 239 295 353 435
#     4  10  22  39  64  96 135 178 233 286 347 427
#     4  11  26  45  68 104 140 180 245 302 359 437
#     4  10  22  39  65  95 134 182 229 286 353 421
#     4  11  24  45  70  97 138 184 231 296 367 429
#
# _framework density 24.940000000000001
#
# number of rings (size 3 to 8) (size 9 to 14) (size 15 to 20)
#    0.000    1.500    1.250    2.250    5.250    8.000 
#    0.000    0.000    0.000    0.000    0.000    0.000 
#    0.000    0.000    0.000    0.000    0.000    0.000 
#
# Total GULP energy -89172.342206 kJ/mol
# GULP energy per Si atom -5573.271388 kJ/mol
# Density = 2.488324 g / cm^3
# Si number density = 24.940000 Si / 1000 Ang^3
#
#
#
# Elastic Constant Matrix: (Units=GPa)
#
#
# Indices 1 2 3 4 5 6 
#
# 1 138.4674 41.6739 31.9153 -2.1388 -9.9455 -12.4474
# 2 41.6739 111.8608 4.2124 4.1499 -30.8429 -4.8572
# 3 31.9153 4.2124 58.5827 -5.1952 -9.9542 -4.8174
# 4 -2.1388 4.1499 -5.1952 29.9991 -3.3934 -6.2534
# 5 -9.9455 -30.8429 -9.9542 -3.3934 44.4937 -6.1122
# 6 -12.4474 -4.8572 -4.8174 -6.2534 -6.1122 51.4218
#
#
#
# Elastic Compliance Matrix: (Units=1/GPa)
#
#
# Indices 1 2 3 4 5 6 
#
# 1 0.009515 -0.003675 -0.004987 0.000465 -0.001310 0.001390
# 2 -0.003675 0.012708 0.002691 -0.000230 0.008789 0.001580
# 3 -0.004987 0.002691 0.021181 0.004102 0.006113 0.002257
# 4 0.000465 -0.000230 0.004102 0.035709 0.004318 0.005331
# 5 -0.001310 0.008789 0.006113 0.004318 0.030694 0.005259
# 6 0.001390 0.001580 0.002257 0.005331 0.005259 0.021417
#
#
# Mechanical properties :
#
#
# Convention : Reuss Voigt Hill
#
# Bulk Modulus (GPa) = 31.78299 51.61268 41.69784
# Shear Modulus (GPa) = 32.54044 40.59021 36.56532
#
# Velocity S-wave (km/s) = 3.61605 4.03862 3.83316
# Velocity P-wave (km/s) = 5.49599 6.51820 6.02880
#
# Compressibility (1/GPa) = 0.03146337
#
# Stress axis : x y z
#
# Youngs Moduli (GPa) = 105.09197 78.68973 47.21188
#
# Poissons Ratio (x) = 0.28921 0.23543
# Poissons Ratio (y) = 0.38625 -0.12707
# Poissons Ratio (z) = 0.52407 -0.21179
#
# Static dielectric constant tensor:
#      x y z
#    x 2.027630 -0.035840 0.042910 
#    y -0.035840 2.159620 -0.026530 
#    z 0.042910 -0.026530 2.010580 
# 
# From -- ./inp_files/48044.got.cif
#   From: 2010.05.17/outbox.cif.g08.bks.cpg/sg2_25_cif.got.tgz:48044.got - 2010.06.03 11:33:40.
