data_PCOD9022743
_publ_section_title
;
Structure prediction by ZEFSAII (Michael W. Deem and Ramdas Pophale) SiO2 
 PCOD9022743
Probable space group: P -1
;
_chemical_formula_sum "Si O2"
_cell_formula_units_Z 14
_cell_length_a 23.023599
_cell_length_b 14.180430
_cell_length_c 6.139577
_cell_angle_alpha 55.753957
_cell_angle_beta 111.662586
_cell_angle_gamma 157.281782
_cell_volume 564.936093
_symmetry_space_group_name_H-M "P -1"
_symmetry_group_IT_number 2
_symmetry_cell_setting 'triclinic'
loop_
_space_group_symop_operation_xyz
x,y,z
-x,-y,-z
loop_
_atom_site_type_symbol
_atom_site_label
_atom_site_fract_x
_atom_site_fract_y
_atom_site_fract_z
Si Si1 0.349150 0.089501 0.193023
Si Si2 0.332803 0.246257 0.344633
Si Si3 0.047030 0.864644 0.205095
Si Si4 0.866367 0.706197 0.842803
Si Si5 0.206824 0.635829 0.111538
Si Si6 0.501387 0.126501 0.219949
Si Si7 0.073966 0.729090 0.031521
O O1 0.348475 0.162901 0.316300
O O2 0.416448 0.076031 0.326302
O O3 0.483627 0.386631 0.839053
O O4 0.167489 0.784250 0.213622
O O5 0.233753 0.173925 0.160710
O O6 0.209200 0.006755 0.683069
O O7 0.918053 0.610421 0.544752
O O8 0.053858 0.785938 0.121575
O O9 0.972332 0.849348 0.013764
O O10 0.802182 0.483891 0.915303
O O11 0.695624 0.480903 0.965216
O O12 0.000000 0.000000 0.500000
O O13 0.389479 0.949878 0.072952
O O14 0.111008 0.582745 0.936996
O O15 0.500000 0.000000 0.500000
#
# Coordination Sequence:
#
# PCOD9022743 Si02
#       7
#     2   2   2   2   2   2   2
#     4  10  22  39  64 100 137 177 228 276 343 400
#     4   9  19  40  66 102 133 174 223 296 340 387
#     4   9  19  38  67  93 133 172 218 285 330 401
#     4  11  25  43  70  99 127 184 243 278 327 402
#     4  10  22  44  67  92 141 177 219 280 347 400
#     4  12  26  46  66  99 147 185 220 277 342 416
#     4   9  19  39  68  96 129 171 227 281 338 394
#
# _framework density 24.781562000000001
#
# number of rings (size 3 to 8) (size 9 to 14) (size 15 to 20)
#    0.000    2.000    1.429    0.857    6.000    2.286 
#    5.143    6.429    0.000    0.000    0.000    0.000 
#    0.000    0.000    0.000    0.000    0.000    0.000 
#
# Total GULP energy -78318.422340 kJ/mol
# GULP energy per Si atom -5594.173024 kJ/mol
# Density = 2.472516 g / cm^3
# Si number density = 24.781562 Si / 1000 Ang^3
#
#
#
# Elastic Constant Matrix: (Units=GPa)
#
#
# Indices 1 2 3 4 5 6 
#
# 1 172.5754 76.4845 48.4800 8.8412 4.2755 17.2093
# 2 76.4845 125.0949 38.0336 13.7577 29.5160 33.6038
# 3 48.4800 38.0336 75.6845 -7.3204 1.8678 10.8341
# 4 8.8412 13.7577 -7.3204 34.3101 7.6579 4.2020
# 5 4.2755 29.5160 1.8678 7.6579 39.5954 10.9032
# 6 17.2093 33.6038 10.8341 4.2020 10.9032 57.5993
#
#
#
# Elastic Compliance Matrix: (Units=1/GPa)
#
#
# Indices 1 2 3 4 5 6 
#
# 1 0.009028 -0.005147 -0.003519 -0.001796 0.003242 0.000485
# 2 -0.005147 0.016458 -0.004329 -0.003459 -0.009403 -0.005217
# 3 -0.003519 -0.004329 0.018296 0.006243 0.001714 -0.000644
# 4 -0.001796 -0.003459 0.006243 0.033228 -0.003863 -0.000313
# 5 0.003242 -0.009403 0.001714 -0.003863 0.033072 -0.001784
# 6 0.000485 -0.005217 -0.000644 -0.000313 -0.001784 0.020742
#
#
# Mechanical properties :
#
#
# Convention : Reuss Voigt Hill
#
# Bulk Modulus (GPa) = 56.20990 77.70564 66.95777
# Shear Modulus (GPa) = 30.72293 40.32475 35.52384
#
# Velocity S-wave (km/s) = 3.52483 4.03824 3.79024
# Velocity P-wave (km/s) = 6.26875 7.29161 6.79944
#
# Compressibility (1/GPa) = 0.01779046
#
# Stress axis : x y z
#
# Youngs Moduli (GPa) = 110.76811 60.76175 54.65630
#
# Poissons Ratio (x) = 0.31277 0.19235
# Poissons Ratio (y) = 0.57018 0.23660
# Poissons Ratio (z) = 0.38982 0.26303
#
# Static dielectric constant tensor:
#      x y z
#    x 1.985350 0.024880 0.028240 
#    y 0.024880 2.018570 0.038810 
#    z 0.028240 0.038810 1.932180 
# 
# From -- ./inp_files/118544.got.cif
#   From: 2010.05.17/outbox.cif.g08.bks.cpg/sg2_60_cif.got.tgz:118544.got - 2010.06.03 11:33:40.
