data_PCOD9022281
_publ_section_title
;
Structure prediction by ZEFSAII (Michael W. Deem and Ramdas Pophale) SiO2 
 PCOD9022281
Probable space group: P -1
;
_chemical_formula_sum "Si O2"
_cell_formula_units_Z 16
_cell_length_a 18.584331
_cell_length_b 8.608900
_cell_length_c 16.413754
_cell_angle_alpha 49.652041
_cell_angle_beta 157.521575
_cell_angle_gamma 119.341642
_cell_volume 710.465402
_symmetry_space_group_name_H-M "P -1"
_symmetry_group_IT_number 2
_symmetry_cell_setting 'triclinic'
loop_
_space_group_symop_operation_xyz
x,y,z
-x,-y,-z
loop_
_atom_site_type_symbol
_atom_site_label
_atom_site_fract_x
_atom_site_fract_y
_atom_site_fract_z
Si Si1 0.698367 0.060725 0.172755
Si Si2 0.203361 0.547090 0.190524
Si Si3 0.680957 0.770662 0.866421
Si Si4 0.932689 0.307828 0.253811
Si Si5 0.966761 0.946043 0.713808
Si Si6 0.455006 0.719446 0.492873
Si Si7 0.573484 0.242071 0.151208
Si Si8 0.181609 0.276325 0.790868
O O1 0.744122 0.226217 0.100776
O O2 0.694390 0.183431 0.213377
O O3 0.894655 0.835504 0.454698
O O4 0.500000 0.000000 0.000000
O O5 0.328641 0.562949 0.396264
O O6 0.353954 0.391858 0.332273
O O7 0.000000 0.500000 0.000000
O O8 0.109711 0.801345 0.981040
O O9 0.519142 0.724914 0.652343
O O10 0.648734 0.022136 0.727877
O O11 0.881230 0.565295 0.118854
O O12 0.701221 0.727248 0.999567
O O13 0.019955 0.227529 0.283678
O O14 0.732872 0.092614 0.434866
O O15 0.072756 0.107183 0.741492
O O16 0.500000 0.500000 0.000000
O O17 0.367718 0.196280 0.950374
O O18 0.000000 0.500000 0.500000
#
# Coordination Sequence:
#
# PCOD9022281 Si02
#       8
#     2   2   2   2   2   2   2   2
#     4  10  22  39  60  90 129 180 222 269 326 406
#     4  11  24  47  75 100 132 176 231 293 349 411
#     4  11  23  44  70  99 136 182 225 284 345 407
#     4  10  22  40  63  90 136 174 219 279 340 403
#     4  11  23  43  64  98 134 180 227 276 350 413
#     4  10  24  48  71  99 136 174 232 290 346 407
#     4  11  23  38  60  97 133 172 230 274 328 410
#     4  12  25  41  71  97 140 188 223 282 345 408
#
# _framework density 22.52045
#
# number of rings (size 3 to 8) (size 9 to 14) (size 15 to 20)
#    0.000    1.250    3.750    1.500    7.000    0.000 
#    4.500    3.750    0.000    0.000    0.000    0.000 
#    0.000    0.000    0.000    0.000    0.000    0.000 
#
# Total GULP energy -89134.322154 kJ/mol
# GULP energy per Si atom -5570.895135 kJ/mol
# Density = 2.246919 g / cm^3
# Si number density = 22.520450 Si / 1000 Ang^3
#
#
#
# Elastic Constant Matrix: (Units=GPa)
#
#
# Indices 1 2 3 4 5 6 
#
# 1 51.8419 21.5755 40.0745 11.2558 0.7376 -14.2856
# 2 21.5755 103.1149 64.6317 3.1826 13.6099 -1.3298
# 3 40.0745 64.6317 114.2318 -18.9388 11.6876 -3.9141
# 4 11.2558 3.1826 -18.9388 53.6703 -0.2972 -2.0124
# 5 0.7376 13.6099 11.6876 -0.2972 44.0450 10.5232
# 6 -14.2856 -1.3298 -3.9141 -2.0124 10.5232 37.2890
#
#
#
# Elastic Compliance Matrix: (Units=1/GPa)
#
#
# Indices 1 2 3 4 5 6 
#
# 1 0.036916 0.003254 -0.016584 -0.013344 -0.000141 0.011838
# 2 0.003254 0.016488 -0.011098 -0.005550 -0.002499 0.001075
# 3 -0.016584 -0.011098 0.022897 0.012085 -0.001506 -0.003268
# 4 -0.013344 -0.005550 0.012085 0.025928 -0.000496 -0.002502
# 5 -0.000141 -0.002499 -0.001506 -0.000496 0.025685 -0.007577
# 6 0.011838 0.001075 -0.003268 -0.002502 -0.007577 0.033051
#
#
# Mechanical properties :
#
#
# Convention : Reuss Voigt Hill
#
# Bulk Modulus (GPa) = 36.43690 57.97245 47.20468
# Shear Modulus (GPa) = 22.83414 36.52800 29.68107
#
# Velocity S-wave (km/s) = 3.18768 4.03177 3.63431
# Velocity P-wave (km/s) = 5.45555 6.88996 6.21428
#
# Compressibility (1/GPa) = 0.02744471
#
# Stress axis : x y z
#
# Youngs Moduli (GPa) = 27.08833 60.64927 43.67383
#
# Poissons Ratio (x) = -0.19733 0.72429
# Poissons Ratio (y) = -0.08813 0.48469
# Poissons Ratio (z) = 0.44923 0.67308
#
# Static dielectric constant tensor:
#      x y z
#    x 1.889350 -0.071700 -0.062600 
#    y -0.071700 1.837970 0.097320 
#    z -0.062600 0.097320 1.881170 
# 
# From -- ./inp_files/577259.got.cif
#   From: 2010.05.17/outbox.cif.g08.bks.cpg/sg2_289_cif.got.tgz:577259.got - 2010.06.03 11:33:40.
