data_PCOD9022817
_publ_section_title
;
Structure prediction by ZEFSAII (Michael W. Deem and Ramdas Pophale) SiO2 
 PCOD9022817
Probable space group: P -1
;
_chemical_formula_sum "Si O2"
_cell_formula_units_Z 16
_cell_length_a 6.078507
_cell_length_b 23.183332
_cell_length_c 15.552166
_cell_angle_alpha 20.255304
_cell_angle_beta 104.683711
_cell_angle_gamma 104.791865
_cell_volume 732.961025
_symmetry_space_group_name_H-M "P -1"
_symmetry_group_IT_number 2
_symmetry_cell_setting 'triclinic'
loop_
_space_group_symop_operation_xyz
x,y,z
-x,-y,-z
loop_
_atom_site_type_symbol
_atom_site_label
_atom_site_fract_x
_atom_site_fract_y
_atom_site_fract_z
Si Si1 0.410116 0.016149 0.826181
Si Si2 0.184179 0.868573 0.175975
Si Si3 0.351773 0.645759 0.109172
Si Si4 0.965981 0.353954 0.770246
Si Si5 0.045286 0.435151 0.955095
Si Si6 0.729655 0.479595 0.300251
Si Si7 0.693177 0.914365 0.837163
Si Si8 0.020025 0.230759 0.409635
O O1 0.600556 0.117966 0.757796
O O2 0.232101 0.131404 0.602937
O O3 0.550912 0.925525 0.895032
O O4 0.281752 0.900801 0.045822
O O5 0.113510 0.676372 0.450743
O O6 0.000000 0.000000 0.000000
O O7 0.268112 0.636583 0.213294
O O8 0.154239 0.635529 0.030998
O O9 0.492875 0.485406 0.318900
O O10 0.515280 0.817442 0.888862
O O11 0.000000 0.500000 0.500000
O O12 0.130794 0.378981 0.832730
O O13 0.080816 0.189041 0.977884
O O14 0.003192 0.613662 0.745335
O O15 0.268814 0.471226 0.867525
O O16 0.067559 0.306511 0.214359
O O17 0.798957 0.100541 0.566344
#
# Coordination Sequence:
#
# PCOD9022817 Si02
#       8
#     2   2   2   2   2   2   2   2
#     4  11  24  39  64  97 135 173 222 272 337 404
#     4  11  24  39  63  96 137 175 215 275 338 405
#     4  10  23  43  65  98 135 175 224 275 341 394
#     4  10  24  39  65  92 134 177 220 274 331 401
#     4  10  23  45  69  96 134 180 224 282 334 395
#     4  10  22  39  64  93 131 170 222 270 330 400
#     4  11  24  41  65 100 134 173 225 280 330 405
#     4  11  24  44  70  98 135 176 230 279 333 398
#
# _framework density 21.829263000000001
#
# number of rings (size 3 to 8) (size 9 to 14) (size 15 to 20)
#    0.000    1.500    0.000    3.750    7.000    4.500 
#    0.000   11.875    0.000    0.000    0.000    0.000 
#    0.000    0.000    0.000    0.000    0.000    0.000 
#
# Total GULP energy -89089.644285 kJ/mol
# GULP energy per Si atom -5568.102768 kJ/mol
# Density = 2.177958 g / cm^3
# Si number density = 21.829263 Si / 1000 Ang^3
#
#
#
# Elastic Constant Matrix: (Units=GPa)
#
#
# Indices 1 2 3 4 5 6 
#
# 1 116.0414 45.6498 50.4764 -5.9371 12.4507 -49.8824
# 2 45.6498 110.5556 64.4318 8.6191 -7.4014 -9.0610
# 3 50.4764 64.4318 117.3955 11.9516 -14.6884 -17.4563
# 4 -5.9371 8.6191 11.9516 42.0865 -11.9562 5.0366
# 5 12.4507 -7.4014 -14.6884 -11.9562 37.7584 -15.9574
# 6 -49.8824 -9.0610 -17.4563 5.0366 -15.9574 74.4223
#
#
#
# Elastic Compliance Matrix: (Units=1/GPa)
#
#
# Indices 1 2 3 4 5 6 
#
# 1 0.016085 -0.003930 -0.004162 0.002278 -0.003404 0.008442
# 2 -0.003930 0.014287 -0.006311 -0.001343 0.000276 -0.002225
# 3 -0.004162 -0.006311 0.014908 -0.002024 0.005857 0.001332
# 4 0.002278 -0.001343 -0.002024 0.026834 0.006931 0.000559
# 5 -0.003404 0.000276 0.005857 0.006931 0.034711 0.006100
# 6 0.008442 -0.002225 0.001332 0.000559 0.006100 0.020407
#
#
# Mechanical properties :
#
#
# Convention : Reuss Voigt Hill
#
# Bulk Modulus (GPa) = 60.69876 73.90093 67.29985
# Shear Modulus (GPa) = 30.95427 43.08241 37.01834
#
# Velocity S-wave (km/s) = 3.76974 4.44735 4.12249
# Velocity P-wave (km/s) = 6.84211 7.76527 7.31826
#
# Compressibility (1/GPa) = 0.01647480
#
# Stress axis : x y z
#
# Youngs Moduli (GPa) = 62.17117 69.99449 67.07698
#
# Poissons Ratio (x) = 0.27506 0.27914
# Poissons Ratio (y) = 0.24432 0.42333
# Poissons Ratio (z) = 0.25873 0.44175
#
# Static dielectric constant tensor:
#      x y z
#    x 2.103440 0.014750 -0.023030 
#    y 0.014750 1.867880 -0.082180 
#    z -0.023030 -0.082180 1.801470 
# 
# From -- ./inp_files/459571.got.cif
#   From: 2010.05.17/outbox.cif.g08.bks.cpg/sg2_230_cif.got.tgz:459571.got - 2010.06.03 11:33:40.
