data_PCOD9022113
_publ_section_title
;
Structure prediction by ZEFSAII (Michael W. Deem and Ramdas Pophale) SiO2 
 PCOD9022113
Probable space group: P -1
;
_chemical_formula_sum "Si O2"
_cell_formula_units_Z 16
_cell_length_a 7.443355
_cell_length_b 17.458309
_cell_length_c 9.062790
_cell_angle_alpha 49.032776
_cell_angle_beta 140.943804
_cell_angle_gamma 123.448749
_cell_volume 558.111035
_symmetry_space_group_name_H-M "P -1"
_symmetry_group_IT_number 2
_symmetry_cell_setting 'triclinic'
loop_
_space_group_symop_operation_xyz
x,y,z
-x,-y,-z
loop_
_atom_site_type_symbol
_atom_site_label
_atom_site_fract_x
_atom_site_fract_y
_atom_site_fract_z
Si Si1 0.601641 0.578012 0.234319
Si Si2 0.566327 0.359169 0.468732
Si Si3 0.199490 0.195537 0.049011
Si Si4 0.179384 0.943321 0.562104
Si Si5 0.774144 0.228485 0.991071
Si Si6 0.960970 0.621693 0.700858
Si Si7 0.674653 0.943824 0.056651
Si Si8 0.247645 0.798823 0.459265
O O1 0.661195 0.471948 0.327050
O O2 0.721606 0.684863 0.098901
O O3 0.749878 0.571820 0.498442
O O4 0.254583 0.579323 0.003747
O O5 0.736099 0.336537 0.756959
O O6 0.239607 0.359840 0.311027
O O7 0.615147 0.270387 0.495023
O O8 0.997385 0.187919 0.071044
O O9 0.001632 0.149131 0.850068
O O10 0.489533 0.152152 0.339470
O O11 0.006071 0.958832 0.285006
O O12 0.147769 0.823530 0.740896
O O13 0.511102 0.975614 0.766235
O O14 0.000000 0.000000 0.500000
O O15 0.450725 0.172997 0.845652
O O16 0.087849 0.718217 0.567405
O O17 0.500000 0.000000 0.000000
#
# Coordination Sequence:
#
# PCOD9022113 Si02
#       8
#     2   2   2   2   2   2   2   2
#     4  10  22  39  53  72 106 144 180 220 268 311
#     4  11  22  36  57  81 103 143 183 225 261 312
#     4   9  19  33  50  72 105 136 171 219 259 304
#     4   8  15  28  44  65 103 138 156 207 265 306
#     4   9  20  28  49  78 104 129 180 213 255 316
#     4  10  22  40  54  72 105 144 183 221 270 314
#     4   8  15  28  44  65 103 138 156 207 265 306
#     4   9  21  35  51  75 103 133 177 224 263 306
#
# _framework density 28.668130999999999
#
# number of rings (size 3 to 8) (size 9 to 14) (size 15 to 20)
#    0.750    2.000    0.000    0.750    3.500   10.500 
#    0.000    0.000    0.000    0.000    0.000    0.000 
#    0.000   38.000    0.000    0.000    0.000    0.000 
#
# Total GULP energy -89378.560215 kJ/mol
# GULP energy per Si atom -5586.160013 kJ/mol
# Density = 2.860288 g / cm^3
# Si number density = 28.668131 Si / 1000 Ang^3
#
#
#
# Elastic Constant Matrix: (Units=GPa)
#
#
# Indices 1 2 3 4 5 6 
#
# 1 99.0775 46.5149 44.3293 2.2901 -1.3032 -1.6336
# 2 46.5149 73.4974 93.5930 18.1691 -25.9503 4.4496
# 3 44.3293 93.5930 289.0269 53.3047 -7.8329 1.8309
# 4 2.2901 18.1691 53.3047 66.4999 8.9961 -7.7809
# 5 -1.3032 -25.9503 -7.8329 8.9961 49.0419 8.7886
# 6 -1.6336 4.4496 1.8309 -7.7809 8.7886 46.0764
#
#
#
# Elastic Compliance Matrix: (Units=1/GPa)
#
#
# Indices 1 2 3 4 5 6 
#
# 1 0.018711 -0.021291 0.002653 0.005412 -0.012393 0.005892
# 2 -0.021291 0.058307 -0.012569 -0.011210 0.032853 -0.014046
# 3 0.002653 -0.012569 0.007242 -0.001511 -0.005470 0.001808
# 4 0.005412 -0.011210 -0.001511 0.021477 -0.011243 0.007106
# 5 -0.012393 0.032853 -0.005470 -0.011243 0.040983 -0.013110
# 6 0.005892 -0.014046 0.001808 0.007106 -0.013110 0.026897
#
#
# Mechanical properties :
#
#
# Convention : Reuss Voigt Hill
#
# Bulk Modulus (GPa) = 45.77262 92.27514 69.02388
# Shear Modulus (GPa) = 20.54980 50.80128 35.67554
#
# Velocity S-wave (km/s) = 2.68025 4.21414 3.53148
# Velocity P-wave (km/s) = 5.05760 7.47903 6.38417
#
# Compressibility (1/GPa) = 0.02184712
#
# Stress axis : x y z
#
# Youngs Moduli (GPa) = 53.44583 17.15065 138.08694
#
# Poissons Ratio (x) = 0.36515 -0.36640
# Poissons Ratio (y) = 1.13790 1.73557
# Poissons Ratio (z) = -0.14181 0.21556
#
# Static dielectric constant tensor:
#      x y z
#    x 2.147660 -0.072060 0.046470 
#    y -0.072060 2.352100 -0.005230 
#    z 0.046470 -0.005230 2.207800 
# 
# From -- ./inp_files/405489.got.cif
#   From: 2010.05.17/outbox.cif.g08.bks.cpg/sg2_203_cif.got.tgz:405489.got - 2010.06.03 11:33:40.
