data_PCOD9022476
_publ_section_title
;
Structure prediction by ZEFSAII (Michael W. Deem and Ramdas Pophale) SiO2 
 PCOD9022476
Probable space group: P -1
;
_chemical_formula_sum "Si O2"
_cell_formula_units_Z 16
_cell_length_a 19.795135
_cell_length_b 6.805866
_cell_length_c 20.900175
_cell_angle_alpha 119.239459
_cell_angle_beta 19.750443
_cell_angle_gamma 110.109567
_cell_volume 763.432428
_symmetry_space_group_name_H-M "P -1"
_symmetry_group_IT_number 2
_symmetry_cell_setting 'triclinic'
loop_
_space_group_symop_operation_xyz
x,y,z
-x,-y,-z
loop_
_atom_site_type_symbol
_atom_site_label
_atom_site_fract_x
_atom_site_fract_y
_atom_site_fract_z
Si Si1 0.551542 0.598825 0.245527
Si Si2 0.572863 0.889260 0.503228
Si Si3 0.051597 0.740818 0.245486
Si Si4 0.689632 0.264516 0.764963
Si Si5 0.195802 0.730754 0.476556
Si Si6 0.304172 0.409468 0.523463
Si Si7 0.927142 0.733844 0.496776
Si Si8 0.810362 0.090363 0.235040
O O1 0.563092 0.826893 0.310159
O O2 0.336734 0.709401 0.410484
O O3 0.511048 0.411948 0.300905
O O4 0.749961 0.459582 0.000027
O O5 0.776861 0.893267 0.281119
O O6 0.639057 0.735650 0.484054
O O7 0.417856 0.807571 0.584125
O O8 0.836804 0.695492 0.410415
O O9 0.063111 0.729736 0.310148
O O10 0.011089 0.012859 0.300887
O O11 0.671111 0.263425 0.705011
O O12 0.917854 0.280515 0.584119
O O13 0.723144 0.996185 0.718878
O O14 0.500000 0.500000 0.000000
O O15 0.139062 0.494624 0.484037
O O16 0.171120 0.693817 0.705006
O O17 0.000000 0.000000 0.000000
#
# Coordination Sequence:
#
# PCOD9022476 Si02
#       8
#     2   2   2   2   2   2   2   2
#     4  11  23  39  61  90 124 165 204 253 308 357
#     4  10  22  40  60  88 127 155 205 257 295 366
#     4  11  23  39  61  90 124 165 204 253 308 357
#     4  10  22  39  62  90 120 162 203 250 307 358
#     4  11  22  40  61  89 126 160 207 253 299 368
#     4  11  22  40  61  89 126 160 207 253 299 368
#     4  10  22  40  60  88 127 155 205 257 295 366
#     4  10  22  39  62  90 120 162 203 250 307 358
#
# _framework density 20.957979000000002
#
# number of rings (size 3 to 8) (size 9 to 14) (size 15 to 20)
#    0.000    1.500    2.500    2.250    0.000    4.000 
#    0.000    0.000    0.000    0.000    0.000    0.000 
#    0.000    0.000    0.000    0.000    0.000    0.000 
#
# Total GULP energy -89391.985687 kJ/mol
# GULP energy per Si atom -5586.999105 kJ/mol
# Density = 2.091028 g / cm^3
# Si number density = 20.957979 Si / 1000 Ang^3
#
#
#
# Elastic Constant Matrix: (Units=GPa)
#
#
# Indices 1 2 3 4 5 6 
#
# 1 78.5413 10.3207 -8.7817 -3.4044 9.3753 -7.2106
# 2 10.3207 92.7163 17.9688 6.2223 -4.3787 2.4981
# 3 -8.7817 17.9688 72.7975 5.8661 25.6590 -6.8879
# 4 -3.4044 6.2223 5.8661 20.5574 1.0108 12.4457
# 5 9.3753 -4.3787 25.6590 1.0108 26.5454 0.6106
# 6 -7.2106 2.4981 -6.8879 12.4457 0.6106 45.0386
#
#
#
# Elastic Compliance Matrix: (Units=1/GPa)
#
#
# Indices 1 2 3 4 5 6 
#
# 1 0.016536 -0.004387 0.008950 -0.000528 -0.015301 0.004613
# 2 -0.004387 0.013577 -0.008118 -0.001643 0.011754 -0.002402
# 3 0.008950 -0.008118 0.030268 -0.008721 -0.033641 0.009378
# 4 -0.000528 -0.001643 -0.008721 0.062548 0.006394 -0.018698
# 5 -0.015301 0.011754 -0.033641 0.006394 0.077542 -0.011064
# 6 0.004613 -0.002402 0.009378 -0.018698 -0.011064 0.029826
#
#
# Mechanical properties :
#
#
# Convention : Reuss Voigt Hill
#
# Bulk Modulus (GPa) = 18.77216 31.45230 25.11223
# Shear Modulus (GPa) = 19.59513 33.39810 26.49662
#
# Velocity S-wave (km/s) = 3.06105 3.99629 3.55952
# Velocity P-wave (km/s) = 4.63356 6.02774 5.37604
#
# Compressibility (1/GPa) = 0.05327037
#
# Stress axis : x y z
#
# Youngs Moduli (GPa) = 60.47329 73.65205 33.03859
#
# Poissons Ratio (x) = 0.32309 -0.29568
# Poissons Ratio (y) = 0.26527 0.26822
# Poissons Ratio (z) = -0.54121 0.59793
#
# Static dielectric constant tensor:
#      x y z
#    x 1.722960 -0.011380 0.011590 
#    y -0.011380 1.765520 0.003690 
#    z 0.011590 0.003690 1.738590 
# 
# From -- ./inp_files/12720.got.cif
#   From: 2010.05.17/outbox.cif.g08.bks.cpg/sg2_7_cif.got.tgz:12720.got - 2010.06.03 11:33:40.
