data_PCOD9022739
_publ_section_title
;
Structure prediction by ZEFSAII (Michael W. Deem and Ramdas Pophale) SiO2 
 PCOD9022739
Probable space group: P -1
;
_chemical_formula_sum "Si O2"
_cell_formula_units_Z 16
_cell_length_a 9.128773
_cell_length_b 24.063584
_cell_length_c 8.958590
_cell_angle_alpha 149.483943
_cell_angle_beta 119.389249
_cell_angle_gamma 47.584888
_cell_volume 716.010001
_symmetry_space_group_name_H-M "P -1"
_symmetry_group_IT_number 2
_symmetry_cell_setting 'triclinic'
loop_
_space_group_symop_operation_xyz
x,y,z
-x,-y,-z
loop_
_atom_site_type_symbol
_atom_site_label
_atom_site_fract_x
_atom_site_fract_y
_atom_site_fract_z
Si Si1 0.668325 0.278772 0.340805
Si Si2 0.038348 0.934279 0.205939
Si Si3 0.745850 0.638363 0.549576
Si Si4 0.943598 0.340458 0.075123
Si Si5 0.954794 0.878047 0.602934
Si Si6 0.775212 0.636207 0.214115
Si Si7 0.280486 0.089525 0.171583
Si Si8 0.487444 0.561824 0.796479
O O1 0.467537 0.284854 0.293526
O O2 0.604754 0.429800 0.654784
O O3 0.846273 0.198660 0.367394
O O4 0.752977 0.206594 0.056206
O O5 0.868198 0.908425 0.020096
O O6 0.000000 0.000000 0.500000
O O7 0.030019 0.032159 0.302890
O O8 0.858520 0.484004 0.293626
O O9 0.704110 0.652806 0.387743
O O10 0.895332 0.681559 0.770294
O O11 0.747214 0.348115 0.058410
O O12 0.049781 0.230140 0.746230
O O13 0.763632 0.957408 0.803942
O O14 0.777727 0.764119 0.481000
O O15 0.613276 0.627256 0.016376
O O16 0.000000 0.500000 0.000000
O O17 0.500000 0.000000 0.000000
O O18 0.500000 0.500000 0.500000
#
# Coordination Sequence:
#
# PCOD9022739 Si02
#       8
#     2   2   2   2   2   2   2   2
#     4  10  22  44  68  98 136 181 233 276 353 411
#     4  11  27  46  72  99 137 184 235 288 347 415
#     4  10  22  39  66  99 137 174 224 289 340 413
#     4  10  22  39  64 100 134 177 228 281 349 402
#     4  11  24  45  72  93 143 182 232 281 345 418
#     4  12  24  40  68  97 142 178 233 282 347 408
#     4  11  27  44  68 104 140 182 232 281 350 417
#     4  11  24  39  69 100 140 181 229 289 344 414
#
# _framework density 22.346059
#
# number of rings (size 3 to 8) (size 9 to 14) (size 15 to 20)
#    0.000    1.250    0.000    6.000    8.750    5.000 
#    0.000    1.250    0.000    0.000    0.000    0.000 
#    0.000    0.000    0.000    0.000    0.000    0.000 
#
# Total GULP energy -89537.174858 kJ/mol
# GULP energy per Si atom -5596.073429 kJ/mol
# Density = 2.229520 g / cm^3
# Si number density = 22.346059 Si / 1000 Ang^3
#
#
#
# Elastic Constant Matrix: (Units=GPa)
#
#
# Indices 1 2 3 4 5 6 
#
# 1 123.9154 27.8864 56.3746 -3.5026 0.2902 -11.6828
# 2 27.8864 53.3583 31.2156 -10.0396 11.4858 4.3632
# 3 56.3746 31.2156 146.2069 -24.2554 5.3428 -14.5294
# 4 -3.5026 -10.0396 -24.2554 41.9642 -3.4633 0.1552
# 5 0.2902 11.4858 5.3428 -3.4633 42.7073 -3.7485
# 6 -11.6828 4.3632 -14.5294 0.1552 -3.7485 34.9413
#
#
#
# Elastic Compliance Matrix: (Units=1/GPa)
#
#
# Indices 1 2 3 4 5 6 
#
# 1 0.010851 -0.004761 -0.003255 -0.001984 0.001722 0.003063
# 2 -0.004761 0.026023 -0.003648 0.003179 -0.006876 -0.007110
# 3 -0.003255 -0.003648 0.009981 0.004648 0.000443 0.003544
# 4 -0.001984 0.003179 0.004648 0.027179 0.000855 0.000843
# 5 0.001722 -0.006876 0.000443 0.000855 0.025650 0.004366
# 6 0.003063 -0.007110 0.003544 0.000843 0.004366 0.032470
#
#
# Mechanical properties :
#
#
# Convention : Reuss Voigt Hill
#
# Bulk Modulus (GPa) = 42.50582 61.60375 52.05478
# Shear Modulus (GPa) = 30.61386 37.78951 34.20168
#
# Velocity S-wave (km/s) = 3.70535 4.11676 3.91646
# Velocity P-wave (km/s) = 6.11303 7.08695 6.61793
#
# Compressibility (1/GPa) = 0.02352619
#
# Stress axis : x y z
#
# Youngs Moduli (GPa) = 92.15731 38.42684 100.19263
#
# Poissons Ratio (x) = 0.18295 0.32614
# Poissons Ratio (y) = 0.43877 0.36553
# Poissons Ratio (z) = 0.29999 0.14019
#
# Static dielectric constant tensor:
#      x y z
#    x 1.903740 0.041240 0.058540 
#    y 0.041240 1.888110 0.076570 
#    z 0.058540 0.076570 1.858450 
# 
# From -- ./inp_files/226808.got.cif
#   From: 2010.05.17/outbox.cif.g08.bks.cpg/sg2_114_cif.got.tgz:226808.got - 2010.06.03 11:33:40.
