data_PCOD9022486
_publ_section_title
;
Structure prediction by ZEFSAII (Michael W. Deem and Ramdas Pophale) SiO2 
 PCOD9022486
Probable space group: P -1
;
_chemical_formula_sum "Si O2"
_cell_formula_units_Z 16
_cell_length_a 5.434825
_cell_length_b 21.357580
_cell_length_c 5.214240
_cell_angle_alpha 81.211376
_cell_angle_beta 93.762682
_cell_angle_gamma 87.563707
_cell_volume 595.998202
_symmetry_space_group_name_H-M "P -1"
_symmetry_group_IT_number 2
_symmetry_cell_setting 'triclinic'
loop_
_space_group_symop_operation_xyz
x,y,z
-x,-y,-z
loop_
_atom_site_type_symbol
_atom_site_label
_atom_site_fract_x
_atom_site_fract_y
_atom_site_fract_z
Si Si1 0.984801 0.044731 0.718097
Si Si2 0.968418 0.396160 0.156073
Si Si3 0.584090 0.630312 0.406953
Si Si4 0.487463 0.074056 0.879065
Si Si5 0.770198 0.512369 0.281503
Si Si6 0.264774 0.750489 0.418526
Si Si7 0.520819 0.189819 0.122427
Si Si8 0.124522 0.282881 0.949765
O O1 0.722587 0.082215 0.709072
O O2 0.222066 0.086947 0.721065
O O3 0.000000 0.000000 0.500000
O O4 0.000000 0.000000 0.000000
O O5 0.166989 0.376592 0.401426
O O6 0.738767 0.442494 0.205800
O O7 0.114542 0.443102 0.953533
O O8 0.926369 0.331155 0.043670
O O9 0.550029 0.558220 0.356303
O O10 0.381503 0.677923 0.492722
O O11 0.663524 0.670336 0.140335
O O12 0.505362 0.116053 0.108203
O O13 0.500000 0.000000 0.000000
O O14 0.000000 0.500000 0.500000
O O15 0.300823 0.788009 0.658112
O O16 0.991412 0.744869 0.295786
O O17 0.398990 0.784276 0.168512
O O18 0.256817 0.225141 0.146150
#
# Coordination Sequence:
#
# PCOD9022486 Si02
#       8
#     2   2   2   2   2   2   2   2
#     4  10  22  42  71 103 142 184 229 282 350 425
#     4   9  15  31  58  83 123 166 216 269 344 398
#     4   9  18  36  56  87 124 166 221 274 341 402
#     4  10  24  47  73 109 145 190 237 298 363 432
#     4   8  15  27  54  88 119 166 207 275 340 400
#     4  11  25  42  66  95 131 178 227 282 343 412
#     4  11  26  44  66  98 135 174 229 281 347 416
#     4  10  22  39  62  90 126 175 222 281 338 414
#
# _framework density 26.845718999999999
#
# number of rings (size 3 to 8) (size 9 to 14) (size 15 to 20)
#    0.000    2.250    1.250    0.375    3.500    4.000 
#    0.000    0.625    0.000   25.500    0.000    0.000 
#    0.000    0.000    0.000    0.000    0.000    0.000 
#
# Total GULP energy -89523.066479 kJ/mol
# GULP energy per Si atom -5595.191655 kJ/mol
# Density = 2.678462 g / cm^3
# Si number density = 26.845719 Si / 1000 Ang^3
#
#
#
# Elastic Constant Matrix: (Units=GPa)
#
#
# Indices 1 2 3 4 5 6 
#
# 1 123.5670 20.2724 25.9766 19.8793 5.7944 -6.5507
# 2 20.2724 190.2616 47.6230 30.2850 3.4989 0.2508
# 3 25.9766 47.6230 114.3830 31.1858 3.2050 -0.5041
# 4 19.8793 30.2850 31.1858 55.5657 5.9417 1.1974
# 5 5.7944 3.4989 3.2050 5.9417 42.0733 16.0149
# 6 -6.5507 0.2508 -0.5041 1.1974 16.0149 17.9920
#
#
#
# Elastic Compliance Matrix: (Units=1/GPa)
#
#
# Indices 1 2 3 4 5 6 
#
# 1 0.009256 -0.000261 -0.001260 -0.002250 -0.003277 0.006405
# 2 -0.000261 0.006102 -0.001890 -0.002171 0.000019 -0.000106
# 3 -0.001260 -0.001890 0.011114 -0.004772 0.000126 0.000085
# 4 -0.002250 -0.002171 -0.004772 0.022908 -0.002193 -0.000495
# 5 -0.003277 0.000019 0.000126 -0.002193 0.037683 -0.034586
# 6 0.006405 -0.000106 0.000085 -0.000495 -0.034586 0.088735
#
#
# Mechanical properties :
#
#
# Convention : Reuss Voigt Hill
#
# Bulk Modulus (GPa) = 50.89341 68.43951 59.66646
# Shear Modulus (GPa) = 26.43133 45.41552 35.92342
#
# Velocity S-wave (km/s) = 3.14118 4.11752 3.66203
# Velocity P-wave (km/s) = 5.67053 6.93933 6.33676
#
# Compressibility (1/GPa) = 0.01964891
#
# Stress axis : x y z
#
# Youngs Moduli (GPa) = 108.04262 163.87220 89.98022
#
# Poissons Ratio (x) = 0.04276 0.11337
# Poissons Ratio (y) = 0.02819 0.17010
# Poissons Ratio (z) = 0.13613 0.30979
#
# Static dielectric constant tensor:
#      x y z
#    x 1.725270 0.060410 -0.038390 
#    y 0.060410 2.083960 0.022320 
#    z -0.038390 0.022320 2.102400 
# 
# From -- ./inp_files/11149.got.cif
#   From: 2010.05.17/outbox.cif.g08.bks.cpg/sg2_6_cif.got.tgz:11149.got - 2010.06.03 11:33:40.
