data_PCOD9022672
_publ_section_title
;
Structure prediction by ZEFSAII (Michael W. Deem and Ramdas Pophale) SiO2 
 PCOD9022672
Probable space group: P -1
;
_chemical_formula_sum "Si O2"
_cell_formula_units_Z 16
_cell_length_a 19.250371
_cell_length_b 18.171091
_cell_length_c 8.144788
_cell_angle_alpha 47.013046
_cell_angle_beta 44.587072
_cell_angle_gamma 21.008984
_cell_volume 715.396637
_symmetry_space_group_name_H-M "P -1"
_symmetry_group_IT_number 2
_symmetry_cell_setting 'triclinic'
loop_
_space_group_symop_operation_xyz
x,y,z
-x,-y,-z
loop_
_atom_site_type_symbol
_atom_site_label
_atom_site_fract_x
_atom_site_fract_y
_atom_site_fract_z
Si Si1 0.375254 0.055659 0.958836
Si Si2 0.689725 0.260001 0.029097
Si Si3 0.946836 0.332147 0.780244
Si Si4 0.049501 0.098369 0.647217
Si Si5 0.321557 0.118761 0.498389
Si Si6 0.986644 0.738397 0.866844
Si Si7 0.340143 0.304682 0.764365
Si Si8 0.528636 0.723916 0.740838
O O1 0.601017 0.885088 0.779807
O O2 0.281133 0.246418 0.880555
O O3 0.218671 0.146152 0.959350
O O4 0.437098 0.916918 0.199017
O O5 0.612257 0.247444 0.047180
O O6 0.500000 0.500000 0.000000
O O7 0.877701 0.164904 0.821390
O O8 0.751507 0.139100 0.268464
O O9 0.001933 0.215541 0.704626
O O10 0.710617 0.568306 0.799091
O O11 0.976790 0.251533 0.028373
O O12 0.080340 0.316481 0.594335
O O13 0.047125 0.157244 0.388131
O O14 0.387126 0.945165 0.640031
O O15 0.500000 0.000000 0.500000
O O16 0.174417 0.499880 0.865174
O O17 0.363448 0.362375 0.487521
#
# Coordination Sequence:
#
# PCOD9022672 Si02
#       8
#     2   2   2   2   2   2   2   2
#     4  10  23  38  63  91 129 184 226 275 327 388
#     4  11  21  44  77  99 125 176 221 273 346 390
#     4  12  25  42  68  97 136 176 218 274 330 392
#     4  11  25  44  72  98 132 171 222 278 329 404
#     4  11  24  43  59  98 139 180 226 269 326 396
#     4  12  24  42  65  97 134 174 223 272 331 394
#     4  10  22  39  63  94 127 177 228 272 329 392
#     4  11  23  42  71  94 135 179 219 276 336 394
#
# _framework density 22.365217000000001
#
# number of rings (size 3 to 8) (size 9 to 14) (size 15 to 20)
#    0.000    1.000    5.000    1.125    5.250    2.500 
#    0.000    3.125    0.000    0.000    0.000    0.000 
#    0.000    0.000    0.000    0.000    0.000    0.000 
#
# Total GULP energy -89164.755986 kJ/mol
# GULP energy per Si atom -5572.797249 kJ/mol
# Density = 2.231431 g / cm^3
# Si number density = 22.365217 Si / 1000 Ang^3
#
#
#
# Elastic Constant Matrix: (Units=GPa)
#
#
# Indices 1 2 3 4 5 6 
#
# 1 97.8872 25.9080 53.7656 7.6684 -5.4676 -37.6365
# 2 25.9080 95.6351 32.0681 -11.1023 -3.0430 -23.6735
# 3 53.7656 32.0681 104.4429 -5.2537 2.0733 -9.8159
# 4 7.6684 -11.1023 -5.2537 30.3485 -5.5128 -5.2901
# 5 -5.4676 -3.0430 2.0733 -5.5128 39.1208 1.7142
# 6 -37.6365 -23.6735 -9.8159 -5.2901 1.7142 41.2551
#
#
#
# Elastic Compliance Matrix: (Units=1/GPa)
#
#
# Indices 1 2 3 4 5 6 
#
# 1 0.023844 0.001850 -0.011225 -0.003378 0.002737 0.019596
# 2 0.001850 0.014578 -0.004241 0.006207 0.002064 0.009754
# 3 -0.011225 -0.004241 0.016008 0.002200 -0.002065 -0.008497
# 4 -0.003378 0.006207 0.002200 0.038369 0.005051 0.005713
# 5 0.002737 0.002064 -0.002065 0.005051 0.026807 0.002724
# 6 0.019596 0.009754 -0.008497 0.005713 0.002724 0.046312
#
#
# Mechanical properties :
#
#
# Convention : Reuss Voigt Hill
#
# Bulk Modulus (GPa) = 36.76558 57.93872 47.35215
# Shear Modulus (GPa) = 24.72627 34.55976 29.64301
#
# Velocity S-wave (km/s) = 3.32862 3.93523 3.64456
# Velocity P-wave (km/s) = 5.58993 6.82715 6.23928
#
# Compressibility (1/GPa) = 0.02719936
#
# Stress axis : x y z
#
# Youngs Moduli (GPa) = 41.94002 68.59691 62.46821
#
# Poissons Ratio (x) = -0.12693 0.70120
# Poissons Ratio (y) = -0.07760 0.26490
# Poissons Ratio (z) = 0.47078 0.29089
#
# Static dielectric constant tensor:
#      x y z
#    x 2.108350 -0.086360 0.033540 
#    y -0.086360 1.882660 0.069960 
#    z 0.033540 0.069960 1.970940 
# 
# From -- ./inp_files/349399.got.cif
#   From: 2010.05.17/outbox.cif.g08.bks.cpg/sg2_175_cif.got.tgz:349399.got - 2010.06.03 11:33:40.
