data_PCOD9022553
_publ_section_title
;
Structure prediction by ZEFSAII (Michael W. Deem and Ramdas Pophale) SiO2 
 PCOD9022553
Probable space group: P -1
;
_chemical_formula_sum "Si O2"
_cell_formula_units_Z 15
_cell_length_a 15.685207
_cell_length_b 17.937663
_cell_length_c 5.316399
_cell_angle_alpha 91.190680
_cell_angle_beta 82.678504
_cell_angle_gamma 157.287680
_cell_volume 554.234388
_symmetry_space_group_name_H-M "P -1"
_symmetry_group_IT_number 2
_symmetry_cell_setting 'triclinic'
loop_
_space_group_symop_operation_xyz
x,y,z
-x,-y,-z
loop_
_atom_site_type_symbol
_atom_site_label
_atom_site_fract_x
_atom_site_fract_y
_atom_site_fract_z
Si Si1 0.744097 0.305214 0.330454
Si Si2 0.982408 0.607533 0.615201
Si Si3 0.474561 0.066349 0.931683
Si Si4 0.945335 0.824035 0.683135
Si Si5 0.252584 0.170193 0.894668
Si Si6 0.961350 0.223347 0.723800
Si Si7 0.500000 0.500000 0.000000
Si Si8 0.322079 0.531366 0.972974
O O1 0.916571 0.505725 0.389063
O O2 0.614255 0.218396 0.117548
O O3 0.884523 0.341172 0.250211
O O4 0.585430 0.163666 0.623937
O O5 0.122731 0.790035 0.468370
O O6 0.773394 0.480018 0.819705
O O7 0.225332 0.905428 0.008081
O O8 0.500000 0.000000 0.000000
O O9 0.006291 0.831940 0.403713
O O10 0.732240 0.709696 0.756052
O O11 0.806273 0.650754 0.904550
O O12 0.181487 0.046178 0.722289
O O13 0.407627 0.368110 0.800034
O O14 0.410841 0.260900 0.059463
O O15 0.000000 0.000000 0.000000
O O16 0.215966 0.453371 0.732672
#
# Coordination Sequence:
#
# PCOD9022553 Si02
#       8
#     2   2   2   2   2   2   1   2
#     4  11  26  43  67  99 133 192 243 301 356 436
#     4  10  24  42  65  91 137 180 236 294 360 411
#     4  12  25  42  67  96 139 183 243 294 363 419
#     4   9  20  39  63  95 129 177 221 286 351 428
#     4   9  18  38  69  93 130 175 225 279 355 429
#     4  11  24  40  65  95 139 180 236 296 358 419
#     4   8  16  38  66  94 126 168 218 284 346 422
#     4  10  22  39  62  95 136 176 227 292 351 419
#
# _framework density 27.064363
#
# number of rings (size 3 to 8) (size 9 to 14) (size 15 to 20)
#    0.000    1.867    1.333    1.200    7.467    1.067 
#    0.000    6.000    0.000   14.400    0.000    0.000 
#    0.000    0.000    0.000    0.000    0.000    0.000 
#
# Total GULP energy -83546.247246 kJ/mol
# GULP energy per Si atom -5569.749816 kJ/mol
# Density = 2.700276 g / cm^3
# Si number density = 27.064363 Si / 1000 Ang^3
#
#
#
# Elastic Constant Matrix: (Units=GPa)
#
#
# Indices 1 2 3 4 5 6 
#
# 1 42.4440 30.7644 54.2529 -1.1575 -17.7725 26.0569
# 2 30.7644 191.8513 59.7239 37.5425 -7.1108 23.4852
# 3 54.2529 59.7239 112.1651 24.9272 -9.0093 2.7587
# 4 -1.1575 37.5425 24.9272 50.8341 -0.8171 8.9899
# 5 -17.7725 -7.1108 -9.0093 -0.8171 36.8697 -2.5371
# 6 26.0569 23.4852 2.7587 8.9899 -2.5371 38.1088
#
#
#
# Elastic Compliance Matrix: (Units=1/GPa)
#
#
# Indices 1 2 3 4 5 6 
#
# 1 -0.086874 -0.002903 0.047572 -0.034949 -0.027170 0.064181
# 2 -0.002903 0.007121 -0.001421 -0.004408 -0.000560 -0.001298
# 3 0.047572 -0.001421 -0.014569 0.015404 0.017162 -0.033088
# 4 -0.034949 -0.004408 0.015404 0.010452 -0.012172 0.022221
# 5 -0.027170 -0.000560 0.017162 -0.012172 0.019344 0.021840
# 6 0.064181 -0.001298 -0.033088 0.022221 0.021840 -0.018236
#
#
# Mechanical properties :
#
#
# Convention : Reuss Voigt Hill
#
# Bulk Modulus (GPa) = -127.76255 70.66031 -28.55112
# Shear Modulus (GPa) = -29.09224 38.61048 4.75912
#
# Velocity S-wave (km/s) = -3.28217 3.78116 1.32750
# Velocity P-wave (km/s) = 7.85321 6.72516 2.86750
#
# Compressibility (1/GPa) = -0.00782702
#
# Stress axis : x y z
#
# Youngs Moduli (GPa) = -11.51086 140.43158 -68.63851
#
# Poissons Ratio (x) = 0.40772 3.26527
# Poissons Ratio (y) = -0.03342 -0.09752
# Poissons Ratio (z) = 0.54759 0.19953
#
# Static dielectric constant tensor:
#      x y z
#    x 1.728220 -0.100760 -0.059320 
#    y -0.100760 2.225880 0.018040 
#    z -0.059320 0.018040 2.263470 
# 
# From -- ./inp_files/112471.got.cif
#   From: 2010.05.17/outbox.cif.g08.bks.cpg/sg2_57_cif.got.tgz:112471.got - 2010.06.03 11:33:40.
