data_PCOD9022256
_publ_section_title
;
Structure prediction by ZEFSAII (Michael W. Deem and Ramdas Pophale) SiO2 
 PCOD9022256
Probable space group: P -1
;
_chemical_formula_sum "Si O2"
_cell_formula_units_Z 14
_cell_length_a 14.626220
_cell_length_b 16.882400
_cell_length_c 13.428373
_cell_angle_alpha 151.839655
_cell_angle_beta 26.749959
_cell_angle_gamma 155.214006
_cell_volume 579.812739
_symmetry_space_group_name_H-M "P -1"
_symmetry_group_IT_number 2
_symmetry_cell_setting 'triclinic'
loop_
_space_group_symop_operation_xyz
x,y,z
-x,-y,-z
loop_
_atom_site_type_symbol
_atom_site_label
_atom_site_fract_x
_atom_site_fract_y
_atom_site_fract_z
Si Si1 0.194435 0.956686 0.292114
Si Si2 0.959875 0.249882 0.589246
Si Si3 0.716313 0.404714 0.853700
Si Si4 0.758253 0.276037 0.340621
Si Si5 0.714774 0.326646 0.208349
Si Si6 0.173966 0.059093 0.030558
Si Si7 0.647657 0.694510 0.142597
O O1 0.201104 0.926540 0.370404
O O2 0.452582 0.158722 0.231950
O O3 0.129673 0.754806 0.075038
O O4 0.000000 0.000000 0.500000
O O5 0.800527 0.322544 0.771513
O O6 0.168098 0.438883 0.662580
O O7 0.093336 0.186655 0.312311
O O8 0.970884 0.518580 0.666470
O O9 0.435704 0.213208 0.891504
O O10 0.690694 0.597182 0.092048
O O11 0.712166 0.313285 0.314996
O O12 0.534652 0.238832 0.582787
O O13 0.767766 0.079976 0.115882
O O14 0.907134 0.874600 0.042709
O O15 0.500000 0.500000 0.000000
#
# Coordination Sequence:
#
# PCOD9022256 Si02
#       7
#     2   2   2   2   2   2   2
#     4  11  23  38  59  91 128 166 208 259 308 361
#     4  11  23  40  63  93 128 167 213 256 310 373
#     4  10  22  40  66  92 122 165 210 256 311 375
#     4  10  22  43  65  91 127 168 211 260 320 380
#     4  10  22  39  60  88 125 164 211 257 306 371
#     4  11  22  39  67  95 126 169 211 256 313 379
#     4  11  25  44  66  95 128 163 209 265 321 379
#
# _framework density 24.145727999999998
#
# number of rings (size 3 to 8) (size 9 to 14) (size 15 to 20)
#    0.000    1.429    0.000    5.571    0.000   10.286 
#    0.000    3.571    0.000    0.000    0.000    0.000 
#    0.000    0.000    0.000    0.000    0.000    0.000 
#
# Total GULP energy -78040.286474 kJ/mol
# GULP energy per Si atom -5574.306177 kJ/mol
# Density = 2.409077 g / cm^3
# Si number density = 24.145728 Si / 1000 Ang^3
#
#
#
# Elastic Constant Matrix: (Units=GPa)
#
#
# Indices 1 2 3 4 5 6 
#
# 1 1817.6241 231.8316 173.4637 -267.3533-1111.2389 -272.1955
# 2 231.8316 184.9210 37.7064 -30.3530 -141.7614 -33.3188
# 3 173.4637 37.7064 126.8565 -16.2709 -106.6266 -14.0829
# 4 -267.3533 -30.3530 -16.2709 73.5250 167.5935 44.3940
# 5 -1111.2389 -141.7614 -106.6266 167.5935 723.5420 173.0306
# 6 -272.1955 -33.3188 -14.0829 44.3940 173.0306 72.0506
#
#
#
# Elastic Compliance Matrix: (Units=1/GPa)
#
#
# Indices 1 2 3 4 5 6 
#
# 1 0.009587 -0.000791 -0.001143 0.002829 0.013254 0.002059
# 2 -0.000791 0.006538 -0.000894 -0.000491 0.000022 0.000112
# 3 -0.001143 -0.000894 0.009763 -0.002193 0.000864 -0.003549
# 4 0.002829 -0.000491 -0.002193 0.030551 -0.002463 -0.002877
# 5 0.013254 0.000022 0.000864 -0.002463 0.023632 -0.004986
# 6 0.002059 0.000112 -0.003549 -0.002877 -0.004986 0.034760
#
#
# Mechanical properties :
#
#
# Convention : Reuss Voigt Hill
#
# Bulk Modulus (GPa) = 49.42787 335.04499 192.23643
# Shear Modulus (GPa) = 39.29825 286.25018 162.77422
#
# Velocity S-wave (km/s) = 4.03866 10.89993 8.21946
# Velocity P-wave (km/s) = 6.50098 17.24738 13.03332
#
# Compressibility (1/GPa) = 0.02023150
#
# Stress axis : x y z
#
# Youngs Moduli (GPa) = 104.30368 152.96244 102.42386
#
# Poissons Ratio (x) = 0.12097 0.11710
# Poissons Ratio (y) = 0.08249 0.09159
# Poissons Ratio (z) = 0.11925 0.13679
#
# Static dielectric constant tensor:
#      x y z
#    x 1.963600 0.028380 -0.017170 
#    y 0.028380 1.835410 -0.140540 
#    z -0.017170 -0.140540 1.800260 
# 
# From -- ./inp_files/576373.got.cif
#   From: 2010.05.17/outbox.cif.g08.bks.cpg/sg2_289_cif.got.tgz:576373.got - 2010.06.03 11:33:40.
