data_PCOD9022768
_publ_section_title
;
Structure prediction by ZEFSAII (Michael W. Deem and Ramdas Pophale) SiO2 
 PCOD9022768
Probable space group: P -1
;
_chemical_formula_sum "Si O2"
_cell_formula_units_Z 14
_cell_length_a 17.878156
_cell_length_b 5.060195
_cell_length_c 15.479437
_cell_angle_alpha 76.752460
_cell_angle_beta 149.749437
_cell_angle_gamma 83.228395
_cell_volume 525.277136
_symmetry_space_group_name_H-M "P -1"
_symmetry_group_IT_number 2
_symmetry_cell_setting 'triclinic'
loop_
_space_group_symop_operation_xyz
x,y,z
-x,-y,-z
loop_
_atom_site_type_symbol
_atom_site_label
_atom_site_fract_x
_atom_site_fract_y
_atom_site_fract_z
Si Si1 0.671116 0.746824 0.618831
Si Si2 0.033990 0.577410 0.673948
Si Si3 0.453335 0.477525 0.138273
Si Si4 0.129203 0.763588 0.418864
Si Si5 0.635557 0.858760 0.063542
Si Si6 0.991350 0.222112 0.087270
Si Si7 0.313068 0.203579 0.129528
O O1 0.811850 0.840170 0.732415
O O2 0.500000 0.000000 0.500000
O O3 0.524713 0.830157 0.389622
O O4 0.835581 0.342936 0.846462
O O5 0.970760 0.919342 0.635275
O O6 0.200632 0.248581 0.928210
O O7 0.875881 0.531556 0.526645
O O8 0.142749 0.507954 0.698486
O O9 0.338474 0.851159 0.948772
O O10 0.369805 0.449183 0.144644
O O11 0.656594 0.375219 0.365194
O O12 0.467050 0.209420 0.106244
O O13 0.039105 0.921423 0.222085
O O14 0.500000 0.000000 0.000000
O O15 0.850648 0.591572 0.975417
#
# Coordination Sequence:
#
# PCOD9022768 Si02
#       7
#     2   2   2   2   2   2   2
#     4   9  16  30  54  89 124 164 208 257 311 363
#     4  10  22  39  64  89 125 161 209 260 312 366
#     4  11  22  39  65  92 122 166 212 252 311 377
#     4  11  21  40  62  94 123 163 213 262 302 371
#     4  11  23  42  63  91 125 164 204 254 319 379
#     4   9  17  30  57  85 127 163 205 263 309 354
#     4   9  18  34  57  87 120 167 214 253 305 370
#
# _framework density 26.652594000000001
#
# number of rings (size 3 to 8) (size 9 to 14) (size 15 to 20)
#    0.000    2.000    1.429    3.857    0.000    0.000 
#    0.000    5.000    0.000   26.571    0.000    0.000 
#    0.000    0.000    0.000    0.000    0.000    0.000 
#
# Total GULP energy -78134.676297 kJ/mol
# GULP energy per Si atom -5581.048307 kJ/mol
# Density = 2.659193 g / cm^3
# Si number density = 26.652594 Si / 1000 Ang^3
#
#
#
# Elastic Constant Matrix: (Units=GPa)
#
#
# Indices 1 2 3 4 5 6 
#
# 1 107.9935 28.3880 25.6446 2.6301 44.5210 9.5423
# 2 28.3880 88.4965 21.4695 4.5024 13.5153 8.2113
# 3 25.6446 21.4695 126.2582 19.0453 33.6005 -2.2429
# 4 2.6301 4.5024 19.0453 34.6183 1.3840 6.1260
# 5 44.5210 13.5153 33.6005 1.3840 49.3430 10.4798
# 6 9.5423 8.2113 -2.2429 6.1260 10.4798 20.7318
#
#
#
# Elastic Compliance Matrix: (Units=1/GPa)
#
#
# Indices 1 2 3 4 5 6 
#
# 1 0.015657 -0.003275 0.001528 -0.001386 -0.014674 0.002083
# 2 -0.003275 0.013037 -0.002266 0.000621 0.001991 -0.005091
# 3 0.001528 -0.002266 0.012209 -0.007747 -0.010825 0.009276
# 4 -0.001386 0.000621 -0.007747 0.035536 0.008608 -0.015298
# 5 -0.014674 0.001991 -0.010825 0.008608 0.044377 -0.020182
# 6 0.002083 -0.005091 0.009276 -0.015298 -0.020182 0.065018
#
#
# Mechanical properties :
#
#
# Convention : Reuss Voigt Hill
#
# Bulk Modulus (GPa) = 30.41528 52.63917 41.52722
# Shear Modulus (GPa) = 24.41181 37.42170 30.91675
#
# Velocity S-wave (km/s) = 3.02971 3.75114 3.40956
# Velocity P-wave (km/s) = 4.86574 6.20922 5.57807
#
# Compressibility (1/GPa) = 0.03287822
#
# Stress axis : x y z
#
# Youngs Moduli (GPa) = 63.86957 76.70594 81.90436
#
# Poissons Ratio (x) = 0.25120 -0.12514
# Poissons Ratio (y) = 0.20916 0.18555
# Poissons Ratio (z) = -0.09759 0.17378
#
# Static dielectric constant tensor:
#      x y z
#    x 2.244810 -0.022580 -0.113610 
#    y -0.022580 2.050620 -0.036740 
#    z -0.113610 -0.036740 2.213770 
# 
# From -- ./inp_files/49956.got.cif
#   From: 2010.05.17/outbox.cif.g08.bks.cpg/sg2_25_cif.got.tgz:49956.got - 2010.06.03 11:33:40.
