data_PCOD9022726
_publ_section_title
;
Structure prediction by ZEFSAII (Michael W. Deem and Ramdas Pophale) SiO2 
 PCOD9022726
Probable space group: P -1
;
_chemical_formula_sum "Si O2"
_cell_formula_units_Z 16
_cell_length_a 10.948681
_cell_length_b 11.872538
_cell_length_c 11.203708
_cell_angle_alpha 105.271793
_cell_angle_beta 67.799955
_cell_angle_gamma 48.703001
_cell_volume 684.555472
_symmetry_space_group_name_H-M "P -1"
_symmetry_group_IT_number 2
_symmetry_cell_setting 'triclinic'
loop_
_space_group_symop_operation_xyz
x,y,z
-x,-y,-z
loop_
_atom_site_type_symbol
_atom_site_label
_atom_site_fract_x
_atom_site_fract_y
_atom_site_fract_z
Si Si1 0.845031 0.334501 0.750777
Si Si2 0.760271 0.743230 0.802109
Si Si3 0.925068 0.508824 0.159833
Si Si4 0.858710 0.283278 0.103120
Si Si5 0.366156 0.892217 0.477548
Si Si6 0.295905 0.793283 0.696495
Si Si7 0.792085 0.492715 0.565810
Si Si8 0.555449 0.330478 0.820488
O O1 0.847970 0.371746 0.624894
O O2 0.783107 0.242353 0.748852
O O3 0.616821 0.562392 0.971517
O O4 0.114252 0.155196 0.660219
O O5 0.727531 0.668233 0.693969
O O6 0.891801 0.591606 0.829583
O O7 0.965486 0.676956 0.653700
O O8 0.500000 0.000000 0.000000
O O9 0.936830 0.358464 0.109630
O O10 0.631418 0.753552 0.364818
O O11 0.000000 0.500000 0.000000
O O12 0.784729 0.274913 0.251418
O O13 0.627536 0.459866 0.143981
O O14 0.081203 0.040617 0.895920
O O15 0.337852 0.800037 0.547081
O O16 0.372314 0.838928 0.325437
O O17 0.552905 0.628049 0.622119
#
# Coordination Sequence:
#
# PCOD9022726 Si02
#       8
#     2   2   2   2   2   2   2   2
#     4  11  23  42  64  98 137 172 219 268 339 397
#     4  11  26  47  66  95 134 178 232 272 334 397
#     4  11  26  45  68  99 136 176 230 279 328 400
#     4  10  22  40  71 100 135 176 216 281 341 391
#     4  11  24  41  69  98 133 177 226 269 338 398
#     4  11  21  44  69 104 135 171 226 278 342 401
#     4  11  25  43  68  96 133 180 222 278 331 405
#     4  10  22  39  63  98 137 166 213 273 326 401
#
# _framework density 23.372834999999998
#
# number of rings (size 3 to 8) (size 9 to 14) (size 15 to 20)
#    0.000    1.250    3.750    1.125    5.250    3.000 
#    0.000    1.250    0.000    0.000    0.000    0.000 
#    0.000    0.000    0.000    0.000    0.000    0.000 
#
# Total GULP energy -89590.262445 kJ/mol
# GULP energy per Si atom -5599.391403 kJ/mol
# Density = 2.331964 g / cm^3
# Si number density = 23.372835 Si / 1000 Ang^3
#
#
#
# Elastic Constant Matrix: (Units=GPa)
#
#
# Indices 1 2 3 4 5 6 
#
# 1 69.6731 13.8586 29.5864 0.6223 -8.2392 6.1217
# 2 13.8586 91.2290 54.3917 -14.2566 -18.1884 -5.8879
# 3 29.5864 54.3917 144.4668 -2.3943 -22.7211 -6.6612
# 4 0.6223 -14.2566 -2.3943 50.8371 -5.1405 -3.1450
# 5 -8.2392 -18.1884 -22.7211 -5.1405 30.6202 -6.5202
# 6 6.1217 -5.8879 -6.6612 -3.1450 -6.5202 30.4301
#
#
#
# Elastic Compliance Matrix: (Units=1/GPa)
#
#
# Indices 1 2 3 4 5 6 
#
# 1 0.016285 -0.000901 -0.003115 -0.000799 0.000527 -0.004102
# 2 -0.000901 0.016573 -0.004445 0.005578 0.008253 0.004760
# 3 -0.003115 -0.004445 0.010097 -0.000082 0.004630 0.002961
# 4 -0.000799 0.005578 -0.000082 0.022364 0.007906 0.005228
# 5 0.000527 0.008253 0.004630 0.007906 0.045237 0.013014
# 6 -0.004102 0.004760 0.002961 0.005228 0.013014 0.038585
#
#
# Mechanical properties :
#
#
# Convention : Reuss Voigt Hill
#
# Bulk Modulus (GPa) = 38.41433 55.67135 47.04284
# Shear Modulus (GPa) = 28.61381 36.21298 32.41340
#
# Velocity S-wave (km/s) = 3.50270 3.94046 3.72801
# Velocity P-wave (km/s) = 5.72972 6.67634 6.22106
#
# Compressibility (1/GPa) = 0.02603195
#
# Stress axis : x y z
#
# Youngs Moduli (GPa) = 61.40714 60.33901 99.03899
#
# Poissons Ratio (x) = 0.05436 0.30854
# Poissons Ratio (y) = 0.05532 0.44025
# Poissons Ratio (z) = 0.19130 0.26822
#
# Static dielectric constant tensor:
#      x y z
#    x 1.900920 0.023800 0.011860 
#    y 0.023800 1.866600 0.003940 
#    z 0.011860 0.003940 1.878610 
# 
# From -- ./inp_files/428365.got.cif
#   From: 2010.05.17/outbox.cif.g08.bks.cpg/sg2_215_cif.got.tgz:428365.got - 2010.06.03 11:33:40.
