data_PCOD9022854
_publ_section_title
;
Structure prediction by ZEFSAII (Michael W. Deem and Ramdas Pophale) SiO2 
 PCOD9022854
Probable space group: P -1
;
_chemical_formula_sum "Si O2"
_cell_formula_units_Z 16
_cell_length_a 6.871033
_cell_length_b 16.570887
_cell_length_c 6.799446
_cell_angle_alpha 125.019449
_cell_angle_beta 101.292823
_cell_angle_gamma 92.159185
_cell_volume 610.795836
_symmetry_space_group_name_H-M "P -1"
_symmetry_group_IT_number 2
_symmetry_cell_setting 'triclinic'
loop_
_space_group_symop_operation_xyz
x,y,z
-x,-y,-z
loop_
_atom_site_type_symbol
_atom_site_label
_atom_site_fract_x
_atom_site_fract_y
_atom_site_fract_z
Si Si1 0.242746 0.846313 0.994088
Si Si2 0.268677 0.000554 0.509551
Si Si3 0.566754 0.393891 0.900440
Si Si4 0.773482 0.974185 0.005312
Si Si5 0.858119 0.450879 0.723134
Si Si6 0.355445 0.217236 0.840846
Si Si7 0.799402 0.754496 0.738791
Si Si8 0.768929 0.537796 0.453011
O O1 0.427323 0.796289 0.037337
O O2 0.159968 0.902083 0.241458
O O3 0.039757 0.780501 0.771753
O O4 0.328328 0.941323 0.003162
O O5 0.226093 0.001446 0.730794
O O6 0.246293 0.110137 0.585494
O O7 0.500000 0.000000 0.500000
O O8 0.691580 0.432122 0.179897
O O9 0.500000 0.500000 0.000000
O O10 0.704766 0.372899 0.714403
O O11 0.402042 0.300426 0.801133
O O12 0.709080 0.853353 0.799139
O O13 0.000000 0.000000 0.000000
O O14 0.743164 0.520526 0.659233
O O15 0.006107 0.429358 0.549621
O O16 0.000000 0.500000 0.000000
O O17 0.222787 0.247050 0.031103
O O18 0.692507 0.639513 0.514100
#
# Coordination Sequence:
#
# PCOD9022854 Si02
#       8
#     2   2   2   2   2   2   2   2
#     4  10  22  42  67  89 130 173 211 276 326 386
#     4   9  20  40  61  91 123 168 211 266 326 379
#     4  11  24  43  62  97 132 168 217 273 324 393
#     4   9  20  39  60  93 125 159 220 262 318 390
#     4   9  21  40  66  89 128 167 218 267 318 387
#     4  10  23  40  63  95 128 167 220 264 326 389
#     4  10  22  39  64  97 127 168 214 267 325 392
#     4  10  22  43  65  94 129 171 214 268 331 386
#
# _framework density 26.195336000000001
#
# number of rings (size 3 to 8) (size 9 to 14) (size 15 to 20)
#    0.000    2.250    0.000    0.750    5.250   12.000 
#    9.000    2.500    0.000    0.000    0.000    0.000 
#    0.000    0.000    0.000    0.000    0.000    0.000 
#
# Total GULP energy -89221.012259 kJ/mol
# GULP energy per Si atom -5576.313266 kJ/mol
# Density = 2.613571 g / cm^3
# Si number density = 26.195336 Si / 1000 Ang^3
#
#
#
# Elastic Constant Matrix: (Units=GPa)
#
#
# Indices 1 2 3 4 5 6 
#
# 1 63.4954 -5.4029 0.7861 -11.1719 -2.7907 21.7122
# 2 -5.4029 158.5340 46.0603 -20.0985 -8.4844 22.5401
# 3 0.7861 46.0603 84.6610 -24.6915 -12.6899 17.7024
# 4 -11.1719 -20.0985 -24.6915 60.9243 8.5236 -0.1772
# 5 -2.7907 -8.4844 -12.6899 8.5236 36.3391 -14.4964
# 6 21.7122 22.5401 17.7024 -0.1772 -14.4964 33.8798
#
#
#
# Elastic Compliance Matrix: (Units=1/GPa)
#
#
# Indices 1 2 3 4 5 6 
#
# 1 0.025424 0.003776 0.004131 0.008536 -0.007320 -0.024051
# 2 0.003776 0.008513 -0.002603 0.002753 -0.002356 -0.007717
# 3 0.004131 -0.002603 0.017268 0.006837 0.000224 -0.009807
# 4 0.008536 0.002753 0.006837 0.022615 -0.007126 -0.013805
# 5 -0.007320 -0.002356 0.000224 -0.007126 0.036887 0.021887
# 6 -0.024051 -0.007717 -0.009807 -0.013805 0.021887 0.064481
#
#
# Mechanical properties :
#
#
# Convention : Reuss Voigt Hill
#
# Bulk Modulus (GPa) = 16.17786 43.28637 29.73211
# Shear Modulus (GPa) = 27.00016 43.91177 35.45597
#
# Velocity S-wave (km/s) = 3.21397 4.09873 3.68302
# Velocity P-wave (km/s) = 4.46789 6.24178 5.42779
#
# Compressibility (1/GPa) = 0.06181289
#
# Stress axis : x y z
#
# Youngs Moduli (GPa) = 39.33302 117.46807 57.91096
#
# Poissons Ratio (x) = -0.44359 -0.23922
# Poissons Ratio (y) = -0.14853 0.15075
# Poissons Ratio (z) = -0.16248 0.30579
#
# Static dielectric constant tensor:
#      x y z
#    x 2.223420 -0.125030 0.105940 
#    y -0.125030 2.110680 -0.012000 
#    z 0.105940 -0.012000 2.163750 
# 
# From -- ./inp_files/39891.got.cif
#   From: 2010.05.17/outbox.cif.g08.bks.cpg/sg2_20_cif.got.tgz:39891.got - 2010.06.03 11:33:40.
