data_PCOD9022545
_publ_section_title
;
Structure prediction by ZEFSAII (Michael W. Deem and Ramdas Pophale) SiO2 
 PCOD9022545
Probable space group: P -1
;
_chemical_formula_sum "Si O2"
_cell_formula_units_Z 14
_cell_length_a 8.612212
_cell_length_b 9.313716
_cell_length_c 17.222409
_cell_angle_alpha 58.543851
_cell_angle_beta 33.825206
_cell_angle_gamma 62.590144
_cell_volume 654.933542
_symmetry_space_group_name_H-M "P -1"
_symmetry_group_IT_number 2
_symmetry_cell_setting 'triclinic'
loop_
_space_group_symop_operation_xyz
x,y,z
-x,-y,-z
loop_
_atom_site_type_symbol
_atom_site_label
_atom_site_fract_x
_atom_site_fract_y
_atom_site_fract_z
Si Si1 0.504309 0.726492 0.759334
Si Si2 0.495590 0.066656 0.569169
Si Si3 0.506743 0.885382 0.142072
Si Si4 0.225133 0.477383 0.842355
Si Si5 0.121761 0.848389 0.164377
Si Si6 0.919015 0.880119 0.637792
Si Si7 0.214249 0.589650 0.063111
O O1 0.460499 0.596914 0.743839
O O2 0.787072 0.723206 0.694047
O O3 0.481872 0.910371 0.678903
O O4 0.281959 0.697955 0.927652
O O5 0.782616 0.157596 0.435739
O O6 0.195429 0.157344 0.676619
O O7 0.500000 0.000000 0.500000
O O8 0.634870 0.711046 0.174668
O O9 0.320478 0.829248 0.162363
O O10 0.308407 0.013774 0.242191
O O11 0.763342 0.985091 0.971933
O O12 0.035195 0.521083 0.833107
O O13 0.000000 0.500000 0.000000
O O14 0.141058 0.709229 0.130205
O O15 0.000000 0.000000 0.500000
O O16 0.500000 0.500000 0.000000
#
# Coordination Sequence:
#
# PCOD9022545 Si02
#       7
#     2   2   2   2   2   2   2
#     4  10  22  42  64  93 129 173 210 266 323 379
#     4  11  23  41  65  95 134 170 217 264 326 381
#     4  11  22  40  67  98 126 170 220 264 324 384
#     4  10  22  39  62  95 130 162 213 271 323 377
#     4  11  22  37  67  98 127 166 220 271 315 386
#     4  10  22  41  65  93 129 173 215 262 318 387
#     4  11  23  39  67  98 131 163 213 274 329 378
#
# _framework density 21.376213
#
# number of rings (size 3 to 8) (size 9 to 14) (size 15 to 20)
#    0.000    1.429    2.857    3.429    4.000    3.429 
#    0.000    2.857    0.000    2.571    0.000    0.000 
#    0.000    0.000    0.000    0.000    0.000    0.000 
#
# Total GULP energy -77982.506651 kJ/mol
# GULP energy per Si atom -5570.179046 kJ/mol
# Density = 2.132756 g / cm^3
# Si number density = 21.376213 Si / 1000 Ang^3
#
#
#
# Elastic Constant Matrix: (Units=GPa)
#
#
# Indices 1 2 3 4 5 6 
#
# 1 178.8356 42.6719 42.7956 10.7792 -34.1285 40.2080
# 2 42.6719 44.2362 23.2182 12.1411 -13.8752 19.8745
# 3 42.7956 23.2182 81.7534 11.3275 -15.8855 8.5216
# 4 10.7792 12.1411 11.3275 27.2880 0.3532 1.2565
# 5 -34.1285 -13.8752 -15.8855 0.3532 52.4636 -10.4266
# 6 40.2080 19.8745 8.5216 1.2565 -10.4266 38.0421
#
#
#
# Elastic Compliance Matrix: (Units=1/GPa)
#
#
# Indices 1 2 3 4 5 6 
#
# 1 0.009036 -0.003444 -0.002400 -0.000786 0.002980 -0.006371
# 2 -0.003444 0.040419 -0.005471 -0.013726 0.003961 -0.014711
# 3 -0.002400 -0.005471 0.015665 -0.003270 0.002277 0.002618
# 4 -0.000786 -0.013726 -0.003270 0.044194 -0.004213 0.006120
# 5 0.002980 0.003961 0.002277 -0.004213 0.022901 0.000687
# 6 -0.006371 -0.014711 0.002618 0.006120 0.000687 0.040106
#
#
# Mechanical properties :
#
#
# Convention : Reuss Voigt Hill
#
# Bulk Modulus (GPa) = 23.53533 58.02183 40.77858
# Shear Modulus (GPa) = 23.91018 36.63471 30.27244
#
# Velocity S-wave (km/s) = 3.34809 4.14431 3.76729
# Velocity P-wave (km/s) = 5.09708 7.07831 6.16777
#
# Compressibility (1/GPa) = 0.04248931
#
# Stress axis : x y z
#
# Youngs Moduli (GPa) = 110.66372 24.74063 63.83727
#
# Poissons Ratio (x) = 0.08521 0.15322
# Poissons Ratio (y) = 0.38116 0.34927
# Poissons Ratio (z) = 0.26560 0.13536
#
# Static dielectric constant tensor:
#      x y z
#    x 1.830070 -0.011430 -0.054220 
#    y -0.011430 1.763630 -0.039700 
#    z -0.054220 -0.039700 1.712920 
# 
# From -- ./inp_files/158264.got.cif
#   From: 2010.05.17/outbox.cif.g08.bks.cpg/sg2_80_cif.got.tgz:158264.got - 2010.06.03 11:33:40.
