data_PCOD9022093
_publ_section_title
;
Structure prediction by ZEFSAII (Michael W. Deem and Ramdas Pophale) SiO2 
 PCOD9022093
Probable space group: P -1
;
_chemical_formula_sum "Si O2"
_cell_formula_units_Z 15
_cell_length_a 17.567262
_cell_length_b 4.971888
_cell_length_c 9.022072
_cell_angle_alpha 70.584282
_cell_angle_beta 64.190464
_cell_angle_gamma 50.203458
_cell_volume 543.401978
_symmetry_space_group_name_H-M "P -1"
_symmetry_group_IT_number 2
_symmetry_cell_setting 'triclinic'
loop_
_space_group_symop_operation_xyz
x,y,z
-x,-y,-z
loop_
_atom_site_type_symbol
_atom_site_label
_atom_site_fract_x
_atom_site_fract_y
_atom_site_fract_z
Si Si1 0.781338 0.495028 0.013814
Si Si2 0.978110 0.467564 0.849889
Si Si3 0.475779 0.823491 0.274884
Si Si4 0.153044 0.740001 0.310735
Si Si5 0.318985 0.837290 0.686742
Si Si6 0.595978 0.102141 0.974981
Si Si7 0.308301 0.460805 0.494974
Si Si8 0.000000 0.500000 0.500000
O O1 0.897921 0.365573 0.958697
O O2 0.771980 0.453165 0.854960
O O3 0.700167 0.920314 0.016887
O O4 0.752504 0.260202 0.159516
O O5 0.045944 0.277559 0.676691
O O6 0.916922 0.852317 0.749910
O O7 0.000000 0.500000 0.000000
O O8 0.559903 0.418861 0.319702
O O9 0.391731 0.899070 0.210695
O O10 0.414869 0.130848 0.390872
O O11 0.552573 0.888792 0.110876
O O12 0.220820 0.681623 0.406282
O O13 0.081114 0.605565 0.419436
O O14 0.325062 0.696673 0.541384
O O15 0.275702 0.241058 0.655610
O O16 0.500000 0.500000 0.000000
#
# Coordination Sequence:
#
# PCOD9022093 Si02
#       8
#     2   2   2   2   2   2   2   1
#     4  10  25  46  69 109 144 196 254 305 378 460
#     4  11  27  48  80 109 148 196 250 325 387 474
#     4  10  23  41  63 102 140 200 249 306 365 442
#     4  11  26  46  77 103 149 193 249 311 388 458
#     4  11  28  43  70 107 151 198 250 308 370 447
#     4  10  22  38  71  99 149 196 248 309 366 444
#     4  12  27  45  72 105 150 196 246 315 374 444
#     4  10  26  50  72 112 146 186 256 308 402 458
#
# _framework density 27.603871000000002
#
# number of rings (size 3 to 8) (size 9 to 14) (size 15 to 20)
#    0.000    1.333    1.333    1.200   14.933    3.200 
#    0.000    0.000    0.000    0.000    0.000    0.000 
#    0.000    0.000    0.000    0.000    0.000    0.000 
#
# Total GULP energy -83647.381261 kJ/mol
# GULP energy per Si atom -5576.492084 kJ/mol
# Density = 2.754104 g / cm^3
# Si number density = 27.603871 Si / 1000 Ang^3
#
#
#
# Elastic Constant Matrix: (Units=GPa)
#
#
# Indices 1 2 3 4 5 6 
#
# 1 80.4201 10.3414 35.1681 -19.6554 17.6636 -2.1950
# 2 10.3414 71.8445 -2.0672 -21.8398 8.5914 -4.5575
# 3 35.1681 -2.0672 151.3995 -16.1943 -15.6445 -17.4195
# 4 -19.6554 -21.8398 -16.1943 39.9224 -3.6936 5.5067
# 5 17.6636 8.5914 -15.6445 -3.6936 60.1942 -8.5558
# 6 -2.1950 -4.5575 -17.4195 5.5067 -8.5558 28.2404
#
#
#
# Elastic Compliance Matrix: (Units=1/GPa)
#
#
# Indices 1 2 3 4 5 6 
#
# 1 0.017378 -0.000116 -0.004543 0.006702 -0.006528 -0.004755
# 2 -0.000116 0.017107 0.001294 0.009527 -0.001302 0.001298
# 3 -0.004543 0.001294 0.009073 0.001675 0.004533 0.006499
# 4 0.006702 0.009527 0.001675 0.034677 -0.001343 -0.004077
# 5 -0.006528 -0.001302 0.004533 -0.001343 0.021049 0.008718
# 6 -0.004755 0.001298 0.006499 -0.004077 0.008718 0.042695
#
#
# Mechanical properties :
#
#
# Convention : Reuss Voigt Hill
#
# Bulk Modulus (GPa) = 27.15237 43.39430 35.27334
# Shear Modulus (GPa) = 31.05843 43.01952 37.03898
#
# Velocity S-wave (km/s) = 3.35796 3.95202 3.66704
# Velocity P-wave (km/s) = 4.98922 6.04806 5.54398
#
# Compressibility (1/GPa) = 0.03682919
#
# Stress axis : x y z
#
# Youngs Moduli (GPa) = 57.54249 58.45561 110.21233
#
# Poissons Ratio (x) = 0.00678 0.50072
# Poissons Ratio (y) = 0.00667 -0.14265
# Poissons Ratio (z) = 0.26143 -0.07566
#
# Static dielectric constant tensor:
#      x y z
#    x 2.171240 -0.330440 -0.088830 
#    y -0.330440 1.361600 -0.593800 
#    z -0.088830 -0.593800 1.859380 
# 
# From -- ./inp_files/42780.got.cif
#   From: 2010.05.17/outbox.cif.g08.bks.cpg/sg2_22_cif.got.tgz:42780.got - 2010.06.03 11:33:40.
