data_PCOD9022463
_publ_section_title
;
Structure prediction by ZEFSAII (Michael W. Deem and Ramdas Pophale) SiO2 
 PCOD9022463
Probable space group: P -1
;
_chemical_formula_sum "Si O2"
_cell_formula_units_Z 16
_cell_length_a 14.181616
_cell_length_b 8.410500
_cell_length_c 14.381040
_cell_angle_alpha 152.140662
_cell_angle_beta 65.120842
_cell_angle_gamma 121.100895
_cell_volume 683.563685
_symmetry_space_group_name_H-M "P -1"
_symmetry_group_IT_number 2
_symmetry_cell_setting 'triclinic'
loop_
_space_group_symop_operation_xyz
x,y,z
-x,-y,-z
loop_
_atom_site_type_symbol
_atom_site_label
_atom_site_fract_x
_atom_site_fract_y
_atom_site_fract_z
Si Si1 0.523598 0.309820 0.731256
Si Si2 0.915531 0.858555 0.851508
Si Si3 0.580622 0.311190 0.409903
Si Si4 0.079941 0.274814 0.864656
Si Si5 0.219554 0.848364 0.802118
Si Si6 0.998592 0.740127 0.451976
Si Si7 0.697819 0.678247 0.160792
Si Si8 0.281041 0.517837 0.376459
O O1 0.433089 0.509775 0.867746
O O2 0.648077 0.532553 0.768485
O O3 0.500000 0.000000 0.500000
O O4 0.495286 0.077485 0.717231
O O5 0.928770 0.520558 0.726225
O O6 0.842097 0.728738 0.722746
O O7 0.037697 0.080520 0.879872
O O8 0.854986 0.078913 0.048805
O O9 0.500000 0.500000 0.500000
O O10 0.673907 0.266382 0.278953
O O11 0.653935 0.519220 0.576286
O O12 0.211341 0.479770 0.921081
O O13 0.051881 0.982288 0.643476
O O14 0.000000 0.500000 0.000000
O O15 0.128952 0.515252 0.613558
O O16 0.272122 0.195240 0.892706
O O17 0.000000 0.000000 0.500000
O O18 0.719645 0.070081 0.404023
#
# Coordination Sequence:
#
# PCOD9022463 Si02
#       8
#     2   2   2   2   2   2   2   2
#     4   7  15  32  58  85 107 153 208 236 304 367
#     4  12  23  41  64  88 131 168 204 261 306 374
#     4   9  18  36  61  86 119 159 207 259 307 359
#     4  12  24  39  63  92 124 163 212 251 311 373
#     4  10  22  39  62  88 125 165 208 252 317 358
#     4  12  25  40  61  94 124 164 210 257 314 370
#     4   9  17  37  61  83 118 165 197 253 301 370
#     4   9  18  37  62  88 112 164 209 240 318 366
#
# _framework density 23.406742999999999
#
# number of rings (size 3 to 8) (size 9 to 14) (size 15 to 20)
#    0.000    2.500    2.500    3.000    1.750    1.000 
#    9.000    3.125    2.750    0.000    0.000    0.000 
#    0.000    0.000    0.000    0.000    0.000    0.000 
#
# Total GULP energy -89260.534051 kJ/mol
# GULP energy per Si atom -5578.783378 kJ/mol
# Density = 2.335347 g / cm^3
# Si number density = 23.406743 Si / 1000 Ang^3
#
#
#
# Elastic Constant Matrix: (Units=GPa)
#
#
# Indices 1 2 3 4 5 6 
#
# 1 151.9171 22.7319 37.2537 -1.4562 -44.8640 -6.5590
# 2 22.7319 61.0238 17.0590 -17.1944 -16.8671 3.2157
# 3 37.2537 17.0590 67.5203 -21.5190 -20.2530 -9.8825
# 4 -1.4562 -17.1944 -21.5190 29.2790 2.5353 -6.7886
# 5 -44.8640 -16.8671 -20.2530 2.5353 47.2986 1.0833
# 6 -6.5590 3.2157 -9.8825 -6.7886 1.0833 29.5130
#
#
#
# Elastic Compliance Matrix: (Units=1/GPa)
#
#
# Indices 1 2 3 4 5 6 
#
# 1 0.009993 -0.001734 -0.004369 -0.004438 0.007235 -0.000340
# 2 -0.001734 0.022124 0.001753 0.013827 0.006238 0.000743
# 3 -0.004369 0.001753 0.028787 0.024564 0.007173 0.013864
# 4 -0.004438 0.013827 0.024564 0.064160 0.007337 0.020221
# 5 0.007235 0.006238 0.007173 0.007337 0.032820 0.003813
# 6 -0.000340 0.000743 0.013864 0.020221 0.003813 0.042881
#
#
# Mechanical properties :
#
#
# Convention : Reuss Voigt Hill
#
# Bulk Modulus (GPa) = 19.15533 48.28338 33.71935
# Shear Modulus (GPa) = 22.03948 34.77922 28.40935
#
# Velocity S-wave (km/s) = 3.07186 3.85887 3.48764
# Velocity P-wave (km/s) = 4.55886 6.36610 5.53672
#
# Compressibility (1/GPa) = 0.05220480
#
# Stress axis : x y z
#
# Youngs Moduli (GPa) = 100.07169 45.20059 34.73732
#
# Poissons Ratio (x) = 0.07837 0.15178
# Poissons Ratio (y) = 0.17350 -0.06091
# Poissons Ratio (z) = 0.43724 -0.07926
#
# Static dielectric constant tensor:
#      x y z
#    x 1.930640 0.004960 0.022660 
#    y 0.004960 1.965260 -0.013610 
#    z 0.022660 -0.013610 1.919680 
# 
# From -- ./inp_files/530299.got.cif
#   From: 2010.05.17/outbox.cif.g08.bks.cpg/sg2_266_cif.got.tgz:530299.got - 2010.06.03 11:33:40.
