data_PCOD9022119
_publ_section_title
;
Structure prediction by ZEFSAII (Michael W. Deem and Ramdas Pophale) SiO2 
 PCOD9022119
Probable space group: P -1
;
_chemical_formula_sum "Si O2"
_cell_formula_units_Z 16
_cell_length_a 13.166480
_cell_length_b 20.292168
_cell_length_c 12.121528
_cell_angle_alpha 142.542055
_cell_angle_beta 62.546477
_cell_angle_gamma 145.117072
_cell_volume 943.220450
_symmetry_space_group_name_H-M "P -1"
_symmetry_group_IT_number 2
_symmetry_cell_setting 'triclinic'
loop_
_space_group_symop_operation_xyz
x,y,z
-x,-y,-z
loop_
_atom_site_type_symbol
_atom_site_label
_atom_site_fract_x
_atom_site_fract_y
_atom_site_fract_z
Si Si1 0.632453 0.715258 0.108606
Si Si2 0.320010 0.844212 0.790086
Si Si3 0.517463 0.629742 0.311942
Si Si4 0.120334 0.460055 0.322586
Si Si5 0.037178 0.945799 0.309826
Si Si6 0.428173 0.946346 0.283341
Si Si7 0.440959 0.773203 0.226956
Si Si8 0.973122 0.646573 0.016592
O O1 0.551468 0.671866 0.218042
O O2 0.611205 0.812117 0.187767
O O3 0.867218 0.851758 0.181352
O O4 0.490143 0.505808 0.851046
O O5 0.227501 0.648318 0.577311
O O6 0.110229 0.749412 0.789998
O O7 0.423011 0.944374 0.752462
O O8 0.500000 0.000000 0.000000
O O9 0.297226 0.508069 0.295262
O O10 0.713996 0.843038 0.558160
O O11 0.069551 0.446513 0.202152
O O12 0.985810 0.783966 0.161283
O O13 0.000000 0.000000 0.500000
O O14 0.429431 0.839027 0.213238
O O15 0.193923 0.787276 0.145805
O O16 0.502589 0.102990 0.534426
O O17 0.219170 0.537357 0.051524
#
# Coordination Sequence:
#
# PCOD9022119 Si02
#       8
#     2   2   2   2   2   2   2   2
#     4  10  17  31  50  78 108 143 171 219 274 319
#     4  11  22  37  56  77 107 144 187 230 264 314
#     4  10  18  31  50  79 111 136 175 223 275 320
#     4  11  21  33  56  81 108 140 176 232 275 316
#     4  10  19  27  51  80 112 140 172 218 271 329
#     4  11  23  37  54  80 111 151 182 216 271 324
#     4  11  22  36  55  79 118 146 176 219 267 341
#     4  12  19  34  54  82 116 140 177 223 276 321
#
# _framework density 16.963160999999999
#
# number of rings (size 3 to 8) (size 9 to 14) (size 15 to 20)
#    0.000    1.250    5.000    4.125    0.000    0.000 
#    0.000    0.000    0.000    0.750    0.000    1.750 
#    0.000    0.000    0.000    0.000    0.000    0.000 
#
# Total GULP energy -89248.121676 kJ/mol
# GULP energy per Si atom -5578.007605 kJ/mol
# Density = 1.692455 g / cm^3
# Si number density = 16.963161 Si / 1000 Ang^3
#
#
#
# Elastic Constant Matrix: (Units=GPa)
#
#
# Indices 1 2 3 4 5 6 
#
# 1 141.4559 53.4242 50.6328 19.8110 -2.3344 7.9776
# 2 53.4242 77.4802 35.6423 14.6390 12.5356 11.3839
# 3 50.6328 35.6423 96.7781 18.7970 3.7788 2.4739
# 4 19.8110 14.6390 18.7970 24.2404 3.5288 3.9741
# 5 -2.3344 12.5356 3.7788 3.5288 24.3725 4.9251
# 6 7.9776 11.3839 2.4739 3.9741 4.9251 26.1073
#
#
#
# Elastic Compliance Matrix: (Units=1/GPa)
#
#
# Indices 1 2 3 4 5 6 
#
# 1 0.011223 -0.006456 -0.002984 -0.003632 0.005551 -0.000826
# 2 -0.006456 0.021891 -0.003610 -0.002896 -0.009904 -0.004921
# 3 -0.002984 -0.003610 0.014530 -0.006992 -0.000113 0.002195
# 4 -0.003632 -0.002896 -0.006992 0.052735 -0.004575 -0.004129
# 5 0.005551 -0.009904 -0.000113 -0.004575 0.048512 -0.005822
# 6 -0.000826 -0.004921 0.002195 -0.004129 -0.005822 0.042221
#
#
# Mechanical properties :
#
#
# Convention : Reuss Voigt Hill
#
# Bulk Modulus (GPa) = 46.41573 66.12365 56.26969
# Shear Modulus (GPa) = 22.28240 26.67836 24.48038
#
# Velocity S-wave (km/s) = 3.62826 3.97006 3.80300
# Velocity P-wave (km/s) = 6.70630 7.75116 7.24758
#
# Compressibility (1/GPa) = 0.02154442
#
# Stress axis : x y z
#
# Youngs Moduli (GPa) = 89.10663 45.68021 68.82431
#
# Poissons Ratio (x) = 0.29491 0.20537
# Poissons Ratio (y) = 0.57528 0.24842
# Poissons Ratio (z) = 0.26589 0.16488
#
# Static dielectric constant tensor:
#      x y z
#    x 1.588910 0.042420 0.011730 
#    y 0.042420 1.581670 0.016220 
#    z 0.011730 0.016220 1.615890 
# 
# From -- ./inp_files/432835.got.cif
#   From: 2010.05.17/outbox.cif.g08.bks.cpg/sg2_217_cif.got.tgz:432835.got - 2010.06.03 11:33:40.
