data_PCOD9022164
_publ_section_title
;
Structure prediction by ZEFSAII (Michael W. Deem and Ramdas Pophale) SiO2 
 PCOD9022164
Probable space group: P -1
;
_chemical_formula_sum "Si O2"
_cell_formula_units_Z 12
_cell_length_a 19.720456
_cell_length_b 11.418955
_cell_length_c 13.341448
_cell_angle_alpha 147.420936
_cell_angle_beta 29.006377
_cell_angle_gamma 157.310152
_cell_volume 551.585329
_symmetry_space_group_name_H-M "P -1"
_symmetry_group_IT_number 2
_symmetry_cell_setting 'triclinic'
loop_
_space_group_symop_operation_xyz
x,y,z
-x,-y,-z
loop_
_atom_site_type_symbol
_atom_site_label
_atom_site_fract_x
_atom_site_fract_y
_atom_site_fract_z
Si Si1 0.896698 0.168217 0.931128
Si Si2 0.449573 0.332561 0.722094
Si Si3 0.170270 0.363909 0.450127
Si Si4 0.037012 0.676735 0.825205
Si Si5 0.626514 0.296728 0.980091
Si Si6 0.439940 0.697854 0.148855
O O1 0.973274 0.207027 0.972292
O O2 0.664263 0.974953 0.093496
O O3 0.000000 0.500000 0.000000
O O4 0.916351 0.974696 0.696763
O O5 0.659948 0.446886 0.546448
O O6 0.252176 0.970440 0.710615
O O7 0.446792 0.532624 0.793858
O O8 0.431205 0.445802 0.931963
O O9 0.025661 0.409118 0.676663
O O10 0.285175 0.538960 0.323103
O O11 0.856154 0.539140 0.888929
O O12 0.602089 0.210588 0.831599
O O13 0.500000 0.000000 0.000000
#
# Coordination Sequence:
#
# PCOD9022164 Si02
#       6
#     2   2   2   2   2   2
#     4  11  21  38  60  86 122 160 192 239 298 356
#     4   9  19  38  61  85 119 158 193 239 298 345
#     4  11  21  39  63  94 116 147 209 255 280 346
#     4  12  22  36  67  92 111 158 207 241 294 352
#     4  10  22  39  58  87 127 162 187 242 308 353
#     4   9  19  39  61  80 123 155 194 240 296 340
#
# _framework density 21.755474
#
# number of rings (size 3 to 8) (size 9 to 14) (size 15 to 20)
#    1.000    0.667    3.333    3.000    0.000    1.333 
#    0.000    0.000    0.000    3.000    0.000    0.000 
#    0.000    0.000    0.000    0.000    0.000    0.000 
#
# Total GULP energy -66944.416563 kJ/mol
# GULP energy per Si atom -5578.701380 kJ/mol
# Density = 2.170596 g / cm^3
# Si number density = 21.755474 Si / 1000 Ang^3
#
#
#
# Elastic Constant Matrix: (Units=GPa)
#
#
# Indices 1 2 3 4 5 6 
#
# 1 132.7990 39.1778 10.2086 -1.3648 -25.0139 1.8349
# 2 39.1778 110.3022 3.3731 23.8326 -2.1743 -12.2781
# 3 10.2086 3.3731 64.1533 21.2583 -8.6383 3.5348
# 4 -1.3648 23.8326 21.2583 26.0216 -6.7296 -11.9236
# 5 -25.0139 -2.1743 -8.6383 -6.7296 21.0261 0.3167
# 6 1.8349 -12.2781 3.5348 -11.9236 0.3167 36.0761
#
#
#
# Elastic Compliance Matrix: (Units=1/GPa)
#
#
# Indices 1 2 3 4 5 6 
#
# 1 0.014566 -0.008640 -0.006132 0.020604 0.020457 0.003550
# 2 -0.008640 0.017314 0.008149 -0.028325 -0.014150 -0.003704
# 3 -0.006132 0.008149 0.028743 -0.038761 -0.006861 -0.012482
# 4 0.020604 -0.028325 -0.038761 0.124203 0.044902 0.033766
# 5 0.020457 -0.014150 -0.006861 0.044902 0.081852 0.008938
# 6 0.003550 -0.003704 -0.012482 0.033766 0.008938 0.038583
#
#
# Mechanical properties :
#
#
# Convention : Reuss Voigt Hill
#
# Bulk Modulus (GPa) = 21.10643 45.86371 33.48507
# Shear Modulus (GPa) = 14.95668 33.59109 24.27388
#
# Velocity S-wave (km/s) = 2.62485 3.93368 3.34392
# Velocity P-wave (km/s) = 4.34847 6.46212 5.50764
#
# Compressibility (1/GPa) = 0.04737893
#
# Stress axis : x y z
#
# Youngs Moduli (GPa) = 68.65101 57.75557 34.79128
#
# Poissons Ratio (x) = 0.49899 0.21334
# Poissons Ratio (y) = 0.59312 -0.28352
# Poissons Ratio (z) = 0.42097 -0.47067
#
# Static dielectric constant tensor:
#      x y z
#    x 1.812310 -0.031880 -0.002130 
#    y -0.031880 1.821010 0.003180 
#    z -0.002130 0.003180 1.837130 
# 
# From -- ./inp_files/156470.got.cif
#   From: 2010.05.17/outbox.cif.g08.bks.cpg/sg2_79_cif.got.tgz:156470.got - 2010.06.03 11:33:40.
