data_PCOD9022276
_publ_section_title
;
Structure prediction by ZEFSAII (Michael W. Deem and Ramdas Pophale) SiO2 
 PCOD9022276
Probable space group: P -1
;
_chemical_formula_sum "Si O2"
_cell_formula_units_Z 14
_cell_length_a 21.784367
_cell_length_b 25.304902
_cell_length_c 8.776571
_cell_angle_alpha 32.524560
_cell_angle_beta 36.037872
_cell_angle_gamma 16.991706
_cell_volume 760.093916
_symmetry_space_group_name_H-M "P -1"
_symmetry_group_IT_number 2
_symmetry_cell_setting 'triclinic'
loop_
_space_group_symop_operation_xyz
x,y,z
-x,-y,-z
loop_
_atom_site_type_symbol
_atom_site_label
_atom_site_fract_x
_atom_site_fract_y
_atom_site_fract_z
Si Si1 0.995936 0.119501 0.708528
Si Si2 0.675684 0.539014 0.389385
Si Si3 0.355192 0.956702 0.482864
Si Si4 0.307306 0.943409 0.282360
Si Si5 0.280945 0.357909 0.238100
Si Si6 0.959736 0.647874 0.708932
Si Si7 0.849178 0.747834 0.338098
O O1 0.772531 0.352144 0.624514
O O2 0.171069 0.024506 0.700565
O O3 0.086806 0.083767 0.450658
O O4 0.000000 0.000000 0.000000
O O5 0.447040 0.741591 0.426391
O O6 0.839583 0.459953 0.364393
O O7 0.681659 0.593490 0.086618
O O8 0.417254 0.898249 0.323329
O O9 0.541606 0.786568 0.637952
O O10 0.237190 0.154865 0.274084
O O11 0.274789 0.057387 0.951700
O O12 0.271782 0.256410 0.429951
O O13 0.058666 0.563234 0.264609
O O14 0.909889 0.713559 0.474711
O O15 0.000000 0.500000 0.000000
#
# Coordination Sequence:
#
# PCOD9022276 Si02
#       7
#     2   2   2   2   2   2   2
#     4   9  21  44  63  85 116 150 198 256 300 342
#     4  11  21  39  61  87 123 152 200 241 289 356
#     4   9  22  38  55  87 118 152 199 243 290 349
#     4  10  22  39  60  90 112 162 194 243 295 349
#     4  11  21  36  56  87 124 161 193 238 287 348
#     4  11  21  35  54  86 120 166 194 232 288 342
#     4  11  22  34  58  85 127 163 194 232 286 352
#
# _framework density 18.418775
#
# number of rings (size 3 to 8) (size 9 to 14) (size 15 to 20)
#    0.857    0.857    2.857    1.714    4.000    2.286 
#    0.000    0.714    0.000    4.286    0.000    0.000 
#    0.000    0.000    0.000    0.000    0.000    0.000 
#
# Total GULP energy -78094.425891 kJ/mol
# GULP energy per Si atom -5578.173278 kJ/mol
# Density = 1.837685 g / cm^3
# Si number density = 18.418775 Si / 1000 Ang^3
#
#
#
# Elastic Constant Matrix: (Units=GPa)
#
#
# Indices 1 2 3 4 5 6 
#
# 1 60.5399 18.3762 46.6331 -13.5115 16.7662 5.3051
# 2 18.3762 69.3127 19.2213 -27.9177 -6.9999 22.8127
# 3 46.6331 19.2213 107.5140 -28.7509 -7.2108 10.5027
# 4 -13.5115 -27.9177 -28.7509 28.2556 7.8920 -0.6370
# 5 16.7662 -6.9999 -7.2108 7.8920 39.0429 -6.3440
# 6 5.3051 22.8127 10.5027 -0.6370 -6.3440 30.9676
#
#
#
# Elastic Compliance Matrix: (Units=1/GPa)
#
#
# Indices 1 2 3 4 5 6 
#
# 1 0.036456 -0.008314 -0.016260 -0.001833 -0.019559 0.001349
# 2 -0.008314 0.048706 0.014117 0.058537 -0.003210 -0.038697
# 3 -0.016260 0.014117 0.022917 0.027516 0.005975 -0.013596
# 4 -0.001833 0.058537 0.027516 0.123994 -0.017334 -0.053141
# 5 -0.019559 -0.003210 0.005975 -0.017334 0.039914 0.011510
# 6 0.001349 -0.038697 -0.013596 -0.053141 0.011510 0.066444
#
#
# Mechanical properties :
#
#
# Convention : Reuss Voigt Hill
#
# Bulk Modulus (GPa) = 11.47240 45.09197 28.28218
# Shear Modulus (GPa) = 12.87338 29.86227 21.36782
#
# Velocity S-wave (km/s) = 2.64659 4.03090 3.40974
# Velocity P-wave (km/s) = 3.94733 6.79697 5.55789
#
# Compressibility (1/GPa) = 0.08716573
#
# Stress axis : x y z
#
# Youngs Moduli (GPa) = 27.43059 20.53125 43.63582
#
# Poissons Ratio (x) = 0.17069 0.70951
# Poissons Ratio (y) = 0.22805 -0.61600
# Poissons Ratio (z) = 0.44601 -0.28984
#
# Static dielectric constant tensor:
#      x y z
#    x 1.622130 0.014290 -0.001510 
#    y 0.014290 1.677920 -0.005580 
#    z -0.001510 -0.005580 1.597310 
# 
# From -- ./inp_files/203571.got.cif
#   From: 2010.05.17/outbox.cif.g08.bks.cpg/sg2_102_cif.got.tgz:203571.got - 2010.06.03 11:33:40.
