data_PCOD9022738
_publ_section_title
;
Structure prediction by ZEFSAII (Michael W. Deem and Ramdas Pophale) SiO2 
 PCOD9022738
Probable space group: P -1
;
_chemical_formula_sum "Si O2"
_cell_formula_units_Z 14
_cell_length_a 4.984130
_cell_length_b 10.212536
_cell_length_c 11.906735
_cell_angle_alpha 66.897743
_cell_angle_beta 83.065627
_cell_angle_gamma 72.764741
_cell_volume 532.418817
_symmetry_space_group_name_H-M "P -1"
_symmetry_group_IT_number 2
_symmetry_cell_setting 'triclinic'
loop_
_space_group_symop_operation_xyz
x,y,z
-x,-y,-z
loop_
_atom_site_type_symbol
_atom_site_label
_atom_site_fract_x
_atom_site_fract_y
_atom_site_fract_z
Si Si1 0.059484 0.343370 0.387722
Si Si2 0.441482 0.727106 0.997441
Si Si3 0.825638 0.537151 0.881298
Si Si4 0.372499 0.193945 0.815107
Si Si5 0.808808 0.961756 0.617839
Si Si6 0.514514 0.288812 0.551644
Si Si7 0.984283 0.997851 0.838676
O O1 0.010439 0.444379 0.245604
O O2 0.239204 0.188105 0.374898
O O3 0.260554 0.380679 0.458558
O O4 0.791655 0.320698 0.475339
O O5 0.593463 0.685956 0.883963
O O6 0.177270 0.868865 0.946903
O O7 0.330900 0.588909 0.086209
O O8 0.652677 0.747697 0.076749
O O9 0.000000 0.500000 0.000000
O O10 0.449802 0.304191 0.682298
O O11 0.117252 0.135869 0.801237
O O12 0.652578 0.055360 0.857757
O O13 0.557287 0.110170 0.597131
O O14 0.000000 0.000000 0.500000
O O15 0.986768 0.940100 0.730902
#
# Coordination Sequence:
#
# PCOD9022738 Si02
#       7
#     2   2   2   2   2   2   2
#     4  11  23  41  67  93 137 174 227 273 331 395
#     4  11  27  45  69  98 135 182 230 279 332 399
#     4  11  28  46  70  96 133 185 234 280 325 394
#     4  11  24  45  70 104 140 171 220 279 346 410
#     4   9  19  34  62  96 135 168 209 270 333 395
#     4  10  22  39  64 100 132 175 215 275 341 401
#     4  11  24  40  70 105 136 176 219 277 348 404
#
# _framework density 26.295089000000001
#
# number of rings (size 3 to 8) (size 9 to 14) (size 15 to 20)
#    0.000    1.429    0.000    4.714   16.000    0.000 
#    0.000    1.429    0.000    0.000    0.000    0.000 
#    0.000    0.000    0.000    0.000    0.000    0.000 
#
# Total GULP energy -78419.579819 kJ/mol
# GULP energy per Si atom -5601.398558 kJ/mol
# Density = 2.623524 g / cm^3
# Si number density = 26.295089 Si / 1000 Ang^3
#
#
#
# Elastic Constant Matrix: (Units=GPa)
#
#
# Indices 1 2 3 4 5 6 
#
# 1 105.6721 10.1110 37.1391 5.8358 4.2807 6.4077
# 2 10.1110 63.1262 28.0300 13.3846 -4.6446 -1.7947
# 3 37.1391 28.0300 191.2236 9.8598 0.9356 5.8223
# 4 5.8358 13.3846 9.8598 31.1861 0.5099 5.9652
# 5 4.2807 -4.6446 0.9356 0.5099 54.3933 3.2563
# 6 6.4077 -1.7947 5.8223 5.9652 3.2563 33.0627
#
#
#
# Elastic Compliance Matrix: (Units=1/GPa)
#
#
# Indices 1 2 3 4 5 6 
#
# 1 0.010336 -0.000802 -0.001803 -0.000716 -0.000753 -0.001526
# 2 -0.000802 0.018838 -0.002299 -0.007775 0.001615 0.002827
# 3 -0.001803 -0.002299 0.005961 -0.000418 -0.000109 -0.000739
# 4 -0.000716 -0.007775 -0.000418 0.036984 -0.000538 -0.006829
# 5 -0.000753 0.001615 -0.000109 -0.000538 0.018678 -0.001490
# 6 -0.001526 0.002827 -0.000739 -0.006829 -0.001490 0.032204
#
#
# Mechanical properties :
#
#
# Convention : Reuss Voigt Hill
#
# Bulk Modulus (GPa) = 39.48138 56.73137 48.10638
# Shear Modulus (GPa) = 35.39809 42.71121 39.05465
#
# Velocity S-wave (km/s) = 3.67302 4.03464 3.85807
# Velocity P-wave (km/s) = 5.74765 6.58226 6.17906
#
# Compressibility (1/GPa) = 0.02532839
#
# Stress axis : x y z
#
# Youngs Moduli (GPa) = 96.74778 53.08377 167.75328
#
# Poissons Ratio (x) = 0.04258 0.30243
# Poissons Ratio (y) = 0.07760 0.38560
# Poissons Ratio (z) = 0.17442 0.12202
#
# Static dielectric constant tensor:
#      x y z
#    x 2.005910 -0.068650 -0.006360 
#    y -0.068650 2.191140 -0.005440 
#    z -0.006360 -0.005440 2.067720 
# 
# From -- ./inp_files/361906.got.cif
#   From: 2010.05.17/outbox.cif.g08.bks.cpg/sg2_181_cif.got.tgz:361906.got - 2010.06.03 11:33:40.
