data_PCOD9022857
_publ_section_title
;
Structure prediction by ZEFSAII (Michael W. Deem and Ramdas Pophale) SiO2 
 PCOD9022857
Probable space group: P -1
;
_chemical_formula_sum "Si O2"
_cell_formula_units_Z 12
_cell_length_a 12.003110
_cell_length_b 5.240776
_cell_length_c 12.331642
_cell_angle_alpha 111.710288
_cell_angle_beta 132.639187
_cell_angle_gamma 81.555287
_cell_volume 524.034012
_symmetry_space_group_name_H-M "P -1"
_symmetry_group_IT_number 2
_symmetry_cell_setting 'triclinic'
loop_
_space_group_symop_operation_xyz
x,y,z
-x,-y,-z
loop_
_atom_site_type_symbol
_atom_site_label
_atom_site_fract_x
_atom_site_fract_y
_atom_site_fract_z
Si Si1 0.856015 0.887772 0.761938
Si Si2 0.318735 0.621669 0.014598
Si Si3 0.640851 0.458450 0.429536
Si Si4 0.400844 0.700664 0.855627
Si Si5 0.197655 0.169661 0.041703
Si Si6 0.367841 0.736748 0.368795
O O1 0.769811 0.726504 0.578395
O O2 0.776939 0.162313 0.766234
O O3 0.820275 0.728964 0.829300
O O4 0.035254 0.975474 0.881512
O O5 0.281001 0.609590 0.858856
O O6 0.225544 0.398085 0.000149
O O7 0.315370 0.945265 0.088105
O O8 0.487112 0.532928 0.113378
O O9 0.662069 0.303172 0.308174
O O10 0.465408 0.525518 0.338542
O O11 0.662456 0.305200 0.531082
O O12 0.500000 0.000000 0.000000
O O13 0.500000 0.000000 0.500000
#
# Coordination Sequence:
#
# PCOD9022857 Si02
#       6
#     2   2   2   2   2   2
#     4  10  24  40  65  99 130 173 209 273 328 394
#     4  11  25  44  70  95 130 176 221 270 319 390
#     4  10  22  39  64  97 130 166 218 271 329 380
#     4  11  24  43  68  97 129 174 223 275 320 381
#     4  11  25  43  70  96 136 171 218 262 330 396
#     4   9  20  36  61  96 130 161 206 272 330 380
#
# _framework density 22.899277000000001
#
# number of rings (size 3 to 8) (size 9 to 14) (size 15 to 20)
#    0.000    1.667    1.667    1.000   11.667    6.667 
#    0.000    1.667    0.000    0.000    0.000    0.000 
#    0.000    0.000    0.000    0.000    0.000    0.000 
#
# Total GULP energy -66917.452087 kJ/mol
# GULP energy per Si atom -5576.454341 kJ/mol
# Density = 2.284716 g / cm^3
# Si number density = 22.899277 Si / 1000 Ang^3
#
#
#
# Elastic Constant Matrix: (Units=GPa)
#
#
# Indices 1 2 3 4 5 6 
#
# 1 97.5867 41.2971 49.5631 5.1401 -43.4816 27.0490
# 2 41.2971 127.0483 29.1764 4.4546 -23.5790 11.8043
# 3 49.5631 29.1764 119.7350 12.5088 -45.9291 4.8915
# 4 5.1401 4.4546 12.5088 28.1694 -1.8253 -6.1384
# 5 -43.4816 -23.5790 -45.9291 -1.8253 52.0406 -19.3157
# 6 27.0490 11.8043 4.8915 -6.1384 -19.3157 33.3509
#
#
#
# Elastic Compliance Matrix: (Units=1/GPa)
#
#
# Indices 1 2 3 4 5 6 
#
# 1 0.020183 -0.003097 -0.003696 -0.003342 0.008133 -0.010636
# 2 -0.003097 0.009227 -0.000475 -0.000651 0.001087 -0.000175
# 3 -0.003696 -0.000475 0.014829 -0.003369 0.012488 0.007604
# 4 -0.003342 -0.000651 -0.003369 0.039896 -0.000843 0.010291
# 5 0.008133 0.001087 0.012488 -0.000843 0.043523 0.016240
# 6 -0.010636 -0.000175 0.007604 0.010291 0.016240 0.048857
#
#
# Mechanical properties :
#
#
# Convention : Reuss Voigt Hill
#
# Bulk Modulus (GPa) = 33.66530 64.93811 49.30170
# Shear Modulus (GPa) = 24.88133 37.66772 31.27453
#
# Velocity S-wave (km/s) = 3.29987 4.06017 3.69961
# Velocity P-wave (km/s) = 5.40853 7.09928 6.31078
#
# Compressibility (1/GPa) = 0.02970417
#
# Stress axis : x y z
#
# Youngs Moduli (GPa) = 49.54590 108.37274 67.43417
#
# Poissons Ratio (x) = 0.33561 0.24927
# Poissons Ratio (y) = 0.15344 0.03200
# Poissons Ratio (z) = 0.18315 0.05143
#
# Static dielectric constant tensor:
#      x y z
#    x 2.040370 -0.381300 -0.349120 
#    y -0.381300 3.149210 0.985150 
#    z -0.349120 0.985150 2.693640 
# 
# From -- ./inp_files/63342.got.cif
#   From: 2010.05.17/outbox.cif.g08.bks.cpg/sg2_32_cif.got.tgz:63342.got - 2010.06.03 11:33:40.
