data_PCOD9022901
_publ_section_title
;
Structure prediction by ZEFSAII (Michael W. Deem and Ramdas Pophale) SiO2 
 PCOD9022901
Probable space group: P -1
;
_chemical_formula_sum "Si O2"
_cell_formula_units_Z 16
_cell_length_a 14.166970
_cell_length_b 7.839566
_cell_length_c 15.377347
_cell_angle_alpha 133.948223
_cell_angle_beta 30.607093
_cell_angle_gamma 128.816297
_cell_volume 624.015779
_symmetry_space_group_name_H-M "P -1"
_symmetry_group_IT_number 2
_symmetry_cell_setting 'triclinic'
loop_
_space_group_symop_operation_xyz
x,y,z
-x,-y,-z
loop_
_atom_site_type_symbol
_atom_site_label
_atom_site_fract_x
_atom_site_fract_y
_atom_site_fract_z
Si Si1 0.284537 0.506786 0.898353
Si Si2 0.964141 0.571744 0.454073
Si Si3 0.044581 0.594412 0.770471
Si Si4 0.533259 0.305392 0.483230
Si Si5 0.498003 0.088512 0.755244
Si Si6 0.587298 0.621592 0.833021
Si Si7 0.869147 0.943773 0.457442
Si Si8 0.178246 0.999370 0.095980
O O1 0.414718 0.375767 0.684412
O O2 0.396972 0.631273 0.935342
O O3 0.113976 0.342125 0.015219
O O4 0.205390 0.720851 0.985442
O O5 0.017602 0.387017 0.274171
O O6 0.745685 0.591789 0.625471
O O7 0.000000 0.500000 0.500000
O O8 0.063144 0.832224 0.458579
O O9 0.249918 0.694948 0.666099
O O10 0.061988 0.309132 0.664555
O O11 0.500000 0.500000 0.500000
O O12 0.476269 0.037121 0.401696
O O13 0.563988 0.366034 0.808651
O O14 0.646798 0.946103 0.640178
O O15 0.285207 0.050167 0.938480
O O16 0.678721 0.833652 0.895315
O O17 0.971705 0.008400 0.305296
#
# Coordination Sequence:
#
# PCOD9022901 Si02
#       8
#     2   2   2   2   2   2   2   2
#     4  11  24  44  68 104 134 180 231 280 342 407
#     4  11  22  41  67 100 138 174 220 280 346 410
#     4  11  24  43  70  99 135 179 232 284 337 397
#     4  12  24  45  72  97 137 187 235 279 325 409
#     4  12  24  42  69  99 138 182 227 275 346 397
#     4  11  24  42  65 100 141 175 220 285 347 408
#     4  10  22  39  65 102 131 178 217 283 341 405
#     4  10  23  40  67 101 137 172 225 283 342 410
#
# _framework density 25.640378999999999
#
# number of rings (size 3 to 8) (size 9 to 14) (size 15 to 20)
#    0.000    1.000    5.000    1.125    1.750    4.000 
#    0.000    0.625    0.000    0.000    0.000    0.000 
#    0.000    0.000    0.000    0.000    0.000    0.000 
#
# Total GULP energy -89368.728764 kJ/mol
# GULP energy per Si atom -5585.545548 kJ/mol
# Density = 2.558202 g / cm^3
# Si number density = 25.640379 Si / 1000 Ang^3
#
#
#
# Elastic Constant Matrix: (Units=GPa)
#
#
# Indices 1 2 3 4 5 6 
#
# 1 55.6200 8.3422 27.8225 -5.1230 2.3812 2.9594
# 2 8.3422 29.7587 27.3509 -2.4584 8.3104 -4.3378
# 3 27.8225 27.3509 145.5092 -5.0766 2.0075 18.0432
# 4 -5.1230 -2.4584 -5.0766 29.0876 5.3342 -4.9822
# 5 2.3812 8.3104 2.0075 5.3342 36.8115 -0.4174
# 6 2.9594 -4.3378 18.0432 -4.9822 -0.4174 32.1667
#
#
#
# Elastic Compliance Matrix: (Units=1/GPa)
#
#
# Indices 1 2 3 4 5 6 
#
# 1 0.020301 -0.001936 -0.003427 0.003064 -0.001131 0.000253
# 2 -0.001936 0.049030 -0.010120 0.006363 -0.011163 0.013307
# 3 -0.003427 -0.010120 0.010220 -0.001241 0.002050 -0.006948
# 4 0.003064 0.006363 -0.001241 0.037718 -0.006953 0.007024
# 5 -0.001131 -0.011163 0.002050 -0.006953 0.030618 -0.003231
# 6 0.000253 0.013307 -0.006948 0.007024 -0.003231 0.037802
#
#
# Mechanical properties :
#
#
# Convention : Reuss Voigt Hill
#
# Bulk Modulus (GPa) = 20.58202 39.76880 30.17541
# Shear Modulus (GPa) = 21.47310 30.77131 26.12220
#
# Velocity S-wave (km/s) = 2.89705 3.46802 3.19531
# Velocity P-wave (km/s) = 4.38579 5.61962 5.04060
#
# Compressibility (1/GPa) = 0.04858610
#
# Stress axis : x y z
#
# Youngs Moduli (GPa) = 49.25918 20.39551 97.84901
#
# Poissons Ratio (x) = 0.03948 0.33531
# Poissons Ratio (y) = 0.09534 0.99024
# Poissons Ratio (z) = 0.16880 0.20641
#
# Static dielectric constant tensor:
#      x y z
#    x 2.137490 -0.068050 0.023690 
#    y -0.068050 2.014250 -0.023720 
#    z 0.023690 -0.023720 2.046630 
# 
# From -- ./inp_files/401843.got.cif
#   From: 2010.05.17/outbox.cif.g08.bks.cpg/sg2_201_cif.got.tgz:401843.got - 2010.06.03 11:33:40.
