data_PCOD9022954
_publ_section_title
;
Structure prediction by ZEFSAII (Michael W. Deem and Ramdas Pophale) SiO2 
 PCOD9022954
Probable space group: P -1
;
_chemical_formula_sum "Si O2"
_cell_formula_units_Z 16
_cell_length_a 10.224560
_cell_length_b 8.689671
_cell_length_c 11.825826
_cell_angle_alpha 74.825692
_cell_angle_beta 109.197847
_cell_angle_gamma 62.421457
_cell_volume 764.431410
_symmetry_space_group_name_H-M "P -1"
_symmetry_group_IT_number 2
_symmetry_cell_setting 'triclinic'
loop_
_space_group_symop_operation_xyz
x,y,z
-x,-y,-z
loop_
_atom_site_type_symbol
_atom_site_label
_atom_site_fract_x
_atom_site_fract_y
_atom_site_fract_z
Si Si1 0.966215 0.397895 0.106766
Si Si2 0.321044 0.835403 0.860992
Si Si3 0.412504 0.023978 0.657551
Si Si4 0.310505 0.568172 0.403462
Si Si5 0.028296 0.990013 0.143446
Si Si6 0.282352 0.241074 0.354086
Si Si7 0.657805 0.543366 0.130869
Si Si8 0.182096 0.466414 0.585737
O O1 0.079637 0.376885 0.248490
O O2 0.028095 0.176601 0.139133
O O3 0.766195 0.529659 0.056862
O O4 0.000000 0.500000 0.000000
O O5 0.132884 0.973554 0.839102
O O6 0.345786 0.644747 0.847464
O O7 0.353937 0.937454 0.750311
O O8 0.465257 0.745163 0.019205
O O9 0.327249 0.083055 0.495707
O O10 0.341124 0.239108 0.642885
O O11 0.613273 0.873202 0.708472
O O12 0.500000 0.500000 0.500000
O O13 0.328587 0.388669 0.375532
O O14 0.202052 0.599076 0.479455
O O15 0.201710 0.774973 0.265474
O O16 0.000000 0.000000 0.000000
O O17 0.767443 0.513659 0.278179
O O18 0.000000 0.500000 0.500000
#
# Coordination Sequence:
#
# PCOD9022954 Si02
#       8
#     2   2   2   2   2   2   2   2
#     4  11  23  41  66  98 133 178 219 271 342 393
#     4  10  23  42  64  96 130 172 228 266 343 391
#     4  10  22  39  65  93 126 173 217 272 324 398
#     4  11  26  43  67  99 134 179 224 278 339 397
#     4  11  26  42  67  97 136 175 227 278 334 403
#     4  10  23  41  65  92 136 168 219 273 330 401
#     4  10  23  41  66  94 131 177 214 282 326 410
#     4  11  24  43  65  96 135 172 224 275 342 396
#
# _framework density 20.930589000000001
#
# number of rings (size 3 to 8) (size 9 to 14) (size 15 to 20)
#    0.000    1.500    0.000    3.750    8.750    2.500 
#    0.000    3.125    0.000    0.000    0.000    0.000 
#    0.000    0.000    0.000    0.000    0.000    0.000 
#
# Total GULP energy -89320.203383 kJ/mol
# GULP energy per Si atom -5582.512711 kJ/mol
# Density = 2.088295 g / cm^3
# Si number density = 20.930589 Si / 1000 Ang^3
#
#
#
# Elastic Constant Matrix: (Units=GPa)
#
#
# Indices 1 2 3 4 5 6 
#
# 1 98.1228 22.9768 58.7401 -4.4582 -2.0853 3.4313
# 2 22.9768 65.1367 33.0489 -0.1249 7.8854 -7.6864
# 3 58.7401 33.0489 131.4858 -7.8815 2.5882 3.3457
# 4 -4.4582 -0.1249 -7.8815 34.3951 -0.0692 6.4156
# 5 -2.0853 7.8854 2.5882 -0.0692 48.9020 1.9991
# 6 3.4313 -7.6864 3.3457 6.4156 1.9991 22.5740
#
#
#
# Elastic Compliance Matrix: (Units=1/GPa)
#
#
# Indices 1 2 3 4 5 6 
#
# 1 0.014373 -0.002703 -0.005638 0.001068 0.001459 -0.002703
# 2 -0.002703 0.019860 -0.004116 -0.002891 -0.003468 0.008912
# 3 -0.005638 -0.004116 0.011378 0.002404 -0.000057 -0.002909
# 4 0.001068 -0.002891 0.002404 0.031731 0.000863 -0.010597
# 5 0.001459 -0.003468 -0.000057 0.000863 0.021219 -0.003519
# 6 -0.002703 0.008912 -0.002909 -0.010597 -0.003519 0.051499
#
#
# Mechanical properties :
#
#
# Convention : Reuss Voigt Hill
#
# Bulk Modulus (GPa) = 48.31483 58.25297 53.28390
# Shear Modulus (GPa) = 27.49180 33.17285 30.33232
#
# Velocity S-wave (km/s) = 3.62812 3.98540 3.81095
# Velocity P-wave (km/s) = 6.37844 7.00498 6.69904
#
# Compressibility (1/GPa) = 0.02069758
#
# Stress axis : x y z
#
# Youngs Moduli (GPa) = 69.57376 50.35186 87.89123
#
# Poissons Ratio (x) = 0.13611 0.49549
# Poissons Ratio (y) = 0.18808 0.36176
# Poissons Ratio (z) = 0.39223 0.20725
#
# Static dielectric constant tensor:
#      x y z
#    x 1.739180 0.005110 0.006800 
#    y 0.005110 1.821900 -0.021550 
#    z 0.006800 -0.021550 1.790480 
# 
# From -- ./inp_files/381754.got.cif
#   From: 2010.05.17/outbox.cif.g08.bks.cpg/sg2_191_cif.got.tgz:381754.got - 2010.06.03 11:33:40.
