data_PCOD9022848
_publ_section_title
;
Structure prediction by ZEFSAII (Michael W. Deem and Ramdas Pophale) SiO2 
 PCOD9022848
Probable space group: P -1
;
_chemical_formula_sum "Si O2"
_cell_formula_units_Z 16
_cell_length_a 9.308814
_cell_length_b 9.279628
_cell_length_c 15.385090
_cell_angle_alpha 71.521065
_cell_angle_beta 100.573125
_cell_angle_gamma 47.175746
_cell_volume 757.344793
_symmetry_space_group_name_H-M "P -1"
_symmetry_group_IT_number 2
_symmetry_cell_setting 'triclinic'
loop_
_space_group_symop_operation_xyz
x,y,z
-x,-y,-z
loop_
_atom_site_type_symbol
_atom_site_label
_atom_site_fract_x
_atom_site_fract_y
_atom_site_fract_z
Si Si1 0.112182 0.297246 0.270120
Si Si2 0.283738 0.531639 0.704981
Si Si3 0.770801 0.821430 0.037543
Si Si4 0.704967 0.270674 0.503126
Si Si5 0.775141 0.972511 0.836491
Si Si6 0.445919 0.284595 0.350234
Si Si7 0.779007 0.134470 0.272416
Si Si8 0.004487 0.112994 0.835829
O O1 0.327269 0.219021 0.346467
O O2 0.954089 0.359742 0.317456
O O3 0.942185 0.555205 0.149905
O O4 0.184956 0.113549 0.241323
O O5 0.266968 0.647332 0.594752
O O6 0.500510 0.241250 0.769867
O O7 0.332687 0.605775 0.777153
O O8 0.848775 0.919603 0.068230
O O9 0.500000 0.000000 0.000000
O O10 0.819654 0.804203 0.943988
O O11 0.500000 0.500000 0.500000
O O12 0.608425 0.192209 0.468473
O O13 0.957710 0.064092 0.618150
O O14 0.921981 0.007604 0.863066
O O15 0.610401 0.168428 0.305593
O O16 0.233483 0.588026 0.265981
O O17 0.825844 0.035055 0.201371
#
# Coordination Sequence:
#
# PCOD9022848 Si02
#       8
#     2   2   2   2   2   2   2   2
#     4  11  25  42  65  93 138 172 205 267 332 372
#     4  11  22  40  67  96 129 167 215 267 307 387
#     4  11  25  43  64  95 134 169 214 271 322 384
#     4  11  21  42  70  96 130 169 214 262 320 383
#     4  12  22  44  65  94 129 172 220 262 320 381
#     4  10  22  39  64  96 127 170 211 260 319 378
#     4  11  21  41  69  93 125 171 214 264 319 381
#     4  11  22  41  68  93 127 168 223 263 316 379
#
# _framework density 21.126441
#
# number of rings (size 3 to 8) (size 9 to 14) (size 15 to 20)
#    0.000    1.000    6.250    2.250    1.750    0.000 
#    0.000    4.375    0.000    0.000    0.000    0.000 
#    0.000    0.000    0.000    0.000    0.000    0.000 
#
# Total GULP energy -89445.619485 kJ/mol
# GULP energy per Si atom -5590.351218 kJ/mol
# Density = 2.107836 g / cm^3
# Si number density = 21.126441 Si / 1000 Ang^3
#
#
#
# Elastic Constant Matrix: (Units=GPa)
#
#
# Indices 1 2 3 4 5 6 
#
# 1 166.9537 54.1830 11.9646 15.0235 11.1404 -9.7265
# 2 54.1830 128.3556 23.7300 11.8243 -4.3416 -25.7791
# 3 11.9646 23.7300 37.8100 6.7349 1.8100 3.7295
# 4 15.0235 11.8243 6.7349 29.9163 -1.2055 -7.8669
# 5 11.1404 -4.3416 1.8100 -1.2055 24.6827 3.1786
# 6 -9.7265 -25.7791 3.7295 -7.8669 3.1786 33.8177
#
#
#
# Elastic Compliance Matrix: (Units=1/GPa)
#
#
# Indices 1 2 3 4 5 6 
#
# 1 0.007508 -0.003254 0.000448 -0.002924 -0.004051 -0.000670
# 2 -0.003254 0.012589 -0.008161 0.001127 0.003109 0.009530
# 3 0.000448 -0.008161 0.034083 -0.007786 -0.003052 -0.011375
# 4 -0.002924 0.001127 -0.007786 0.038853 0.002743 0.009657
# 5 -0.004051 0.003109 -0.003052 0.002743 0.043493 -0.001908
# 6 -0.000670 0.009530 -0.011375 0.009657 -0.001908 0.040323
#
#
# Mechanical properties :
#
#
# Convention : Reuss Voigt Hill
#
# Bulk Modulus (GPa) = 31.01251 56.98608 43.99929
# Shear Modulus (GPa) = 23.86270 33.89947 28.88109
#
# Velocity S-wave (km/s) = 3.36448 4.01009 3.70139
# Velocity P-wave (km/s) = 5.45933 6.96229 6.25611
#
# Compressibility (1/GPa) = 0.03224505
#
# Stress axis : x y z
#
# Youngs Moduli (GPa) = 133.18794 79.43566 29.33989
#
# Poissons Ratio (x) = 0.25852 -0.01313
# Poissons Ratio (y) = 0.43345 0.23944
# Poissons Ratio (z) = -0.05961 0.64825
#
# Static dielectric constant tensor:
#      x y z
#    x 1.763550 0.026660 -0.013850 
#    y 0.026660 1.755350 -0.027710 
#    z -0.013850 -0.027710 1.775640 
# 
# From -- ./inp_files/188931.got.cif
#   From: 2010.05.17/outbox.cif.g08.bks.cpg/sg2_95_cif.got.tgz:188931.got - 2010.06.03 11:33:40.
