data_PCOD9022176
_publ_section_title
;
Structure prediction by ZEFSAII (Michael W. Deem and Ramdas Pophale) SiO2 
 PCOD9022176
Probable space group: P -1
;
_chemical_formula_sum "Si O2"
_cell_formula_units_Z 16
_cell_length_a 8.877896
_cell_length_b 16.009482
_cell_length_c 8.411542
_cell_angle_alpha 60.763360
_cell_angle_beta 119.707596
_cell_angle_gamma 137.680288
_cell_volume 683.740438
_symmetry_space_group_name_H-M "P -1"
_symmetry_group_IT_number 2
_symmetry_cell_setting 'triclinic'
loop_
_space_group_symop_operation_xyz
x,y,z
-x,-y,-z
loop_
_atom_site_type_symbol
_atom_site_label
_atom_site_fract_x
_atom_site_fract_y
_atom_site_fract_z
Si Si1 0.343734 0.463783 0.802411
Si Si2 0.441077 0.818114 0.619330
Si Si3 0.386059 0.970962 0.233885
Si Si4 0.073627 0.628644 0.124931
Si Si5 0.685741 0.750109 0.607169
Si Si6 0.007697 0.403949 0.253884
Si Si7 0.694303 0.648767 0.415019
Si Si8 0.179200 0.872764 0.896719
O O1 0.099445 0.409528 0.789200
O O2 0.483036 0.600288 0.669257
O O3 0.317614 0.361715 0.770984
O O4 0.500000 0.500000 0.000000
O O5 0.320450 0.854109 0.410678
O O6 0.602679 0.814381 0.592950
O O7 0.254602 0.684689 0.739110
O O8 0.577312 0.928119 0.720565
O O9 0.632627 0.034759 0.222882
O O10 0.223046 0.935359 0.032890
O O11 0.148938 0.546314 0.260787
O O12 0.959394 0.584369 0.929638
O O13 0.228839 0.777761 0.048126
O O14 0.702519 0.749924 0.423731
O O15 0.924442 0.800266 0.764710
O O16 0.087066 0.331683 0.428280
O O17 0.500000 0.500000 0.500000
#
# Coordination Sequence:
#
# PCOD9022176 Si02
#       8
#     2   2   2   2   2   2   2   2
#     4  11  21  37  62  99 134 168 203 257 332 396
#     4  11  23  44  68  95 127 171 224 268 319 385
#     4  10  25  44  66  91 127 175 226 268 314 380
#     4  11  21  37  66  97 127 170 204 268 320 391
#     4  11  22  41  66  95 131 167 214 269 325 382
#     4  11  22  39  66  97 131 168 213 263 328 385
#     4  10  22  39  58  92 138 169 207 254 321 401
#     4  11  22  44  67  93 132 173 215 270 326 375
#
# _framework density 23.400694000000001
#
# number of rings (size 3 to 8) (size 9 to 14) (size 15 to 20)
#    0.000    1.250    5.000    0.750    1.750    3.500 
#    0.000    2.500    0.000    0.000    0.000    0.000 
#    0.000    0.000    0.000    0.000    0.000    0.000 
#
# Total GULP energy -89290.837578 kJ/mol
# GULP energy per Si atom -5580.677349 kJ/mol
# Density = 2.334743 g / cm^3
# Si number density = 23.400694 Si / 1000 Ang^3
#
#
#
# Elastic Constant Matrix: (Units=GPa)
#
#
# Indices 1 2 3 4 5 6 
#
# 1 99.7122 49.2780 36.4784 25.4035 -22.2957 -20.2875
# 2 49.2780 79.3437 44.6170 14.6250 -12.4132 -16.3559
# 3 36.4784 44.6170 78.3713 30.8775 -23.2593 -14.1492
# 4 25.4035 14.6250 30.8775 46.5311 -9.0580 -21.9528
# 5 -22.2957 -12.4132 -23.2593 -9.0580 29.9844 6.0019
# 6 -20.2875 -16.3559 -14.1492 -21.9528 6.0019 46.5249
#
#
#
# Elastic Compliance Matrix: (Units=1/GPa)
#
#
# Indices 1 2 3 4 5 6 
#
# 1 0.017637 -0.009625 0.002517 -0.006007 0.009054 0.001070
# 2 -0.009625 0.024858 -0.013577 0.007503 -0.006079 0.004737
# 3 0.002517 -0.013577 0.029106 -0.015404 0.014981 -0.004025
# 4 -0.006007 0.007503 -0.015404 0.038368 -0.004525 0.014022
# 5 0.009054 -0.006079 0.014981 -0.004525 0.048218 -0.001989
# 6 0.001070 0.004737 -0.004025 0.014022 -0.001989 0.029275
#
#
# Mechanical properties :
#
#
# Convention : Reuss Voigt Hill
#
# Bulk Modulus (GPa) = 33.07785 57.57489 45.32637
# Shear Modulus (GPa) = 20.92839 33.07834 27.00336
#
# Velocity S-wave (km/s) = 2.99381 3.76382 3.40068
# Velocity P-wave (km/s) = 5.11044 6.59892 5.90180
#
# Compressibility (1/GPa) = 0.03023171
#
# Stress axis : x y z
#
# Youngs Moduli (GPa) = 56.69804 40.22788 34.35715
#
# Poissons Ratio (x) = 0.38720 -0.08648
# Poissons Ratio (y) = 0.54573 0.46646
# Poissons Ratio (z) = -0.14271 0.54617
#
# Static dielectric constant tensor:
#      x y z
#    x 2.034420 0.042130 -0.025860 
#    y 0.042130 1.921840 0.032340 
#    z -0.025860 0.032340 1.958120 
# 
# From -- ./inp_files/200365.got.cif
#   From: 2010.05.17/outbox.cif.g08.bks.cpg/sg2_101_cif.got.tgz:200365.got - 2010.06.03 11:33:40.
