data_PCOD9022409
_publ_section_title
;
Structure prediction by ZEFSAII (Michael W. Deem and Ramdas Pophale) SiO2 
 PCOD9022409
Probable space group: P -1
;
_chemical_formula_sum "Si O2"
_cell_formula_units_Z 12
_cell_length_a 11.092709
_cell_length_b 13.689065
_cell_length_c 17.534601
_cell_angle_alpha 35.090793
_cell_angle_beta 146.359141
_cell_angle_gamma 159.386372
_cell_volume 508.813495
_symmetry_space_group_name_H-M "P -1"
_symmetry_group_IT_number 2
_symmetry_cell_setting 'triclinic'
loop_
_space_group_symop_operation_xyz
x,y,z
-x,-y,-z
loop_
_atom_site_type_symbol
_atom_site_label
_atom_site_fract_x
_atom_site_fract_y
_atom_site_fract_z
Si Si1 0.378380 0.734599 0.591697
Si Si2 0.212607 0.453324 0.414812
Si Si3 0.538631 0.556592 0.895870
Si Si4 0.358159 0.162035 0.935973
Si Si5 0.418864 0.403276 0.334396
Si Si6 0.713527 0.074457 0.260381
O O1 0.371340 0.630463 0.734133
O O2 0.613674 0.760577 0.642884
O O3 0.000000 0.500000 0.500000
O O4 0.500000 0.000000 0.500000
O O5 0.500000 0.500000 0.500000
O O6 0.261540 0.447827 0.533576
O O7 0.845335 0.199392 0.335975
O O8 0.369196 0.737353 0.298656
O O9 0.338640 0.286720 0.914507
O O10 0.500000 0.500000 0.000000
O O11 0.966784 0.834966 0.924183
O O12 0.492260 0.360427 0.809188
O O13 0.624500 0.182862 0.093457
O O14 0.046159 0.185156 0.324026
#
# Coordination Sequence:
#
# PCOD9022409 Si02
#       6
#     2   2   2   2   2   2
#     4  11  25  43  65  94 123 169 221 262 317 377
#     4  10  22  39  61  94 133 172 210 255 313 380
#     4  11  25  46  65  92 130 167 215 274 318 374
#     4  11  24  42  67  97 127 170 215 259 325 388
#     4  10  23  43  66  95 136 169 209 273 319 379
#     4  11  23  41  66 100 133 171 212 257 324 392
#
# _framework density 23.584278999999999
#
# number of rings (size 3 to 8) (size 9 to 14) (size 15 to 20)
#    0.000    1.333    0.000    6.000    0.000   16.000 
#    0.000    8.333    0.000    0.000    0.000    0.000 
#    0.000    0.000    0.000    0.000    0.000    0.000 
#
# Total GULP energy -67217.171014 kJ/mol
# GULP energy per Si atom -5601.430918 kJ/mol
# Density = 2.353060 g / cm^3
# Si number density = 23.584279 Si / 1000 Ang^3
#
#
#
# Elastic Constant Matrix: (Units=GPa)
#
#
# Indices 1 2 3 4 5 6 
#
# 1 68.1870 16.9900 47.8438 -7.7072 -16.3221 -14.7768
# 2 16.9900 84.0409 33.4841 -0.0930 7.0547 -22.7273
# 3 47.8438 33.4841 181.4073 -5.5035 -9.9384 -13.9651
# 4 -7.7072 -0.0930 -5.5035 41.0845 -4.8265 3.6122
# 5 -16.3221 7.0547 -9.9384 -4.8265 40.8241 -0.9390
# 6 -14.7768 -22.7273 -13.9651 3.6122 -0.9390 30.9106
#
#
#
# Elastic Compliance Matrix: (Units=1/GPa)
#
#
# Indices 1 2 3 4 5 6 
#
# 1 0.022277 -0.001471 -0.004439 0.003958 0.008717 0.007365
# 2 -0.001471 0.016134 -0.002064 -0.001878 -0.003863 0.010329
# 3 -0.004439 -0.002064 0.007051 0.000184 0.000309 -0.000466
# 4 0.003958 -0.001878 0.000184 0.025886 0.004960 -0.002280
# 5 0.008717 -0.003863 0.000309 0.004960 0.029351 0.001779
# 6 0.007365 0.010329 -0.000466 -0.002280 0.001779 0.043577
#
#
# Mechanical properties :
#
#
# Convention : Reuss Voigt Hill
#
# Bulk Modulus (GPa) = 33.88106 58.91901 46.40003
# Shear Modulus (GPa) = 29.40136 38.25167 33.82652
#
# Velocity S-wave (km/s) = 3.53462 4.03167 3.79130
# Velocity P-wave (km/s) = 5.57272 6.83440 6.23555
#
# Compressibility (1/GPa) = 0.02951502
#
# Stress axis : x y z
#
# Youngs Moduli (GPa) = 44.88980 61.98075 141.82819
#
# Poissons Ratio (x) = 0.09114 0.62960
# Poissons Ratio (y) = 0.06601 0.29268
# Poissons Ratio (z) = 0.19927 0.12790
#
# Static dielectric constant tensor:
#      x y z
#    x 1.923460 0.029510 -0.002140 
#    y 0.029510 1.862010 0.003970 
#    z -0.002140 0.003970 1.880730 
# 
# From -- ./inp_files/465999.got.cif
#   From: 2010.05.17/outbox.cif.g08.bks.cpg/sg2_233_cif.got.tgz:465999.got - 2010.06.03 11:33:40.
