data_PCOD9022831
_publ_section_title
;
Structure prediction by ZEFSAII (Michael W. Deem and Ramdas Pophale) SiO2 
 PCOD9022831
Probable space group: P -1
;
_chemical_formula_sum "Si O2"
_cell_formula_units_Z 14
_cell_length_a 8.443976
_cell_length_b 10.644238
_cell_length_c 9.932562
_cell_angle_alpha 69.307480
_cell_angle_beta 130.060787
_cell_angle_gamma 121.951639
_cell_volume 579.635917
_symmetry_space_group_name_H-M "P -1"
_symmetry_group_IT_number 2
_symmetry_cell_setting 'triclinic'
loop_
_space_group_symop_operation_xyz
x,y,z
-x,-y,-z
loop_
_atom_site_type_symbol
_atom_site_label
_atom_site_fract_x
_atom_site_fract_y
_atom_site_fract_z
Si Si1 0.735709 0.825818 0.079870
Si Si2 0.818532 0.609065 0.005426
Si Si3 0.496513 0.128149 0.544786
Si Si4 0.614090 0.065687 0.181577
Si Si5 0.795953 0.440582 0.652170
Si Si6 0.966779 0.852085 0.783536
Si Si7 0.577383 0.605991 0.302064
O O1 0.809390 0.722402 0.068728
O O2 0.694935 0.762279 0.233216
O O3 0.917035 0.996222 0.124458
O O4 0.502434 0.823903 0.892420
O O5 0.955381 0.518295 0.168381
O O6 0.569406 0.505759 0.853229
O O7 0.955438 0.714302 0.916778
O O8 0.719302 0.281043 0.599181
O O9 0.285402 0.167721 0.380942
O O10 0.500000 0.000000 0.500000
O O11 0.461803 0.058867 0.700310
O O12 0.881082 0.132552 0.270868
O O13 0.500000 0.000000 0.000000
O O14 0.754523 0.553421 0.488188
O O15 0.611295 0.407170 0.684411
#
# Coordination Sequence:
#
# PCOD9022831 Si02
#       7
#     2   2   2   2   2   2   2
#     4  11  23  43  65 100 137 169 224 286 337 397
#     4  12  23  44  70  98 131 181 225 277 344 396
#     4  12  23  42  69 106 137 173 230 288 337 397
#     4  10  22  39  64  94 133 176 220 277 331 397
#     4  11  24  44  70  94 138 179 227 271 334 411
#     4  11  22  41  68  99 134 178 227 274 338 400
#     4  11  25  45  66  96 139 180 224 272 334 415
#
# _framework density 24.153092000000001
#
# number of rings (size 3 to 8) (size 9 to 14) (size 15 to 20)
#    0.000    0.857    1.429    7.714    0.000    0.571 
#    2.571    0.000    0.000    0.000    0.000    0.000 
#    0.000    0.000    0.000    0.000    0.000    0.000 
#
# Total GULP energy -78462.524463 kJ/mol
# GULP energy per Si atom -5604.466033 kJ/mol
# Density = 2.409812 g / cm^3
# Si number density = 24.153092 Si / 1000 Ang^3
#
#
#
# Elastic Constant Matrix: (Units=GPa)
#
#
# Indices 1 2 3 4 5 6 
#
# 1 42.0476 5.7815 22.9941 -3.6634 21.1410 -18.2800
# 2 5.7815 79.1862 29.4209 -4.6121 1.2778 -0.5620
# 3 22.9941 29.4209 122.4751 -18.5366 26.8258 -7.0415
# 4 -3.6634 -4.6121 -18.5366 36.8931 -8.8877 -2.4641
# 5 21.1410 1.2778 26.8258 -8.8877 38.2031 -5.3157
# 6 -18.2800 -0.5620 -7.0415 -2.4641 -5.3157 36.9133
#
#
#
# Elastic Compliance Matrix: (Units=1/GPa)
#
#
# Indices 1 2 3 4 5 6 
#
# 1 0.042984 -0.001849 -0.002384 -0.000716 -0.019725 0.017915
# 2 -0.001849 0.014112 -0.003721 0.000402 0.003127 -0.000933
# 3 -0.002384 -0.003721 0.011305 0.003655 -0.005595 0.000358
# 4 -0.000716 0.000402 0.003655 0.030415 0.005330 0.003147
# 5 -0.019725 0.003127 -0.005595 0.005330 0.041536 -0.004450
# 6 0.017915 -0.000933 0.000358 0.003147 -0.004450 0.035586
#
#
# Mechanical properties :
#
#
# Convention : Reuss Voigt Hill
#
# Bulk Modulus (GPa) = 19.04957 40.01131 29.53044
# Shear Modulus (GPa) = 23.88423 34.76938 29.32680
#
# Velocity S-wave (km/s) = 3.14804 3.79825 3.48832
# Velocity P-wave (km/s) = 4.59540 5.98642 5.33643
#
# Compressibility (1/GPa) = 0.05249462
#
# Stress axis : x y z
#
# Youngs Moduli (GPa) = 23.26451 70.86077 88.45326
#
# Poissons Ratio (x) = 0.13101 0.21087
# Poissons Ratio (y) = 0.04301 0.32911
# Poissons Ratio (z) = 0.05546 0.26365
#
# Static dielectric constant tensor:
#      x y z
#    x 1.971780 -0.012840 0.007720 
#    y -0.012840 1.913770 0.044750 
#    z 0.007720 0.044750 1.920880 
# 
# From -- ./inp_files/157394.got.cif
#   From: 2010.05.17/outbox.cif.g08.bks.cpg/sg2_79_cif.got.tgz:157394.got - 2010.06.03 11:33:40.
