data_PCOD9022609
_publ_section_title
;
Structure prediction by ZEFSAII (Michael W. Deem and Ramdas Pophale) SiO2 
 PCOD9022609
Probable space group: P -1
;
_chemical_formula_sum "Si O2"
_cell_formula_units_Z 14
_cell_length_a 9.965019
_cell_length_b 7.957856
_cell_length_c 14.622209
_cell_angle_alpha 126.593980
_cell_angle_beta 129.166206
_cell_angle_gamma 44.244048
_cell_volume 604.720735
_symmetry_space_group_name_H-M "P -1"
_symmetry_group_IT_number 2
_symmetry_cell_setting 'triclinic'
loop_
_space_group_symop_operation_xyz
x,y,z
-x,-y,-z
loop_
_atom_site_type_symbol
_atom_site_label
_atom_site_fract_x
_atom_site_fract_y
_atom_site_fract_z
Si Si1 0.745655 0.208365 0.768185
Si Si2 0.336750 0.710316 0.720614
Si Si3 0.053476 0.162214 0.508183
Si Si4 0.522495 0.245144 0.395988
Si Si5 0.092695 0.644458 0.963963
Si Si6 0.902777 0.674923 0.706947
Si Si7 0.152968 0.160314 0.909460
O O1 0.516493 0.422162 0.713343
O O2 0.918999 0.241550 0.805433
O O3 0.815960 0.926472 0.694276
O O4 0.776317 0.253751 0.903208
O O5 0.401183 0.808356 0.693080
O O6 0.119260 0.747745 0.614605
O O7 0.304719 0.882611 0.849001
O O8 0.012982 0.412664 0.617963
O O9 0.296905 0.975067 0.536028
O O10 0.000000 0.000000 0.500000
O O11 0.500000 0.500000 0.500000
O O12 0.301770 0.287225 0.323874
O O13 0.191743 0.358893 0.945912
O O14 0.050932 0.667780 0.847223
O O15 0.879969 0.797338 0.982284
#
# Coordination Sequence:
#
# PCOD9022609 Si02
#       7
#     2   2   2   2   2   2   2
#     4  10  24  39  62  95 126 169 193 256 317 356
#     4  11  22  40  66  89 126 157 214 254 300 376
#     4  10  22  39  63  91 115 163 205 258 299 358
#     4  11  23  39  67  91 119 162 211 253 305 364
#     4   9  20  42  65  89 123 164 210 252 296 368
#     4  12  22  42  63  93 130 160 205 255 310 362
#     4   9  21  40  63  91 120 161 210 249 305 353
#
# _framework density 23.151181999999999
#
# number of rings (size 3 to 8) (size 9 to 14) (size 15 to 20)
#    0.857    0.857    2.857    3.000    2.000    2.286 
#    2.571    2.143    0.000    0.000    0.000    0.000 
#    0.000    0.000    0.000    0.000    0.000    0.000 
#
# Total GULP energy -78205.292494 kJ/mol
# GULP energy per Si atom -5586.092321 kJ/mol
# Density = 2.309849 g / cm^3
# Si number density = 23.151182 Si / 1000 Ang^3
#
#
#
# Elastic Constant Matrix: (Units=GPa)
#
#
# Indices 1 2 3 4 5 6 
#
# 1 24.7250 18.3734 15.5933 -0.4701 -4.0684 -11.0966
# 2 18.3734 169.8622 54.4487 24.8541 1.7632 -10.1538
# 3 15.5933 54.4487 73.0762 13.8224 0.2369 -0.9899
# 4 -0.4701 24.8541 13.8224 30.8590 -11.0304 3.9387
# 5 -4.0684 1.7632 0.2369 -11.0304 18.5793 0.4048
# 6 -11.0966 -10.1538 -0.9899 3.9387 0.4048 32.1041
#
#
#
# Elastic Compliance Matrix: (Units=1/GPa)
#
#
# Indices 1 2 3 4 5 6 
#
# 1 0.064765 -0.004265 -0.013682 0.016956 0.024431 0.018227
# 2 -0.004265 0.009132 -0.004294 -0.008176 -0.006652 0.002369
# 3 -0.013682 -0.004294 0.021398 -0.008605 -0.007877 -0.004272
# 4 0.016956 -0.008176 -0.008605 0.057582 0.038884 -0.004545
# 5 0.024431 -0.006652 -0.007877 0.038884 0.082984 0.000281
# 6 0.018227 0.002369 -0.004272 -0.004545 0.000281 0.038620
#
#
# Mechanical properties :
#
#
# Convention : Reuss Voigt Hill
#
# Bulk Modulus (GPa) = 19.67931 49.38825 34.53378
# Shear Modulus (GPa) = 14.88537 28.25836 21.57186
#
# Velocity S-wave (km/s) = 2.53842 3.49750 3.05582
# Velocity P-wave (km/s) = 4.13646 6.13916 5.23448
#
# Compressibility (1/GPa) = 0.05081478
#
# Stress axis : x y z
#
# Youngs Moduli (GPa) = 15.44038 109.50760 46.73240
#
# Poissons Ratio (x) = 0.46703 0.63938
# Poissons Ratio (y) = 0.06585 0.20066
# Poissons Ratio (z) = 0.21125 0.47020
#
# Static dielectric constant tensor:
#      x y z
#    x 1.923540 0.031570 -0.036560 
#    y 0.031570 1.853580 -0.033620 
#    z -0.036560 -0.033620 1.931340 
# 
# From -- ./inp_files/307752.got.cif
#   From: 2010.05.17/outbox.cif.g08.bks.cpg/sg2_154_cif.got.tgz:307752.got - 2010.06.03 11:33:40.
