data_PCOD9022575
_publ_section_title
;
Structure prediction by ZEFSAII (Michael W. Deem and Ramdas Pophale) SiO2 
 PCOD9022575
Probable space group: P -1
;
_chemical_formula_sum "Si O2"
_cell_formula_units_Z 13
_cell_length_a 17.153844
_cell_length_b 9.945643
_cell_length_c 9.127877
_cell_angle_alpha 43.519823
_cell_angle_beta 136.466266
_cell_angle_gamma 148.624917
_cell_volume 533.408721
_symmetry_space_group_name_H-M "P -1"
_symmetry_group_IT_number 2
_symmetry_cell_setting 'triclinic'
loop_
_space_group_symop_operation_xyz
x,y,z
-x,-y,-z
loop_
_atom_site_type_symbol
_atom_site_label
_atom_site_fract_x
_atom_site_fract_y
_atom_site_fract_z
Si Si1 0.735825 0.277843 0.517712
Si Si2 0.967484 0.676093 0.754535
Si Si3 0.779179 0.377286 0.158982
Si Si4 0.287898 0.070793 0.769772
Si Si5 0.000000 0.000000 0.000000
Si Si6 0.748579 0.649836 0.703188
Si Si7 0.451653 0.218485 0.164641
O O1 0.885535 0.545698 0.589946
O O2 0.740183 0.280945 0.347727
O O3 0.599309 0.269951 0.375121
O O4 0.688040 0.014746 0.733932
O O5 0.852922 0.646703 0.734494
O O6 0.136780 0.976366 0.727091
O O7 0.000000 0.500000 0.000000
O O8 0.777721 0.181069 0.219128
O O9 0.936930 0.696862 0.129706
O O10 0.667346 0.398173 0.901282
O O11 0.348979 0.317211 0.555034
O O12 0.398509 0.112225 0.010826
O O13 0.129982 0.090793 0.230839
O O14 0.500000 0.500000 0.000000
#
# Coordination Sequence:
#
# PCOD9022575 Si02
#       7
#     2   2   2   2   1   2   2
#     4  11  25  46  70  97 137 181 220 286 338 401
#     4  12  21  42  70 101 131 178 229 281 339 396
#     4  10  23  43  65 100 140 176 221 278 349 397
#     4  12  24  43  70 100 136 181 225 283 337 401
#     4   8  20  40  60  98 140 166 210 276 338 400
#     4  10  22  39  62  99 139 170 221 274 334 405
#     4  11  26  47  69  98 134 181 234 273 334 409
#
# _framework density 24.371556999999999
#
# number of rings (size 3 to 8) (size 9 to 14) (size 15 to 20)
#    0.923    0.308    3.077    2.308    0.000    8.000 
#    2.769    1.538    0.000    0.000    0.000    0.000 
#    0.000    0.000    0.000    0.000    0.000    0.000 
#
# Total GULP energy -72380.946889 kJ/mol
# GULP energy per Si atom -5567.765145 kJ/mol
# Density = 2.431609 g / cm^3
# Si number density = 24.371557 Si / 1000 Ang^3
#
#
#
# Elastic Constant Matrix: (Units=GPa)
#
#
# Indices 1 2 3 4 5 6 
#
# 1 36.1316 11.8719 10.7229 -10.5770 -17.0396 -5.1575
# 2 11.8719 60.1075 13.0753 -14.8952 -1.0364 -13.5678
# 3 10.7229 13.0753 160.0617 -15.3092 -24.9251 5.4049
# 4 -10.5770 -14.8952 -15.3092 44.0339 2.0692 4.9543
# 5 -17.0396 -1.0364 -24.9251 2.0692 39.1810 1.6916
# 6 -5.1575 -13.5678 5.4049 4.9543 1.6916 25.3802
#
#
#
# Elastic Compliance Matrix: (Units=1/GPa)
#
#
# Indices 1 2 3 4 5 6 
#
# 1 0.039730 -0.005519 0.001077 0.006968 0.017347 0.002378
# 2 -0.005519 0.021429 -0.001888 0.004299 -0.003699 0.010144
# 3 0.001077 -0.001888 0.007467 0.002330 0.005183 -0.003181
# 4 0.006968 0.004299 0.002330 0.026743 0.003310 -0.002223
# 5 0.017347 -0.003699 0.005183 0.003310 0.036204 -0.002616
# 6 0.002378 0.010144 -0.003181 -0.002223 -0.002616 0.046592
#
#
# Mechanical properties :
#
#
# Convention : Reuss Voigt Hill
#
# Bulk Modulus (GPa) = 17.86812 36.40456 27.13634
# Shear Modulus (GPa) = 23.86851 36.42773 30.14812
#
# Velocity S-wave (km/s) = 3.13287 3.87031 3.52095
# Velocity P-wave (km/s) = 4.52039 5.91118 5.26194
#
# Compressibility (1/GPa) = 0.05596558
#
# Stress axis : x y z
#
# Youngs Moduli (GPa) = 25.16965 46.66594 133.92112
#
# Poissons Ratio (x) = 0.25754 -0.14419
# Poissons Ratio (y) = 0.13891 0.25287
# Poissons Ratio (z) = -0.02710 0.08811
#
# Static dielectric constant tensor:
#      x y z
#    x 2.011240 0.075310 0.002900 
#    y 0.075310 1.935460 -0.009100 
#    z 0.002900 -0.009100 2.000130 
# 
# From -- ./inp_files/325673.got.cif
#   From: 2010.05.17/outbox.cif.g08.bks.cpg/sg2_163_cif.got.tgz:325673.got - 2010.06.03 11:33:40.
