data_PCOD9022149
_publ_section_title
;
Structure prediction by ZEFSAII (Michael W. Deem and Ramdas Pophale) SiO2 
 PCOD9022149
Probable space group: P -1
;
_chemical_formula_sum "Si O2"
_cell_formula_units_Z 14
_cell_length_a 17.717355
_cell_length_b 11.514686
_cell_length_c 7.618107
_cell_angle_alpha 55.935470
_cell_angle_beta 140.197411
_cell_angle_gamma 141.281645
_cell_volume 619.294696
_symmetry_space_group_name_H-M "P -1"
_symmetry_group_IT_number 2
_symmetry_cell_setting 'triclinic'
loop_
_space_group_symop_operation_xyz
x,y,z
-x,-y,-z
loop_
_atom_site_type_symbol
_atom_site_label
_atom_site_fract_x
_atom_site_fract_y
_atom_site_fract_z
Si Si1 0.638303 0.002728 0.212356
Si Si2 0.838604 0.465655 0.557465
Si Si3 0.799618 0.314013 0.983621
Si Si4 0.740064 0.496188 0.007404
Si Si5 0.080621 0.859713 0.207972
Si Si6 0.914518 0.806550 0.608252
Si Si7 0.696918 0.745933 0.563195
O O1 0.724000 0.111997 0.092076
O O2 0.773689 0.126482 0.497785
O O3 0.591034 0.801768 0.304540
O O4 0.500000 0.000000 0.000000
O O5 0.728151 0.404009 0.245921
O O6 0.869381 0.645452 0.537274
O O7 0.657086 0.580444 0.750862
O O8 0.773500 0.324941 0.723711
O O9 0.727682 0.382567 0.915312
O O10 0.986852 0.457853 0.233026
O O11 0.074390 0.312506 0.824517
O O12 0.151982 0.059990 0.241446
O O13 0.032542 0.838311 0.939563
O O14 0.761960 0.739516 0.500281
O O15 0.000000 0.000000 0.500000
#
# Coordination Sequence:
#
# PCOD9022149 Si02
#       7
#     2   2   2   2   2   2   2
#     4  10  22  39  58  78 113 165 201 225 271 349
#     4  11  21  30  58  91 122 143 173 241 307 346
#     4  11  22  35  55  90 121 146 187 237 294 350
#     4  11  18  36  57  90 117 139 184 247 305 335
#     4   9  18  32  55  81 116 141 184 232 284 332
#     4  11  17  29  53  92 117 140 180 238 300 343
#     4   9  19  34  54  82 114 146 190 236 280 344
#
# _framework density 22.606362000000001
#
# number of rings (size 3 to 8) (size 9 to 14) (size 15 to 20)
#    0.857    0.857    4.286    4.714    0.000    0.000 
#    0.000    0.714    0.000    8.571    0.000    0.000 
#    0.000    0.000    0.000    0.000    0.000    0.000 
#
# Total GULP energy -78188.986991 kJ/mol
# GULP energy per Si atom -5584.927642 kJ/mol
# Density = 2.255491 g / cm^3
# Si number density = 22.606362 Si / 1000 Ang^3
#
#
#
# Elastic Constant Matrix: (Units=GPa)
#
#
# Indices 1 2 3 4 5 6 
#
# 1 76.0684 9.1074 60.3395 -17.9420 -8.4207 -5.8644
# 2 9.1074 83.8942 15.9718 -30.3411 -5.1208 0.8227
# 3 60.3395 15.9718 174.6344 -31.2480 4.3601 8.5671
# 4 -17.9420 -30.3411 -31.2480 39.7354 4.7169 -1.5498
# 5 -8.4207 -5.1208 4.3601 4.7169 46.3738 -17.9472
# 6 -5.8644 0.8227 8.5671 -1.5498 -17.9472 36.0470
#
#
#
# Elastic Compliance Matrix: (Units=1/GPa)
#
#
# Indices 1 2 3 4 5 6 
#
# 1 0.021482 0.000910 -0.007455 0.003957 0.007922 0.009360
# 2 0.000910 0.016628 0.000518 0.013441 0.000832 0.000638
# 3 -0.007455 0.000518 0.009532 0.004884 -0.004904 -0.005721
# 4 0.003957 0.013441 0.004884 0.041352 -0.002593 -0.000337
# 5 0.007922 0.000832 -0.004904 -0.002593 0.030618 0.017568
# 6 0.009360 0.000638 -0.005721 -0.000337 0.017568 0.039342
#
#
# Mechanical properties :
#
#
# Convention : Reuss Voigt Hill
#
# Bulk Modulus (GPa) = 28.09915 56.15938 42.12927
# Shear Modulus (GPa) = 27.34174 41.04313 34.19243
#
# Velocity S-wave (km/s) = 3.48152 4.26556 3.89332
# Velocity P-wave (km/s) = 5.34958 7.01115 6.23595
#
# Compressibility (1/GPa) = 0.03558826
#
# Stress axis : x y z
#
# Youngs Moduli (GPa) = 46.54982 60.13948 104.91366
#
# Poissons Ratio (x) = -0.05473 0.78210
# Poissons Ratio (y) = -0.04236 -0.05432
# Poissons Ratio (z) = 0.34702 -0.03114
#
# Static dielectric constant tensor:
#      x y z
#    x 1.846970 0.010530 0.051260 
#    y 0.010530 1.890340 -0.019950 
#    z 0.051260 -0.019950 1.898330 
# 
# From -- ./inp_files/330822.got.cif
#   From: 2010.05.17/outbox.cif.g08.bks.cpg/sg2_166_cif.got.tgz:330822.got - 2010.06.03 11:33:40.
