data_PCOD9022306
_publ_section_title
;
Structure prediction by ZEFSAII (Michael W. Deem and Ramdas Pophale) SiO2 
 PCOD9022306
Probable space group: P -1
;
_chemical_formula_sum "Si O2"
_cell_formula_units_Z 16
_cell_length_a 12.028168
_cell_length_b 8.399939
_cell_length_c 12.049009
_cell_angle_alpha 92.050092
_cell_angle_beta 134.777426
_cell_angle_gamma 113.158632
_cell_volume 697.336107
_symmetry_space_group_name_H-M "P -1"
_symmetry_group_IT_number 2
_symmetry_cell_setting 'triclinic'
loop_
_space_group_symop_operation_xyz
x,y,z
-x,-y,-z
loop_
_atom_site_type_symbol
_atom_site_label
_atom_site_fract_x
_atom_site_fract_y
_atom_site_fract_z
Si Si1 0.499536 0.517358 0.367502
Si Si2 0.436866 0.961072 0.082075
Si Si3 0.872981 0.502761 0.161701
Si Si4 0.849640 0.745354 0.313289
Si Si5 0.859300 0.577907 0.547973
Si Si6 0.912031 0.076562 0.100958
Si Si7 0.712255 0.908588 0.383106
Si Si8 0.053509 0.246074 0.973612
O O1 0.500000 0.500000 0.500000
O O2 0.632792 0.454447 0.412911
O O3 0.599509 0.737018 0.391593
O O4 0.280080 0.380771 0.168721
O O5 0.611934 0.015590 0.286364
O O6 0.284512 0.724386 0.981728
O O7 0.311540 0.041986 0.023208
O O8 0.500000 0.000000 0.000000
O O9 0.773736 0.591430 0.156831
O O10 0.031748 0.520109 0.354583
O O11 0.977573 0.628702 0.128856
O O12 0.885578 0.658352 0.445045
O O13 0.717635 0.807774 0.269692
O O14 0.060169 0.934923 0.428417
O O15 0.961331 0.760476 0.712119
O O16 0.935694 0.181203 0.002787
O O17 0.983393 0.942656 0.119794
#
# Coordination Sequence:
#
# PCOD9022306 Si02
#       8
#     2   2   2   2   2   2   2   2
#     4  11  22  40  64  90 127 164 214 261 316 380
#     4  11  24  41  64  96 132 168 207 273 324 373
#     4  11  24  39  66  98 127 168 216 264 316 385
#     4  10  23  39  65  90 133 167 216 256 325 388
#     4  10  22  42  64  92 126 176 204 266 321 376
#     4  10  24  42  66  91 132 166 215 260 326 374
#     4  10  22  39  60  95 121 171 209 262 322 369
#     4  11  24  42  67  96 125 173 217 264 315 384
#
# _framework density 22.944461
#
# number of rings (size 3 to 8) (size 9 to 14) (size 15 to 20)
#    0.000    1.500    2.500    1.875    7.000    6.500 
#    0.000    0.000    0.000    3.750    0.000    0.000 
#    0.000    0.000    0.000    0.000    0.000    0.000 
#
# Total GULP energy -89491.734193 kJ/mol
# GULP energy per Si atom -5593.233387 kJ/mol
# Density = 2.289224 g / cm^3
# Si number density = 22.944461 Si / 1000 Ang^3
#
#
#
# Elastic Constant Matrix: (Units=GPa)
#
#
# Indices 1 2 3 4 5 6 
#
# 1 92.9069 17.8750 14.7708 -1.5941 -0.4621 23.3340
# 2 17.8750 70.1054 -5.8450 -11.5262 -13.6044 29.2931
# 3 14.7708 -5.8450 41.0144 -2.6004 -2.9285 4.2679
# 4 -1.5941 -11.5262 -2.6004 32.9995 -0.6310 -6.2166
# 5 -0.4621 -13.6044 -2.9285 -0.6310 36.5965 -6.3649
# 6 23.3340 29.2931 4.2679 -6.2166 -6.3649 41.6444
#
#
#
# Elastic Compliance Matrix: (Units=1/GPa)
#
#
# Indices 1 2 3 4 5 6 
#
# 1 0.013400 -0.001830 -0.004676 -0.001583 -0.002006 -0.006285
# 2 -0.001830 0.023541 0.006371 0.006087 0.006868 -0.014228
# 3 -0.004676 0.006371 0.027858 0.003598 0.003979 -0.003571
# 4 -0.001583 0.006087 0.003598 0.033019 0.003393 0.001684
# 5 -0.002006 0.006868 0.003979 0.003393 0.030410 0.001039
# 6 -0.006285 -0.014228 -0.003571 0.001684 0.001039 0.038318
#
#
# Mechanical properties :
#
#
# Convention : Reuss Voigt Hill
#
# Bulk Modulus (GPa) = 15.49737 28.62537 22.06137
# Shear Modulus (GPa) = 26.54966 34.06314 30.30640
#
# Velocity S-wave (km/s) = 3.40535 3.85722 3.63831
# Velocity P-wave (km/s) = 4.71496 5.68687 5.22357
#
# Compressibility (1/GPa) = 0.06452708
#
# Stress axis : x y z
#
# Youngs Moduli (GPa) = 74.62506 42.47990 35.89698
#
# Poissons Ratio (x) = 0.07774 0.16787
# Poissons Ratio (y) = 0.13656 -0.22869
# Poissons Ratio (z) = 0.34897 -0.27063
#
# Static dielectric constant tensor:
#      x y z
#    x 1.862080 -0.040930 0.018480 
#    y -0.040930 1.895430 0.000790 
#    z 0.018480 0.000790 1.875100 
# 
# From -- ./inp_files/207022.got.cif
#   From: 2010.05.17/outbox.cif.g08.bks.cpg/sg2_104_cif.got.tgz:207022.got - 2010.06.03 11:33:40.
