data_PCOD9022077
_publ_section_title
;
Structure prediction by ZEFSAII (Michael W. Deem and Ramdas Pophale) SiO2 
 PCOD9022077
Probable space group: P -1
;
_chemical_formula_sum "Si O2"
_cell_formula_units_Z 15
_cell_length_a 10.279308
_cell_length_b 7.752369
_cell_length_c 10.370098
_cell_angle_alpha 92.620167
_cell_angle_beta 124.677451
_cell_angle_gamma 85.386448
_cell_volume 677.388685
_symmetry_space_group_name_H-M "P -1"
_symmetry_group_IT_number 2
_symmetry_cell_setting 'triclinic'
loop_
_space_group_symop_operation_xyz
x,y,z
-x,-y,-z
loop_
_atom_site_type_symbol
_atom_site_label
_atom_site_fract_x
_atom_site_fract_y
_atom_site_fract_z
Si Si1 0.792886 0.356238 0.737187
Si Si2 0.765843 0.577208 0.486906
Si Si3 0.444491 0.078057 0.109125
Si Si4 0.504221 0.137711 0.619276
Si Si5 0.053133 0.732737 0.773937
Si Si6 0.620676 0.399890 0.161290
Si Si7 0.000000 0.500000 0.000000
Si Si8 0.066137 0.083614 0.911165
O O1 0.767139 0.415433 0.579849
O O2 0.671009 0.223549 0.707090
O O3 0.976599 0.275617 0.856173
O O4 0.807002 0.506979 0.853102
O O5 0.636538 0.717938 0.474216
O O6 0.704635 0.524950 0.311699
O O7 0.936355 0.655381 0.600029
O O8 0.522461 0.259700 0.174334
O O9 0.508302 0.950376 0.252862
O O10 0.253662 0.094929 0.012739
O O11 0.500000 0.000000 0.000000
O O12 0.500000 0.000000 0.500000
O O13 0.235395 0.699279 0.837090
O O14 0.018842 0.940340 0.775839
O O15 0.027604 0.628998 0.888707
O O16 0.500000 0.500000 0.000000
O O17 0.000000 0.000000 0.000000
#
# Coordination Sequence:
#
# PCOD9022077 Si02
#       8
#     2   2   2   2   2   2   1   2
#     4  11  24  42  72 107 144 184 245 301 364 427
#     4  11  27  46  72 108 148 192 244 310 372 443
#     4  12  26  46  73 110 148 195 252 306 376 441
#     4  12  25  47  72 104 148 190 247 305 374 444
#     4  11  24  47  67 107 146 191 249 297 370 438
#     4  12  28  47  74 102 150 197 245 307 377 450
#     4  10  22  38  70  98 136 184 234 298 348 432
#     4  12  23  44  76 108 146 193 248 305 361 444
#
# _framework density 22.143858999999999
#
# number of rings (size 3 to 8) (size 9 to 14) (size 15 to 20)
#    0.000    0.533    4.000    3.200    5.600    0.000 
#    2.400    1.333    0.000    0.000    0.000    0.000 
#    0.000    0.000    0.000    0.000    0.000    0.000 
#
# Total GULP energy -83707.334555 kJ/mol
# GULP energy per Si atom -5580.488970 kJ/mol
# Density = 2.209346 g / cm^3
# Si number density = 22.143859 Si / 1000 Ang^3
#
#
#
# Elastic Constant Matrix: (Units=GPa)
#
#
# Indices 1 2 3 4 5 6 
#
# 1 112.4194 32.8631 31.4437 6.1077 19.5716 6.1175
# 2 32.8631 56.0707 14.1413 6.1456 5.7503 11.8290
# 3 31.4437 14.1413 126.4810 6.9754 5.3395 5.6665
# 4 6.1077 6.1456 6.9754 37.7911 2.3395 13.8069
# 5 19.5716 5.7503 5.3395 2.3395 31.1931 5.0758
# 6 6.1175 11.8290 5.6665 13.8069 5.0758 46.0066
#
#
#
# Elastic Compliance Matrix: (Units=1/GPa)
#
#
# Indices 1 2 3 4 5 6 
#
# 1 0.012403 -0.006243 -0.002132 -0.000604 -0.006401 0.001106
# 2 -0.006243 0.022706 -0.000757 -0.000857 0.000695 -0.004734
# 3 -0.002132 -0.000757 0.008584 -0.001020 0.000131 -0.000288
# 4 -0.000604 -0.000857 -0.001020 0.030026 -0.000146 -0.008569
# 5 -0.006401 0.000695 0.000131 -0.000146 0.036476 -0.003324
# 6 0.001106 -0.004734 -0.000288 -0.008569 -0.003324 0.025780
#
#
# Mechanical properties :
#
#
# Convention : Reuss Voigt Hill
#
# Bulk Modulus (GPa) = 39.32096 50.20748 44.76422
# Shear Modulus (GPa) = 30.72863 37.43303 34.08083
#
# Velocity S-wave (km/s) = 3.72920 4.11597 3.92735
# Velocity P-wave (km/s) = 6.02812 6.73133 6.38940
#
# Compressibility (1/GPa) = 0.02543173
#
# Stress axis : x y z
#
# Youngs Moduli (GPa) = 80.62292 44.04179 116.48954
#
# Poissons Ratio (x) = 0.27494 0.24831
# Poissons Ratio (y) = 0.50331 0.08814
# Poissons Ratio (z) = 0.17185 0.03332
#
# Static dielectric constant tensor:
#      x y z
#    x 1.758750 -0.109480 -0.043720 
#    y -0.109480 0.691160 -0.636110 
#    z -0.043720 -0.636110 1.420400 
# 
# From -- ./inp_files/158270.got.cif
#   From: 2010.05.17/outbox.cif.g08.bks.cpg/sg2_80_cif.got.tgz:158270.got - 2010.06.03 11:33:40.
