data_PCOD9022835
_publ_section_title
;
Structure prediction by ZEFSAII (Michael W. Deem and Ramdas Pophale) SiO2 
 PCOD9022835
Probable space group: P -1
;
_chemical_formula_sum "Si O2"
_cell_formula_units_Z 14
_cell_length_a 20.505044
_cell_length_b 9.197498
_cell_length_c 28.473482
_cell_angle_alpha 40.330523
_cell_angle_beta 167.809503
_cell_angle_gamma 137.402913
_cell_volume 732.284183
_symmetry_space_group_name_H-M "P -1"
_symmetry_group_IT_number 2
_symmetry_cell_setting 'triclinic'
loop_
_space_group_symop_operation_xyz
x,y,z
-x,-y,-z
loop_
_atom_site_type_symbol
_atom_site_label
_atom_site_fract_x
_atom_site_fract_y
_atom_site_fract_z
Si Si1 0.207450 0.687528 0.076152
Si Si2 0.254794 0.793118 0.238526
Si Si3 0.288567 0.379492 0.480807
Si Si4 0.737055 0.111958 0.527476
Si Si5 0.185861 0.875101 0.314014
Si Si6 0.722943 0.488652 0.935034
Si Si7 0.757473 0.129335 0.123041
O O1 0.547338 0.658322 0.344138
O O2 0.200726 0.646881 0.025870
O O3 0.000000 0.500000 0.000000
O O4 0.072006 0.938211 0.930246
O O5 0.446589 0.705692 0.349138
O O6 0.515239 0.901059 0.426839
O O7 0.041310 0.591992 0.150966
O O8 0.000000 0.000000 0.000000
O O9 0.202407 0.645524 0.353560
O O10 0.991355 0.242367 0.295534
O O11 0.843144 0.174016 0.638775
O O12 0.526677 0.312310 0.305235
O O13 0.023720 0.033899 0.715785
O O14 0.500000 0.000000 0.500000
O O15 0.618524 0.325988 0.942224
O O16 0.500000 0.000000 0.000000
#
# Coordination Sequence:
#
# PCOD9022835 Si02
#       7
#     2   2   2   2   2   2   2
#     4  12  21  37  62 101 137 164 194 254 328 406
#     4   9  20  34  59  95 131 163 197 248 324 398
#     4  11  24  40  63  97 133 163 214 259 324 381
#     4  10  22  39  64  95 127 165 208 261 328 379
#     4  12  22  34  64 100 137 164 195 252 330 402
#     4  11  20  39  67  91 130 165 207 262 327 380
#     4  11  27  47  64  87 123 176 235 269 297 361
#
# _framework density 19.118262000000001
#
# number of rings (size 3 to 8) (size 9 to 14) (size 15 to 20)
#    0.000    1.143    5.714    0.000    4.000    4.000 
#    0.000    1.429    0.000    0.000    0.000    0.000 
#    0.000    0.000    0.000    0.000    0.000    0.000 
#
# Total GULP energy -78231.083265 kJ/mol
# GULP energy per Si atom -5587.934519 kJ/mol
# Density = 1.907475 g / cm^3
# Si number density = 19.118262 Si / 1000 Ang^3
#
#
#
# Elastic Constant Matrix: (Units=GPa)
#
#
# Indices 1 2 3 4 5 6 
#
# 1 98.7960 58.5125 42.7109 17.2220 -3.6109 1.9601
# 2 58.5125 128.5287 64.0264 -5.9437 12.0756 -0.0484
# 3 42.7109 64.0264 87.2244 -4.7429 3.2244 6.5476
# 4 17.2220 -5.9437 -4.7429 40.7853 2.3947 5.3171
# 5 -3.6109 12.0756 3.2244 2.3947 29.5876 0.0469
# 6 1.9601 -0.0484 6.5476 5.3171 0.0469 42.3375
#
#
#
# Elastic Compliance Matrix: (Units=1/GPa)
#
#
# Indices 1 2 3 4 5 6 
#
# 1 0.018190 -0.007050 -0.004579 -0.009756 0.006384 0.001076
# 2 -0.007050 0.015619 -0.007579 0.004648 -0.006787 0.000940
# 3 -0.004579 -0.007579 0.019706 0.003543 0.000105 -0.003289
# 4 -0.009756 0.004648 0.003543 0.030588 -0.005943 -0.003926
# 5 0.006384 -0.006787 0.000105 -0.005943 0.037816 0.000385
# 6 0.001076 0.000940 -0.003289 -0.003926 0.000385 0.024572
#
#
# Mechanical properties :
#
#
# Convention : Reuss Voigt Hill
#
# Bulk Modulus (GPa) = 66.23793 71.67207 68.95500
# Shear Modulus (GPa) = 26.32410 32.49536 29.40973
#
# Velocity S-wave (km/s) = 3.71470 4.12722 3.92638
# Velocity P-wave (km/s) = 7.28837 7.76415 7.53002
#
# Compressibility (1/GPa) = 0.01509709
#
# Stress axis : x y z
#
# Youngs Moduli (GPa) = 54.97639 64.02624 50.74604
#
# Poissons Ratio (x) = 0.45141 0.23236
# Poissons Ratio (y) = 0.38761 0.38462
# Poissons Ratio (z) = 0.25173 0.48528
#
# Static dielectric constant tensor:
#      x y z
#    x 1.711120 0.008670 -0.055060 
#    y 0.008670 1.700130 -0.079230 
#    z -0.055060 -0.079230 1.720600 
# 
# From -- ./inp_files/202399.got.cif
#   From: 2010.05.17/outbox.cif.g08.bks.cpg/sg2_102_cif.got.tgz:202399.got - 2010.06.03 11:33:40.
