data_PCOD9022834
_publ_section_title
;
Structure prediction by ZEFSAII (Michael W. Deem and Ramdas Pophale) SiO2 
 PCOD9022834
Probable space group: P -1
;
_chemical_formula_sum "Si O2"
_cell_formula_units_Z 14
_cell_length_a 6.566253
_cell_length_b 13.760350
_cell_length_c 23.107485
_cell_angle_alpha 19.495223
_cell_angle_beta 70.907569
_cell_angle_gamma 80.696910
_cell_volume 582.890601
_symmetry_space_group_name_H-M "P -1"
_symmetry_group_IT_number 2
_symmetry_cell_setting 'triclinic'
loop_
_space_group_symop_operation_xyz
x,y,z
-x,-y,-z
loop_
_atom_site_type_symbol
_atom_site_label
_atom_site_fract_x
_atom_site_fract_y
_atom_site_fract_z
Si Si1 0.255834 0.752468 0.863961
Si Si2 0.434178 0.675993 0.651938
Si Si3 0.775042 0.749559 0.482083
Si Si4 0.420623 0.655377 0.084554
Si Si5 0.745080 0.748445 0.774512
Si Si6 0.103074 0.762878 0.289835
Si Si7 0.059342 0.928584 0.969230
O O1 0.499941 0.763031 0.807939
O O2 0.240762 0.088274 0.668788
O O3 0.258777 0.595700 0.012921
O O4 0.000000 0.500000 0.000000
O O5 0.550623 0.750093 0.536675
O O6 0.546333 0.454408 0.793581
O O7 0.150641 0.442158 0.813356
O O8 0.500000 0.000000 0.500000
O O9 0.770082 0.406465 0.665826
O O10 0.020528 0.974164 0.370420
O O11 0.272346 0.308573 0.259906
O O12 0.299621 0.891125 0.965807
O O13 0.692998 0.879364 0.907945
O O14 0.000000 0.500000 0.500000
O O15 0.946010 0.840309 0.212589
O O16 0.000000 0.000000 0.000000
#
# Coordination Sequence:
#
# PCOD9022834 Si02
#       7
#     2   2   2   2   2   2   2
#     4   9  21  37  61  88 128 166 210 265 327 378
#     4  11  24  43  69 102 134 169 222 285 337 393
#     4  11  23  41  65  95 132 173 218 273 329 394
#     4  11  25  43  67  96 136 173 222 278 334 393
#     4  10  22  39  64  95 126 169 219 267 328 398
#     4  11  28  44  65  98 141 176 226 279 334 395
#     4  11  25  47  70  95 136 183 227 273 333 402
#
# _framework density 24.018225000000001
#
# number of rings (size 3 to 8) (size 9 to 14) (size 15 to 20)
#    0.000    1.429    0.000    3.429    8.000   12.000 
#    0.000    0.000    0.000    0.000    0.000    0.000 
#    0.000    0.000    0.000    0.000    0.000    0.000 
#
# Total GULP energy -78109.429757 kJ/mol
# GULP energy per Si atom -5579.244983 kJ/mol
# Density = 2.396356 g / cm^3
# Si number density = 24.018225 Si / 1000 Ang^3
#
#
#
# Elastic Constant Matrix: (Units=GPa)
#
#
# Indices 1 2 3 4 5 6 
#
# 1 119.6280 2.4278 44.5646 5.2646 17.2706 2.7773
# 2 2.4278 56.0151 19.0309 1.2388 -4.6644 4.4650
# 3 44.5646 19.0309 93.9407 -3.6139 9.7799 11.8854
# 4 5.2646 1.2388 -3.6139 36.9131 -2.9484 3.3582
# 5 17.2706 -4.6644 9.7799 -2.9484 32.0250 -0.9859
# 6 2.7773 4.4650 11.8854 3.3582 -0.9859 32.0619
#
#
#
# Elastic Compliance Matrix: (Units=1/GPa)
#
#
# Indices 1 2 3 4 5 6 
#
# 1 0.010989 0.000884 -0.005151 -0.002543 -0.004429 0.000965
# 2 0.000884 0.019830 -0.004751 -0.000878 0.003755 -0.000869
# 3 -0.005151 -0.004751 0.015010 0.002608 -0.002406 -0.004803
# 4 -0.002543 -0.000878 0.002608 0.028291 0.002944 -0.003497
# 5 -0.004429 0.003755 -0.002406 0.002944 0.035214 0.001527
# 6 0.000965 -0.000869 -0.004803 -0.003497 0.001527 0.033421
#
#
# Mechanical properties :
#
#
# Convention : Reuss Voigt Hill
#
# Bulk Modulus (GPa) = 35.98129 44.62560 40.30345
# Shear Modulus (GPa) = 29.40230 33.77070 31.58650
#
# Velocity S-wave (km/s) = 3.50260 3.75379 3.63037
# Velocity P-wave (km/s) = 5.60098 6.11622 5.86426
#
# Compressibility (1/GPa) = 0.02779222
#
# Stress axis : x y z
#
# Youngs Moduli (GPa) = 90.99924 50.42965 66.62355
#
# Poissons Ratio (x) = -0.04460 0.34318
# Poissons Ratio (y) = -0.08047 0.31655
# Poissons Ratio (z) = 0.46874 0.23961
#
# Static dielectric constant tensor:
#      x y z
#    x 1.903360 0.061240 -0.108550 
#    y 0.061240 1.862900 0.139980 
#    z -0.108550 0.139980 1.821460 
# 
# From -- ./inp_files/487724.got.cif
#   From: 2010.05.17/outbox.cif.g08.bks.cpg/sg2_244_cif.got.tgz:487724.got - 2010.06.03 11:33:40.
