data_PCOD9022543
_publ_section_title
;
Structure prediction by ZEFSAII (Michael W. Deem and Ramdas Pophale) SiO2 
 PCOD9022543
Probable space group: P -1
;
_chemical_formula_sum "Si O2"
_cell_formula_units_Z 16
_cell_length_a 10.109452
_cell_length_b 14.816979
_cell_length_c 11.796644
_cell_angle_alpha 31.475934
_cell_angle_beta 67.610011
_cell_angle_gamma 53.094224
_cell_volume 700.374102
_symmetry_space_group_name_H-M "P -1"
_symmetry_group_IT_number 2
_symmetry_cell_setting 'triclinic'
loop_
_space_group_symop_operation_xyz
x,y,z
-x,-y,-z
loop_
_atom_site_type_symbol
_atom_site_label
_atom_site_fract_x
_atom_site_fract_y
_atom_site_fract_z
Si Si1 0.899498 0.085365 0.560178
Si Si2 0.234512 0.701569 0.228116
Si Si3 0.413312 0.658483 0.989895
Si Si4 0.034727 0.569648 0.752385
Si Si5 0.595373 0.193791 0.393105
Si Si6 0.704903 0.742148 0.817795
Si Si7 0.158844 0.403545 0.639488
Si Si8 0.129803 0.049817 0.051129
O O1 0.921047 0.265818 0.401598
O O2 0.706483 0.167623 0.494239
O O3 0.937793 0.937456 0.813507
O O4 0.000000 0.000000 0.500000
O O5 0.285363 0.469222 0.487325
O O6 0.236837 0.814745 0.218974
O O7 0.335005 0.723522 0.070004
O O8 0.038241 0.824659 0.110503
O O9 0.315293 0.809859 0.752079
O O10 0.590638 0.648792 0.946033
O O11 0.437139 0.438644 0.190589
O O12 0.075176 0.516064 0.665803
O O13 0.835928 0.669854 0.746256
O O14 0.163109 0.360939 0.008663
O O15 0.584153 0.995301 0.600211
O O16 0.000000 0.500000 0.500000
O O17 0.230388 0.161031 0.889599
#
# Coordination Sequence:
#
# PCOD9022543 Si02
#       8
#     2   2   2   2   2   2   2   2
#     4  12  21  39  69  98 129 168 212 278 328 376
#     4  10  22  42  63  94 129 171 217 267 315 390
#     4  11  25  42  64  93 136 174 215 258 330 392
#     4  11  23  41  68 101 130 162 225 272 322 383
#     4  11  24  41  61  95 131 173 214 263 326 391
#     4  11  24  42  66  98 132 168 211 275 326 382
#     4  10  22  39  62  95 128 165 211 266 317 376
#     4  10  22  39  67  95 127 168 219 266 326 373
#
# _framework density 22.844933999999999
#
# number of rings (size 3 to 8) (size 9 to 14) (size 15 to 20)
#    0.000    1.250    3.750    1.875    1.750    5.000 
#    0.000    2.500    0.000    3.000    0.000    0.000 
#    0.000    0.000    0.000    0.000    0.000    0.000 
#
# Total GULP energy -89354.200977 kJ/mol
# GULP energy per Si atom -5584.637561 kJ/mol
# Density = 2.279294 g / cm^3
# Si number density = 22.844934 Si / 1000 Ang^3
#
#
#
# Elastic Constant Matrix: (Units=GPa)
#
#
# Indices 1 2 3 4 5 6 
#
# 1 66.1864 27.6465 12.8531 -3.9420 -18.1143 19.3935
# 2 27.6465 76.9799 19.5130 14.5589 -8.4490 34.0552
# 3 12.8531 19.5130 106.2397 -8.1780 -20.2056 16.7607
# 4 -3.9420 14.5589 -8.1780 36.7060 4.2580 1.4172
# 5 -18.1143 -8.4490 -20.2056 4.2580 30.1730 4.3384
# 6 19.3935 34.0552 16.7607 1.4172 4.3384 29.9589
#
#
#
# Elastic Compliance Matrix: (Units=1/GPa)
#
#
# Indices 1 2 3 4 5 6 
#
# 1 0.028311 0.004902 0.005631 0.000468 0.026518 -0.030911
# 2 0.004902 0.040131 0.004668 -0.015413 0.027336 -0.054632
# 3 0.005631 0.004668 0.014194 0.000706 0.016878 -0.019370
# 4 0.000468 -0.015413 0.000706 0.034169 -0.010796 0.016769
# 5 0.026518 0.027336 0.016878 -0.010796 0.079417 -0.068673
# 6 -0.030911 -0.054632 -0.019370 0.016769 -0.068673 0.135479
#
#
# Mechanical properties :
#
#
# Convention : Reuss Voigt Hill
#
# Bulk Modulus (GPa) = 8.84667 41.04792 24.94729
# Shear Modulus (GPa) = 14.75020 31.99380 23.37200
#
# Velocity S-wave (km/s) = 2.54375 3.74635 3.20202
# Velocity P-wave (km/s) = 3.53673 6.05976 4.96131
#
# Compressibility (1/GPa) = 0.11303689
#
# Stress axis : x y z
#
# Youngs Moduli (GPa) = 35.32243 24.91860 70.45071
#
# Poissons Ratio (x) = -0.12216 -0.39668
# Poissons Ratio (y) = -0.17316 -0.32885
# Poissons Ratio (z) = -0.19889 -0.11631
#
# Static dielectric constant tensor:
#      x y z
#    x 1.870710 -0.029240 0.015480 
#    y -0.029240 1.854450 -0.003090 
#    z 0.015480 -0.003090 1.903060 
# 
# From -- ./inp_files/432271.got.cif
#   From: 2010.05.17/outbox.cif.g08.bks.cpg/sg2_217_cif.got.tgz:432271.got - 2010.06.03 11:33:40.
