data_PCOD9022842
_publ_section_title
;
Structure prediction by ZEFSAII (Michael W. Deem and Ramdas Pophale) SiO2 
 PCOD9022842
Probable space group: P -1
;
_chemical_formula_sum "Si O2"
_cell_formula_units_Z 14
_cell_length_a 6.867705
_cell_length_b 16.941482
_cell_length_c 9.475672
_cell_angle_alpha 31.728513
_cell_angle_beta 81.264613
_cell_angle_gamma 90.500558
_cell_volume 552.528416
_symmetry_space_group_name_H-M "P -1"
_symmetry_group_IT_number 2
_symmetry_cell_setting 'triclinic'
loop_
_space_group_symop_operation_xyz
x,y,z
-x,-y,-z
loop_
_atom_site_type_symbol
_atom_site_label
_atom_site_fract_x
_atom_site_fract_y
_atom_site_fract_z
Si Si1 0.265715 0.433575 0.163307
Si Si2 0.311960 0.939320 0.002141
Si Si3 0.214391 0.697830 0.943144
Si Si4 0.003177 0.132807 0.628663
Si Si5 0.390994 0.443013 0.423288
Si Si6 0.349023 0.029684 0.303528
Si Si7 0.758562 0.681248 0.071873
O O1 0.191083 0.584057 0.981750
O O2 0.130478 0.294884 0.299187
O O3 0.284933 0.352720 0.436553
O O4 0.500000 0.500000 0.000000
O O5 0.438918 0.906258 0.903134
O O6 0.170700 0.046655 0.795023
O O7 0.140734 0.826719 0.291853
O O8 0.500000 0.000000 0.000000
O O9 0.309962 0.598660 0.193593
O O10 0.996390 0.703545 0.012194
O O11 0.343638 0.869580 0.627682
O O12 0.841755 0.025991 0.701364
O O13 0.632302 0.519082 0.261623
O O14 0.327955 0.347346 0.715191
O O15 0.292777 0.160153 0.207826
#
# Coordination Sequence:
#
# PCOD9022842 Si02
#       7
#     2   2   2   2   2   2   2
#     4  10  23  43  67  93 134 166 217 271 324 385
#     4   9  21  38  58  96 131 171 217 255 330 385
#     4  10  24  42  64  96 127 173 214 264 326 383
#     4  10  22  39  64  95 132 173 211 269 327 385
#     4   9  25  43  65  92 130 174 217 266 313 385
#     4  11  24  39  66 100 131 167 214 273 325 382
#     4  11  23  45  66  94 129 174 223 259 320 390
#
# _framework density 25.338063999999999
#
# number of rings (size 3 to 8) (size 9 to 14) (size 15 to 20)
#    0.857    1.143    0.000    1.714    8.000    4.571 
#    2.571    0.000    0.000    0.000    0.000    0.000 
#    0.000    0.000    0.000    0.000    0.000    0.000 
#
# Total GULP energy -78141.863075 kJ/mol
# GULP energy per Si atom -5581.561648 kJ/mol
# Density = 2.528039 g / cm^3
# Si number density = 25.338064 Si / 1000 Ang^3
#
#
#
# Elastic Constant Matrix: (Units=GPa)
#
#
# Indices 1 2 3 4 5 6 
#
# 1 138.9430 16.7167 41.0659 7.1748 -9.1364 -3.8781
# 2 16.7167 44.6129 20.0952 -10.7602 -7.9969 -6.7286
# 3 41.0659 20.0952 92.4726 -8.1606 -20.6817 -13.8452
# 4 7.1748 -10.7602 -8.1606 32.5373 0.4211 -0.7517
# 5 -9.1364 -7.9969 -20.6817 0.4211 53.7028 9.2963
# 6 -3.8781 -6.7286 -13.8452 -0.7517 9.2963 41.7821
#
#
#
# Elastic Compliance Matrix: (Units=1/GPa)
#
#
# Indices 1 2 3 4 5 6 
#
# 1 0.008814 -0.002658 -0.003852 -0.003807 -0.000192 -0.000912
# 2 -0.002658 0.027809 -0.003211 0.009020 0.001877 0.002912
# 3 -0.003852 -0.003211 0.014921 0.003553 0.004024 0.003238
# 4 -0.003807 0.009020 0.003553 0.035491 0.001332 0.002619
# 5 -0.000192 0.001877 0.004024 0.001332 0.020929 -0.003015
# 6 -0.000912 0.002912 0.003238 0.002619 -0.003015 0.026109
#
#
# Mechanical properties :
#
#
# Convention : Reuss Voigt Hill
#
# Bulk Modulus (GPa) = 31.15084 47.97601 39.56343
# Shear Modulus (GPa) = 30.44799 38.81446 34.63123
#
# Velocity S-wave (km/s) = 3.47027 3.91815 3.70099
# Velocity P-wave (km/s) = 5.32708 6.28050 5.82334
#
# Compressibility (1/GPa) = 0.03210186
#
# Stress axis : x y z
#
# Youngs Moduli (GPa) = 113.45568 35.96014 67.02039
#
# Poissons Ratio (x) = 0.09557 0.25817
# Poissons Ratio (y) = 0.30154 0.21519
# Poissons Ratio (z) = 0.43705 0.11546
#
# Static dielectric constant tensor:
#      x y z
#    x 1.992180 0.062550 0.017790 
#    y 0.062550 2.090430 0.032070 
#    z 0.017790 0.032070 1.972320 
# 
# From -- ./inp_files/368829.got.cif
#   From: 2010.05.17/outbox.cif.g08.bks.cpg/sg2_185_cif.got.tgz:368829.got - 2010.06.03 11:33:40.
