data_PCOD9022770
_publ_section_title
;
Structure prediction by ZEFSAII (Michael W. Deem and Ramdas Pophale) SiO2 
 PCOD9022770
Probable space group: P -1
;
_chemical_formula_sum "Si O2"
_cell_formula_units_Z 14
_cell_length_a 4.945926
_cell_length_b 11.676415
_cell_length_c 13.878648
_cell_angle_alpha 69.150011
_cell_angle_beta 54.947879
_cell_angle_gamma 74.128487
_cell_volume 610.662529
_symmetry_space_group_name_H-M "P -1"
_symmetry_group_IT_number 2
_symmetry_cell_setting 'triclinic'
loop_
_space_group_symop_operation_xyz
x,y,z
-x,-y,-z
loop_
_atom_site_type_symbol
_atom_site_label
_atom_site_fract_x
_atom_site_fract_y
_atom_site_fract_z
Si Si1 0.141456 0.358330 0.256497
Si Si2 0.585300 0.534344 0.650306
Si Si3 0.673046 0.271573 0.023050
Si Si4 0.829580 0.745523 0.416168
Si Si5 0.899665 0.142828 0.488727
Si Si6 0.311009 0.131395 0.977552
Si Si7 0.247626 0.296373 0.772032
O O1 0.203309 0.453365 0.300680
O O2 0.441088 0.345052 0.124686
O O3 0.778469 0.394911 0.276979
O O4 0.119477 0.226850 0.353220
O O5 0.750986 0.610335 0.510224
O O6 0.508130 0.397549 0.680122
O O7 0.445422 0.221806 0.001810
O O8 0.908775 0.156047 0.054756
O O9 0.945767 0.345737 0.890543
O O10 0.478429 0.826812 0.473643
O O11 0.892559 0.738604 0.291626
O O12 0.063014 0.806464 0.425717
O O13 0.000000 0.000000 0.500000
O O14 0.385779 0.177312 0.840793
O O15 0.500000 0.000000 0.000000
#
# Coordination Sequence:
#
# PCOD9022770 Si02
#       7
#     2   2   2   2   2   2   2
#     4  10  22  41  60  91 125 165 206 255 308 358
#     4  10  22  39  64  89 128 163 204 257 304 367
#     4  10  23  40  62  90 124 162 208 250 310 363
#     4  10  22  40  63  92 125 158 204 256 308 362
#     4  10  22  41  63  90 119 162 209 252 306 366
#     4  10  23  42  58  87 126 158 208 250 308 361
#     4  10  25  38  65  93 126 162 210 247 316 367
#
# _framework density 22.925917999999999
#
# number of rings (size 3 to 8) (size 9 to 14) (size 15 to 20)
#    0.857    1.143    0.000    2.143    4.000    2.286 
#    0.000    4.286    0.000    0.000    0.000    0.000 
#    0.000    0.000    0.000    0.000    0.000    0.000 
#
# Total GULP energy -78269.560567 kJ/mol
# GULP energy per Si atom -5590.682898 kJ/mol
# Density = 2.287374 g / cm^3
# Si number density = 22.925918 Si / 1000 Ang^3
#
#
#
# Elastic Constant Matrix: (Units=GPa)
#
#
# Indices 1 2 3 4 5 6 
#
# 1 73.1304 -1.8505 11.3385 -4.5013 6.9958 -9.1378
# 2 -1.8505 105.7975 31.1821 -11.1858 7.1516 -9.8591
# 3 11.3385 31.1821 104.0999 10.0382 0.0842 -9.3913
# 4 -4.5013 -11.1858 10.0382 25.6238 -9.4111 2.3237
# 5 6.9958 7.1516 0.0842 -9.4111 35.0854 1.8582
# 6 -9.1378 -9.8591 -9.3913 2.3237 1.8582 38.5539
#
#
#
# Elastic Compliance Matrix: (Units=1/GPa)
#
#
# Indices 1 2 3 4 5 6 
#
# 1 0.014904 0.001682 -0.002093 0.002864 -0.002722 0.003411
# 2 0.001682 0.011629 -0.004098 0.006392 -0.001090 0.002042
# 3 -0.002093 -0.004098 0.011933 -0.007304 -0.000833 0.001843
# 4 0.002864 0.006392 -0.007304 0.049732 0.011644 -0.003025
# 5 -0.002722 -0.001090 -0.000833 0.011644 0.032572 -0.003398
# 6 0.003411 0.002042 0.001843 -0.003025 -0.003398 0.028063
#
#
# Mechanical properties :
#
#
# Convention : Reuss Voigt Hill
#
# Bulk Modulus (GPa) = 33.95788 40.48532 37.22160
# Shear Modulus (GPa) = 29.82091 36.00981 32.91536
#
# Velocity S-wave (km/s) = 3.61051 3.96751 3.79321
# Velocity P-wave (km/s) = 5.67672 6.21978 5.95445
#
# Compressibility (1/GPa) = 0.02944824
#
# Stress axis : x y z
#
# Youngs Moduli (GPa) = 67.09469 85.99218 83.80145
#
# Poissons Ratio (x) = -0.14467 0.17544
# Poissons Ratio (y) = -0.11288 0.34341
# Poissons Ratio (z) = 0.14046 0.35239
#
# Static dielectric constant tensor:
#      x y z
#    x 1.862210 -0.069030 -0.032360 
#    y -0.069030 1.858000 -0.014340 
#    z -0.032360 -0.014340 1.853870 
# 
# From -- ./inp_files/81717.got.cif
#   From: 2010.05.17/outbox.cif.g08.bks.cpg/sg2_41_cif.got.tgz:81717.got - 2010.06.03 11:33:40.
