data_PCOD9022335
_publ_section_title
;
Structure prediction by ZEFSAII (Michael W. Deem and Ramdas Pophale) SiO2 
 PCOD9022335
Probable space group: P -1
;
_chemical_formula_sum "Si O2"
_cell_formula_units_Z 14
_cell_length_a 8.835111
_cell_length_b 12.186431
_cell_length_c 14.276720
_cell_angle_alpha 134.384027
_cell_angle_beta 40.715263
_cell_angle_gamma 125.284153
_cell_volume 712.862589
_symmetry_space_group_name_H-M "P -1"
_symmetry_group_IT_number 2
_symmetry_cell_setting 'triclinic'
loop_
_space_group_symop_operation_xyz
x,y,z
-x,-y,-z
loop_
_atom_site_type_symbol
_atom_site_label
_atom_site_fract_x
_atom_site_fract_y
_atom_site_fract_z
Si Si1 0.969912 0.146077 0.167685
Si Si2 0.227937 0.002748 0.113558
Si Si3 0.780505 0.387235 0.881832
Si Si4 0.458604 0.627636 0.208608
Si Si5 0.527935 0.145685 0.503601
Si Si6 0.991465 0.909920 0.352719
Si Si7 0.969874 0.704719 0.957502
O O1 0.721297 0.127903 0.324191
O O2 0.991650 0.283725 0.164966
O O3 0.160781 0.133991 0.151813
O O4 0.000000 0.000000 0.000000
O O5 0.093326 0.014973 0.281776
O O6 0.126456 0.838125 0.017366
O O7 0.500000 0.000000 0.000000
O O8 0.725505 0.366814 0.784796
O O9 0.851358 0.232106 0.798924
O O10 0.981314 0.530427 0.883909
O O11 0.549629 0.458120 0.071839
O O12 0.395326 0.704164 0.379941
O O13 0.698359 0.726237 0.118930
O O14 0.273621 0.153490 0.583615
O O15 0.500000 0.000000 0.500000
O O16 0.000000 0.000000 0.500000
#
# Coordination Sequence:
#
# PCOD9022335 Si02
#       7
#     2   2   2   2   2   2   2
#     4  10  22  39  61  86 124 167 205 251 318 369
#     4  11  24  37  60  96 126 163 208 254 313 371
#     4   9  21  39  67  91 123 163 212 252 330 361
#     4   9  19  39  66  86 122 163 216 254 300 381
#     4  12  21  39  61  92 122 165 218 259 300 366
#     4  12  25  38  64  95 128 160 212 269 305 371
#     4   9  19  42  62  85 124 166 204 247 313 378
#
# _framework density 19.639127999999999
#
# number of rings (size 3 to 8) (size 9 to 14) (size 15 to 20)
#    0.857    0.857    2.857    1.714    6.000    2.286 
#    0.000    1.429    3.143    0.000    0.000    0.000 
#    0.000    0.000    0.000    0.000    0.000    0.000 
#
# Total GULP energy -78070.100554 kJ/mol
# GULP energy per Si atom -5576.435754 kJ/mol
# Density = 1.959443 g / cm^3
# Si number density = 19.639128 Si / 1000 Ang^3
#
#
#
# Elastic Constant Matrix: (Units=GPa)
#
#
# Indices 1 2 3 4 5 6 
#
# 1 80.7303 2.7223 27.2312 1.1276 5.7702 3.8823
# 2 2.7223 39.2998 6.2008 -4.1306 9.6448 -6.4945
# 3 27.2312 6.2008 99.7664 -15.8525 16.6515 -8.7364
# 4 1.1276 -4.1306 -15.8525 37.2685 1.0693 -1.6636
# 5 5.7702 9.6448 16.6515 1.0693 38.8318 -2.4713
# 6 3.8823 -6.4945 -8.7364 -1.6636 -2.4713 37.0408
#
#
#
# Elastic Compliance Matrix: (Units=1/GPa)
#
#
# Indices 1 2 3 4 5 6 
#
# 1 0.014088 -0.000996 -0.004424 -0.002542 -0.000058 -0.002813
# 2 -0.000996 0.028346 0.000733 0.003905 -0.006999 0.004956
# 3 -0.004424 0.000733 0.013361 0.006211 -0.005191 0.003676
# 4 -0.002542 0.003905 0.006211 0.030252 -0.003865 0.003517
# 5 -0.000058 -0.006999 -0.005191 -0.003865 0.029791 -0.000631
# 6 -0.002813 0.004956 0.003676 0.003517 -0.000631 0.029144
#
#
# Mechanical properties :
#
#
# Convention : Reuss Voigt Hill
#
# Bulk Modulus (GPa) = 21.54231 32.45611 26.99921
# Shear Modulus (GPa) = 29.44155 34.87105 32.15630
#
# Velocity S-wave (km/s) = 3.87606 4.21835 4.05082
# Velocity P-wave (km/s) = 5.56998 6.34729 5.97129
#
# Compressibility (1/GPa) = 0.04642029
#
# Stress axis : x y z
#
# Youngs Moduli (GPa) = 70.98428 35.27859 74.84706
#
# Poissons Ratio (x) = 0.03512 0.33111
# Poissons Ratio (y) = 0.07067 -0.05483
# Poissons Ratio (z) = 0.31403 -0.02584
#
# Static dielectric constant tensor:
#      x y z
#    x 1.710970 -0.010980 -0.002080 
#    y -0.010980 1.730740 0.021940 
#    z -0.002080 0.021940 1.701140 
# 
# From -- ./inp_files/498252.got.cif
#   From: 2010.05.17/outbox.cif.g08.bks.cpg/sg2_250_cif.got.tgz:498252.got - 2010.06.03 11:33:40.
