data_PCOD9022587
_publ_section_title
;
Structure prediction by ZEFSAII (Michael W. Deem and Ramdas Pophale) SiO2 
 PCOD9022587
Probable space group: P -1
;
_chemical_formula_sum "Si O2"
_cell_formula_units_Z 16
_cell_length_a 5.776117
_cell_length_b 27.690790
_cell_length_c 29.566431
_cell_angle_alpha 170.643582
_cell_angle_beta 118.881019
_cell_angle_gamma 59.802218
_cell_volume 661.503189
_symmetry_space_group_name_H-M "P -1"
_symmetry_group_IT_number 2
_symmetry_cell_setting 'triclinic'
loop_
_space_group_symop_operation_xyz
x,y,z
-x,-y,-z
loop_
_atom_site_type_symbol
_atom_site_label
_atom_site_fract_x
_atom_site_fract_y
_atom_site_fract_z
Si Si1 0.084629 0.470942 0.929063
Si Si2 0.577785 0.043363 0.615125
Si Si3 0.195088 0.921293 0.155075
Si Si4 0.835963 0.557520 0.733809
Si Si5 0.237119 0.206456 0.248821
Si Si6 0.493709 0.405476 0.033202
Si Si7 0.127379 0.284802 0.216932
Si Si8 0.374060 0.225720 0.375061
O O1 0.328889 0.186158 0.690890
O O2 0.820381 0.447370 0.854321
O O3 0.188707 0.775487 0.207860
O O4 0.000000 0.500000 0.000000
O O5 0.631089 0.683201 0.286407
O O6 0.509327 0.156852 0.765218
O O7 0.371794 0.946373 0.149776
O O8 0.369335 0.743327 0.046562
O O9 0.064930 0.258322 0.470863
O O10 0.952512 0.757092 0.965811
O O11 0.566599 0.435531 0.607797
O O12 0.782416 0.731918 0.841750
O O13 0.438604 0.200994 0.304742
O O14 0.000000 0.500000 0.500000
O O15 0.333403 0.221930 0.220303
O O16 0.084889 0.931012 0.990587
O O17 0.939684 0.614880 0.507564
#
# Coordination Sequence:
#
# PCOD9022587 Si02
#       8
#     2   2   2   2   2   2   2   2
#     4   9  21  40  66  96 128 164 199 248 310 361
#     4  10  22  40  64  96 127 158 205 251 300 369
#     4  11  25  42  59  89 123 160 213 259 292 358
#     4  11  24  41  64  86 119 165 208 254 311 362
#     4   9  17  35  60  88 120 152 191 259 309 367
#     4  11  23  40  62  89 126 166 205 253 304 353
#     4   9  19  37  59  88 123 148 200 256 308 375
#     4  10  22  39  63  83 120 163 202 250 315 364
#
# _framework density 24.187335999999998
#
# number of rings (size 3 to 8) (size 9 to 14) (size 15 to 20)
#    0.000    2.000    1.250    1.125    1.750    9.000 
#    0.000    5.625    0.000    0.000    0.000    0.000 
#    0.000    0.000    0.000    0.000    0.000    0.000 
#
# Total GULP energy -89489.711823 kJ/mol
# GULP energy per Si atom -5593.106989 kJ/mol
# Density = 2.413228 g / cm^3
# Si number density = 24.187336 Si / 1000 Ang^3
#
#
#
# Elastic Constant Matrix: (Units=GPa)
#
#
# Indices 1 2 3 4 5 6 
#
# 1 60.9213 37.9616 6.4112 8.4762 6.2621 0.1059
# 2 37.9616 196.5657 52.0255 29.9844 10.1045 -9.8309
# 3 6.4112 52.0255 87.0583 15.7165 1.3828 -2.6833
# 4 8.4762 29.9844 15.7165 40.8012 5.4872 4.0351
# 5 6.2621 10.1045 1.3828 5.4872 37.5328 -10.0838
# 6 0.1059 -9.8309 -2.6833 4.0351 -10.0838 20.6830
#
#
#
# Elastic Compliance Matrix: (Units=1/GPa)
#
#
# Indices 1 2 3 4 5 6 
#
# 1 0.019115 -0.003825 0.000985 -0.000852 -0.002885 -0.003029
# 2 -0.003825 0.007495 -0.003378 -0.003873 0.000413 0.004101
# 3 0.000985 -0.003378 0.014080 -0.003436 0.001113 0.001429
# 4 -0.000852 -0.003873 -0.003436 0.030816 -0.006240 -0.011336
# 5 -0.002885 0.000413 0.001113 -0.006240 0.032574 0.017454
# 6 -0.003029 0.004101 0.001429 -0.011336 0.017454 0.061220
#
#
# Mechanical properties :
#
#
# Convention : Reuss Voigt Hill
#
# Bulk Modulus (GPa) = 35.39651 59.70463 47.55057
# Shear Modulus (GPa) = 26.71586 36.34654 31.53120
#
# Velocity S-wave (km/s) = 3.32707 3.88069 3.61449
# Velocity P-wave (km/s) = 5.42450 6.69458 6.09273
#
# Compressibility (1/GPa) = 0.02825137
#
# Stress axis : x y z
#
# Youngs Moduli (GPa) = 52.31495 133.42389 71.02505
#
# Poissons Ratio (x) = 0.51041 -0.06993
# Poissons Ratio (y) = 0.20013 0.23994
# Poissons Ratio (z) = -0.05151 0.45073
#
# Static dielectric constant tensor:
#      x y z
#    x 2.000080 0.045850 -0.076870 
#    y 0.045850 1.921410 -0.039830 
#    z -0.076870 -0.039830 1.957620 
# 
# From -- ./inp_files/12439.got.cif
#   From: 2010.05.17/outbox.cif.g08.bks.cpg/sg2_7_cif.got.tgz:12439.got - 2010.06.03 11:33:40.
