data_PCOD9022716
_publ_section_title
;
Structure prediction by ZEFSAII (Michael W. Deem and Ramdas Pophale) SiO2 
 PCOD9022716
Probable space group: P -1
;
_chemical_formula_sum "Si O2"
_cell_formula_units_Z 16
_cell_length_a 6.999784
_cell_length_b 18.916845
_cell_length_c 11.584813
_cell_angle_alpha 150.128915
_cell_angle_beta 79.335085
_cell_angle_gamma 101.794761
_cell_volume 747.776552
_symmetry_space_group_name_H-M "P -1"
_symmetry_group_IT_number 2
_symmetry_cell_setting 'triclinic'
loop_
_space_group_symop_operation_xyz
x,y,z
-x,-y,-z
loop_
_atom_site_type_symbol
_atom_site_label
_atom_site_fract_x
_atom_site_fract_y
_atom_site_fract_z
Si Si1 0.705936 0.945769 0.363263
Si Si2 0.873776 0.625480 0.731596
Si Si3 0.615590 0.204493 0.212170
Si Si4 0.492531 0.699020 0.891508
Si Si5 0.070071 0.172182 0.609883
Si Si6 0.003267 0.715553 0.607799
Si Si7 0.911545 0.395827 0.091184
Si Si8 0.234032 0.107868 0.258855
O O1 0.804261 0.882411 0.375365
O O2 0.500000 0.000000 0.500000
O O3 0.638325 0.828342 0.108645
O O4 0.871218 0.065682 0.469939
O O5 0.644319 0.579346 0.699354
O O6 0.969962 0.665062 0.899594
O O7 0.000000 0.500000 0.500000
O O8 0.903647 0.727776 0.762124
O O9 0.586986 0.263795 0.171728
O O10 0.771048 0.292647 0.400322
O O11 0.412585 0.184881 0.274788
O O12 0.712180 0.054300 0.973105
O O13 0.312547 0.661138 0.942501
O O14 0.200480 0.164076 0.470440
O O15 0.000785 0.325694 0.870177
O O16 0.929354 0.566672 0.343451
O O17 0.956940 0.849591 0.726987
#
# Coordination Sequence:
#
# PCOD9022716 Si02
#       8
#     2   2   2   2   2   2   2   2
#     4  11  23  40  67 101 130 171 217 278 336 387
#     4  10  22  39  63  97 132 170 212 270 328 387
#     4  11  25  44  67 101 130 174 230 272 329 397
#     4  12  22  40  73 101 133 167 220 285 337 384
#     4  11  25  43  66  98 136 172 224 272 330 401
#     4  11  24  43  67  95 138 177 218 272 335 391
#     4  11  24  43  67 103 133 171 223 277 335 396
#     4  11  26  44  66  93 137 182 223 269 325 400
#
# _framework density 21.396764999999998
#
# number of rings (size 3 to 8) (size 9 to 14) (size 15 to 20)
#    0.000    1.000    5.000    1.125    3.500    7.500 
#    0.000    0.625    0.000    0.000    0.000    0.000 
#    0.000    0.000    0.000    0.000    0.000    0.000 
#
# Total GULP energy -89362.465758 kJ/mol
# GULP energy per Si atom -5585.154110 kJ/mol
# Density = 2.134806 g / cm^3
# Si number density = 21.396765 Si / 1000 Ang^3
#
#
#
# Elastic Constant Matrix: (Units=GPa)
#
#
# Indices 1 2 3 4 5 6 
#
# 1 120.9477 8.7150 34.5945 4.9226 -8.3049 -7.2522
# 2 8.7150 43.2802 36.2629 -15.0416 -13.2424 -7.6356
# 3 34.5945 36.2629 106.5009 -10.9789 -0.2041 5.1392
# 4 4.9226 -15.0416 -10.9789 25.2879 5.1980 -5.1184
# 5 -8.3049 -13.2424 -0.2041 5.1980 41.0143 -2.6983
# 6 -7.2522 -7.6356 5.1392 -5.1184 -2.6983 33.4360
#
#
#
# Elastic Compliance Matrix: (Units=1/GPa)
#
#
# Indices 1 2 3 4 5 6 
#
# 1 0.009888 0.002530 -0.004471 -0.002372 0.003315 0.003314
# 2 0.002530 0.055330 -0.018023 0.025500 0.016449 0.021185
# 3 -0.004471 -0.018023 0.017099 -0.002776 -0.006860 -0.008692
# 4 -0.002372 0.025500 -0.002776 0.056596 0.001522 0.014522
# 5 0.003315 0.016449 -0.006860 0.001522 0.030679 0.008239
# 6 0.003314 0.021185 -0.008692 0.014522 0.008239 0.039689
#
#
# Mechanical properties :
#
#
# Convention : Reuss Voigt Hill
#
# Bulk Modulus (GPa) = 23.59192 47.76376 35.67784
# Shear Modulus (GPa) = 18.98706 32.69140 25.83923
#
# Velocity S-wave (km/s) = 2.98212 3.91303 3.47886
# Velocity P-wave (km/s) = 4.78616 6.54119 5.73125
#
# Compressibility (1/GPa) = 0.04238738
#
# Stress axis : x y z
#
# Youngs Moduli (GPa) = 101.13717 18.07349 58.48294
#
# Poissons Ratio (x) = -0.04573 0.26150
# Poissons Ratio (y) = -0.25591 1.05406
# Poissons Ratio (z) = 0.45222 0.32574
#
# Static dielectric constant tensor:
#      x y z
#    x 1.811740 0.013080 -0.045290 
#    y 0.013080 1.785160 0.026370 
#    z -0.045290 0.026370 1.914250 
# 
# From -- ./inp_files/370517.got.cif
#   From: 2010.05.17/outbox.cif.g08.bks.cpg/sg2_186_cif.got.tgz:370517.got - 2010.06.03 11:33:40.
