data_PCOD9022617
_publ_section_title
;
Structure prediction by ZEFSAII (Michael W. Deem and Ramdas Pophale) SiO2 
 PCOD9022617
Probable space group: P -1
;
_chemical_formula_sum "Si O2"
_cell_formula_units_Z 14
_cell_length_a 11.797634
_cell_length_b 10.796259
_cell_length_c 4.948525
_cell_angle_alpha 73.730296
_cell_angle_beta 95.206346
_cell_angle_gamma 69.883542
_cell_volume 555.769561
_symmetry_space_group_name_H-M "P -1"
_symmetry_group_IT_number 2
_symmetry_cell_setting 'triclinic'
loop_
_space_group_symop_operation_xyz
x,y,z
-x,-y,-z
loop_
_atom_site_type_symbol
_atom_site_label
_atom_site_fract_x
_atom_site_fract_y
_atom_site_fract_z
Si Si1 0.944129 0.824151 0.571062
Si Si2 0.297401 0.917410 0.712415
Si Si3 0.121004 0.434081 0.381428
Si Si4 0.441888 0.929587 0.249255
Si Si5 0.893110 0.280233 0.855527
Si Si6 0.392881 0.371334 0.503266
Si Si7 0.376427 0.636821 0.091341
O O1 0.878817 0.710209 0.649733
O O2 0.042737 0.762032 0.391957
O O3 0.842423 0.976500 0.397890
O O4 0.018191 0.828849 0.850340
O O5 0.367443 0.981194 0.478236
O O6 0.341614 0.911746 0.034337
O O7 0.341039 0.749553 0.770481
O O8 0.254919 0.404581 0.562636
O O9 0.000000 0.500000 0.500000
O O10 0.107714 0.570766 0.120416
O O11 0.551083 0.789823 0.460005
O O12 0.500000 0.000000 0.000000
O O13 0.752091 0.299330 0.807169
O O14 0.389576 0.475206 0.192647
O O15 0.495700 0.377124 0.732359
#
# Coordination Sequence:
#
# PCOD9022617 Si02
#       7
#     2   2   2   2   2   2   2
#     4  11  22  39  63  93 128 170 208 264 324 366
#     4  11  24  40  63  92 129 167 214 263 312 385
#     4   9  19  38  63  93 124 161 212 263 320 381
#     4  11  23  41  63  94 127 166 214 263 318 379
#     4  10  22  39  63  91 128 168 214 263 309 381
#     4   9  19  40  67  92 129 170 209 269 318 375
#     4   9  21  41  64  96 128 172 221 256 317 382
#
# _framework density 25.190297999999999
#
# number of rings (size 3 to 8) (size 9 to 14) (size 15 to 20)
#    0.000    2.000    0.000    2.571    0.000    5.143 
#    0.000   22.857    0.000    0.000    0.000    0.000 
#    0.000    0.000    0.000    0.000    0.000    0.000 
#
# Total GULP energy -78032.566938 kJ/mol
# GULP energy per Si atom -5573.754781 kJ/mol
# Density = 2.513296 g / cm^3
# Si number density = 25.190298 Si / 1000 Ang^3
#
#
#
# Elastic Constant Matrix: (Units=GPa)
#
#
# Indices 1 2 3 4 5 6 
#
# 1 163.0226 41.2341 41.2418 -12.3573 1.3849 -9.2031
# 2 41.2341 25.2186 14.6528 -15.5174 -5.4837 -11.6247
# 3 41.2418 14.6528 88.0142 -6.7480 8.5172 2.6820
# 4 -12.3573 -15.5174 -6.7480 46.0274 -6.1399 1.2504
# 5 1.3849 -5.4837 8.5172 -6.1399 45.3857 -17.3339
# 6 -9.2031 -11.6247 2.6820 1.2504 -17.3339 41.0916
#
#
#
# Elastic Compliance Matrix: (Units=1/GPa)
#
#
# Indices 1 2 3 4 5 6 
#
# 1 0.014022 -0.036292 0.000090 -0.009541 -0.010411 -0.011234
# 2 -0.036292 0.195077 -0.019382 0.059792 0.064568 0.073741
# 3 0.000090 -0.019382 0.015426 -0.005293 -0.009972 -0.010515
# 4 -0.009541 0.059792 -0.005293 0.040983 0.023070 0.023608
# 5 -0.010411 0.064568 -0.009972 0.023070 0.049125 0.036606
# 6 -0.011234 0.073741 -0.010515 0.023608 0.036606 0.058091
#
#
# Mechanical properties :
#
#
# Convention : Reuss Voigt Hill
#
# Bulk Modulus (GPa) = 8.82171 52.27920 30.55046
# Shear Modulus (GPa) = 9.58445 38.44272 24.01358
#
# Velocity S-wave (km/s) = 1.95271 3.91076 3.09088
# Velocity P-wave (km/s) = 2.93151 6.41801 4.98922
#
# Compressibility (1/GPa) = 0.11335670
#
# Stress axis : x y z
#
# Youngs Moduli (GPa) = 71.31698 5.12617 64.82519
#
# Poissons Ratio (x) = 0.18604 -0.00582
# Poissons Ratio (y) = 2.58822 1.25646
# Poissons Ratio (z) = -0.00640 0.09936
#
# Static dielectric constant tensor:
#      x y z
#    x 2.108220 0.124370 -0.058910 
#    y 0.124370 2.177060 -0.019350 
#    z -0.058910 -0.019350 1.950900 
# 
# From -- ./inp_files/72759.got.cif
#   From: 2010.05.17/outbox.cif.g08.bks.cpg/sg2_37_cif.got.tgz:72759.got - 2010.06.03 11:33:40.
