data_PCOD9022808
_publ_section_title
;
Structure prediction by ZEFSAII (Michael W. Deem and Ramdas Pophale) SiO2 
 PCOD9022808
Probable space group: P -1
;
_chemical_formula_sum "Si O2"
_cell_formula_units_Z 16
_cell_length_a 12.428842
_cell_length_b 14.796315
_cell_length_c 7.568486
_cell_angle_alpha 105.963038
_cell_angle_beta 73.897195
_cell_angle_gamma 149.286392
_cell_volume 681.095223
_symmetry_space_group_name_H-M "P -1"
_symmetry_group_IT_number 2
_symmetry_cell_setting 'triclinic'
loop_
_space_group_symop_operation_xyz
x,y,z
-x,-y,-z
loop_
_atom_site_type_symbol
_atom_site_label
_atom_site_fract_x
_atom_site_fract_y
_atom_site_fract_z
Si Si1 0.373424 0.995603 0.886257
Si Si2 0.791110 0.805468 0.910820
Si Si3 0.684365 0.072183 0.719317
Si Si4 0.457058 0.232126 0.499215
Si Si5 0.410448 0.671174 0.105793
Si Si6 0.730045 0.712269 0.486527
Si Si7 0.136930 0.386122 0.589001
Si Si8 0.093285 0.309114 0.156581
O O1 0.546227 0.200347 0.939037
O O2 0.480943 0.990277 0.720379
O O3 0.157200 0.881705 0.843203
O O4 0.309427 0.916696 0.066267
O O5 0.810946 0.803421 0.690326
O O6 0.781221 0.696292 0.947200
O O7 0.587449 0.723461 0.991782
O O8 0.000000 0.000000 0.000000
O O9 0.651529 0.940733 0.607454
O O10 0.909496 0.269685 0.657149
O O11 0.542954 0.276001 0.680108
O O12 0.306092 0.217167 0.565718
O O13 0.652639 0.401396 0.371856
O O14 0.184299 0.460170 0.083532
O O15 0.500000 0.500000 0.500000
O O16 0.859882 0.712897 0.364550
O O17 0.146523 0.366569 0.367172
#
# Coordination Sequence:
#
# PCOD9022808 Si02
#       8
#     2   2   2   2   2   2   2   2
#     4  11  25  43  59  90 119 161 214 257 317 370
#     4  11  21  37  65  96 132 168 209 256 307 379
#     4  11  25  41  63  85 121 161 209 268 309 368
#     4  10  22  39  64  93 123 162 205 252 313 375
#     4  11  23  41  64  91 128 164 203 257 314 377
#     4   9  20  39  61  92 132 165 205 252 306 378
#     4   9  21  41  62  91 121 161 206 249 308 374
#     4  10  22  40  64  91 124 162 204 250 311 375
#
# _framework density 23.491574
#
# number of rings (size 3 to 8) (size 9 to 14) (size 15 to 20)
#    0.000    1.750    1.250    2.625    1.750    7.500 
#    0.000    5.000    0.000    0.000    0.000    0.000 
#    0.000    0.000    0.000    0.000    0.000    0.000 
#
# Total GULP energy -89423.874906 kJ/mol
# GULP energy per Si atom -5588.992182 kJ/mol
# Density = 2.343811 g / cm^3
# Si number density = 23.491574 Si / 1000 Ang^3
#
#
#
# Elastic Constant Matrix: (Units=GPa)
#
#
# Indices 1 2 3 4 5 6 
#
# 1 51.2993 10.3961 -5.5316 -5.3075 -21.4917 -0.8889
# 2 10.3961 101.6514 17.8511 -6.6680 -12.5445 -8.8956
# 3 -5.5316 17.8511 37.9573 5.0248 -0.0060 5.6393
# 4 -5.3075 -6.6680 5.0248 28.1474 8.9912 2.0195
# 5 -21.4917 -12.5445 -0.0060 8.9912 21.6618 -1.4821
# 6 -0.8889 -8.8956 5.6393 2.0195 -1.4821 26.4016
#
#
#
# Elastic Compliance Matrix: (Units=1/GPa)
#
#
# Indices 1 2 3 4 5 6 
#
# 1 0.035421 -0.000158 0.005751 -0.006711 0.038014 0.002559
# 2 -0.000158 0.012565 -0.007030 0.001576 0.006874 0.005995
# 3 0.005751 -0.007030 0.032676 -0.007095 0.004014 -0.008386
# 4 -0.006711 0.001576 -0.007095 0.043818 -0.024133 -0.002886
# 5 0.038014 0.006874 0.004014 -0.024133 0.098571 0.010118
# 6 0.002559 0.005995 -0.008386 -0.002886 0.010118 0.042563
#
#
# Mechanical properties :
#
#
# Convention : Reuss Voigt Hill
#
# Bulk Modulus (GPa) = 12.85560 26.25991 19.55776
# Shear Modulus (GPa) = 16.98274 26.45499 21.71886
#
# Velocity S-wave (km/s) = 2.69165 3.35945 3.04392
# Velocity P-wave (km/s) = 3.89157 5.12353 4.54944
#
# Compressibility (1/GPa) = 0.07778709
#
# Stress axis : x y z
#
# Youngs Moduli (GPa) = 28.23145 79.58904 30.60391
#
# Poissons Ratio (x) = 0.01254 -0.17599
# Poissons Ratio (y) = 0.00445 0.21515
# Poissons Ratio (z) = -0.16235 0.55953
#
# Static dielectric constant tensor:
#      x y z
#    x 1.958150 -0.020180 0.024930 
#    y -0.020180 1.876380 -0.011040 
#    z 0.024930 -0.011040 1.879000 
# 
# From -- ./inp_files/272746.got.cif
#   From: 2010.05.17/outbox.cif.g08.bks.cpg/sg2_137_cif.got.tgz:272746.got - 2010.06.03 11:33:40.
