data_PCOD9022392
_publ_section_title
;
Structure prediction by ZEFSAII (Michael W. Deem and Ramdas Pophale) SiO2 
 PCOD9022392
Probable space group: P -1
;
_chemical_formula_sum "Si O2"
_cell_formula_units_Z 14
_cell_length_a 10.547185
_cell_length_b 7.940676
_cell_length_c 8.129344
_cell_angle_alpha 121.875872
_cell_angle_beta 111.664632
_cell_angle_gamma 74.346341
_cell_volume 534.906351
_symmetry_space_group_name_H-M "P -1"
_symmetry_group_IT_number 2
_symmetry_cell_setting 'triclinic'
loop_
_space_group_symop_operation_xyz
x,y,z
-x,-y,-z
loop_
_atom_site_type_symbol
_atom_site_label
_atom_site_fract_x
_atom_site_fract_y
_atom_site_fract_z
Si Si1 0.348497 0.576093 0.407882
Si Si2 0.592691 0.146174 0.723497
Si Si3 0.837808 0.046440 0.405609
Si Si4 0.760450 0.793539 0.550366
Si Si5 0.013439 0.763275 0.863606
Si Si6 0.187762 0.298710 0.004092
Si Si7 0.302701 0.540292 0.872486
O O1 0.500000 0.500000 0.500000
O O2 0.364018 0.703546 0.316235
O O3 0.236283 0.730604 0.525476
O O4 0.279687 0.377452 0.231703
O O5 0.500000 0.000000 0.500000
O O6 0.702024 0.965652 0.737333
O O7 0.580439 0.308476 0.951997
O O8 0.775837 0.930754 0.468058
O O9 0.000000 0.000000 0.500000
O O10 0.801319 0.927496 0.165614
O O11 0.908918 0.712403 0.644316
O O12 0.675114 0.615874 0.349391
O O13 0.962956 0.674548 0.967728
O O14 0.164960 0.682037 0.848225
O O15 0.000000 0.000000 0.000000
O O16 0.244854 0.412275 0.931154
#
# Coordination Sequence:
#
# PCOD9022392 Si02
#       7
#     2   2   2   2   2   2   2
#     4  10  24  42  65  95 127 170 220 261 315 384
#     4  10  22  42  63  86 126 169 210 263 320 378
#     4  10  22  41  67  96 128 169 212 264 324 380
#     4  10  22  39  61  92 128 160 208 269 318 380
#     4  12  22  37  63  96 130 161 207 269 324 374
#     4  10  24  40  65  90 129 173 210 262 320 387
#     4  10  22  41  62  91 123 170 211 256 325 388
#
# _framework density 26.172806000000001
#
# number of rings (size 3 to 8) (size 9 to 14) (size 15 to 20)
#    0.000    1.714    1.429    1.714   10.000    1.143 
#    2.571    0.000    0.000    0.000    0.000    0.000 
#    0.000    0.000    0.000    0.000    0.000    0.000 
#
# Total GULP energy -78016.836219 kJ/mol
# GULP energy per Si atom -5572.631159 kJ/mol
# Density = 2.611324 g / cm^3
# Si number density = 26.172806 Si / 1000 Ang^3
#
#
#
# Elastic Constant Matrix: (Units=GPa)
#
#
# Indices 1 2 3 4 5 6 
#
# 1 84.6449 40.6577 38.0267 16.7720 2.9370 -4.8040
# 2 40.6577 147.8907 62.2723 26.6881 -2.8908 -8.0177
# 3 38.0267 62.2723 212.3864 58.8615 18.4014 -26.6269
# 4 16.7720 26.6881 58.8615 37.2308 3.5913 -7.9814
# 5 2.9370 -2.8908 18.4014 3.5913 42.3735 -1.6528
# 6 -4.8040 -8.0177 -26.6269 -7.9814 -1.6528 50.2487
#
#
#
# Elastic Compliance Matrix: (Units=1/GPa)
#
#
# Indices 1 2 3 4 5 6 
#
# 1 0.014241 -0.003069 -0.000796 -0.002905 -0.000606 -0.000031
# 2 -0.003069 0.008729 -0.001350 -0.002903 0.001640 -0.000023
# 3 -0.000796 -0.001350 0.009294 -0.012540 -0.002911 0.002546
# 4 -0.002905 -0.002903 -0.012540 0.050087 0.001228 0.000610
# 5 -0.000606 0.001640 -0.002911 0.001228 0.024901 -0.000325
# 6 -0.000031 -0.000023 0.002546 0.000610 -0.000325 0.021329
#
#
# Mechanical properties :
#
#
# Convention : Reuss Voigt Hill
#
# Bulk Modulus (GPa) = 45.80529 80.75951 63.28240
# Shear Modulus (GPa) = 34.17904 46.23496 40.20700
#
# Velocity S-wave (km/s) = 3.61764 4.20757 3.92371
# Velocity P-wave (km/s) = 5.91514 7.38431 6.69018
#
# Compressibility (1/GPa) = 0.02183154
#
# Stress axis : x y z
#
# Youngs Moduli (GPa) = 70.22094 114.56495 107.60135
#
# Poissons Ratio (x) = 0.35161 0.08569
# Poissons Ratio (y) = 0.21552 0.14529
# Poissons Ratio (z) = 0.05592 0.15469
#
# Static dielectric constant tensor:
#      x y z
#    x 2.214080 -0.056030 -0.024820 
#    y -0.056030 2.088990 -0.041660 
#    z -0.024820 -0.041660 2.127910 
# 
# From -- ./inp_files/246177.got.cif
#   From: 2010.05.17/outbox.cif.g08.bks.cpg/sg2_124_cif.got.tgz:246177.got - 2010.06.03 11:33:40.
