data_PCOD9022285
_publ_section_title
;
Structure prediction by ZEFSAII (Michael W. Deem and Ramdas Pophale) SiO2 
 PCOD9022285
Probable space group: P -1
;
_chemical_formula_sum "Si O2"
_cell_formula_units_Z 14
_cell_length_a 5.170079
_cell_length_b 12.193062
_cell_length_c 11.091089
_cell_angle_alpha 103.923271
_cell_angle_beta 64.992720
_cell_angle_gamma 101.196971
_cell_volume 611.603720
_symmetry_space_group_name_H-M "P -1"
_symmetry_group_IT_number 2
_symmetry_cell_setting 'triclinic'
loop_
_space_group_symop_operation_xyz
x,y,z
-x,-y,-z
loop_
_atom_site_type_symbol
_atom_site_label
_atom_site_fract_x
_atom_site_fract_y
_atom_site_fract_z
Si Si1 0.282326 0.868035 0.142770
Si Si2 0.653703 0.355275 0.818588
Si Si3 0.163858 0.995338 0.838698
Si Si4 0.229407 0.358152 0.405242
Si Si5 0.901949 0.573183 0.926229
Si Si6 0.427402 0.618742 0.423674
Si Si7 0.365343 0.783207 0.838445
O O1 0.184200 0.744349 0.183336
O O2 0.549110 0.919653 0.182317
O O3 0.390259 0.846621 0.979246
O O4 0.044973 0.955592 0.203213
O O5 0.841706 0.477302 0.810946
O O6 0.538075 0.328593 0.701449
O O7 0.389532 0.375090 0.964510
O O8 0.258409 0.869359 0.784107
O O9 0.000000 0.000000 0.000000
O O10 0.402513 0.481775 0.378103
O O11 0.329594 0.338217 0.517655
O O12 0.346006 0.265432 0.271968
O O13 0.890596 0.360796 0.462273
O O14 0.131861 0.675408 0.873299
O O15 0.000000 0.500000 0.000000
#
# Coordination Sequence:
#
# PCOD9022285 Si02
#       7
#     2   2   2   2   2   2   2
#     4  11  23  40  62  93 123 161 201 256 314 366
#     4  11  24  38  62  89 131 163 201 252 317 378
#     4  10  22  39  60  91 123 160 205 251 311 362
#     4  10  24  40  61  88 123 168 208 249 297 361
#     4  11  23  37  58  99 126 160 198 252 325 377
#     4  10  24  41  59  87 127 167 208 243 299 373
#     4  11  22  40  66  91 129 158 207 260 307 369
#
# _framework density 22.890637000000002
#
# number of rings (size 3 to 8) (size 9 to 14) (size 15 to 20)
#    0.000    1.429    1.429    4.286   10.000    3.429 
#    0.000    0.000    0.000    5.143    0.000    0.000 
#    0.000    0.000    0.000    0.000    0.000    0.000 
#
# Total GULP energy -78392.932915 kJ/mol
# GULP energy per Si atom -5599.495208 kJ/mol
# Density = 2.283854 g / cm^3
# Si number density = 22.890637 Si / 1000 Ang^3
#
#
#
# Elastic Constant Matrix: (Units=GPa)
#
#
# Indices 1 2 3 4 5 6 
#
# 1 76.3563 16.4026 7.7434 3.5991 -2.5257 -9.2585
# 2 16.4026 100.2508 22.4111 8.6269 -13.2428 -16.2772
# 3 7.7434 22.4111 47.2429 7.8300 -0.6586 -13.1012
# 4 3.5991 8.6269 7.8300 20.3124 -13.1431 -1.7163
# 5 -2.5257 -13.2428 -0.6586 -13.1431 38.3484 -1.0093
# 6 -9.2585 -16.2772 -13.1012 -1.7163 -1.0093 44.5481
#
#
#
# Elastic Compliance Matrix: (Units=1/GPa)
#
#
# Indices 1 2 3 4 5 6 
#
# 1 0.013831 -0.001679 -0.000690 -0.001364 -0.000095 0.002003
# 2 -0.001679 0.012316 -0.004673 -0.000274 0.004044 0.002858
# 3 -0.000690 -0.004673 0.026747 -0.010822 -0.004764 0.005490
# 4 -0.001364 -0.000274 -0.010822 0.068721 0.023172 -0.000394
# 5 -0.000095 0.004044 -0.004764 0.023172 0.035373 0.001751
# 6 0.002003 0.002858 0.005490 -0.000394 0.001751 0.025547
#
#
# Mechanical properties :
#
#
# Convention : Reuss Voigt Hill
#
# Bulk Modulus (GPa) = 25.76644 35.21827 30.49235
# Shear Modulus (GPa) = 23.85999 32.46131 28.16065
#
# Velocity S-wave (km/s) = 3.23204 3.76986 3.51126
# Velocity P-wave (km/s) = 5.02085 5.86242 5.45788
#
# Compressibility (1/GPa) = 0.03881018
#
# Stress axis : x y z
#
# Youngs Moduli (GPa) = 72.30050 81.19486 37.38757
#
# Poissons Ratio (x) = 0.13629 0.02581
# Poissons Ratio (y) = 0.12136 0.17471
# Poissons Ratio (z) = 0.04991 0.37942
#
# Static dielectric constant tensor:
#      x y z
#    x 1.906680 -0.019580 0.029710 
#    y -0.019580 1.863270 -0.000250 
#    z 0.029710 -0.000250 1.854640 
# 
# From -- ./inp_files/363274.got.cif
#   From: 2010.05.17/outbox.cif.g08.bks.cpg/sg2_182_cif.got.tgz:363274.got - 2010.06.03 11:33:40.
