data_PCOD9022625
_publ_section_title
;
Structure prediction by ZEFSAII (Michael W. Deem and Ramdas Pophale) SiO2 
 PCOD9022625
Probable space group: P -1
;
_chemical_formula_sum "Si O2"
_cell_formula_units_Z 15
_cell_length_a 10.081883
_cell_length_b 9.367878
_cell_length_c 11.865841
_cell_angle_alpha 45.234793
_cell_angle_beta 110.331151
_cell_angle_gamma 132.666289
_cell_volume 566.699822
_symmetry_space_group_name_H-M "P -1"
_symmetry_group_IT_number 2
_symmetry_cell_setting 'triclinic'
loop_
_space_group_symop_operation_xyz
x,y,z
-x,-y,-z
loop_
_atom_site_type_symbol
_atom_site_label
_atom_site_fract_x
_atom_site_fract_y
_atom_site_fract_z
Si Si1 0.952981 0.257968 0.283360
Si Si2 0.770365 0.823931 0.640214
Si Si3 0.634694 0.544526 0.191811
Si Si4 0.016611 0.181762 0.708416
Si Si5 0.500000 0.000000 0.500000
Si Si6 0.239789 0.693985 0.382106
Si Si7 0.468189 0.147459 0.038896
Si Si8 0.787794 0.202003 0.038013
O O1 0.121851 0.255705 0.343948
O O2 0.046028 0.562631 0.123468
O O3 0.813114 0.071261 0.446636
O O4 0.854883 0.136815 0.200272
O O5 0.549057 0.601917 0.700282
O O6 0.855600 0.917865 0.739264
O O7 0.835367 0.763114 0.188493
O O8 0.598225 0.702785 0.012639
O O9 0.596382 0.279996 0.291933
O O10 0.143301 0.390069 0.528625
O O11 0.917811 0.281244 0.681834
O O12 0.346624 0.814862 0.463391
O O13 0.385113 0.878201 0.227040
O O14 0.685361 0.305609 0.001018
O O15 0.365953 0.045959 0.944495
#
# Coordination Sequence:
#
# PCOD9022625 Si02
#       8
#     2   2   2   2   1   2   2   2
#     4  10  22  39  63  92 124 167 210 253 319 362
#     4  11  21  41  64  94 126 166 210 262 304 375
#     4  11  23  41  64  93 127 166 206 265 305 378
#     4  10  22  40  63  89 127 159 217 254 309 371
#     4  10  22  42  64  90 124 158 214 252 310 368
#     4  10  22  40  64  92 122 170 204 262 313 373
#     4  11  23  40  63  92 129 164 209 255 322 367
#     4  10  22  41  60  93 129 163 206 262 305 384
#
# _framework density 26.46904
#
# number of rings (size 3 to 8) (size 9 to 14) (size 15 to 20)
#    0.000    1.600    2.667    1.600    3.733    1.067 
#    0.000    2.000    0.000    0.000    0.000    0.000 
#    0.000    0.000    0.000    0.000    0.000    0.000 
#
# Total GULP energy -83591.144891 kJ/mol
# GULP energy per Si atom -5572.742993 kJ/mol
# Density = 2.640879 g / cm^3
# Si number density = 26.469040 Si / 1000 Ang^3
#
#
#
# Elastic Constant Matrix: (Units=GPa)
#
#
# Indices 1 2 3 4 5 6 
#
# 1 43.3726 23.1735 7.7521 16.9148 22.9741 10.3843
# 2 23.1735 121.8948 22.5654 13.5352 -5.7628 19.2096
# 3 7.7521 22.5654 84.3610 -17.2445 -7.5610 8.7305
# 4 16.9148 13.5352 -17.2445 38.7566 7.9636 3.5705
# 5 22.9741 -5.7628 -7.5610 7.9636 38.0593 3.9407
# 6 10.3843 19.2096 8.7305 3.5705 3.9407 32.2536
#
#
#
# Elastic Compliance Matrix: (Units=1/GPa)
#
#
# Indices 1 2 3 4 5 6 
#
# 1 0.052472 -0.007091 -0.008775 -0.017673 -0.030313 -0.004635
# 2 -0.007091 0.011180 -0.001816 -0.002569 0.006607 -0.004407
# 3 -0.008775 -0.001816 0.016114 0.010568 0.006259 -0.002390
# 4 -0.017673 -0.002569 0.010568 0.038245 0.004419 -0.000414
# 5 -0.030313 0.006607 0.006259 0.004419 0.046098 -0.001991
# 6 -0.004635 -0.004407 -0.002390 -0.000414 -0.001991 0.036057
#
#
# Mechanical properties :
#
#
# Convention : Reuss Voigt Hill
#
# Bulk Modulus (GPa) = 22.52123 39.62338 31.07230
# Shear Modulus (GPa) = 19.97360 34.88973 27.43167
#
# Velocity S-wave (km/s) = 2.74998 3.63455 3.22276
# Velocity P-wave (km/s) = 4.31395 5.71100 5.06091
#
# Compressibility (1/GPa) = 0.04440255
#
# Stress axis : x y z
#
# Youngs Moduli (GPa) = 19.05796 89.44413 62.05637
#
# Poissons Ratio (x) = 0.63427 0.54452
# Poissons Ratio (y) = 0.13515 0.11269
# Poissons Ratio (z) = 0.16723 0.16242
#
# Static dielectric constant tensor:
#      x y z
#    x 2.264560 -0.039290 0.041950 
#    y -0.039290 2.238790 -0.398530 
#    z 0.041950 -0.398530 2.743710 
# 
# From -- ./inp_files/253730.got.cif
#   From: 2010.05.17/outbox.cif.g08.bks.cpg/sg2_127_cif.got.tgz:253730.got - 2010.06.03 11:33:40.
