data_PCOD9022150
_publ_section_title
;
Structure prediction by ZEFSAII (Michael W. Deem and Ramdas Pophale) SiO2 
 PCOD9022150
Probable space group: P -1
;
_chemical_formula_sum "Si O2"
_cell_formula_units_Z 14
_cell_length_a 12.209316
_cell_length_b 11.637563
_cell_length_c 9.876173
_cell_angle_alpha 60.173121
_cell_angle_beta 38.864968
_cell_angle_gamma 87.444100
_cell_volume 593.542626
_symmetry_space_group_name_H-M "P -1"
_symmetry_group_IT_number 2
_symmetry_cell_setting 'triclinic'
loop_
_space_group_symop_operation_xyz
x,y,z
-x,-y,-z
loop_
_atom_site_type_symbol
_atom_site_label
_atom_site_fract_x
_atom_site_fract_y
_atom_site_fract_z
Si Si1 0.969119 0.552225 0.694569
Si Si2 0.776241 0.882700 0.966058
Si Si3 0.272827 0.807365 0.845142
Si Si4 0.116189 0.188742 0.831326
Si Si5 0.295397 0.170065 0.237682
Si Si6 0.653281 0.119085 0.953384
Si Si7 0.716060 0.524549 0.699380
O O1 0.823527 0.563103 0.719930
O O2 0.166554 0.754693 0.412366
O O3 0.138119 0.517120 0.499207
O O4 0.779179 0.366884 0.055128
O O5 0.718912 0.796624 0.925772
O O6 0.643226 0.956682 0.064955
O O7 0.744973 0.776787 0.188539
O O8 0.044210 0.042843 0.610455
O O9 0.500000 0.000000 0.500000
O O10 0.253571 0.793760 0.037348
O O11 0.089418 0.810113 0.946376
O O12 0.253233 0.327708 0.501371
O O13 0.000000 0.000000 0.000000
O O14 0.423875 0.089867 0.170917
O O15 0.464624 0.350585 0.041481
#
# Coordination Sequence:
#
# PCOD9022150 Si02
#       7
#     2   2   2   2   2   2   2
#     4   9  15  33  56  80 109 144 187 224 277 342
#     4  11  23  37  56  86 114 146 194 234 270 332
#     4  11  19  31  56  83 112 144 176 230 288 327
#     4  11  20  35  53  82 116 140 180 240 281 328
#     4  10  22  39  58  80 112 153 195 226 272 333
#     4  11  18  39  60  79 112 151 186 227 282 332
#     4   9  16  33  56  74 109 152 179 223 285 326
#
# _framework density 23.587185999999999
#
# number of rings (size 3 to 8) (size 9 to 14) (size 15 to 20)
#    0.000    1.714    7.143    1.286    0.000    0.571 
#    2.571    1.429    0.000    0.000    0.000   14.000 
#    0.000    0.000    0.000    0.000    0.000    0.000 
#
# Total GULP energy -78068.534117 kJ/mol
# GULP energy per Si atom -5576.323865 kJ/mol
# Density = 2.353350 g / cm^3
# Si number density = 23.587186 Si / 1000 Ang^3
#
#
#
# Elastic Constant Matrix: (Units=GPa)
#
#
# Indices 1 2 3 4 5 6 
#
# 1 113.7344 37.8864 22.5876 5.7462 17.7234 -29.5292
# 2 37.8864 39.0083 23.7250 -2.1690 12.9896 -26.1837
# 3 22.5876 23.7250 104.1650 -7.0567 5.4396 -22.3685
# 4 5.7462 -2.1690 -7.0567 23.0744 -13.0882 2.1242
# 5 17.7234 12.9896 5.4396 -13.0882 31.1807 -6.2844
# 6 -29.5292 -26.1837 -22.3685 2.1242 -6.2844 41.1801
#
#
#
# Elastic Compliance Matrix: (Units=1/GPa)
#
#
# Indices 1 2 3 4 5 6 
#
# 1 0.014602 -0.009658 -0.000468 -0.009175 -0.007355 0.003426
# 2 -0.009658 0.061559 -0.005642 -0.004996 -0.015828 0.026993
# 3 -0.000468 -0.005642 0.011715 0.004664 0.003068 0.002668
# 4 -0.009175 -0.004996 0.004664 0.065799 0.032977 -0.005584
# 5 -0.007355 -0.015828 0.003068 0.032977 0.054738 -0.007019
# 6 0.003426 0.026993 0.002668 -0.005584 -0.007019 0.044570
#
#
# Mechanical properties :
#
#
# Convention : Reuss Voigt Hill
#
# Bulk Modulus (GPa) = 17.74964 47.25617 32.50291
# Shear Modulus (GPa) = 16.48536 30.60094 23.54315
#
# Velocity S-wave (km/s) = 2.64656 3.60579 3.16275
# Velocity P-wave (km/s) = 4.10859 6.11668 5.21029
#
# Compressibility (1/GPa) = 0.05633915
#
# Stress axis : x y z
#
# Youngs Moduli (GPa) = 68.48391 16.24457 85.35754
#
# Poissons Ratio (x) = 0.15690 0.03997
# Poissons Ratio (y) = 0.66145 0.48158
# Poissons Ratio (z) = 0.03207 0.09165
#
# Static dielectric constant tensor:
#      x y z
#    x 1.868880 0.023180 0.038620 
#    y 0.023180 2.006480 0.022520 
#    z 0.038620 0.022520 2.040550 
# 
# From -- ./inp_files/430996.got.cif
#   From: 2010.05.17/outbox.cif.g08.bks.cpg/sg2_216_cif.got.tgz:430996.got - 2010.06.03 11:33:40.
