data_PCOD9022913
_publ_section_title
;
Structure prediction by ZEFSAII (Michael W. Deem and Ramdas Pophale) SiO2 
 PCOD9022913
Probable space group: P -1
;
_chemical_formula_sum "Si O2"
_cell_formula_units_Z 14
_cell_length_a 8.369566
_cell_length_b 16.817465
_cell_length_c 7.734904
_cell_angle_alpha 81.742745
_cell_angle_beta 143.556835
_cell_angle_gamma 108.806501
_cell_volume 599.100552
_symmetry_space_group_name_H-M "P -1"
_symmetry_group_IT_number 2
_symmetry_cell_setting 'triclinic'
loop_
_space_group_symop_operation_xyz
x,y,z
-x,-y,-z
loop_
_atom_site_type_symbol
_atom_site_label
_atom_site_fract_x
_atom_site_fract_y
_atom_site_fract_z
Si Si1 0.838124 0.090763 0.678128
Si Si2 0.139572 0.513446 0.307534
Si Si3 0.718951 0.733660 0.540041
Si Si4 0.270293 0.093752 0.344199
Si Si5 0.285743 0.254205 0.840005
Si Si6 0.831399 0.322586 0.080791
Si Si7 0.660669 0.573589 0.977732
O O1 0.545535 0.108639 0.454027
O O2 0.765731 0.995760 0.564351
O O3 0.982416 0.082844 0.989727
O O4 0.082831 0.166061 0.771561
O O5 0.010517 0.413841 0.290101
O O6 0.470427 0.548067 0.644509
O O7 0.976536 0.569741 0.239399
O O8 0.000000 0.500000 0.000000
O O9 0.686424 0.822602 0.531186
O O10 0.965360 0.710563 0.856122
O O11 0.857373 0.735273 0.469633
O O12 0.404269 0.665260 0.266182
O O13 0.596583 0.261878 0.030887
O O14 0.327466 0.333959 0.975246
O O15 0.500000 0.500000 0.000000
#
# Coordination Sequence:
#
# PCOD9022913 Si02
#       7
#     2   2   2   2   2   2   2
#     4  10  23  40  65  92 125 160 212 253 315 381
#     4  12  26  43  64  93 131 171 216 267 326 381
#     4  10  22  39  65  87 127 162 205 262 317 368
#     4  10  22  43  62  92 128 163 197 264 320 375
#     4  10  25  39  66  94 122 166 220 256 310 388
#     4  10  22  40  61  91 127 157 217 258 310 373
#     4  12  24  43  68  92 130 172 214 270 323 373
#
# _framework density 23.368362999999999
#
# number of rings (size 3 to 8) (size 9 to 14) (size 15 to 20)
#    0.857    0.571    1.429    3.429    4.000    4.000 
#    0.000    0.714    0.000    0.000    0.000    0.000 
#    0.000    0.000    0.000    0.000    0.000    0.000 
#
# Total GULP energy -78048.373984 kJ/mol
# GULP energy per Si atom -5574.883856 kJ/mol
# Density = 2.331518 g / cm^3
# Si number density = 23.368363 Si / 1000 Ang^3
#
#
#
# Elastic Constant Matrix: (Units=GPa)
#
#
# Indices 1 2 3 4 5 6 
#
# 1 53.9387 39.5177 19.6364 0.3056 17.6208 -9.3176
# 2 39.5177 104.6663 32.5431 18.4939 23.4605 -0.6744
# 3 19.6364 32.5431 66.9878 9.1680 35.8471 -20.2315
# 4 0.3056 18.4939 9.1680 26.2956 -3.3956 7.8537
# 5 17.6208 23.4605 35.8471 -3.3956 49.0727 -4.8133
# 6 -9.3176 -0.6744 -20.2315 7.8537 -4.8133 41.4941
#
#
#
# Elastic Compliance Matrix: (Units=1/GPa)
#
#
# Indices 1 2 3 4 5 6 
#
# 1 0.028602 -0.010705 -0.000387 0.005447 -0.004045 0.004559
# 2 -0.010705 0.017035 -0.002053 -0.011190 -0.003716 -0.001441
# 3 -0.000387 -0.002053 0.040027 -0.022166 -0.027653 0.020383
# 4 0.005447 -0.011190 -0.022166 0.062071 0.022021 -0.018960
# 5 -0.004045 -0.003716 -0.027653 0.022021 0.044006 -0.013515
# 6 0.004559 -0.001441 0.020383 -0.018960 -0.013515 0.037059
#
#
# Mechanical properties :
#
#
# Convention : Reuss Voigt Hill
#
# Bulk Modulus (GPa) = 16.84246 45.44303 31.14274
# Shear Modulus (GPa) = 18.18976 32.29885 25.24431
#
# Velocity S-wave (km/s) = 2.79300 3.72178 3.29032
# Velocity P-wave (km/s) = 4.19811 6.16096 5.27170
#
# Compressibility (1/GPa) = 0.05937376
#
# Stress axis : x y z
#
# Youngs Moduli (GPa) = 34.96310 58.70238 24.98343
#
# Poissons Ratio (x) = 0.62839 0.00968
# Poissons Ratio (y) = 0.37427 0.05128
# Poissons Ratio (z) = 0.01354 0.12050
#
# Static dielectric constant tensor:
#      x y z
#    x 1.908050 0.056630 -0.096600 
#    y 0.056630 2.160000 -0.358530 
#    z -0.096600 -0.358530 2.310620 
# 
# From -- ./inp_files/212700.got.cif
#   From: 2010.05.17/outbox.cif.g08.bks.cpg/sg2_107_cif.got.tgz:212700.got - 2010.06.03 11:33:40.
