data_PCOD9022732
_publ_section_title
;
Structure prediction by ZEFSAII (Michael W. Deem and Ramdas Pophale) SiO2 
 PCOD9022732
Probable space group: P -1
;
_chemical_formula_sum "Si O2"
_cell_formula_units_Z 16
_cell_length_a 9.384877
_cell_length_b 27.949462
_cell_length_c 15.051446
_cell_angle_alpha 160.846386
_cell_angle_beta 142.621069
_cell_angle_gamma 46.864825
_cell_volume 740.669744
_symmetry_space_group_name_H-M "P -1"
_symmetry_group_IT_number 2
_symmetry_cell_setting 'triclinic'
loop_
_space_group_symop_operation_xyz
x,y,z
-x,-y,-z
loop_
_atom_site_type_symbol
_atom_site_label
_atom_site_fract_x
_atom_site_fract_y
_atom_site_fract_z
Si Si1 0.735808 0.368301 0.633208
Si Si2 0.281610 0.733895 0.122261
Si Si3 0.228976 0.292972 0.275765
Si Si4 0.779743 0.127023 0.360561
Si Si5 0.239869 0.446701 0.726382
Si Si6 0.203568 0.109505 0.402562
Si Si7 0.917288 0.222313 0.309267
Si Si8 0.190320 0.971549 0.614489
O O1 0.492622 0.419182 0.599122
O O2 0.734348 0.278102 0.565843
O O3 0.743253 0.263382 0.367593
O O4 0.000000 0.500000 0.000000
O O5 0.513023 0.777955 0.245947
O O6 0.343003 0.887610 0.484742
O O7 0.240414 0.589307 0.914078
O O8 0.020023 0.703583 0.888835
O O9 0.209131 0.309467 0.399592
O O10 0.275717 0.136351 0.995068
O O11 0.893329 0.141327 0.540374
O O12 0.985771 0.100543 0.349774
O O13 0.500000 0.000000 0.000000
O O14 0.031579 0.370521 0.563198
O O15 0.500000 0.500000 0.000000
O O16 0.124301 0.180996 0.399067
O O17 0.200581 0.934865 0.079966
O O18 0.000000 0.000000 0.500000
#
# Coordination Sequence:
#
# PCOD9022732 Si02
#       8
#     2   2   2   2   2   2   2   2
#     4  11  24  40  66  97 135 172 228 279 336 399
#     4  11  25  44  71  98 140 184 224 284 350 412
#     4  11  24  45  69  97 141 182 223 283 348 406
#     4  11  23  40  71  94 128 175 227 279 333 394
#     4  12  24  42  70 102 134 179 234 280 348 407
#     4  10  22  41  66  99 132 172 229 281 341 400
#     4  10  22  39  63  99 133 170 225 295 324 397
#     4  10  23  43  69 101 134 182 225 276 339 410
#
# _framework density 21.602070000000001
#
# number of rings (size 3 to 8) (size 9 to 14) (size 15 to 20)
#    0.000    1.250    2.500    2.625    8.750    0.000 
#    0.000    8.750    0.000    0.000    0.000    0.000 
#    0.000    0.000    0.000    0.000    0.000    0.000 
#
# Total GULP energy -89196.911473 kJ/mol
# GULP energy per Si atom -5574.806967 kJ/mol
# Density = 2.155290 g / cm^3
# Si number density = 21.602070 Si / 1000 Ang^3
#
#
#
# Elastic Constant Matrix: (Units=GPa)
#
#
# Indices 1 2 3 4 5 6 
#
# 1 115.7150 52.7143 36.2425 -6.0669 16.4126 1.2527
# 2 52.7143 105.8399 49.0046 -16.2232 24.4167 8.4947
# 3 36.2425 49.0046 74.1547 -1.4183 16.7932 -2.2148
# 4 -6.0669 -16.2232 -1.4183 28.3962 -0.3302 0.4206
# 5 16.4126 24.4167 16.7932 -0.3302 50.5921 -4.6383
# 6 1.2527 8.4947 -2.2148 0.4206 -4.6383 32.1133
#
#
#
# Elastic Compliance Matrix: (Units=1/GPa)
#
#
# Indices 1 2 3 4 5 6 
#
# 1 0.011563 -0.004517 -0.002498 -0.000250 -0.000700 0.000474
# 2 -0.004517 0.019195 -0.009300 0.009571 -0.005238 -0.006425
# 3 -0.002498 -0.009300 0.021195 -0.004862 -0.001413 0.003879
# 4 -0.000250 0.009571 -0.004862 0.040409 -0.003011 -0.003821
# 5 -0.000700 -0.005238 -0.001413 -0.003011 0.023404 0.004735
# 6 0.000474 -0.006425 0.003879 -0.003821 0.004735 0.033822
#
#
# Mechanical properties :
#
#
# Convention : Reuss Voigt Hill
#
# Bulk Modulus (GPa) = 51.75337 63.51472 57.63404
# Shear Modulus (GPa) = 26.50260 32.73687 29.61974
#
# Velocity S-wave (km/s) = 3.50645 3.89710 3.70693
# Velocity P-wave (km/s) = 6.35635 7.05095 6.71264
#
# Compressibility (1/GPa) = 0.01932241
#
# Stress axis : x y z
#
# Youngs Moduli (GPa) = 86.48020 52.09680 47.18147
#
# Poissons Ratio (x) = 0.23534 0.11788
# Poissons Ratio (y) = 0.39066 0.43877
# Poissons Ratio (z) = 0.21606 0.48448
#
# Static dielectric constant tensor:
#      x y z
#    x 1.796790 -0.029890 0.047850 
#    y -0.029890 1.772240 0.004280 
#    z 0.047850 0.004280 1.746970 
# 
# From -- ./inp_files/509041.got.cif
#   From: 2010.05.17/outbox.cif.g08.bks.cpg/sg2_255_cif.got.tgz:509041.got - 2010.06.03 11:33:40.
