data_PCOD9022872
_publ_section_title
;
Structure prediction by ZEFSAII (Michael W. Deem and Ramdas Pophale) SiO2 
 PCOD9022872
Probable space group: P -1
;
_chemical_formula_sum "Si O2"
_cell_formula_units_Z 14
_cell_length_a 11.840823
_cell_length_b 11.399044
_cell_length_c 4.946290
_cell_angle_alpha 112.206470
_cell_angle_beta 84.048549
_cell_angle_gamma 68.802317
_cell_volume 553.490357
_symmetry_space_group_name_H-M "P -1"
_symmetry_group_IT_number 2
_symmetry_cell_setting 'triclinic'
loop_
_space_group_symop_operation_xyz
x,y,z
-x,-y,-z
loop_
_atom_site_type_symbol
_atom_site_label
_atom_site_fract_x
_atom_site_fract_y
_atom_site_fract_z
Si Si1 0.108401 0.492986 0.266171
Si Si2 0.585711 0.073660 0.441313
Si Si3 0.720524 0.397784 0.825169
Si Si4 0.514777 0.612550 0.388965
Si Si5 0.758777 0.989886 0.836613
Si Si6 0.075317 0.872242 0.166942
Si Si7 0.088629 0.260005 0.820195
O O1 0.212061 0.546976 0.369615
O O2 0.000000 0.500000 0.500000
O O3 0.030783 0.606086 0.155032
O O4 0.166514 0.333533 0.005526
O O5 0.511365 0.224309 0.437523
O O6 0.315308 0.020241 0.891976
O O7 0.500000 0.000000 0.500000
O O8 0.662279 0.077909 0.696464
O O9 0.604135 0.367347 0.748303
O O10 0.822063 0.257366 0.808632
O O11 0.652553 0.529932 0.155517
O O12 0.500000 0.500000 0.500000
O O13 0.840691 0.844649 0.532049
O O14 0.842488 0.071169 0.980042
O O15 0.975205 0.816565 0.041071
O O16 0.000000 0.000000 0.500000
#
# Coordination Sequence:
#
# PCOD9022872 Si02
#       7
#     2   2   2   2   2   2   2
#     4  10  22  39  64  98 139 179 241 290 367 434
#     4  12  28  47  71 108 143 190 249 307 365 432
#     4  10  22  42  65 100 138 184 247 293 366 435
#     4  11  25  44  73  99 143 196 247 303 361 433
#     4  11  24  46  72  99 145 188 239 299 372 437
#     4   9  18  42  69 101 138 181 238 298 362 440
#     4   9  22  40  63 101 134 184 226 299 366 432
#
# _framework density 25.294028000000001
#
# number of rings (size 3 to 8) (size 9 to 14) (size 15 to 20)
#    0.000    1.714    1.429    1.286    6.000    4.571 
#    0.000    2.143    0.000    0.000    0.000    0.000 
#    0.000    0.000    0.000    0.000    0.000    0.000 
#
# Total GULP energy -78134.672893 kJ/mol
# GULP energy per Si atom -5581.048064 kJ/mol
# Density = 2.523646 g / cm^3
# Si number density = 25.294028 Si / 1000 Ang^3
#
#
#
# Elastic Constant Matrix: (Units=GPa)
#
#
# Indices 1 2 3 4 5 6 
#
# 1 94.9291 63.9465 41.3274 7.4037 -27.3753 32.3814
# 2 63.9465 181.2343 53.3748 20.0390 -12.3710 18.2032
# 3 41.3274 53.3748 81.3591 1.9361 -26.9148 21.1183
# 4 7.4037 20.0390 1.9361 45.1589 -1.8696 -4.3342
# 5 -27.3753 -12.3710 -26.9148 -1.8696 33.5387 -4.8650
# 6 32.3814 18.2032 21.1183 -4.3342 -4.8650 59.1574
#
#
#
# Elastic Compliance Matrix: (Units=1/GPa)
#
#
# Indices 1 2 3 4 5 6 
#
# 1 0.021567 -0.005494 -0.000411 -0.001362 0.013877 -0.008927
# 2 -0.005494 0.008732 -0.004968 -0.002836 -0.005197 0.001459
# 3 -0.000411 -0.004968 0.021826 0.001494 0.014747 -0.004716
# 4 -0.001362 -0.002836 0.001494 0.023873 0.000792 0.002899
# 5 0.013877 -0.005197 0.014747 0.000792 0.050077 -0.007085
# 6 -0.008927 0.001459 -0.004716 0.002899 -0.007085 0.022655
#
#
# Mechanical properties :
#
#
# Convention : Reuss Voigt Hill
#
# Bulk Modulus (GPa) = 32.91756 74.97999 53.94878
# Shear Modulus (GPa) = 27.68538 40.82925 34.25732
#
# Velocity S-wave (km/s) = 3.31198 4.02205 3.68416
# Velocity P-wave (km/s) = 5.26002 7.16079 6.28270
#
# Compressibility (1/GPa) = 0.03037893
#
# Stress axis : x y z
#
# Youngs Moduli (GPa) = 46.36725 114.52527 45.81693
#
# Poissons Ratio (x) = 0.62923 0.01882
# Poissons Ratio (y) = 0.25475 0.22762
# Poissons Ratio (z) = 0.01904 0.56895
#
# Static dielectric constant tensor:
#      x y z
#    x 2.084460 0.012060 0.045260 
#    y 0.012060 2.063730 0.015940 
#    z 0.045260 0.015940 2.017820 
# 
# From -- ./inp_files/67788.got.cif
#   From: 2010.05.17/outbox.cif.g08.bks.cpg/sg2_34_cif.got.tgz:67788.got - 2010.06.03 11:33:40.
