data_PCOD9022883
_publ_section_title
;
Structure prediction by ZEFSAII (Michael W. Deem and Ramdas Pophale) SiO2 
 PCOD9022883
Probable space group: P -1
;
_chemical_formula_sum "Si O2"
_cell_formula_units_Z 16
_cell_length_a 13.935316
_cell_length_b 9.790371
_cell_length_c 13.323733
_cell_angle_alpha 133.069014
_cell_angle_beta 149.259937
_cell_angle_gamma 66.536501
_cell_volume 585.653387
_symmetry_space_group_name_H-M "P -1"
_symmetry_group_IT_number 2
_symmetry_cell_setting 'triclinic'
loop_
_space_group_symop_operation_xyz
x,y,z
-x,-y,-z
loop_
_atom_site_type_symbol
_atom_site_label
_atom_site_fract_x
_atom_site_fract_y
_atom_site_fract_z
Si Si1 0.695841 0.279610 0.529667
Si Si2 0.163797 0.317379 0.627241
Si Si3 0.901599 0.699873 0.791836
Si Si4 0.704465 0.264795 0.928791
Si Si5 0.580135 0.422462 0.700970
Si Si6 0.672689 0.813203 0.101833
Si Si7 0.777420 0.010146 0.604609
Si Si8 0.684320 0.137349 0.129661
O O1 0.816004 0.463563 0.646891
O O2 0.633491 0.385416 0.618577
O O3 0.839783 0.185303 0.659232
O O4 0.483140 0.069015 0.189530
O O5 0.184723 0.199665 0.688249
O O6 0.237471 0.210413 0.555349
O O7 0.919592 0.255698 0.354263
O O8 0.284920 0.566743 0.894032
O O9 0.679718 0.701700 0.575009
O O10 0.072653 0.739114 0.877205
O O11 0.048990 0.877365 0.096096
O O12 0.690793 0.352651 0.850717
O O13 0.469680 0.051016 0.621565
O O14 0.665740 0.671789 0.930789
O O15 0.720258 0.043601 0.219599
O O16 0.428761 0.721406 0.880523
#
# Coordination Sequence:
#
# PCOD9022883 Si02
#       8
#     2   2   2   2   2   2   2   2
#     4  12  25  44  70 103 140 169 226 281 331 400
#     4  11  24  42  70  95 129 184 222 270 340 390
#     4  12  25  46  72  98 135 179 224 275 341 392
#     4  11  27  48  68  97 139 177 228 276 328 405
#     4  11  24  43  70 101 135 175 224 277 332 397
#     4  10  22  39  64  99 141 164 221 277 333 392
#     4  12  26  47  68  98 140 179 224 278 331 398
#     4  11  22  41  66 101 135 174 218 278 340 394
#
# _framework density 27.319914000000001
#
# number of rings (size 3 to 8) (size 9 to 14) (size 15 to 20)
#    0.000    0.750    3.750    3.375    3.500    1.500 
#    2.250    0.625    0.000    0.000    0.000    0.000 
#    0.000    0.000    0.000    0.000    0.000    0.000 
#
# Total GULP energy -89761.270620 kJ/mol
# GULP energy per Si atom -5610.079414 kJ/mol
# Density = 2.725773 g / cm^3
# Si number density = 27.319914 Si / 1000 Ang^3
#
#
#
# Elastic Constant Matrix: (Units=GPa)
#
#
# Indices 1 2 3 4 5 6 
#
# 1 89.5378 26.9142 57.5164 -5.0445 -11.8639 -30.8419
# 2 26.9142 97.6425 28.3928 -12.4576 -6.4784 -13.8058
# 3 57.5164 28.3928 148.0132 -1.0926 -3.5919 -36.3286
# 4 -5.0445 -12.4576 -1.0926 50.3521 -20.1366 -5.0378
# 5 -11.8639 -6.4784 -3.5919 -20.1366 50.3790 -3.7903
# 6 -30.8419 -13.8058 -36.3286 -5.0378 -3.7903 52.6841
#
#
#
# Elastic Compliance Matrix: (Units=1/GPa)
#
#
# Indices 1 2 3 4 5 6 
#
# 1 0.018583 -0.001577 -0.004742 0.004709 0.006327 0.008101
# 2 -0.001577 0.012010 -0.001076 0.004166 0.002919 0.002090
# 3 -0.004742 -0.001076 0.009660 -0.000355 -0.000442 0.003538
# 4 0.004709 0.004166 -0.000355 0.027297 0.013069 0.007155
# 5 0.006327 0.002919 -0.000442 0.013069 0.027463 0.007390
# 6 0.008101 0.002090 0.003538 0.007155 0.007390 0.027926
#
#
# Mechanical properties :
#
#
# Convention : Reuss Voigt Hill
#
# Bulk Modulus (GPa) = 39.27444 62.31561 50.79503
# Shear Modulus (GPa) = 34.19567 45.50770 39.85169
#
# Velocity S-wave (km/s) = 3.54174 4.08577 3.82344
# Velocity P-wave (km/s) = 5.57962 6.71693 6.17452
#
# Compressibility (1/GPa) = 0.02546185
#
# Stress axis : x y z
#
# Youngs Moduli (GPa) = 53.81348 83.26457 103.51773
#
# Poissons Ratio (x) = 0.13133 0.49087
# Poissons Ratio (y) = 0.08488 0.11142
# Poissons Ratio (z) = 0.25518 0.08962
#
# Static dielectric constant tensor:
#      x y z
#    x 2.181370 0.029860 0.043340 
#    y 0.029860 2.134470 0.017550 
#    z 0.043340 0.017550 2.083430 
# 
# From -- ./inp_files/532752.got.cif
#   From: 2010.05.17/outbox.cif.g08.bks.cpg/sg2_267_cif.got.tgz:532752.got - 2010.06.03 11:33:40.
