data_PCOD9022304
_publ_section_title
;
Structure prediction by ZEFSAII (Michael W. Deem and Ramdas Pophale) SiO2 
 PCOD9022304
Probable space group: P -1
;
_chemical_formula_sum "Si O2"
_cell_formula_units_Z 14
_cell_length_a 19.353936
_cell_length_b 13.087621
_cell_length_c 7.567629
_cell_angle_alpha 63.009002
_cell_angle_beta 120.834867
_cell_angle_gamma 156.727308
_cell_volume 649.492307
_symmetry_space_group_name_H-M "P -1"
_symmetry_group_IT_number 2
_symmetry_cell_setting 'triclinic'
loop_
_space_group_symop_operation_xyz
x,y,z
-x,-y,-z
loop_
_atom_site_type_symbol
_atom_site_label
_atom_site_fract_x
_atom_site_fract_y
_atom_site_fract_z
Si Si1 0.072589 0.759591 0.773036
Si Si2 0.418987 0.055082 0.007925
Si Si3 0.899846 0.136744 0.895276
Si Si4 0.487495 0.695619 0.710316
Si Si5 0.531651 0.132227 0.727067
Si Si6 0.856455 0.901937 0.300034
Si Si7 0.883587 0.463886 0.419225
O O1 0.237735 0.887777 0.841770
O O2 0.912336 0.532691 0.606285
O O3 0.143209 0.980803 0.677060
O O4 0.038009 0.704952 0.980322
O O5 0.546127 0.201932 0.888226
O O6 0.371423 0.866087 0.157098
O O7 0.500770 0.232578 0.136596
O O8 0.690216 0.906629 0.767135
O O9 0.908148 0.020392 0.082023
O O10 0.027986 0.324737 0.751803
O O11 0.428276 0.720001 0.478902
O O12 0.338439 0.406160 0.729722
O O13 0.322499 0.827712 0.663257
O O14 0.000000 0.000000 0.500000
O O15 0.000000 0.500000 0.500000
#
# Coordination Sequence:
#
# PCOD9022304 Si02
#       7
#     2   2   2   2   2   2   2
#     4   9  22  42  62  92 123 168 205 258 310 364
#     4  10  22  39  60  94 125 163 205 249 318 366
#     4   9  22  40  63  89 125 166 204 252 306 367
#     4  11  21  43  64  89 125 170 202 255 312 367
#     4  11  24  38  62  99 128 158 206 258 305 380
#     4  10  24  44  64  92 123 162 220 256 304 370
#     4  12  21  40  64  96 130 158 208 253 316 369
#
# _framework density 21.555298000000001
#
# number of rings (size 3 to 8) (size 9 to 14) (size 15 to 20)
#    0.857    0.857    2.857    0.857    2.000    4.000 
#    2.571    2.143    0.000    0.000    0.000    0.000 
#    0.000    0.000    0.000    0.000    0.000    0.000 
#
# Total GULP energy -78227.519746 kJ/mol
# GULP energy per Si atom -5587.679982 kJ/mol
# Density = 2.150624 g / cm^3
# Si number density = 21.555298 Si / 1000 Ang^3
#
#
#
# Elastic Constant Matrix: (Units=GPa)
#
#
# Indices 1 2 3 4 5 6 
#
# 1 67.7509 26.8431 28.1566 4.8525 14.3204 -5.5227
# 2 26.8431 77.9042 25.1148 -10.0102 -0.6044 2.1940
# 3 28.1566 25.1148 108.0723 -10.1015 15.1722 -5.4604
# 4 4.8525 -10.0102 -10.1015 25.0772 -8.0174 -0.8557
# 5 14.3204 -0.6044 15.1722 -8.0174 48.6372 4.0172
# 6 -5.5227 2.1940 -5.4604 -0.8557 4.0172 14.5978
#
#
#
# Elastic Compliance Matrix: (Units=1/GPa)
#
#
# Indices 1 2 3 4 5 6 
#
# 1 0.023165 -0.008780 -0.003341 -0.011753 -0.008695 0.010538
# 2 -0.008780 0.018075 -0.002221 0.009583 0.005733 -0.007885
# 3 -0.003341 -0.002221 0.011543 0.003797 -0.002371 0.004262
# 4 -0.011753 0.009583 0.003797 0.050920 0.011165 -0.004554
# 5 -0.008695 0.005733 -0.002371 0.011165 0.026742 -0.011743
# 6 0.010538 -0.007885 0.004262 -0.004554 -0.011743 0.078234
#
#
# Mechanical properties :
#
#
# Convention : Reuss Voigt Hill
#
# Bulk Modulus (GPa) = 41.49056 45.99517 43.74286
# Shear Modulus (GPa) = 20.37535 29.23664 24.80600
#
# Velocity S-wave (km/s) = 3.07784 3.68687 3.39604
# Velocity P-wave (km/s) = 5.64987 6.28558 5.97618
#
# Compressibility (1/GPa) = 0.02410187
#
# Stress axis : x y z
#
# Youngs Moduli (GPa) = 43.16770 55.32429 86.63603
#
# Poissons Ratio (x) = 0.48572 0.28941
# Poissons Ratio (y) = 0.37899 0.19238
# Poissons Ratio (z) = 0.14420 0.12285
#
# Static dielectric constant tensor:
#      x y z
#    x 1.794600 0.014460 0.010410 
#    y 0.014460 1.753780 0.003750 
#    z 0.010410 0.003750 1.815470 
# 
# From -- ./inp_files/354069.got.cif
#   From: 2010.05.17/outbox.cif.g08.bks.cpg/sg2_178_cif.got.tgz:354069.got - 2010.06.03 11:33:40.
