data_PCOD9022880
_publ_section_title
;
Structure prediction by ZEFSAII (Michael W. Deem and Ramdas Pophale) SiO2 
 PCOD9022880
Probable space group: P -1
;
_chemical_formula_sum "Si O2"
_cell_formula_units_Z 15
_cell_length_a 5.638427
_cell_length_b 19.825412
_cell_length_c 4.954399
_cell_angle_alpha 111.107693
_cell_angle_beta 92.331499
_cell_angle_gamma 81.430055
_cell_volume 510.845236
_symmetry_space_group_name_H-M "P -1"
_symmetry_group_IT_number 2
_symmetry_cell_setting 'triclinic'
loop_
_space_group_symop_operation_xyz
x,y,z
-x,-y,-z
loop_
_atom_site_type_symbol
_atom_site_label
_atom_site_fract_x
_atom_site_fract_y
_atom_site_fract_z
Si Si1 0.214138 0.600773 0.551196
Si Si2 0.447712 0.961319 0.651462
Si Si3 0.570595 0.268283 0.381194
Si Si4 0.344700 0.457500 0.128101
Si Si5 0.091334 0.884913 0.864942
Si Si6 0.268360 0.184808 0.580749
Si Si7 0.000000 0.000000 0.500000
Si Si8 0.807080 0.685132 0.037741
O O1 0.269047 0.668530 0.461965
O O2 0.154115 0.525272 0.317090
O O3 0.465924 0.574725 0.678591
O O4 0.012294 0.638257 0.792560
O O5 0.160287 0.943208 0.721358
O O6 0.526138 0.878229 0.419846
O O7 0.698247 0.989221 0.533373
O O8 0.500000 0.000000 0.000000
O O9 0.712598 0.186608 0.232335
O O10 0.379078 0.256270 0.588871
O O11 0.414633 0.287304 0.136876
O O12 0.500000 0.500000 0.000000
O O13 0.248831 0.387146 0.900691
O O14 0.852607 0.855877 0.715220
O O15 0.036185 0.926274 0.197278
O O16 0.077936 0.235615 0.821520
#
# Coordination Sequence:
#
# PCOD9022880 Si02
#       8
#     2   2   2   2   2   2   1   2
#     4  10  22  39  64  99 134 174 225 273 326 392
#     4  11  26  46  70 100 136 174 223 282 343 415
#     4  10  23  43  66  96 135 175 223 278 333 402
#     4  10  22  40  63  96 137 178 221 272 327 389
#     4  11  26  46  70 101 135 177 228 283 345 411
#     4  11  25  44  69 100 132 175 227 278 340 406
#     4  12  26  46  70  96 134 176 222 282 344 408
#     4  11  23  41  68  98 134 178 222 277 335 394
#
# _framework density 29.363098000000001
#
# number of rings (size 3 to 8) (size 9 to 14) (size 15 to 20)
#    0.000    1.333    0.000    4.000    0.000   14.400 
#    0.000    0.000    0.000    0.000    0.000    0.000 
#    0.000    0.000    0.000    0.000    0.000    0.000 
#
# Total GULP energy -83829.293629 kJ/mol
# GULP energy per Si atom -5588.619575 kJ/mol
# Density = 2.929627 g / cm^3
# Si number density = 29.363098 Si / 1000 Ang^3
#
#
#
# Elastic Constant Matrix: (Units=GPa)
#
#
# Indices 1 2 3 4 5 6 
#
# 1 122.9884 50.6651 29.2247 24.4122 -3.6868 -9.4561
# 2 50.6651 229.5196 82.9547 53.2063 -1.5100 4.6160
# 3 29.2247 82.9547 186.8135 53.1272 2.1930 -2.8219
# 4 24.4122 53.2063 53.1272 94.7375 1.5605 -12.7156
# 5 -3.6868 -1.5100 2.1930 1.5605 31.6680 -3.0207
# 6 -9.4561 4.6160 -2.8219 -12.7156 -3.0207 76.2996
#
#
#
# Elastic Compliance Matrix: (Units=1/GPa)
#
#
# Indices 1 2 3 4 5 6 
#
# 1 0.009246 -0.001657 -0.000394 -0.001103 0.001183 0.001094
# 2 -0.001657 0.005851 -0.001791 -0.001985 0.000218 -0.000948
# 3 -0.000394 -0.001791 0.007022 -0.002846 -0.000494 -0.000175
# 4 -0.001103 -0.001985 -0.002846 0.013850 -0.000502 0.002166
# 5 0.001183 0.000218 -0.000494 -0.000502 0.031908 0.001295
# 6 0.001094 -0.000948 -0.000175 0.002166 0.001295 0.013705
#
#
# Mechanical properties :
#
#
# Convention : Reuss Voigt Hill
#
# Bulk Modulus (GPa) = 69.27832 96.11228 82.69530
# Shear Modulus (GPa) = 53.14747 65.63947 59.39347
#
# Velocity S-wave (km/s) = 4.25904 4.73317 4.50235
# Velocity P-wave (km/s) = 6.91598 7.91669 7.43319
#
# Compressibility (1/GPa) = 0.01443453
#
# Stress axis : x y z
#
# Youngs Moduli (GPa) = 108.15804 170.91823 142.40082
#
# Poissons Ratio (x) = 0.28319 0.05613
# Poissons Ratio (y) = 0.17921 0.25505
# Poissons Ratio (z) = 0.04263 0.30613
#
# Static dielectric constant tensor:
#      x y z
#    x 2.780550 -0.169910 0.001170 
#    y -0.169910 2.651990 -0.198320 
#    z 0.001170 -0.198320 2.493460 
# 
# From -- ./inp_files/11628.got.cif
#   From: 2010.05.17/outbox.cif.g08.bks.cpg/sg2_6_cif.got.tgz:11628.got - 2010.06.03 11:33:40.
