data_PCOD9022741
_publ_section_title
;
Structure prediction by ZEFSAII (Michael W. Deem and Ramdas Pophale) SiO2 
 PCOD9022741
Probable space group: P -1
;
_chemical_formula_sum "Si O2"
_cell_formula_units_Z 14
_cell_length_a 12.538660
_cell_length_b 11.227203
_cell_length_c 9.294496
_cell_angle_alpha 115.972036
_cell_angle_beta 55.567117
_cell_angle_gamma 142.294650
_cell_volume 659.908585
_symmetry_space_group_name_H-M "P -1"
_symmetry_group_IT_number 2
_symmetry_cell_setting 'triclinic'
loop_
_space_group_symop_operation_xyz
x,y,z
-x,-y,-z
loop_
_atom_site_type_symbol
_atom_site_label
_atom_site_fract_x
_atom_site_fract_y
_atom_site_fract_z
Si Si1 0.547704 0.385061 0.744711
Si Si2 0.997274 0.754634 0.580198
Si Si3 0.593188 0.963777 0.513162
Si Si4 0.510246 0.668675 0.906314
Si Si5 0.024084 0.698584 0.200089
Si Si6 0.948703 0.004190 0.702471
Si Si7 0.677378 0.269021 0.136395
O O1 0.456056 0.217095 0.611369
O O2 0.483354 0.488677 0.817123
O O3 0.778349 0.549357 0.655778
O O4 0.496340 0.308769 0.906628
O O5 0.041794 0.757764 0.381481
O O6 0.000521 0.913004 0.703079
O O7 0.182180 0.835726 0.557828
O O8 0.494670 0.892560 0.708689
O O9 0.500000 0.000000 0.500000
O O10 0.724492 0.854210 0.792955
O O11 0.383173 0.670979 0.908450
O O12 0.850412 0.466725 0.196932
O O13 0.968405 0.792391 0.209450
O O14 0.218999 0.780181 0.038623
O O15 0.000000 0.000000 0.500000
#
# Coordination Sequence:
#
# PCOD9022741 Si02
#       7
#     2   2   2   2   2   2   2
#     4  10  24  48  65 102 136 169 223 274 328 391
#     4  10  22  44  67  93 134 177 214 277 332 379
#     4  12  28  43  69 100 130 178 223 266 338 397
#     4  10  23  43  71  94 134 176 217 276 329 386
#     4  10  22  39  64 100 137 168 224 276 323 393
#     4   9  19  38  64  96 125 168 220 268 321 383
#     4  11  24  41  66 100 130 182 219 269 335 388
#
# _framework density 21.215060000000001
#
# number of rings (size 3 to 8) (size 9 to 14) (size 15 to 20)
#    0.000    1.714    1.429    1.714    6.000    4.571 
#    0.000    2.143    0.000    0.000    0.000    0.000 
#    0.000    0.000    0.000    0.000    0.000    0.000 
#
# Total GULP energy -78100.839589 kJ/mol
# GULP energy per Si atom -5578.631399 kJ/mol
# Density = 2.116677 g / cm^3
# Si number density = 21.215060 Si / 1000 Ang^3
#
#
#
# Elastic Constant Matrix: (Units=GPa)
#
#
# Indices 1 2 3 4 5 6 
#
# 1 87.0657 3.6090 19.8796 -0.9113 -10.1526 10.1785
# 2 3.6090 35.7380 29.8643 -5.1638 -3.6141 3.1480
# 3 19.8796 29.8643 121.2057 -12.9648 -14.1440 -2.6858
# 4 -0.9113 -5.1638 -12.9648 29.2014 -4.4549 -7.2577
# 5 -10.1526 -3.6141 -14.1440 -4.4549 22.5896 -6.6134
# 6 10.1785 3.1480 -2.6858 -7.2577 -6.6134 29.0161
#
#
#
# Elastic Compliance Matrix: (Units=1/GPa)
#
#
# Indices 1 2 3 4 5 6 
#
# 1 0.012804 0.001113 -0.002222 -0.001010 0.003062 -0.004373
# 2 0.001113 0.036032 -0.009161 0.000959 -0.000770 -0.005083
# 3 -0.002222 -0.009161 0.012817 0.007042 0.008927 0.006756
# 4 -0.001010 0.000959 0.007042 0.044133 0.017474 0.015924
# 5 0.003062 -0.000770 0.008927 0.017474 0.059777 0.017831
# 6 -0.004373 -0.005083 0.006756 0.015924 0.017831 0.045221
#
#
# Mechanical properties :
#
#
# Convention : Reuss Voigt Hill
#
# Bulk Modulus (GPa) = 24.32263 38.96835 31.64549
# Shear Modulus (GPa) = 20.40575 28.87187 24.63881
#
# Velocity S-wave (km/s) = 3.10474 3.69306 3.41160
# Velocity P-wave (km/s) = 4.93378 6.04922 5.51975
#
# Compressibility (1/GPa) = 0.04111398
#
# Stress axis : x y z
#
# Youngs Moduli (GPa) = 78.09767 27.75275 78.02341
#
# Poissons Ratio (x) = -0.03088 0.17335
# Poissons Ratio (y) = -0.08689 0.71474
# Poissons Ratio (z) = 0.17352 0.25423
#
# Static dielectric constant tensor:
#      x y z
#    x 1.797630 -0.058330 -0.026310 
#    y -0.058330 1.799390 0.020350 
#    z -0.026310 0.020350 1.775550 
# 
# From -- ./inp_files/244850.got.cif
#   From: 2010.05.17/outbox.cif.g08.bks.cpg/sg2_123_cif.got.tgz:244850.got - 2010.06.03 11:33:40.
