data_PCOD9022914
_publ_section_title
;
Structure prediction by ZEFSAII (Michael W. Deem and Ramdas Pophale) SiO2 
 PCOD9022914
Probable space group: P -1
;
_chemical_formula_sum "Si O2"
_cell_formula_units_Z 16
_cell_length_a 8.977996
_cell_length_b 11.233744
_cell_length_c 9.123405
_cell_angle_alpha 103.493543
_cell_angle_beta 56.094892
_cell_angle_gamma 90.350204
_cell_volume 733.788683
_symmetry_space_group_name_H-M "P -1"
_symmetry_group_IT_number 2
_symmetry_cell_setting 'triclinic'
loop_
_space_group_symop_operation_xyz
x,y,z
-x,-y,-z
loop_
_atom_site_type_symbol
_atom_site_label
_atom_site_fract_x
_atom_site_fract_y
_atom_site_fract_z
Si Si1 0.545967 0.309173 0.095102
Si Si2 0.905815 0.888287 0.449983
Si Si3 0.031542 0.533353 0.824288
Si Si4 0.823802 0.364134 0.720883
Si Si5 0.037171 0.965954 0.803084
Si Si6 0.336945 0.527760 0.451502
Si Si7 0.741619 0.259258 0.262974
Si Si8 0.328430 0.102309 0.161354
O O1 0.476381 0.437907 0.251905
O O2 0.672561 0.234180 0.131086
O O3 0.382623 0.234586 0.131120
O O4 0.654536 0.328220 0.894608
O O5 0.716428 0.897000 0.640581
O O6 0.021773 0.755021 0.379465
O O7 0.000000 0.000000 0.500000
O O8 0.906707 0.922051 0.289345
O O9 0.871798 0.487596 0.808088
O O10 0.209219 0.466132 0.616912
O O11 0.079750 0.672281 0.834074
O O12 0.000000 0.500000 0.000000
O O13 0.791226 0.396102 0.578869
O O14 0.854905 0.924234 0.824397
O O15 0.203660 0.853957 0.691293
O O16 0.000000 0.000000 0.000000
O O17 0.400739 0.634575 0.547641
O O18 0.500000 0.000000 0.000000
#
# Coordination Sequence:
#
# PCOD9022914 Si02
#       8
#     2   2   2   2   2   2   2   2
#     4  12  23  41  63  95 137 167 206 270 333 371
#     4  10  22  41  68  91 125 171 213 260 319 383
#     4  10  22  39  65  87 130 169 223 251 318 377
#     4  12  21  40  65  98 127 171 218 263 315 390
#     4  11  23  44  70  94 124 172 224 260 315 386
#     4  10  23  37  62  94 130 168 211 267 315 375
#     4  10  23  41  64  91 132 171 219 257 313 386
#     4  11  24  42  65  95 128 166 213 270 326 372
#
# _framework density 21.804641
#
# number of rings (size 3 to 8) (size 9 to 14) (size 15 to 20)
#    0.750    0.500    1.250    6.375    1.750    0.000 
#    0.000    3.750    0.000    0.000    0.000    0.000 
#    0.000    0.000    0.000    0.000    0.000    0.000 
#
# Total GULP energy -89238.110979 kJ/mol
# GULP energy per Si atom -5577.381936 kJ/mol
# Density = 2.175501 g / cm^3
# Si number density = 21.804641 Si / 1000 Ang^3
#
#
#
# Elastic Constant Matrix: (Units=GPa)
#
#
# Indices 1 2 3 4 5 6 
#
# 1 48.7590 26.6147 21.0039 -24.2252 9.4057 5.4908
# 2 26.6147 69.5763 27.1070 -2.2171 -6.3367 -14.3078
# 3 21.0039 27.1070 155.2397 -18.5649 -3.2436 -8.3901
# 4 -24.2252 -2.2171 -18.5649 34.6691 -2.1745 0.7037
# 5 9.4057 -6.3367 -3.2436 -2.1745 38.9306 2.2881
# 6 5.4908 -14.3078 -8.3901 0.7037 2.2881 34.2492
#
#
#
# Elastic Compliance Matrix: (Units=1/GPa)
#
#
# Indices 1 2 3 4 5 6 
#
# 1 0.061451 -0.028030 -0.000056 0.040553 -0.015894 -0.021347
# 2 -0.028030 0.029645 -0.002571 -0.018803 0.009392 0.016007
# 3 -0.000056 -0.002571 0.007391 0.003765 0.000383 0.000643
# 4 0.040553 -0.018803 0.003765 0.057747 -0.008493 -0.014053
# 5 -0.015894 0.009392 0.000383 -0.008493 0.030336 0.004713
# 6 -0.021347 0.016007 0.000643 -0.014053 0.004713 0.039438
#
#
# Mechanical properties :
#
#
# Convention : Reuss Voigt Hill
#
# Bulk Modulus (GPa) = 26.90146 47.00293 36.95219
# Shear Modulus (GPa) = 16.68261 34.82640 25.75451
#
# Velocity S-wave (km/s) = 2.76904 4.00084 3.44051
# Velocity P-wave (km/s) = 4.75265 6.55328 5.72421
#
# Compressibility (1/GPa) = 0.03717270
#
# Stress axis : x y z
#
# Youngs Moduli (GPa) = 16.27311 33.73307 135.29561
#
# Poissons Ratio (x) = 0.94553 0.00758
# Poissons Ratio (y) = 0.45613 0.34787
# Poissons Ratio (z) = 0.00091 0.08673
#
# Static dielectric constant tensor:
#      x y z
#    x 1.857330 -0.059520 0.006700 
#    y -0.059520 1.896450 0.049890 
#    z 0.006700 0.049890 1.838400 
# 
# From -- ./inp_files/179922.got.cif
#   From: 2010.05.17/outbox.cif.g08.bks.cpg/sg2_90_cif.got.tgz:179922.got - 2010.06.03 11:33:40.
