data_PCOD9022593
_publ_section_title
;
Structure prediction by ZEFSAII (Michael W. Deem and Ramdas Pophale) SiO2 
 PCOD9022593
Probable space group: P -1
;
_chemical_formula_sum "Si O2"
_cell_formula_units_Z 16
_cell_length_a 11.680432
_cell_length_b 8.530271
_cell_length_c 9.830887
_cell_angle_alpha 76.358967
_cell_angle_beta 94.241186
_cell_angle_gamma 135.949055
_cell_volume 655.198077
_symmetry_space_group_name_H-M "P -1"
_symmetry_group_IT_number 2
_symmetry_cell_setting 'triclinic'
loop_
_space_group_symop_operation_xyz
x,y,z
-x,-y,-z
loop_
_atom_site_type_symbol
_atom_site_label
_atom_site_fract_x
_atom_site_fract_y
_atom_site_fract_z
Si Si1 0.214919 0.333934 0.190105
Si Si2 0.990137 0.159290 0.839156
Si Si3 0.042782 0.806271 0.607330
Si Si4 0.243247 0.981754 0.940787
Si Si5 0.205490 0.307910 0.585232
Si Si6 0.188342 0.672183 0.779692
Si Si7 0.548381 0.298016 0.104149
Si Si8 0.475427 0.463640 0.716051
O O1 0.071220 0.299157 0.245320
O O2 0.348427 0.444087 0.298879
O O3 0.143066 0.083204 0.204793
O O4 0.311026 0.504736 0.034356
O O5 0.151876 0.265116 0.749534
O O6 0.034258 0.393967 0.800200
O O7 0.908575 0.065663 0.001714
O O8 0.909338 0.675089 0.500357
O O9 0.165637 0.782043 0.637657
O O10 0.142874 0.075756 0.563472
O O11 0.347565 0.190725 0.797944
O O12 0.183896 0.762439 0.904060
O O13 0.379308 0.083283 0.051131
O O14 0.402671 0.500429 0.583175
O O15 0.361660 0.750157 0.790870
O O16 0.509358 0.409592 0.173962
#
# Coordination Sequence:
#
# PCOD9022593 Si02
#       8
#     2   2   2   2   2   2   2   2
#     4  10  22  39  63  88 123 156 203 242 288 358
#     4  11  22  37  61  89 125 157 193 246 294 358
#     4  10  24  42  59  92 116 154 210 252 288 345
#     4  11  22  39  58  94 126 152 198 239 299 368
#     4  10  22  42  66  82 114 163 211 246 285 345
#     4  12  25  36  60  91 129 158 187 246 311 351
#     4  11  22  39  62  91 122 161 191 243 302 361
#     4  11  19  41  66  88 113 164 201 243 294 351
#
# _framework density 24.420097999999999
#
# number of rings (size 3 to 8) (size 9 to 14) (size 15 to 20)
#    0.000    1.250    5.000    1.500    3.500    2.000 
#    0.000    0.000    0.000    1.500    0.000    0.000 
#    0.000    0.000    0.000    0.000    0.000    0.000 
#
# Total GULP energy -89235.804668 kJ/mol
# GULP energy per Si atom -5577.237792 kJ/mol
# Density = 2.436452 g / cm^3
# Si number density = 24.420098 Si / 1000 Ang^3
#
#
#
# Elastic Constant Matrix: (Units=GPa)
#
#
# Indices 1 2 3 4 5 6 
#
# 1 96.9722 20.8988 23.4596 2.4821 25.3751 9.7082
# 2 20.8988 85.9520 9.9281 14.0855 6.2846 -10.5016
# 3 23.4596 9.9281 56.3617 10.0756 24.5027 -1.1908
# 4 2.4821 14.0855 10.0756 25.2888 10.4423 1.3927
# 5 25.3751 6.2846 24.5027 10.4423 55.6528 6.8306
# 6 9.7082 -10.5016 -1.1908 1.3927 6.8306 34.9035
#
#
#
# Elastic Compliance Matrix: (Units=1/GPa)
#
#
# Indices 1 2 3 4 5 6 
#
# 1 0.013532 -0.003766 -0.003983 0.004362 -0.004273 -0.004371
# 2 -0.003766 0.014532 0.000269 -0.008497 0.000865 0.005599
# 3 -0.003983 0.000269 0.024075 -0.006210 -0.008121 0.003847
# 4 0.004362 -0.008497 -0.006210 0.049471 -0.007015 -0.004583
# 5 -0.004273 0.000865 -0.008121 -0.007015 0.025136 -0.003468
# 6 -0.004371 0.005599 0.003847 -0.004583 -0.003468 0.032543
#
#
# Mechanical properties :
#
#
# Convention : Reuss Voigt Hill
#
# Bulk Modulus (GPa) = 26.89790 38.65099 32.77445
# Shear Modulus (GPa) = 26.78894 35.50231 31.14563
#
# Velocity S-wave (km/s) = 3.31570 3.81703 3.57516
# Velocity P-wave (km/s) = 5.06923 5.94039 5.52201
#
# Compressibility (1/GPa) = 0.03717762
#
# Stress axis : x y z
#
# Youngs Moduli (GPa) = 73.90128 68.81138 41.53681
#
# Poissons Ratio (x) = 0.25917 0.16546
# Poissons Ratio (y) = 0.27834 -0.01118
# Poissons Ratio (z) = 0.29438 -0.01852
#
# Static dielectric constant tensor:
#      x y z
#    x 1.963390 0.048900 0.024890 
#    y 0.048900 1.932810 -0.001490 
#    z 0.024890 -0.001490 2.071600 
# 
# From -- ./inp_files/215899.got.cif
#   From: 2010.05.17/outbox.cif.g08.bks.cpg/sg2_108_cif.got.tgz:215899.got - 2010.06.03 11:33:40.
