data_PCOD9022757
_publ_section_title
;
Structure prediction by ZEFSAII (Michael W. Deem and Ramdas Pophale) SiO2 
 PCOD9022757
Probable space group: P -1
;
_chemical_formula_sum "Si O2"
_cell_formula_units_Z 14
_cell_length_a 11.043916
_cell_length_b 13.918045
_cell_length_c 5.524581
_cell_angle_alpha 61.100696
_cell_angle_beta 107.172437
_cell_angle_gamma 135.074379
_cell_volume 523.489957
_symmetry_space_group_name_H-M "P -1"
_symmetry_group_IT_number 2
_symmetry_cell_setting 'triclinic'
loop_
_space_group_symop_operation_xyz
x,y,z
-x,-y,-z
loop_
_atom_site_type_symbol
_atom_site_label
_atom_site_fract_x
_atom_site_fract_y
_atom_site_fract_z
Si Si1 0.596171 0.642530 0.213841
Si Si2 0.694119 0.508085 0.160136
Si Si3 0.008394 0.774696 0.754411
Si Si4 0.172479 0.668111 0.850996
Si Si5 0.081621 0.925281 0.101261
Si Si6 0.365620 0.905350 0.314605
Si Si7 0.450904 0.749244 0.247926
O O1 0.500000 0.500000 0.500000
O O2 0.733250 0.641152 0.178068
O O3 0.605820 0.756990 0.245377
O O4 0.483822 0.600007 0.960454
O O5 0.670771 0.396273 0.470822
O O6 0.838230 0.605430 0.923017
O O7 0.156641 0.770244 0.872260
O O8 0.012196 0.827305 0.427805
O O9 0.036091 0.878474 0.851027
O O10 0.206806 0.734677 0.523643
O O11 0.338525 0.702519 0.998938
O O12 0.000000 0.500000 0.000000
O O13 0.271384 0.969769 0.155877
O O14 0.000000 0.000000 0.000000
O O15 0.463549 0.876451 0.225283
O O16 0.500000 0.000000 0.500000
#
# Coordination Sequence:
#
# PCOD9022757 Si02
#       7
#     2   2   2   2   2   2   2
#     4   9  20  38  59  93 150 182 236 297 371 452
#     4  10  22  39  64 108 142 182 238 306 387 450
#     4  11  24  44  76 104 141 191 254 315 374 458
#     4  11  24  42  73 108 143 191 244 314 383 455
#     4  11  26  52  72 106 143 200 262 316 378 451
#     4  11  26  48  71 108 152 200 256 317 380 455
#     4  11  21  41  70 100 147 191 244 304 383 455
#
# _framework density 26.743586000000001
#
# number of rings (size 3 to 8) (size 9 to 14) (size 15 to 20)
#    0.000    1.429    1.429    3.000    8.000    1.714 
#   10.286    0.000    0.000    0.000    0.000    0.000 
#    0.000    0.000    0.000    0.000    0.000    0.000 
#
# Total GULP energy -77949.330955 kJ/mol
# GULP energy per Si atom -5567.809354 kJ/mol
# Density = 2.668272 g / cm^3
# Si number density = 26.743586 Si / 1000 Ang^3
#
#
#
# Elastic Constant Matrix: (Units=GPa)
#
#
# Indices 1 2 3 4 5 6 
#
# 1 156.8574 75.8181 34.7298 -11.7037 3.7009 -67.9994
# 2 75.8181 143.4706 26.5858 1.6717 12.8446 -63.1744
# 3 34.7298 26.5858 135.1807 -16.8349 15.0552 -17.9750
# 4 -11.7037 1.6717 -16.8349 46.1012 -4.2664 7.5691
# 5 3.7009 12.8446 15.0552 -4.2664 45.6187 3.0942
# 6 -67.9994 -63.1744 -17.9750 7.5691 3.0942 66.6783
#
#
#
# Elastic Compliance Matrix: (Units=1/GPa)
#
#
# Indices 1 2 3 4 5 6 
#
# 1 0.011940 -0.001429 -0.001203 0.000856 -0.000797 0.010438
# 2 -0.001429 0.013454 -0.000638 -0.003431 -0.004577 0.011719
# 3 -0.001203 -0.000638 0.008438 0.002545 -0.002287 0.000261
# 4 0.000856 -0.003431 0.002545 0.023947 0.002604 -0.004531
# 5 -0.000797 -0.004577 -0.002287 0.002604 0.024762 -0.007211
# 6 0.010438 0.011719 0.000261 -0.004531 -0.007211 0.037664
#
#
# Mechanical properties :
#
#
# Convention : Reuss Voigt Hill
#
# Bulk Modulus (GPa) = 36.64206 78.86401 57.75304
# Shear Modulus (GPa) = 36.80702 51.57130 44.18916
#
# Velocity S-wave (km/s) = 3.71387 4.39608 4.06929
# Velocity P-wave (km/s) = 5.66758 7.43776 6.61217
#
# Compressibility (1/GPa) = 0.02729104
#
# Stress axis : x y z
#
# Youngs Moduli (GPa) = 83.75112 74.32956 118.50608
#
# Poissons Ratio (x) = 0.10625 0.14258
# Poissons Ratio (y) = 0.11972 0.07560
# Poissons Ratio (z) = 0.10076 0.04742
#
# Static dielectric constant tensor:
#      x y z
#    x 2.298050 -0.014500 -0.062010 
#    y -0.014500 2.156570 -0.025820 
#    z -0.062010 -0.025820 2.091750 
# 
# From -- ./inp_files/68697.got.cif
#   From: 2010.05.17/outbox.cif.g08.bks.cpg/sg2_35_cif.got.tgz:68697.got - 2010.06.03 11:33:40.
