data_PCOD9022089
_publ_section_title
;
Structure prediction by ZEFSAII (Michael W. Deem and Ramdas Pophale) SiO2 
 PCOD9022089
Probable space group: P -1
;
_chemical_formula_sum "Si O2"
_cell_formula_units_Z 13
_cell_length_a 9.303221
_cell_length_b 12.030238
_cell_length_c 9.599711
_cell_angle_alpha 142.727649
_cell_angle_beta 111.313747
_cell_angle_gamma 73.376873
_cell_volume 606.148885
_symmetry_space_group_name_H-M "P -1"
_symmetry_group_IT_number 2
_symmetry_cell_setting 'triclinic'
loop_
_space_group_symop_operation_xyz
x,y,z
-x,-y,-z
loop_
_atom_site_type_symbol
_atom_site_label
_atom_site_fract_x
_atom_site_fract_y
_atom_site_fract_z
Si Si1 0.963326 0.785507 0.252194
Si Si2 0.648551 0.385125 0.387886
Si Si3 0.033734 0.519164 0.259455
Si Si4 0.567878 0.249494 0.723513
Si Si5 0.500000 0.000000 0.000000
Si Si6 0.703434 0.531687 0.250997
Si Si7 0.631155 0.907584 0.256932
O O1 0.777104 0.777500 0.193071
O O2 0.036968 0.660403 0.272564
O O3 0.994813 0.685447 0.016481
O O4 0.000000 0.000000 0.500000
O O5 0.500000 0.500000 0.500000
O O6 0.804863 0.466562 0.590950
O O7 0.621760 0.176423 0.216540
O O8 0.667186 0.414865 0.258812
O O9 0.884304 0.575644 0.353504
O O10 0.418918 0.302313 0.630505
O O11 0.501348 0.159135 0.750647
O O12 0.669424 0.109483 0.532899
O O13 0.660844 0.424118 0.986196
O O14 0.574983 0.923025 0.095921
#
# Coordination Sequence:
#
# PCOD9022089 Si02
#       7
#     2   2   2   2   1   2   2
#     4  11  23  42  67  96 138 180 223 279 343 411
#     4  12  26  44  68  97 138 181 227 288 345 410
#     4  11  25  42  68 101 136 176 230 282 344 407
#     4  10  22  38  71  94 130 177 226 276 334 403
#     4  12  24  42  66 100 132 176 228 280 338 402
#     4  11  22  44  67  99 136 178 226 285 344 404
#     4  11  21  41  64  97 131 175 229 277 328 405
#
# _framework density 21.446877000000001
#
# number of rings (size 3 to 8) (size 9 to 14) (size 15 to 20)
#    0.000    0.923    3.077    4.154    0.000    2.462 
#    0.000    0.000    0.000    6.462    0.000    0.000 
#    0.000    0.000    0.000    0.000    0.000    0.000 
#
# Total GULP energy -72381.736650 kJ/mol
# GULP energy per Si atom -5567.825896 kJ/mol
# Density = 2.139806 g / cm^3
# Si number density = 21.446877 Si / 1000 Ang^3
#
#
#
# Elastic Constant Matrix: (Units=GPa)
#
#
# Indices 1 2 3 4 5 6 
#
# 1 107.2295 24.1452 14.3464 -9.6472 9.0172 -16.3877
# 2 24.1452 104.9923 26.5944 -7.8093 12.8178 0.1141
# 3 14.3464 26.5944 73.1499 -0.7622 16.4760 -8.7234
# 4 -9.6472 -7.8093 -0.7622 36.5290 -3.5179 10.7358
# 5 9.0172 12.8178 16.4760 -3.5179 25.3413 5.6861
# 6 -16.3877 0.1141 -8.7234 10.7358 5.6861 38.1276
#
#
#
# Elastic Compliance Matrix: (Units=1/GPa)
#
#
# Indices 1 2 3 4 5 6 
#
# 1 0.010946 -0.002020 0.000122 0.000548 -0.004040 0.005187
# 2 -0.002020 0.011277 -0.003481 0.002212 -0.001959 -0.002029
# 3 0.000122 -0.003481 0.018535 -0.003636 -0.012450 0.007184
# 4 0.000548 0.002212 -0.003636 0.031833 0.007879 -0.010741
# 5 -0.004040 -0.001959 -0.012450 0.007879 0.054425 -0.014914
# 6 0.005187 -0.002029 0.007184 -0.010741 -0.014914 0.035356
#
#
# Mechanical properties :
#
#
# Convention : Reuss Voigt Hill
#
# Bulk Modulus (GPa) = 33.33352 46.17153 39.75252
# Shear Modulus (GPa) = 27.30296 34.68530 30.99413
#
# Velocity S-wave (km/s) = 3.57185 4.02589 3.80565
# Velocity P-wave (km/s) = 5.70850 6.57156 6.15518
#
# Compressibility (1/GPa) = 0.02999983
#
# Stress axis : x y z
#
# Youngs Moduli (GPa) = 91.35708 88.67798 53.95072
#
# Poissons Ratio (x) = 0.17911 -0.00657
# Poissons Ratio (y) = 0.18452 0.18782
# Poissons Ratio (z) = -0.01113 0.30871
#
# Static dielectric constant tensor:
#      x y z
#    x 1.812630 0.014250 0.009550 
#    y 0.014250 1.744080 0.031150 
#    z 0.009550 0.031150 1.857750 
# 
# From -- ./inp_files/183640.got.cif
#   From: 2010.05.17/outbox.cif.g08.bks.cpg/sg2_92_cif.got.tgz:183640.got - 2010.06.03 11:33:40.
