data_PCOD9022599
_publ_section_title
;
Structure prediction by ZEFSAII (Michael W. Deem and Ramdas Pophale) SiO2 
 PCOD9022599
Probable space group: P -1
;
_chemical_formula_sum "Si O2"
_cell_formula_units_Z 16
_cell_length_a 8.970925
_cell_length_b 15.492645
_cell_length_c 11.387580
_cell_angle_alpha 63.976446
_cell_angle_beta 80.530927
_cell_angle_gamma 35.321148
_cell_volume 763.134535
_symmetry_space_group_name_H-M "P -1"
_symmetry_group_IT_number 2
_symmetry_cell_setting 'triclinic'
loop_
_space_group_symop_operation_xyz
x,y,z
-x,-y,-z
loop_
_atom_site_type_symbol
_atom_site_label
_atom_site_fract_x
_atom_site_fract_y
_atom_site_fract_z
Si Si1 0.154109 0.613902 0.541649
Si Si2 0.373148 0.154757 0.665524
Si Si3 0.676646 0.820355 0.934163
Si Si4 0.302406 0.534977 0.073999
Si Si5 0.343271 0.298025 0.220548
Si Si6 0.516620 0.568824 0.625739
Si Si7 0.707345 0.105737 0.497683
Si Si8 0.228292 0.369716 0.762569
O O1 0.230919 0.662452 0.585185
O O2 0.283843 0.565374 0.426226
O O3 0.303964 0.439035 0.679941
O O4 0.835542 0.760597 0.464129
O O5 0.648980 0.055337 0.631616
O O6 0.229064 0.308903 0.678515
O O7 0.452607 0.020893 0.813648
O O8 0.710712 0.740646 0.858695
O O9 0.609558 0.782366 0.072040
O O10 0.974016 0.711207 0.986585
O O11 0.406080 0.372263 0.126649
O O12 0.353204 0.525123 0.210596
O O13 0.500000 0.500000 0.000000
O O14 0.587221 0.134018 0.372167
O O15 0.069831 0.457971 0.239830
O O16 0.474165 0.705638 0.549770
O O17 0.000000 0.000000 0.500000
#
# Coordination Sequence:
#
# PCOD9022599 Si02
#       8
#     2   2   2   2   2   2   2   2
#     4  11  22  41  72  92 125 167 223 265 314 391
#     4  12  24  41  70  97 129 175 211 271 332 378
#     4  11  26  40  64 102 130 165 222 269 320 385
#     4  10  22  39  63  89 131 171 210 259 322 383
#     4  10  23  42  65  94 124 173 221 264 307 397
#     4  10  24  41  64  99 121 167 222 267 311 386
#     4  11  24  40  62  93 137 163 210 272 332 376
#     4  11  21  43  69  92 126 170 224 257 319 389
#
# _framework density 20.966159999999999
#
# number of rings (size 3 to 8) (size 9 to 14) (size 15 to 20)
#    0.000    1.250    2.500    4.500    8.750    0.500 
#    0.000    0.000    0.000    3.000    0.000    0.000 
#    0.000    0.000    0.000    0.000    0.000    0.000 
#
# Total GULP energy -89339.292949 kJ/mol
# GULP energy per Si atom -5583.705809 kJ/mol
# Density = 2.091844 g / cm^3
# Si number density = 20.966160 Si / 1000 Ang^3
#
#
#
# Elastic Constant Matrix: (Units=GPa)
#
#
# Indices 1 2 3 4 5 6 
#
# 1 92.4603 21.2630 49.7476 20.8433 6.6335 10.6655
# 2 21.2630 41.2665 11.9643 11.6849 5.9991 2.3698
# 3 49.7476 11.9643 115.9293 -1.7527 -4.9364 3.9029
# 4 20.8433 11.6849 -1.7527 20.5825 3.9716 -4.5279
# 5 6.6335 5.9991 -4.9364 3.9716 41.3368 4.9628
# 6 10.6655 2.3698 3.9029 -4.5279 4.9628 26.7943
#
#
#
# Elastic Compliance Matrix: (Units=1/GPa)
#
#
# Indices 1 2 3 4 5 6 
#
# 1 0.024366 -0.000850 -0.010398 -0.027692 -0.000851 -0.012631
# 2 -0.000850 0.031168 -0.003075 -0.017592 -0.002527 -0.004475
# 3 -0.010398 -0.003075 0.013546 0.014056 0.001845 0.004471
# 4 -0.027692 -0.017592 0.014056 0.094499 -0.003667 0.027180
# 5 -0.000851 -0.002527 0.001845 -0.003667 0.025882 -0.005120
# 6 -0.012631 -0.004475 0.004471 0.027180 -0.005120 0.047635
#
#
# Mechanical properties :
#
#
# Convention : Reuss Voigt Hill
#
# Bulk Modulus (GPa) = 24.73139 46.17844 35.45491
# Shear Modulus (GPa) = 17.90706 28.85481 23.38093
#
# Velocity S-wave (km/s) = 2.92566 3.71382 3.34305
# Velocity P-wave (km/s) = 4.82018 6.36105 5.64345
#
# Compressibility (1/GPa) = 0.04043445
#
# Stress axis : x y z
#
# Youngs Moduli (GPa) = 41.04044 32.08435 73.82359
#
# Poissons Ratio (x) = 0.02727 0.76762
# Poissons Ratio (y) = 0.03488 0.22699
# Poissons Ratio (z) = 0.42674 0.09865
#
# Static dielectric constant tensor:
#      x y z
#    x 1.790910 -0.021660 -0.017420 
#    y -0.021660 1.758040 -0.018740 
#    z -0.017420 -0.018740 1.781000 
# 
# From -- ./inp_files/271172.got.cif
#   From: 2010.05.17/outbox.cif.g08.bks.cpg/sg2_136_cif.got.tgz:271172.got - 2010.06.03 11:33:40.
