data_PCOD9022974
_publ_section_title
;
Structure prediction by ZEFSAII (Michael W. Deem and Ramdas Pophale) SiO2 
 PCOD9022974
Probable space group: P -1
;
_chemical_formula_sum "Si O2"
_cell_formula_units_Z 16
_cell_length_a 15.522896
_cell_length_b 6.118511
_cell_length_c 14.453349
_cell_angle_alpha 60.118978
_cell_angle_beta 38.726961
_cell_angle_gamma 61.049569
_cell_volume 733.026531
_symmetry_space_group_name_H-M "P -1"
_symmetry_group_IT_number 2
_symmetry_cell_setting 'triclinic'
loop_
_space_group_symop_operation_xyz
x,y,z
-x,-y,-z
loop_
_atom_site_type_symbol
_atom_site_label
_atom_site_fract_x
_atom_site_fract_y
_atom_site_fract_z
Si Si1 0.410207 0.882271 0.306837
Si Si2 0.010413 0.072727 0.083027
Si Si3 0.094690 0.702726 0.258809
Si Si4 0.107666 0.140970 0.435356
Si Si5 0.617605 0.424628 0.166850
Si Si6 0.460465 0.098168 0.615204
Si Si7 0.608699 0.287283 0.004056
Si Si8 0.220710 0.472304 0.813582
O O1 0.261106 0.986361 0.364641
O O2 0.420486 0.897147 0.407353
O O3 0.469350 0.595181 0.282996
O O4 0.525685 0.054227 0.141245
O O5 0.866596 0.253000 0.197919
O O6 0.053233 0.834939 0.166412
O O7 0.121463 0.263626 0.948704
O O8 0.000000 0.000000 0.000000
O O9 0.121515 0.396099 0.312447
O O10 0.238801 0.794502 0.151085
O O11 0.968492 0.789322 0.417334
O O12 0.000000 0.000000 0.500000
O O13 0.620530 0.124872 0.238104
O O14 0.722243 0.504518 0.135919
O O15 0.644323 0.439217 0.033956
O O16 0.500000 0.000000 0.500000
O O17 0.351749 0.362875 0.661334
O O18 0.500000 0.500000 0.000000
#
# Coordination Sequence:
#
# PCOD9022974 Si02
#       8
#     2   2   2   2   2   2   2   2
#     4  10  23  43  65 100 130 177 229 276 341 407
#     4  11  23  42  71  96 135 177 224 285 347 404
#     4  11  25  45  65  98 137 174 227 276 334 410
#     4  11  27  44  64  94 143 184 222 271 336 412
#     4  10  22  39  65  94 132 162 221 286 333 394
#     4  10  22  40  64  93 133 174 223 281 335 398
#     4  11  22  41  71  95 125 168 223 281 336 391
#     4  10  22  40  63 102 131 167 226 279 345 406
#
# _framework density 21.827314999999999
#
# number of rings (size 3 to 8) (size 9 to 14) (size 15 to 20)
#    0.000    1.500    1.250    3.750    1.750   10.500 
#    0.000    0.000    0.000    0.000    0.000    0.000 
#    0.000    0.000    0.000    0.000    0.000    0.000 
#
# Total GULP energy -89320.281771 kJ/mol
# GULP energy per Si atom -5582.517611 kJ/mol
# Density = 2.177763 g / cm^3
# Si number density = 21.827315 Si / 1000 Ang^3
#
#
#
# Elastic Constant Matrix: (Units=GPa)
#
#
# Indices 1 2 3 4 5 6 
#
# 1 117.5720 67.1995 43.4738 -1.6234 -13.9904 -22.8585
# 2 67.1995 114.6228 30.9284 14.7927 -6.3973 -26.6502
# 3 43.4738 30.9284 86.9657 -3.4444 -6.6509 -16.5966
# 4 -1.6234 14.7927 -3.4444 29.6501 -5.3016 -4.7227
# 5 -13.9904 -6.3973 -6.6509 -5.3016 40.9904 -0.8132
# 6 -22.8585 -26.6502 -16.5966 -4.7227 -0.8132 43.2209
#
#
#
# Elastic Compliance Matrix: (Units=1/GPa)
#
#
# Indices 1 2 3 4 5 6 
#
# 1 0.015575 -0.007967 -0.003937 0.005518 0.004197 0.002495
# 2 -0.007967 0.015616 -0.001225 -0.007981 -0.001433 0.004046
# 3 -0.003937 -0.001225 0.014713 0.002835 0.001281 0.003146
# 4 0.005518 -0.007981 0.002835 0.040045 0.006348 0.003581
# 5 0.004197 -0.001433 0.001281 0.006348 0.026694 0.003024
# 6 0.002495 0.004046 0.003146 0.003581 0.003024 0.028608
#
#
# Mechanical properties :
#
#
# Convention : Reuss Voigt Hill
#
# Bulk Modulus (GPa) = 50.89625 66.92932 58.91279
# Shear Modulus (GPa) = 28.72603 34.60954 31.66778
#
# Velocity S-wave (km/s) = 3.63169 3.98629 3.81311
# Velocity P-wave (km/s) = 6.39952 7.20534 6.81435
#
# Compressibility (1/GPa) = 0.01964781
#
# Stress axis : x y z
#
# Youngs Moduli (GPa) = 64.20364 64.03619 67.96622
#
# Poissons Ratio (x) = 0.51016 0.26759
# Poissons Ratio (y) = 0.51149 0.08323
# Poissons Ratio (z) = 0.25278 0.07842
#
# Static dielectric constant tensor:
#      x y z
#    x 1.889920 -0.040720 0.016290 
#    y -0.040720 1.840170 0.042270 
#    z 0.016290 0.042270 1.895300 
# 
# From -- ./inp_files/77260.got.cif
#   From: 2010.05.17/outbox.cif.g08.bks.cpg/sg2_39_cif.got.tgz:77260.got - 2010.06.03 11:33:40.
