data_PCOD9022847
_publ_section_title
;
Structure prediction by ZEFSAII (Michael W. Deem and Ramdas Pophale) SiO2 
 PCOD9022847
Probable space group: P -1
;
_chemical_formula_sum "Si O2"
_cell_formula_units_Z 16
_cell_length_a 10.728775
_cell_length_b 8.967196
_cell_length_c 13.947680
_cell_angle_alpha 52.161309
_cell_angle_beta 56.838090
_cell_angle_gamma 44.564432
_cell_volume 728.836880
_symmetry_space_group_name_H-M "P -1"
_symmetry_group_IT_number 2
_symmetry_cell_setting 'triclinic'
loop_
_space_group_symop_operation_xyz
x,y,z
-x,-y,-z
loop_
_atom_site_type_symbol
_atom_site_label
_atom_site_fract_x
_atom_site_fract_y
_atom_site_fract_z
Si Si1 0.594605 0.383340 0.755845
Si Si2 0.159880 0.841857 0.626088
Si Si3 0.324028 0.261790 0.954101
Si Si4 0.981236 0.370879 0.930235
Si Si5 0.891785 0.724300 0.299175
Si Si6 0.052282 0.992942 0.173286
Si Si7 0.569157 0.129602 0.362154
Si Si8 0.841925 0.334111 0.499642
O O1 0.412846 0.392073 0.826500
O O2 0.733495 0.164988 0.848665
O O3 0.567278 0.613036 0.718291
O O4 0.694992 0.344538 0.627377
O O5 0.031084 0.847068 0.760580
O O6 0.033991 0.093741 0.531251
O O7 0.318442 0.831239 0.621056
O O8 0.212126 0.663925 0.589000
O O9 0.200795 0.396634 0.046590
O O10 0.166764 0.303828 0.931537
O O11 0.500000 0.000000 0.000000
O O12 0.970440 0.159220 0.051873
O O13 0.014568 0.367381 0.805864
O O14 0.867020 0.537174 0.429408
O O15 0.000614 0.809537 0.274682
O O16 0.692986 0.962515 0.290342
O O17 0.500000 0.000000 0.500000
#
# Coordination Sequence:
#
# PCOD9022847 Si02
#       8
#     2   2   2   2   2   2   2   2
#     4  11  23  41  66  96 133 171 225 273 336 394
#     4   9  22  38  62  89 129 165 219 264 341 388
#     4  11  24  44  70 100 131 177 223 276 331 391
#     4  11  25  44  70  95 135 176 226 272 331 392
#     4  11  24  41  66  95 131 173 226 265 335 399
#     4  10  22  43  67  91 134 182 213 275 335 391
#     4  11  23  40  62  93 136 175 210 271 339 396
#     4  10  22  39  64  96 124 167 219 281 324 402
#
# _framework density 21.952788000000002
#
# number of rings (size 3 to 8) (size 9 to 14) (size 15 to 20)
#    0.000    1.500    2.500    1.875    7.000    4.000 
#    2.250    1.250    0.000    0.000    0.000    0.000 
#    0.000    0.000    0.000    0.000    0.000    0.000 
#
# Total GULP energy -89280.478213 kJ/mol
# GULP energy per Si atom -5580.029888 kJ/mol
# Density = 2.190282 g / cm^3
# Si number density = 21.952788 Si / 1000 Ang^3
#
#
#
# Elastic Constant Matrix: (Units=GPa)
#
#
# Indices 1 2 3 4 5 6 
#
# 1 42.4955 27.6358 17.4167 1.3250 -17.1669 0.6331
# 2 27.6358 129.7564 34.3928 4.1081 -8.4232 -11.4612
# 3 17.4167 34.3928 88.5409 0.0598 -19.1053 5.4385
# 4 1.3250 4.1081 0.0598 38.5764 8.5603 1.8718
# 5 -17.1669 -8.4232 -19.1053 8.5603 36.7175 -1.9822
# 6 0.6331 -11.4612 5.4385 1.8718 -1.9822 31.4007
#
#
#
# Elastic Compliance Matrix: (Units=1/GPa)
#
#
# Indices 1 2 3 4 5 6 
#
# 1 0.033971 -0.006014 -0.001071 -0.003718 0.014730 -0.001543
# 2 -0.006014 0.010185 -0.003445 -0.000668 -0.001877 0.004357
# 3 -0.001071 -0.003445 0.014386 -0.000838 0.006212 -0.003286
# 4 -0.003718 -0.000668 -0.000838 0.028238 -0.009034 -0.002277
# 5 0.014730 -0.001877 0.006212 -0.009034 0.039081 0.000947
# 6 -0.001543 0.004357 -0.003286 -0.002277 0.000947 0.034232
#
#
# Mechanical properties :
#
#
# Convention : Reuss Voigt Hill
#
# Bulk Modulus (GPa) = 26.67944 46.63147 36.65546
# Shear Modulus (GPa) = 25.82016 33.42874 29.62445
#
# Velocity S-wave (km/s) = 3.43325 3.90648 3.67749
# Velocity P-wave (km/s) = 5.28164 6.45254 5.89623
#
# Compressibility (1/GPa) = 0.03748204
#
# Stress axis : x y z
#
# Youngs Moduli (GPa) = 29.43690 98.18420 69.51158
#
# Poissons Ratio (x) = 0.59046 0.07443
# Poissons Ratio (y) = 0.17703 0.23950
# Poissons Ratio (z) = 0.03152 0.33829
#
# Static dielectric constant tensor:
#      x y z
#    x 1.832340 -0.030290 -0.016460 
#    y -0.030290 1.861710 -0.029260 
#    z -0.016460 -0.029260 1.840120 
# 
# From -- ./inp_files/401842.got.cif
#   From: 2010.05.17/outbox.cif.g08.bks.cpg/sg2_201_cif.got.tgz:401842.got - 2010.06.03 11:33:40.
