data_PCOD9022427
_publ_section_title
;
Structure prediction by ZEFSAII (Michael W. Deem and Ramdas Pophale) SiO2 
 PCOD9022427
Probable space group: P -1
;
_chemical_formula_sum "Si O2"
_cell_formula_units_Z 16
_cell_length_a 9.265400
_cell_length_b 24.357270
_cell_length_c 20.965404
_cell_angle_alpha 160.394784
_cell_angle_beta 30.057539
_cell_angle_gamma 154.590938
_cell_volume 677.675973
_symmetry_space_group_name_H-M "P -1"
_symmetry_group_IT_number 2
_symmetry_cell_setting 'triclinic'
loop_
_space_group_symop_operation_xyz
x,y,z
-x,-y,-z
loop_
_atom_site_type_symbol
_atom_site_label
_atom_site_fract_x
_atom_site_fract_y
_atom_site_fract_z
Si Si1 0.625564 0.770936 0.939980
Si Si2 0.845970 0.147101 0.334609
Si Si3 0.570250 0.417167 0.533942
Si Si4 0.568578 0.383758 0.023546
Si Si5 0.407948 0.944421 0.400457
Si Si6 0.596368 0.375556 0.260302
Si Si7 0.699023 0.778566 0.442075
Si Si8 0.207500 0.774806 0.863354
O O1 0.372656 0.657233 0.970597
O O2 0.449589 0.765637 0.935451
O O3 0.787713 0.643182 0.718713
O O4 0.852646 0.981059 0.109787
O O5 0.562381 0.176166 0.441810
O O6 0.233801 0.317964 0.367585
O O7 0.713583 0.071952 0.374062
O O8 0.297185 0.432023 0.609960
O O9 0.439528 0.305525 0.526829
O O10 0.729966 0.327334 0.331245
O O11 0.688638 0.605967 0.216654
O O12 0.162840 0.262721 0.041422
O O13 0.685408 0.275773 0.813886
O O14 0.084729 0.942626 0.490761
O O15 0.500000 0.000000 0.500000
O O16 0.795167 0.340623 0.199653
O O17 0.500000 0.000000 0.000000
#
# Coordination Sequence:
#
# PCOD9022427 Si02
#       8
#     2   2   2   2   2   2   2   2
#     4   8  20  38  60  92 133 170 206 258 326 403
#     4  11  22  40  70  98 130 174 224 269 328 388
#     4   9  23  37  62  95 135 173 208 255 348 383
#     4  10  23  45  65  97 131 179 218 269 334 391
#     4  11  26  47  68  93 132 177 230 278 331 375
#     4  10  22  39  61  97 142 167 205 267 337 401
#     4  11  24  43  73  94 133 174 234 269 317 403
#     4  12  24  36  63  99 142 172 216 270 332 403
#
# _framework density 23.610105000000001
#
# number of rings (size 3 to 8) (size 9 to 14) (size 15 to 20)
#    0.750    1.000    0.000    3.750    7.000    1.500 
#    0.000    0.625    0.000    0.000    0.000    0.000 
#    0.000    0.000    0.000    0.000    0.000    0.000 
#
# Total GULP energy -89279.197855 kJ/mol
# GULP energy per Si atom -5579.949866 kJ/mol
# Density = 2.355637 g / cm^3
# Si number density = 23.610105 Si / 1000 Ang^3
#
#
#
# Elastic Constant Matrix: (Units=GPa)
#
#
# Indices 1 2 3 4 5 6 
#
# 1 150.1698 43.8335 58.8185 -9.6536 11.1359 -14.8459
# 2 43.8335 69.0540 28.5266 -0.6055 0.1545 12.5253
# 3 58.8185 28.5266 113.4680 -0.4241 13.7047 7.0222
# 4 -9.6536 -0.6055 -0.4241 28.1926 -1.7824 1.3148
# 5 11.1359 0.1545 13.7047 -1.7824 37.4624 -2.3073
# 6 -14.8459 12.5253 7.0222 1.3148 -2.3073 42.8039
#
#
#
# Elastic Compliance Matrix: (Units=1/GPa)
#
#
# Indices 1 2 3 4 5 6 
#
# 1 0.011171 -0.006374 -0.004430 0.003256 -0.001131 0.006305
# 2 -0.006374 0.020602 -0.001620 -0.001282 0.001859 -0.007834
# 3 -0.004430 -0.001620 0.012116 -0.001434 -0.003373 -0.003188
# 4 0.003256 -0.001282 -0.001434 0.036589 0.001345 0.000688
# 5 -0.001131 0.001859 -0.003373 0.001345 0.028388 0.001106
# 6 0.006305 -0.007834 -0.003188 0.000688 0.001106 0.028403
#
#
# Mechanical properties :
#
#
# Convention : Reuss Voigt Hill
#
# Bulk Modulus (GPa) = 52.51566 66.11655 59.31611
# Shear Modulus (GPa) = 29.67985 35.12600 32.40292
#
# Velocity S-wave (km/s) = 3.54938 3.86132 3.70863
# Velocity P-wave (km/s) = 6.25209 6.92416 6.59669
#
# Compressibility (1/GPa) = 0.01904194
#
# Stress axis : x y z
#
# Youngs Moduli (GPa) = 89.51569 48.53875 82.53509
#
# Poissons Ratio (x) = 0.30938 0.36562
# Poissons Ratio (y) = 0.57055 0.13371
# Poissons Ratio (z) = 0.39655 0.07863
#
# Static dielectric constant tensor:
#      x y z
#    x 1.935190 0.037780 0.010970 
#    y 0.037780 1.976440 0.031890 
#    z 0.010970 0.031890 1.908330 
# 
# From -- ./inp_files/591978.got.cif
#   From: 2010.05.17/outbox.cif.g08.bks.cpg/sg2_296_cif.got.tgz:591978.got - 2010.06.03 11:33:40.
