data_PCOD9022320
_publ_section_title
;
Structure prediction by ZEFSAII (Michael W. Deem and Ramdas Pophale) SiO2 
 PCOD9022320
Probable space group: P -1
;
_chemical_formula_sum "Si O2"
_cell_formula_units_Z 16
_cell_length_a 11.353025
_cell_length_b 22.589762
_cell_length_c 5.598368
_cell_angle_alpha 66.386557
_cell_angle_beta 118.609790
_cell_angle_gamma 151.982401
_cell_volume 591.238248
_symmetry_space_group_name_H-M "P -1"
_symmetry_group_IT_number 2
_symmetry_cell_setting 'triclinic'
loop_
_space_group_symop_operation_xyz
x,y,z
-x,-y,-z
loop_
_atom_site_type_symbol
_atom_site_label
_atom_site_fract_x
_atom_site_fract_y
_atom_site_fract_z
Si Si1 0.571813 0.386784 0.817555
Si Si2 0.120616 0.244796 0.899916
Si Si3 0.992038 0.425468 0.719392
Si Si4 0.681495 0.195131 0.062649
Si Si5 0.185821 0.039025 0.430456
Si Si6 0.654234 0.831982 0.031762
Si Si7 0.803512 0.583166 0.451226
Si Si8 0.192467 0.897411 0.678471
O O1 0.369134 0.304658 0.973178
O O2 0.559749 0.451561 0.574326
O O3 0.863823 0.505177 0.001811
O O4 0.511776 0.292440 0.798201
O O5 0.221028 0.359737 0.798838
O O6 0.929954 0.157743 0.621350
O O7 0.001555 0.184099 0.145532
O O8 0.165097 0.458592 0.645547
O O9 0.000000 0.500000 0.500000
O O10 0.777877 0.281390 0.802506
O O11 0.431253 0.132962 0.009226
O O12 0.647026 0.103651 0.143389
O O13 0.927497 0.299448 0.321084
O O14 0.303136 0.016347 0.615642
O O15 0.381128 0.169529 0.281787
O O16 0.000000 0.000000 0.500000
O O17 0.948771 0.928649 0.191499
#
# Coordination Sequence:
#
# PCOD9022320 Si02
#       8
#     2   2   2   2   2   2   2   2
#     4  11  23  38  65  99 134 187 227 282 338 407
#     4  11  23  42  70 100 142 183 229 280 347 409
#     4  11  22  37  61  96 140 180 229 274 333 414
#     4  10  23  43  65  98 137 182 221 279 345 417
#     4  11  26  46  72  99 129 174 235 299 347 414
#     4  11  24  45  68  98 133 175 236 282 355 408
#     4  10  22  39  60  99 140 178 225 275 333 412
#     4  11  24  46  73 100 141 182 230 290 349 407
#
# _framework density 27.061845000000002
#
# number of rings (size 3 to 8) (size 9 to 14) (size 15 to 20)
#    0.000    1.250    2.500    2.625    3.500    7.000 
#    0.000    0.625    0.000    0.000    0.000    0.000 
#    0.000    0.000    0.000    0.000    0.000    0.000 
#
# Total GULP energy -89210.150545 kJ/mol
# GULP energy per Si atom -5575.634409 kJ/mol
# Density = 2.700025 g / cm^3
# Si number density = 27.061845 Si / 1000 Ang^3
#
#
#
# Elastic Constant Matrix: (Units=GPa)
#
#
# Indices 1 2 3 4 5 6 
#
# 1 123.2283 25.1881 3.0777 -22.1691 30.8967 -34.5082
# 2 25.1881 88.7345 40.7309 -26.4541 23.0421 -29.1761
# 3 3.0777 40.7309 83.7073 -19.1465 22.2140 -19.5558
# 4 -22.1691 -26.4541 -19.1465 55.3229 -5.2975 13.6006
# 5 30.8967 23.0421 22.2140 -5.2975 60.3339 -17.9848
# 6 -34.5082 -29.1761 -19.5558 13.6006 -17.9848 53.2083
#
#
#
# Elastic Compliance Matrix: (Units=1/GPa)
#
#
# Indices 1 2 3 4 5 6 
#
# 1 0.011696 -0.000545 0.003366 0.003663 -0.004934 0.005919
# 2 -0.000545 0.017837 -0.005674 0.004813 -0.002446 0.005284
# 3 0.003366 -0.005674 0.017323 0.003450 -0.004752 0.002950
# 4 0.003663 0.004813 0.003450 0.022893 -0.003165 -0.000638
# 5 -0.004934 -0.002446 -0.004752 -0.003165 0.022101 0.001991
# 6 0.005919 0.005284 0.002950 -0.000638 0.001991 0.027451
#
#
# Mechanical properties :
#
#
# Convention : Reuss Voigt Hill
#
# Bulk Modulus (GPa) = 24.30262 48.18483 36.24373
# Shear Modulus (GPa) = 36.04244 48.88458 42.46351
#
# Velocity S-wave (km/s) = 3.65342 4.25479 3.96552
# Velocity P-wave (km/s) = 5.17653 6.47933 5.86422
#
# Compressibility (1/GPa) = 0.04114783
#
# Stress axis : x y z
#
# Youngs Moduli (GPa) = 85.49755 56.06449 57.72587
#
# Poissons Ratio (x) = 0.03056 -0.19428
# Poissons Ratio (y) = 0.04661 0.32756
# Poissons Ratio (z) = -0.28774 0.31814
#
# Static dielectric constant tensor:
#      x y z
#    x 2.111270 -0.035990 -0.104380 
#    y -0.035990 2.228210 -0.017010 
#    z -0.104380 -0.017010 2.398220 
# 
# From -- ./inp_files/69270.got.cif
#   From: 2010.05.17/outbox.cif.g08.bks.cpg/sg2_35_cif.got.tgz:69270.got - 2010.06.03 11:33:40.
