data_PCOD9022422
_publ_section_title
;
Structure prediction by ZEFSAII (Michael W. Deem and Ramdas Pophale) SiO2 
 PCOD9022422
Probable space group: P -1
;
_chemical_formula_sum "Si O2"
_cell_formula_units_Z 16
_cell_length_a 12.186585
_cell_length_b 13.442751
_cell_length_c 16.315339
_cell_angle_alpha 154.700925
_cell_angle_beta 51.046132
_cell_angle_gamma 141.938718
_cell_volume 668.188788
_symmetry_space_group_name_H-M "P -1"
_symmetry_group_IT_number 2
_symmetry_cell_setting 'triclinic'
loop_
_space_group_symop_operation_xyz
x,y,z
-x,-y,-z
loop_
_atom_site_type_symbol
_atom_site_label
_atom_site_fract_x
_atom_site_fract_y
_atom_site_fract_z
Si Si1 0.973044 0.932565 0.674730
Si Si2 0.385200 0.185909 0.268533
Si Si3 0.666104 0.091811 0.077560
Si Si4 0.014243 0.770042 0.365120
Si Si5 0.896065 0.363247 0.337706
Si Si6 0.396667 0.266899 0.952111
Si Si7 0.249122 0.601648 0.114438
Si Si8 0.304128 0.655275 0.322631
O O1 0.826300 0.957962 0.725703
O O2 0.065234 0.891802 0.525819
O O3 0.875784 0.620469 0.539926
O O4 0.116670 0.242286 0.887579
O O5 0.500000 0.500000 0.500000
O O6 0.481384 0.047365 0.145794
O O7 0.389236 0.172838 0.156672
O O8 0.814239 0.420059 0.203133
O O9 0.790643 0.173065 0.159915
O O10 0.160136 0.749848 0.241156
O O11 0.000000 0.000000 0.500000
O O12 0.114197 0.536128 0.365007
O O13 0.217698 0.916701 0.753142
O O14 0.549071 0.252880 0.904839
O O15 0.500000 0.500000 0.000000
O O16 0.339037 0.421069 0.149781
O O17 0.260735 0.629415 0.227377
O O18 0.500000 0.000000 0.500000
#
# Coordination Sequence:
#
# PCOD9022422 Si02
#       8
#     2   2   2   2   2   2   2   2
#     4  11  22  41  70  96 135 191 230 288 348 418
#     4  11  19  37  64  94 136 170 233 288 328 406
#     4  10  22  39  61  96 134 179 230 285 334 416
#     4  11  23  40  65  97 136 186 228 280 354 410
#     4  11  21  44  72 100 136 186 232 289 363 414
#     4  10  25  43  68 103 137 179 233 294 353 420
#     4  11  23  47  66  99 147 175 239 290 344 424
#     4  11  22  45  75 100 139 179 233 299 352 422
#
# _framework density 23.945329000000001
#
# number of rings (size 3 to 8) (size 9 to 14) (size 15 to 20)
#    0.000    1.250    6.250    1.125    0.000    2.500 
#    4.500   15.000    0.000    0.000    0.000    0.000 
#    0.000    0.000    0.000    0.000    0.000    0.000 
#
# Total GULP energy -89348.358795 kJ/mol
# GULP energy per Si atom -5584.272425 kJ/mol
# Density = 2.389083 g / cm^3
# Si number density = 23.945329 Si / 1000 Ang^3
#
#
#
# Elastic Constant Matrix: (Units=GPa)
#
#
# Indices 1 2 3 4 5 6 
#
# 1 83.8149 66.7207 56.3341 -1.8567 -17.5341 20.4653
# 2 66.7207 106.9144 53.0802 20.1840 -17.5754 34.8188
# 3 56.3341 53.0802 181.0262 0.1765 10.5701 12.6488
# 4 -1.8567 20.1840 0.1765 39.1907 9.6842 -9.1580
# 5 -17.5341 -17.5754 10.5701 9.6842 62.0146 -4.2689
# 6 20.4653 34.8188 12.6488 -9.1580 -4.2689 43.0805
#
#
#
# Elastic Compliance Matrix: (Units=1/GPa)
#
#
# Indices 1 2 3 4 5 6 
#
# 1 0.031242 -0.022914 -0.003649 0.014880 0.001190 0.008031
# 2 -0.022914 0.041914 -0.003722 -0.031351 0.009026 -0.027668
# 3 -0.003649 -0.003722 0.007771 0.003283 -0.003732 0.002788
# 4 0.014880 -0.031351 0.003283 0.051512 -0.011414 0.027125
# 5 0.001190 0.009026 -0.003732 -0.011414 0.020948 -0.007115
# 6 0.008031 -0.027668 0.002788 0.027125 -0.007115 0.046002
#
#
# Mechanical properties :
#
#
# Convention : Reuss Voigt Hill
#
# Bulk Modulus (GPa) = 49.12461 80.44726 64.78593
# Shear Modulus (GPa) = 18.74444 41.89854 30.32149
#
# Velocity S-wave (km/s) = 2.80089 4.18755 3.56234
# Velocity P-wave (km/s) = 5.56955 7.55314 6.63588
#
# Compressibility (1/GPa) = 0.02035640
#
# Stress axis : x y z
#
# Youngs Moduli (GPa) = 32.00823 23.85817 128.68662
#
# Poissons Ratio (x) = 0.54670 0.46952
# Poissons Ratio (y) = 0.73345 0.47903
# Poissons Ratio (z) = 0.11678 0.08881
#
# Static dielectric constant tensor:
#      x y z
#    x 2.004390 -0.046650 -0.006540 
#    y -0.046650 1.995330 -0.023210 
#    z -0.006540 -0.023210 1.831460 
# 
# From -- ./inp_files/595865.got.cif
#   From: 2010.05.17/outbox.cif.g08.bks.cpg/sg2_298_cif.got.tgz:595865.got - 2010.06.03 11:33:40.
