data_PCOD9022939
_publ_section_title
;
Structure prediction by ZEFSAII (Michael W. Deem and Ramdas Pophale) SiO2 
 PCOD9022939
Probable space group: P -1
;
_chemical_formula_sum "Si O2"
_cell_formula_units_Z 16
_cell_length_a 14.139604
_cell_length_b 14.815623
_cell_length_c 7.874598
_cell_angle_alpha 134.374505
_cell_angle_beta 103.361565
_cell_angle_gamma 46.630980
_cell_volume 752.205143
_symmetry_space_group_name_H-M "P -1"
_symmetry_group_IT_number 2
_symmetry_cell_setting 'triclinic'
loop_
_space_group_symop_operation_xyz
x,y,z
-x,-y,-z
loop_
_atom_site_type_symbol
_atom_site_label
_atom_site_fract_x
_atom_site_fract_y
_atom_site_fract_z
Si Si1 0.610385 0.010081 0.031432
Si Si2 0.684781 0.969800 0.647071
Si Si3 0.340380 0.352296 0.997568
Si Si4 0.580746 0.552411 0.568345
Si Si5 0.105774 0.757004 0.874972
Si Si6 0.807450 0.733244 0.047028
Si Si7 0.078730 0.621022 0.015180
Si Si8 0.062997 0.089921 0.342764
O O1 0.524596 0.227465 0.248293
O O2 0.720611 0.901132 0.093071
O O3 0.699555 0.899183 0.748204
O O4 0.500000 0.000000 0.000000
O O5 0.243498 0.175401 0.667331
O O6 0.769406 0.021070 0.749324
O O7 0.509096 0.144934 0.770688
O O8 0.353084 0.473063 0.254291
O O9 0.247792 0.440031 0.903591
O O10 0.251990 0.350584 0.093136
O O11 0.500000 0.500000 0.500000
O O12 0.719567 0.407280 0.309577
O O13 0.020916 0.799819 0.724098
O O14 0.070603 0.698533 0.936122
O O15 0.057783 0.944262 0.159065
O O16 0.981079 0.590029 0.919847
O O17 0.008407 0.771816 0.340732
#
# Coordination Sequence:
#
# PCOD9022939 Si02
#       8
#     2   2   2   2   2   2   2   2
#     4  11  22  40  67  95 128 169 222 264 312 388
#     4  10  22  39  65  92 127 168 214 266 325 373
#     4  11  22  43  62  95 138 162 213 275 320 382
#     4  11  24  43  67  98 134 171 213 272 328 378
#     4  11  22  41  68  87 131 176 212 266 327 379
#     4  11  23  42  66  94 128 174 215 266 324 386
#     4  11  24  40  64  97 126 167 219 266 325 389
#     4  10  22  43  64  91 128 173 219 264 319 393
#
# _framework density 21.270793999999999
#
# number of rings (size 3 to 8) (size 9 to 14) (size 15 to 20)
#    0.000    1.250    3.750    3.375    1.750    1.000 
#    4.500    1.875    0.000    0.000    0.000    0.000 
#    0.000    0.000    0.000    0.000    0.000    0.000 
#
# Total GULP energy -89386.830674 kJ/mol
# GULP energy per Si atom -5586.676917 kJ/mol
# Density = 2.122238 g / cm^3
# Si number density = 21.270794 Si / 1000 Ang^3
#
#
#
# Elastic Constant Matrix: (Units=GPa)
#
#
# Indices 1 2 3 4 5 6 
#
# 1 156.8139 51.0100 29.0340 -1.2608 -3.0312 -13.6616
# 2 51.0100 118.9046 25.3414 0.5115 -5.8125 4.8106
# 3 29.0340 25.3414 49.4901 -7.7109 -5.6032 0.1207
# 4 -1.2608 0.5115 -7.7109 21.7203 5.3613 -5.8838
# 5 -3.0312 -5.8125 -5.6032 5.3613 29.8599 -7.1255
# 6 -13.6616 4.8106 0.1207 -5.8838 -7.1255 35.2340
#
#
#
# Elastic Compliance Matrix: (Units=1/GPa)
#
#
# Indices 1 2 3 4 5 6 
#
# 1 0.008294 -0.002999 -0.003235 0.000306 0.000500 0.003789
# 2 -0.002999 0.010739 -0.004086 -0.002877 0.000838 -0.002926
# 3 -0.003235 -0.004086 0.025839 0.008801 0.002425 0.001175
# 4 0.000306 -0.002877 0.008801 0.053024 -0.006483 0.008025
# 5 0.000500 0.000838 0.002425 -0.006483 0.036860 0.006443
# 6 0.003789 -0.002926 0.001175 0.008025 0.006443 0.032889
#
#
# Mechanical properties :
#
#
# Convention : Reuss Voigt Hill
#
# Bulk Modulus (GPa) = 41.26679 59.55327 50.41003
# Shear Modulus (GPa) = 25.46321 32.01772 28.74046
#
# Velocity S-wave (km/s) = 3.46366 3.88396 3.67981
# Velocity P-wave (km/s) = 5.95305 6.94060 6.46570
#
# Compressibility (1/GPa) = 0.02423256
#
# Stress axis : x y z
#
# Youngs Moduli (GPa) = 120.57565 93.11823 38.70104
#
# Poissons Ratio (x) = 0.27923 0.12520
# Poissons Ratio (y) = 0.36156 0.15813
# Poissons Ratio (z) = 0.39005 0.38048
#
# Static dielectric constant tensor:
#      x y z
#    x 1.775620 -0.020000 0.017990 
#    y -0.020000 1.773290 0.027260 
#    z 0.017990 0.027260 1.794070 
# 
# From -- ./inp_files/274393.got.cif
#   From: 2010.05.17/outbox.cif.g08.bks.cpg/sg2_138_cif.got.tgz:274393.got - 2010.06.03 11:33:40.
