data_PCOD9022920
_publ_section_title
;
Structure prediction by ZEFSAII (Michael W. Deem and Ramdas Pophale) SiO2 
 PCOD9022920
Probable space group: P -1
;
_chemical_formula_sum "Si O2"
_cell_formula_units_Z 16
_cell_length_a 9.661118
_cell_length_b 19.784266
_cell_length_c 8.245917
_cell_angle_alpha 66.252007
_cell_angle_beta 83.506316
_cell_angle_gamma 35.371442
_cell_volume 763.074891
_symmetry_space_group_name_H-M "P -1"
_symmetry_group_IT_number 2
_symmetry_cell_setting 'triclinic'
loop_
_space_group_symop_operation_xyz
x,y,z
-x,-y,-z
loop_
_atom_site_type_symbol
_atom_site_label
_atom_site_fract_x
_atom_site_fract_y
_atom_site_fract_z
Si Si1 0.397454 0.577562 0.611198
Si Si2 0.505092 0.884719 0.738319
Si Si3 0.242054 0.768202 0.248380
Si Si4 0.916433 0.823682 0.642459
Si Si5 0.668894 0.997573 0.009587
Si Si6 0.633313 0.346079 0.000585
Si Si7 0.838049 0.053071 0.720830
Si Si8 0.401102 0.781428 0.735627
O O1 0.500000 0.500000 0.500000
O O2 0.401007 0.661845 0.479729
O O3 0.100200 0.705729 0.593133
O O4 0.547554 0.466621 0.840259
O O5 0.712850 0.853678 0.695799
O O6 0.574489 0.772156 0.779399
O O7 0.236659 0.035949 0.542612
O O8 0.463392 0.902412 0.918342
O O9 0.175566 0.880961 0.196907
O O10 0.379865 0.691097 0.134252
O O11 0.966156 0.849672 0.173028
O O12 0.098588 0.763280 0.828788
O O13 0.705410 0.036945 0.816423
O O14 0.500000 0.000000 0.000000
O O15 0.489655 0.350346 0.130304
O O16 0.687457 0.157052 0.491015
O O17 0.133501 0.906904 0.759624
#
# Coordination Sequence:
#
# PCOD9022920 Si02
#       8
#     2   2   2   2   2   2   2   2
#     4  10  22  39  65  90 121 167 213 257 293 359
#     4  11  24  37  61  89 132 162 192 258 325 366
#     4  11  20  39  59  90 124 157 211 254 302 362
#     4  11  22  40  59  93 125 159 208 254 310 373
#     4  12  23  36  58  91 127 164 193 249 319 374
#     4  11  22  37  64  89 121 165 213 253 297 362
#     4  11  22  36  60  87 128 159 209 256 303 378
#     4  11  21  36  58  92 120 167 204 254 311 360
#
# _framework density 20.967798999999999
#
# number of rings (size 3 to 8) (size 9 to 14) (size 15 to 20)
#    0.000    1.000    3.750    4.500    3.500    0.000 
#    0.000    0.625    0.000    1.500    0.000   10.500 
#    0.000    0.000    0.000    0.000    0.000    0.000 
#
# Total GULP energy -89146.228800 kJ/mol
# GULP energy per Si atom -5571.639300 kJ/mol
# Density = 2.092008 g / cm^3
# Si number density = 20.967799 Si / 1000 Ang^3
#
#
#
# Elastic Constant Matrix: (Units=GPa)
#
#
# Indices 1 2 3 4 5 6 
#
# 1 110.2080 0.8407 41.8613 -6.0586 -19.9856 11.6667
# 2 0.8407 54.1478 14.9254 13.1067 -8.4714 4.6503
# 3 41.8613 14.9254 148.1400 4.2594 -36.4159 8.0603
# 4 -6.0586 13.1067 4.2594 28.6379 1.9258 -8.7754
# 5 -19.9856 -8.4714 -36.4159 1.9258 33.4558 3.3873
# 6 11.6667 4.6503 8.0603 -8.7754 3.3873 23.6612
#
#
#
# Elastic Compliance Matrix: (Units=1/GPa)
#
#
# Indices 1 2 3 4 5 6 
#
# 1 0.011465 0.002017 -0.001449 -0.000799 0.006515 -0.006785
# 2 0.002017 0.024924 0.000720 -0.015959 0.010593 -0.013574
# 3 -0.001449 0.000720 0.010440 -0.004958 0.011622 -0.006486
# 4 -0.000799 -0.015959 -0.004958 0.052040 -0.015620 0.026757
# 5 0.006515 0.010593 0.011622 -0.015620 0.052295 -0.022533
# 6 -0.006785 -0.013574 -0.006486 0.026757 -0.022533 0.063635
#
#
# Mechanical properties :
#
#
# Convention : Reuss Voigt Hill
#
# Bulk Modulus (GPa) = 20.24119 47.52785 33.88452
# Shear Modulus (GPa) = 21.86349 34.14219 28.00284
#
# Velocity S-wave (km/s) = 3.23262 4.03962 3.65844
# Velocity P-wave (km/s) = 4.85875 6.66890 5.83446
#
# Compressibility (1/GPa) = 0.04940422
#
# Stress axis : x y z
#
# Youngs Moduli (GPa) = 87.22529 40.12182 95.78747
#
# Poissons Ratio (x) = -0.08092 0.13882
# Poissons Ratio (y) = -0.17592 -0.06900
# Poissons Ratio (z) = 0.12641 -0.02890
#
# Static dielectric constant tensor:
#      x y z
#    x 1.768730 0.047520 -0.006720 
#    y 0.047520 1.825430 0.017060 
#    z -0.006720 0.017060 1.823380 
# 
# From -- ./inp_files/223398.got.cif
#   From: 2010.05.17/outbox.cif.g08.bks.cpg/sg2_112_cif.got.tgz:223398.got - 2010.06.03 11:33:40.
