data_PCOD9022499
_publ_section_title
;
Structure prediction by ZEFSAII (Michael W. Deem and Ramdas Pophale) SiO2 
 PCOD9022499
Probable space group: P -1
;
_chemical_formula_sum "Si O2"
_cell_formula_units_Z 14
_cell_length_a 8.839051
_cell_length_b 11.318032
_cell_length_c 8.437139
_cell_angle_alpha 125.168476
_cell_angle_beta 63.880702
_cell_angle_gamma 91.854107
_cell_volume 590.715021
_symmetry_space_group_name_H-M "P -1"
_symmetry_group_IT_number 2
_symmetry_cell_setting 'triclinic'
loop_
_space_group_symop_operation_xyz
x,y,z
-x,-y,-z
loop_
_atom_site_type_symbol
_atom_site_label
_atom_site_fract_x
_atom_site_fract_y
_atom_site_fract_z
Si Si1 0.827908 0.952324 0.584375
Si Si2 0.729697 0.621812 0.853882
Si Si3 0.619648 0.802005 0.348681
Si Si4 0.814013 0.477718 0.021902
Si Si5 0.058931 0.195377 0.256542
Si Si6 0.721764 0.121444 0.252418
Si Si7 0.620115 0.260857 0.071255
O O1 0.759231 0.877518 0.412374
O O2 0.879479 0.834758 0.614574
O O3 0.676220 0.099212 0.830456
O O4 0.000000 0.000000 0.500000
O O5 0.646753 0.761420 0.121699
O O6 0.789831 0.484044 0.845581
O O7 0.569342 0.631316 0.816492
O O8 0.888922 0.663510 0.728299
O O9 0.669109 0.631327 0.265279
O O10 0.425248 0.888028 0.562150
O O11 0.769775 0.337833 0.012780
O O12 0.000000 0.500000 0.000000
O O13 0.858158 0.198599 0.326803
O O14 0.169679 0.042893 0.992998
O O15 0.630131 0.219501 0.218779
#
# Coordination Sequence:
#
# PCOD9022499 Si02
#       7
#     2   2   2   2   2   2   2
#     4  11  24  38  64  96 122 162 205 263 304 366
#     4  10  23  39  65  90 120 170 202 253 305 372
#     4  10  24  39  63  95 123 158 211 253 306 359
#     4  10  22  41  64  89 125 168 204 254 309 367
#     4  10  22  39  62  91 132 161 203 250 320 363
#     4  10  22  39  62  94 125 167 200 258 307 366
#     4  11  22  40  65  87 130 163 209 246 315 370
#
# _framework density 23.700092000000001
#
# number of rings (size 3 to 8) (size 9 to 14) (size 15 to 20)
#    0.857    0.857    0.000    3.857    8.000    4.000 
#    0.000    0.000    0.000    4.286    0.000    0.000 
#    0.000    0.000    0.000    0.000    0.000    0.000 
#
# Total GULP energy -78326.362997 kJ/mol
# GULP energy per Si atom -5594.740214 kJ/mol
# Density = 2.364615 g / cm^3
# Si number density = 23.700092 Si / 1000 Ang^3
#
#
#
# Elastic Constant Matrix: (Units=GPa)
#
#
# Indices 1 2 3 4 5 6 
#
# 1 114.2126 4.5138 22.5886 -4.5619 6.1821 9.0860
# 2 4.5138 71.4158 23.4602 -12.0654 11.1312 5.9384
# 3 22.5886 23.4602 38.8548 -0.9716 -1.9264 -2.2738
# 4 -4.5619 -12.0654 -0.9716 33.4753 0.6924 -7.9986
# 5 6.1821 11.1312 -1.9264 0.6924 25.6832 -5.8802
# 6 9.0860 5.9384 -2.2738 -7.9986 -5.8802 38.8873
#
#
#
# Elastic Compliance Matrix: (Units=1/GPa)
#
#
# Indices 1 2 3 4 5 6 
#
# 1 0.011227 0.004042 -0.009486 0.001797 -0.006213 -0.004365
# 2 0.004042 0.023364 -0.017328 0.007291 -0.014002 -0.006143
# 3 -0.009486 -0.017328 0.042862 -0.004522 0.015128 0.008726
# 4 0.001797 0.007291 -0.004522 0.033787 -0.003794 0.004578
# 5 -0.006213 -0.014002 0.015128 -0.003794 0.050325 0.011304
# 6 -0.004365 -0.006143 0.008726 0.004578 0.011304 0.030834
#
#
# Mechanical properties :
#
#
# Convention : Reuss Voigt Hill
#
# Bulk Modulus (GPa) = 31.33972 36.17869 33.75921
# Shear Modulus (GPa) = 20.11419 31.20387 25.65903
#
# Velocity S-wave (km/s) = 2.91640 3.63245 3.29394
# Velocity P-wave (km/s) = 4.95910 5.73509 5.36116
#
# Compressibility (1/GPa) = 0.03190839
#
# Stress axis : x y z
#
# Youngs Moduli (GPa) = 89.06855 42.80029 23.33080
#
# Poissons Ratio (x) = -0.17298 0.22131
# Poissons Ratio (y) = -0.35997 0.40428
# Poissons Ratio (z) = 0.84490 0.74165
#
# Static dielectric constant tensor:
#      x y z
#    x 1.843740 -0.035610 -0.029460 
#    y -0.035610 1.877260 0.039730 
#    z -0.029460 0.039730 1.905350 
# 
# From -- ./inp_files/181857.got.cif
#   From: 2010.05.17/outbox.cif.g08.bks.cpg/sg2_91_cif.got.tgz:181857.got - 2010.06.03 11:33:40.
