data_PCOD9022235
_publ_section_title
;
Structure prediction by ZEFSAII (Michael W. Deem and Ramdas Pophale) SiO2 
 PCOD9022235
Probable space group: P -1
;
_chemical_formula_sum "Si O2"
_cell_formula_units_Z 16
_cell_length_a 5.126572
_cell_length_b 10.857946
_cell_length_c 15.182583
_cell_angle_alpha 69.347145
_cell_angle_beta 91.596847
_cell_angle_gamma 67.444195
_cell_volume 717.184340
_symmetry_space_group_name_H-M "P -1"
_symmetry_group_IT_number 2
_symmetry_cell_setting 'triclinic'
loop_
_space_group_symop_operation_xyz
x,y,z
-x,-y,-z
loop_
_atom_site_type_symbol
_atom_site_label
_atom_site_fract_x
_atom_site_fract_y
_atom_site_fract_z
Si Si1 0.929889 0.319087 0.254012
Si Si2 0.275997 0.877585 0.290724
Si Si3 0.691551 0.638669 0.219851
Si Si4 0.618378 0.636868 0.875062
Si Si5 0.704084 0.314376 0.968795
Si Si6 0.902592 0.868702 0.155371
Si Si7 0.231057 0.017116 0.434494
Si Si8 0.744745 0.956251 0.907064
O O1 0.125699 0.335827 0.172554
O O2 0.093999 0.174810 0.347551
O O3 0.841797 0.466107 0.274300
O O4 0.640683 0.320473 0.208391
O O5 0.507162 0.735851 0.276482
O O6 0.969697 0.880416 0.256796
O O7 0.312151 0.897407 0.387561
O O8 0.267548 0.021828 0.204894
O O9 0.488375 0.664317 0.125756
O O10 0.916090 0.709186 0.184305
O O11 0.724064 0.467260 0.940930
O O12 0.473478 0.714277 0.945053
O O13 0.879163 0.072305 0.898788
O O14 0.028167 0.192235 0.014959
O O15 0.590228 0.977266 0.092257
O O16 0.500000 0.000000 0.500000
O O17 0.000000 0.000000 0.500000
#
# Coordination Sequence:
#
# PCOD9022235 Si02
#       8
#     2   2   2   2   2   2   2   2
#     4  11  25  48  71  99 136 186 224 278 364 402
#     4   9  23  45  67  99 139 180 219 283 355 393
#     4  10  23  41  70  97 142 185 229 281 327 413
#     4  10  24  41  64  95 146 191 229 282 324 406
#     4  10  22  39  60 104 139 192 247 277 316 380
#     4   9  21  38  59  93 127 188 211 273 336 393
#     4  12  28  49  79 105 130 166 228 290 353 439
#     4   9  20  36  61  90 136 181 224 273 320 384
#
# _framework density 22.309466
#
# number of rings (size 3 to 8) (size 9 to 14) (size 15 to 20)
#    0.750    1.250    0.000    1.500    7.000   12.000 
#    0.000    1.250    0.000    0.000    0.000    0.000 
#    0.000    0.000    0.000    0.000    0.000    0.000 
#
# Total GULP energy -89343.185194 kJ/mol
# GULP energy per Si atom -5583.949075 kJ/mol
# Density = 2.225869 g / cm^3
# Si number density = 22.309466 Si / 1000 Ang^3
#
#
#
# Elastic Constant Matrix: (Units=GPa)
#
#
# Indices 1 2 3 4 5 6 
#
# 1 113.0159 36.0838 15.8827 3.5502 9.6733 -5.7751
# 2 36.0838 140.6323 53.6482 3.3154 6.0336 0.3258
# 3 15.8827 53.6482 93.6204 9.9664 3.6667 -5.0776
# 4 3.5502 3.3154 9.9664 49.5055 0.3729 2.8746
# 5 9.6733 6.0336 3.6667 0.3729 34.1796 1.3849
# 6 -5.7751 0.3258 -5.0776 2.8746 1.3849 31.3440
#
#
#
# Elastic Compliance Matrix: (Units=1/GPa)
#
#
# Indices 1 2 3 4 5 6 
#
# 1 0.009962 -0.002432 -0.000022 -0.000646 -0.002463 0.002025
# 2 -0.002432 0.009770 -0.005321 0.000679 -0.000414 -0.001456
# 3 -0.000022 -0.005321 0.014183 -0.002645 -0.000654 0.002620
# 4 -0.000646 0.000679 -0.002645 0.020875 0.000219 -0.002479
# 5 -0.002463 -0.000414 -0.000654 0.000219 0.030172 -0.001909
# 6 0.002025 -0.001456 0.002620 -0.002479 -0.001909 0.033029
#
#
# Mechanical properties :
#
#
# Convention : Reuss Voigt Hill
#
# Bulk Modulus (GPa) = 54.44497 62.05536 58.25016
# Shear Modulus (GPa) = 35.80067 39.11607 37.45837
#
# Velocity S-wave (km/s) = 4.01025 4.19183 4.10205
# Velocity P-wave (km/s) = 6.77497 7.16273 6.97155
#
# Compressibility (1/GPa) = 0.01836717
#
# Stress axis : x y z
#
# Youngs Moduli (GPa) = 100.37783 102.35833 70.50503
#
# Poissons Ratio (x) = 0.24891 0.00152
# Poissons Ratio (y) = 0.24409 0.37514
# Poissons Ratio (z) = 0.00216 0.54463
#
# Static dielectric constant tensor:
#      x y z
#    x 1.877960 -0.046880 -0.031130 
#    y -0.046880 1.968970 0.080580 
#    z -0.031130 0.080580 1.825790 
# 
# From -- ./inp_files/482730.got.cif
#   From: 2010.05.17/outbox.cif.g08.bks.cpg/sg2_242_cif.got.tgz:482730.got - 2010.06.03 11:33:40.
