data_PCOD9022232
_publ_section_title
;
Structure prediction by ZEFSAII (Michael W. Deem and Ramdas Pophale) SiO2 
 PCOD9022232
Probable space group: P -1
;
_chemical_formula_sum "Si O2"
_cell_formula_units_Z 16
_cell_length_a 17.881952
_cell_length_b 7.060013
_cell_length_c 16.131915
_cell_angle_alpha 35.733143
_cell_angle_beta 147.140758
_cell_angle_gamma 131.964785
_cell_volume 644.780170
_symmetry_space_group_name_H-M "P -1"
_symmetry_group_IT_number 2
_symmetry_cell_setting 'triclinic'
loop_
_space_group_symop_operation_xyz
x,y,z
-x,-y,-z
loop_
_atom_site_type_symbol
_atom_site_label
_atom_site_fract_x
_atom_site_fract_y
_atom_site_fract_z
Si Si1 0.800710 0.821606 0.871507
Si Si2 0.192862 0.734030 0.122803
Si Si3 0.349847 0.106430 0.021618
Si Si4 0.847089 0.424872 0.414165
Si Si5 0.357749 0.570621 0.018028
Si Si6 0.106859 0.058595 0.236659
Si Si7 0.598770 0.255680 0.455441
Si Si8 0.657377 0.962406 0.298611
O O1 0.741445 0.504805 0.969952
O O2 0.935315 0.794978 0.951076
O O3 0.774445 0.080592 0.827532
O O4 0.729844 0.002226 0.658464
O O5 0.170107 0.356004 0.240897
O O6 0.310743 0.775342 0.147706
O O7 0.057103 0.919954 0.894180
O O8 0.321375 0.354693 0.982362
O O9 0.508523 0.091511 0.148899
O O10 0.253531 0.258129 0.806431
O O11 0.000000 0.500000 0.500000
O O12 0.851495 0.294905 0.558256
O O13 0.777597 0.138059 0.397143
O O14 0.505587 0.415164 0.239813
O O15 0.345796 0.923149 0.841450
O O16 0.651209 0.574816 0.435876
O O17 0.500000 0.000000 0.500000
#
# Coordination Sequence:
#
# PCOD9022232 Si02
#       8
#     2   2   2   2   2   2   2   2
#     4  10  22  39  62  92 133 170 224 280 333 391
#     4  10  22  43  61  97 128 175 228 275 325 419
#     4  10  22  40  68  96 130 173 224 277 340 404
#     4  11  22  42  66 100 134 173 222 281 331 400
#     4   9  20  39  58  92 133 168 215 269 333 407
#     4  11  23  39  70  89 131 181 222 273 350 384
#     4  10  22  39  59  96 134 168 219 277 332 399
#     4  11  23  40  69  97 135 179 216 277 345 398
#
# _framework density 24.814658000000001
#
# number of rings (size 3 to 8) (size 9 to 14) (size 15 to 20)
#    0.000    1.750    1.250    3.000    7.000    0.000 
#    0.000    2.500    0.000    1.500    0.000    0.000 
#    0.000    0.000    0.000    0.000    0.000    0.000 
#
# Total GULP energy -89121.990212 kJ/mol
# GULP energy per Si atom -5570.124388 kJ/mol
# Density = 2.475818 g / cm^3
# Si number density = 24.814658 Si / 1000 Ang^3
#
#
#
# Elastic Constant Matrix: (Units=GPa)
#
#
# Indices 1 2 3 4 5 6 
#
# 1 133.1323 48.6032 28.4823 -0.3365 -29.7526 21.3570
# 2 48.6032 114.0649 51.7686 -9.2465 -1.8744 22.5634
# 3 28.4823 51.7686 100.5936 -18.8225 -15.6823 21.5879
# 4 -0.3365 -9.2465 -18.8225 35.9545 9.7763 0.5428
# 5 -29.7526 -1.8744 -15.6823 9.7763 36.6034 -11.2928
# 6 21.3570 22.5634 21.5879 0.5428 -11.2928 52.3876
#
#
#
# Elastic Compliance Matrix: (Units=1/GPa)
#
#
# Indices 1 2 3 4 5 6 
#
# 1 0.011689 -0.005194 0.000335 -0.003839 0.010277 -0.000411
# 2 -0.005194 0.014434 -0.005942 0.002722 -0.007792 -0.003358
# 3 0.000335 -0.005942 0.015193 0.005354 0.004121 -0.003005
# 4 -0.003839 0.002722 0.005354 0.034422 -0.011302 -0.004606
# 5 0.010277 -0.007792 0.004121 -0.011302 0.042115 0.006663
# 6 -0.000411 -0.003358 -0.003005 -0.004606 0.006663 0.023425
#
#
# Mechanical properties :
#
#
# Convention : Reuss Voigt Hill
#
# Bulk Modulus (GPa) = 50.72352 67.27767 59.00059
# Shear Modulus (GPa) = 29.50712 39.58488 34.54600
#
# Velocity S-wave (km/s) = 3.45207 3.99836 3.73522
# Velocity P-wave (km/s) = 6.03112 6.96324 6.51387
#
# Compressibility (1/GPa) = 0.01971472
#
# Stress axis : x y z
#
# Youngs Moduli (GPa) = 85.55247 69.28163 65.81905
#
# Poissons Ratio (x) = 0.35984 -0.02208
# Poissons Ratio (y) = 0.44434 0.39111
# Poissons Ratio (z) = -0.02870 0.41168
#
# Static dielectric constant tensor:
#      x y z
#    x 2.304230 0.165860 -0.000860 
#    y 0.165860 2.156970 0.071900 
#    z -0.000860 0.071900 2.085890 
# 
# From -- ./inp_files/577169.got.cif
#   From: 2010.05.17/outbox.cif.g08.bks.cpg/sg2_289_cif.got.tgz:577169.got - 2010.06.03 11:33:40.
