data_PCOD9022222
_publ_section_title
;
Structure prediction by ZEFSAII (Michael W. Deem and Ramdas Pophale) SiO2 
 PCOD9022222
Probable space group: P -1
;
_chemical_formula_sum "Si O2"
_cell_formula_units_Z 16
_cell_length_a 9.014763
_cell_length_b 6.567892
_cell_length_c 25.089215
_cell_angle_alpha 136.061520
_cell_angle_beta 132.994900
_cell_angle_gamma 60.193804
_cell_volume 753.855729
_symmetry_space_group_name_H-M "P -1"
_symmetry_group_IT_number 2
_symmetry_cell_setting 'triclinic'
loop_
_space_group_symop_operation_xyz
x,y,z
-x,-y,-z
loop_
_atom_site_type_symbol
_atom_site_label
_atom_site_fract_x
_atom_site_fract_y
_atom_site_fract_z
Si Si1 0.521516 0.672175 0.879953
Si Si2 0.347757 0.303791 0.960307
Si Si3 0.962998 0.344172 0.404479
Si Si4 0.615265 0.962983 0.292166
Si Si5 0.687392 0.560580 0.726900
Si Si6 0.732244 0.079938 0.570205
Si Si7 0.066821 0.335804 0.089244
Si Si8 0.697981 0.835183 0.403422
O O1 0.396652 0.381624 0.783494
O O2 0.730139 0.636737 0.891261
O O3 0.392861 0.966667 0.890464
O O4 0.584021 0.680905 0.958680
O O5 0.120713 0.440898 0.926209
O O6 0.500000 0.500000 0.000000
O O7 0.871830 0.588390 0.389753
O O8 0.000000 0.500000 0.500000
O O9 0.792679 0.103853 0.328212
O O10 0.162462 0.155226 0.408599
O O11 0.653286 0.019198 0.374632
O O12 0.413076 0.129730 0.254930
O O13 0.767305 0.396771 0.662908
O O14 0.857310 0.606127 0.821220
O O15 0.503729 0.351867 0.664920
O O16 0.500000 0.000000 0.500000
O O17 0.777850 0.023098 0.508540
O O18 0.000000 0.000000 0.000000
#
# Coordination Sequence:
#
# PCOD9022222 Si02
#       8
#     2   2   2   2   2   2   2   2
#     4  11  25  45  67 101 135 175 230 274 329 407
#     4  11  25  45  70  99 134 179 222 278 339 398
#     4   9  20  38  61  88 121 166 212 263 328 389
#     4  11  22  39  65  91 127 168 216 269 322 400
#     4  10  22  39  59  93 125 164 213 263 328 388
#     4   9  19  38  60  87 124 162 208 267 315 391
#     4  12  23  44  72  95 136 185 214 276 344 394
#     4   9  19  39  63  85 122 166 211 259 329 376
#
# _framework density 21.224221
#
# number of rings (size 3 to 8) (size 9 to 14) (size 15 to 20)
#    0.000    1.750    2.500    1.875    0.000    4.500 
#    2.250    2.500    0.000    0.000    0.000    0.000 
#    0.000    0.000    0.000    0.000    0.000    0.000 
#
# Total GULP energy -89316.338023 kJ/mol
# GULP energy per Si atom -5582.271126 kJ/mol
# Density = 2.117591 g / cm^3
# Si number density = 21.224221 Si / 1000 Ang^3
#
#
#
# Elastic Constant Matrix: (Units=GPa)
#
#
# Indices 1 2 3 4 5 6 
#
# 1 59.5100 45.5901 23.3495 7.0524 1.7426 -13.8356
# 2 45.5901 130.8504 48.6164 -4.3026 -2.7178 -27.9149
# 3 23.3495 48.6164 120.2814 9.0602 -8.0476 -9.1535
# 4 7.0524 -4.3026 9.0602 42.6129 1.7531 0.0439
# 5 1.7426 -2.7178 -8.0476 1.7531 24.0420 -1.9685
# 6 -13.8356 -27.9149 -9.1535 0.0439 -1.9685 38.5522
#
#
#
# Elastic Compliance Matrix: (Units=1/GPa)
#
#
# Indices 1 2 3 4 5 6 
#
# 1 0.024398 -0.007626 -0.001273 -0.004437 -0.002503 0.002809
# 2 -0.007626 0.012983 -0.003492 0.003264 0.001096 0.005887
# 3 -0.001273 -0.003492 0.010354 -0.002479 0.003315 -0.000355
# 4 -0.004437 0.003264 -0.002479 0.025139 -0.001968 0.000053
# 5 -0.002503 0.001096 0.003315 -0.001968 0.043390 0.002900
# 6 0.002809 0.005887 -0.000355 0.000053 0.002900 0.031273
#
#
# Mechanical properties :
#
#
# Convention : Reuss Voigt Hill
#
# Bulk Modulus (GPa) = 43.56866 60.63932 52.10399
# Shear Modulus (GPa) = 27.78251 33.91381 30.84816
#
# Velocity S-wave (km/s) = 3.62194 4.00169 3.81654
# Velocity P-wave (km/s) = 6.16957 7.06995 6.63505
#
# Compressibility (1/GPa) = 0.02295228
#
# Stress axis : x y z
#
# Youngs Moduli (GPa) = 40.98693 77.02620 96.58257
#
# Poissons Ratio (x) = 0.58742 0.12298
# Poissons Ratio (y) = 0.31257 0.33723
# Poissons Ratio (z) = 0.05219 0.26894
#
# Static dielectric constant tensor:
#      x y z
#    x 1.891480 0.008390 0.074000 
#    y 0.008390 1.854980 0.008470 
#    z 0.074000 0.008470 1.906580 
# 
# From -- ./inp_files/323706.got.cif
#   From: 2010.05.17/outbox.cif.g08.bks.cpg/sg2_162_cif.got.tgz:323706.got - 2010.06.03 11:33:40.
