data_PCOD9022873
_publ_section_title
;
Structure prediction by ZEFSAII (Michael W. Deem and Ramdas Pophale) SiO2 
 PCOD9022873
Probable space group: P -1
;
_chemical_formula_sum "Si O2"
_cell_formula_units_Z 14
_cell_length_a 11.332467
_cell_length_b 14.767073
_cell_length_c 5.329009
_cell_angle_alpha 116.441996
_cell_angle_beta 57.690449
_cell_angle_gamma 130.729922
_cell_volume 564.639663
_symmetry_space_group_name_H-M "P -1"
_symmetry_group_IT_number 2
_symmetry_cell_setting 'triclinic'
loop_
_space_group_symop_operation_xyz
x,y,z
-x,-y,-z
loop_
_atom_site_type_symbol
_atom_site_label
_atom_site_fract_x
_atom_site_fract_y
_atom_site_fract_z
Si Si1 0.588129 0.154644 0.854883
Si Si2 0.843610 0.096516 0.318630
Si Si3 0.338816 0.474772 0.789491
Si Si4 0.687883 0.874259 0.550648
Si Si5 0.584822 0.333639 0.709076
Si Si6 0.062335 0.194185 0.685438
Si Si7 0.817884 0.396209 0.147240
O O1 0.677233 0.101224 0.532027
O O2 0.537525 0.229355 0.832337
O O3 0.421623 0.081996 0.127789
O O4 0.741731 0.260869 0.974038
O O5 0.973067 0.175962 0.495894
O O6 0.780263 0.962291 0.319451
O O7 0.932075 0.134381 0.993548
O O8 0.500000 0.500000 0.500000
O O9 0.189364 0.335403 0.783841
O O10 0.281466 0.551363 0.800114
O O11 0.399446 0.546748 0.070370
O O12 0.549833 0.740336 0.444393
O O13 0.825739 0.863810 0.527330
O O14 0.772699 0.379980 0.469641
O O15 0.000000 0.500000 0.000000
#
# Coordination Sequence:
#
# PCOD9022873 Si02
#       7
#     2   2   2   2   2   2   2
#     4  10  24  43  71 104 141 189 244 290 359 432
#     4  12  29  48  75 109 145 190 244 303 355 422
#     4  11  25  43  69 102 142 186 237 289 354 436
#     4  11  26  49  73 100 146 192 243 294 361 432
#     4  10  24  42  74 102 138 189 235 293 359 427
#     4  12  29  47  75 108 147 188 243 299 365 419
#     4  10  22  39  64  98 143 179 233 291 359 416
#
# _framework density 24.794571999999999
#
# number of rings (size 3 to 8) (size 9 to 14) (size 15 to 20)
#    0.000    1.143    0.000    4.714   16.000    2.857 
#    0.000    0.000    0.000    0.000    0.000    0.000 
#    0.000    0.000    0.000    0.000    0.000    0.000 
#
# Total GULP energy -78248.723687 kJ/mol
# GULP energy per Si atom -5589.194549 kJ/mol
# Density = 2.473814 g / cm^3
# Si number density = 24.794572 Si / 1000 Ang^3
#
#
#
# Elastic Constant Matrix: (Units=GPa)
#
#
# Indices 1 2 3 4 5 6 
#
# 1 79.3068 9.3791 27.1824 8.7290 -14.7781 20.1329
# 2 9.3791 99.1931 3.4272 -12.1832 -7.0480 14.3135
# 3 27.1824 3.4272 95.9196 -11.4557 -9.6928 19.3518
# 4 8.7290 -12.1832 -11.4557 47.6643 -4.9622 0.6172
# 5 -14.7781 -7.0480 -9.6928 -4.9622 30.6216 -4.6980
# 6 20.1329 14.3135 19.3518 0.6172 -4.6980 33.5868
#
#
#
# Elastic Compliance Matrix: (Units=1/GPa)
#
#
# Indices 1 2 3 4 5 6 
#
# 1 0.016991 -0.000461 -0.003166 -0.003331 0.005425 -0.007344
# 2 -0.000461 0.011465 0.001477 0.003717 0.002696 -0.005152
# 3 -0.003166 0.001477 0.013328 0.004534 0.002830 -0.006098
# 4 -0.003331 0.003717 0.004534 0.024101 0.004275 -0.002045
# 5 0.005425 0.002696 0.002830 0.004275 0.037348 -0.000886
# 6 -0.007344 -0.005152 -0.006098 -0.002045 -0.000886 0.039798
#
#
# Mechanical properties :
#
#
# Convention : Reuss Voigt Hill
#
# Bulk Modulus (GPa) = 26.67908 39.37742 33.02825
# Shear Modulus (GPa) = 31.28371 38.00325 34.64348
#
# Velocity S-wave (km/s) = 3.55592 3.91925 3.74200
# Velocity P-wave (km/s) = 5.25764 6.03296 5.65860
#
# Compressibility (1/GPa) = 0.03748255
#
# Stress axis : x y z
#
# Youngs Moduli (GPa) = 58.85495 87.21846 75.03194
#
# Poissons Ratio (x) = 0.04021 0.23759
# Poissons Ratio (y) = 0.02714 -0.11081
# Poissons Ratio (z) = 0.18636 -0.12880
#
# Static dielectric constant tensor:
#      x y z
#    x 2.219370 0.094120 0.011090 
#    y 0.094120 1.974390 -0.015530 
#    z 0.011090 -0.015530 2.178400 
# 
# From -- ./inp_files/27624.got.cif
#   From: 2010.05.17/outbox.cif.g08.bks.cpg/sg2_14_cif.got.tgz:27624.got - 2010.06.03 11:33:40.
