data_PCOD9022458
_publ_section_title
;
Structure prediction by ZEFSAII (Michael W. Deem and Ramdas Pophale) SiO2 
 PCOD9022458
Probable space group: P -1
;
_chemical_formula_sum "Si O2"
_cell_formula_units_Z 13
_cell_length_a 15.309441
_cell_length_b 5.561487
_cell_length_c 17.571658
_cell_angle_alpha 120.165824
_cell_angle_beta 28.965797
_cell_angle_gamma 129.218967
_cell_volume 556.185420
_symmetry_space_group_name_H-M "P -1"
_symmetry_group_IT_number 2
_symmetry_cell_setting 'triclinic'
loop_
_space_group_symop_operation_xyz
x,y,z
-x,-y,-z
loop_
_atom_site_type_symbol
_atom_site_label
_atom_site_fract_x
_atom_site_fract_y
_atom_site_fract_z
Si Si1 0.739253 0.706925 0.788209
Si Si2 0.960895 0.657784 0.381151
Si Si3 0.000000 0.500000 0.500000
Si Si4 0.692587 0.507029 0.961400
Si Si5 0.753836 0.506228 0.249518
Si Si6 0.854454 0.003878 0.044483
Si Si7 0.418047 0.641287 0.482208
O O1 0.727667 0.711574 0.889092
O O2 0.758846 0.404749 0.697150
O O3 0.960054 0.967509 0.629897
O O4 0.547732 0.722359 0.899199
O O5 0.948213 0.544007 0.457852
O O6 0.140335 0.617063 0.194184
O O7 0.746064 0.465446 0.475090
O O8 0.736834 0.693805 0.036036
O O9 0.721360 0.158302 0.204037
O O10 0.608343 0.575032 0.315591
O O11 0.699085 0.550816 0.383840
O O12 0.986846 0.744395 0.095616
O O13 0.000000 0.000000 0.000000
O O14 0.500000 0.000000 0.500000
#
# Coordination Sequence:
#
# PCOD9022458 Si02
#       7
#     2   2   1   2   2   2   2
#     4  10  22  41  62  86 117 159 203 251 302 357
#     4  11  22  41  64  86 122 162 201 254 306 361
#     4  10  24  40  60  90 120 158 206 252 304 360
#     4  10  22  39  62  88 118 157 205 247 299 369
#     4  10  23  39  61  93 124 162 206 243 308 373
#     4  11  22  40  62  93 128 158 197 253 308 366
#     4  11  23  41  63  91 124 163 206 254 307 362
#
# _framework density 23.373501999999998
#
# number of rings (size 3 to 8) (size 9 to 14) (size 15 to 20)
#    0.000    1.538    0.000    4.615    0.000    8.615 
#    0.000    3.077    0.000    0.000    0.000    0.000 
#    0.000    0.000    0.000    0.000    0.000    0.000 
#
# Total GULP energy -72423.469553 kJ/mol
# GULP energy per Si atom -5571.036119 kJ/mol
# Density = 2.332030 g / cm^3
# Si number density = 23.373502 Si / 1000 Ang^3
#
#
#
# Elastic Constant Matrix: (Units=GPa)
#
#
# Indices 1 2 3 4 5 6 
#
# 1 124.4001 28.7863 26.9234 -5.6875 -13.2781 16.9207
# 2 28.7863 35.5695 4.1809 -3.6088 -9.2356 17.4045
# 3 26.9234 4.1809 85.4657 12.3982 -13.2785 11.3272
# 4 -5.6875 -3.6088 12.3982 38.3176 -8.0789 0.4545
# 5 -13.2781 -9.2356 -13.2785 -8.0789 45.2759 -2.5189
# 6 16.9207 17.4045 11.3272 0.4545 -2.5189 30.4442
#
#
#
# Elastic Compliance Matrix: (Units=1/GPa)
#
#
# Indices 1 2 3 4 5 6 
#
# 1 0.010740 -0.007660 -0.003102 0.002098 0.001031 -0.000382
# 2 -0.007660 0.048196 0.003918 0.004135 0.008129 -0.024142
# 3 -0.003102 0.003918 0.014272 -0.004000 0.003055 -0.005513
# 4 0.002098 0.004135 -0.004000 0.029254 0.005393 -0.002032
# 5 0.001031 0.008129 0.003055 0.005393 0.025665 -0.004313
# 6 -0.000382 -0.024142 -0.005513 -0.002032 -0.004313 0.048586
#
#
# Mechanical properties :
#
#
# Convention : Reuss Voigt Hill
#
# Bulk Modulus (GPa) = 16.80120 40.57961 28.69041
# Shear Modulus (GPa) = 23.78217 35.17718 29.47967
#
# Velocity S-wave (km/s) = 3.19326 3.88364 3.55525
# Velocity P-wave (km/s) = 4.56066 6.12449 5.39949
#
# Compressibility (1/GPa) = 0.05951956
#
# Stress axis : x y z
#
# Youngs Moduli (GPa) = 93.10564 20.74867 70.06842
#
# Poissons Ratio (x) = 0.15894 0.21738
# Poissons Ratio (y) = 0.71320 -0.27454
# Poissons Ratio (z) = 0.28885 -0.08130
#
# Static dielectric constant tensor:
#      x y z
#    x 1.899420 -0.127890 0.018920 
#    y -0.127890 0.615590 -0.729600 
#    z 0.018920 -0.729600 1.614900 
# 
# From -- ./inp_files/18987.got.cif
#   From: 2010.05.17/outbox.cif.g08.bks.cpg/sg2_10_cif.got.tgz:18987.got - 2010.06.03 11:33:40.
