data_PCOD9022673
_publ_section_title
;
Structure prediction by ZEFSAII (Michael W. Deem and Ramdas Pophale) SiO2 
 PCOD9022673
Probable space group: P -1
;
_chemical_formula_sum "Si O2"
_cell_formula_units_Z 16
_cell_length_a 16.103174
_cell_length_b 14.435277
_cell_length_c 11.939311
_cell_angle_alpha 149.336645
_cell_angle_beta 59.533324
_cell_angle_gamma 140.404063
_cell_volume 791.785694
_symmetry_space_group_name_H-M "P -1"
_symmetry_group_IT_number 2
_symmetry_cell_setting 'triclinic'
loop_
_space_group_symop_operation_xyz
x,y,z
-x,-y,-z
loop_
_atom_site_type_symbol
_atom_site_label
_atom_site_fract_x
_atom_site_fract_y
_atom_site_fract_z
Si Si1 0.587975 0.668084 0.500573
Si Si2 0.427627 0.318664 0.028328
Si Si3 0.665780 0.527501 0.914137
Si Si4 0.972390 0.674890 0.675429
Si Si5 0.851951 0.766567 0.436437
Si Si6 0.627848 0.169276 0.408815
Si Si7 0.994518 0.990121 0.178249
Si Si8 0.596511 0.100733 0.925940
O O1 0.500000 0.500000 0.500000
O O2 0.473644 0.454592 0.258601
O O3 0.734554 0.757294 0.482310
O O4 0.632385 0.940415 0.742266
O O5 0.329961 0.323578 0.035531
O O6 0.576720 0.498707 0.042317
O O7 0.358136 0.021259 0.769493
O O8 0.585219 0.239831 0.613653
O O9 0.826308 0.701250 0.027996
O O10 0.795972 0.463803 0.572547
O O11 0.017848 0.832014 0.690156
O O12 0.000000 0.500000 0.500000
O O13 0.037406 0.895876 0.960473
O O14 0.903659 0.855803 0.622957
O O15 0.745380 0.434830 0.157065
O O16 0.000000 0.000000 0.500000
O O17 0.512278 0.021670 0.232900
O O18 0.500000 0.000000 0.000000
#
# Coordination Sequence:
#
# PCOD9022673 Si02
#       8
#     2   2   2   2   2   2   2   2
#     4  12  25  43  72 101 133 184 236 285 343 410
#     4  11  21  39  64  98 126 164 222 276 336 395
#     4  10  22  39  63  94 129 167 214 274 340 399
#     4  10  22  40  64  97 128 173 222 280 341 399
#     4  12  27  47  69 102 148 187 227 286 354 420
#     4  11  21  38  65  95 129 164 225 279 334 400
#     4  10  23  40  63  91 136 172 216 269 345 411
#     4  12  24  44  69 103 134 186 239 292 337 411
#
# _framework density 20.207488999999999
#
# number of rings (size 3 to 8) (size 9 to 14) (size 15 to 20)
#    0.000    1.000    3.750    2.625    0.000    4.500 
#    0.000    1.250    0.000    0.000    0.000    0.000 
#    0.000    0.000    0.000    0.000    0.000    0.000 
#
# Total GULP energy -89311.918930 kJ/mol
# GULP energy per Si atom -5581.994933 kJ/mol
# Density = 2.016150 g / cm^3
# Si number density = 20.207489 Si / 1000 Ang^3
#
#
#
# Elastic Constant Matrix: (Units=GPa)
#
#
# Indices 1 2 3 4 5 6 
#
# 1 -94.1416 117.6685 164.1701 18.5975 13.2284 4.0138
# 2 117.6685 8.0872 -52.2048 8.7974 -21.5678 -11.4531
# 3 164.1701 -52.2048 46.7213 2.0815 -32.6347 -24.1281
# 4 18.5975 8.7974 2.0815 26.5128 -2.0932 1.0585
# 5 13.2284 -21.5678 -32.6347 -2.0932 47.6042 -3.5240
# 6 4.0138 -11.4531 -24.1281 1.0585 -3.5240 27.3779
#
#
#
# Elastic Compliance Matrix: (Units=1/GPa)
#
#
# Indices 1 2 3 4 5 6 
#
# 1 0.002751 0.005997 0.003328 -0.004057 0.004483 0.005772
# 2 0.005997 0.013343 -0.005243 -0.008205 0.000457 0.000458
# 3 0.003328 -0.005243 0.005670 -0.001081 0.000721 0.002451
# 4 -0.004057 -0.008205 -0.001081 0.043453 -0.001842 -0.005707
# 5 0.004483 0.000457 0.000721 -0.001842 0.020596 0.002892
# 6 0.005772 0.000458 0.002451 -0.005707 0.002892 0.038624
#
#
# Mechanical properties :
#
#
# Convention : Reuss Voigt Hill
#
# Bulk Modulus (GPa) = 33.41385 46.65937 40.03661
# Shear Modulus (GPa) = 39.60425 2.36785 20.98605
#
# Velocity S-wave (km/s) = 4.43186 1.08366 3.22612
# Velocity P-wave (km/s) = 6.53909 4.97051 5.80800
#
# Compressibility (1/GPa) = 0.02992771
#
# Stress axis : x y z
#
# Youngs Moduli (GPa) = 363.51270 74.94761 176.35575
#
# Poissons Ratio (x) = -0.44948 -0.58683
# Poissons Ratio (y) = -2.18006 0.92461
# Poissons Ratio (z) = -1.20961 0.39294
#
# Static dielectric constant tensor:
#      x y z
#    x 1.688860 -0.005430 -0.022170 
#    y -0.005430 1.783180 0.019930 
#    z -0.022170 0.019930 1.713060 
# 
# From -- ./inp_files/456002.got.cif
#   From: 2010.05.17/outbox.cif.g08.bks.cpg/sg2_229_cif.got.tgz:456002.got - 2010.06.03 11:33:40.
