data_PCOD9022057
_publ_section_title
;
Structure prediction by ZEFSAII (Michael W. Deem and Ramdas Pophale) SiO2 
 PCOD9022057
Probable space group: P -1
;
_chemical_formula_sum "Si O2"
_cell_formula_units_Z 15
_cell_length_a 12.620531
_cell_length_b 7.021755
_cell_length_c 8.223494
_cell_angle_alpha 101.067961
_cell_angle_beta 70.132571
_cell_angle_gamma 77.966681
_cell_volume 642.370928
_symmetry_space_group_name_H-M "P -1"
_symmetry_group_IT_number 2
_symmetry_cell_setting 'triclinic'
loop_
_space_group_symop_operation_xyz
x,y,z
-x,-y,-z
loop_
_atom_site_type_symbol
_atom_site_label
_atom_site_fract_x
_atom_site_fract_y
_atom_site_fract_z
Si Si1 0.500000 0.000000 0.500000
Si Si2 0.246075 0.620108 0.952977
Si Si3 0.840978 0.394432 0.371660
Si Si4 0.625638 0.717936 0.694988
Si Si5 0.508495 0.366654 0.769732
Si Si6 0.116903 0.013533 0.530431
Si Si7 0.316147 0.941676 0.145174
Si Si8 0.984137 0.431610 0.814553
O O1 0.563768 0.874352 0.610804
O O2 0.472562 0.792939 0.413302
O O3 0.203734 0.600324 0.789230
O O4 0.368886 0.448500 0.884795
O O5 0.265612 0.840575 0.006992
O O6 0.146696 0.591131 0.124969
O O7 0.752783 0.577222 0.545477
O O8 0.838677 0.185072 0.415968
O O9 0.973354 0.416579 0.299948
O O10 0.553787 0.558726 0.738154
O O11 0.638914 0.861795 0.862042
O O12 0.582819 0.244809 0.860535
O O13 0.213972 0.008442 0.344487
O O14 0.000000 0.000000 0.500000
O O15 0.077810 0.214672 0.692791
O O16 0.000000 0.500000 0.000000
#
# Coordination Sequence:
#
# PCOD9022057 Si02
#       8
#     1   2   2   2   2   2   2   2
#     4  10  22  38  70 102 130 184 226 290 330 404
#     4  11  24  45  67 101 146 183 220 291 353 411
#     4  11  24  45  73  99 136 182 236 291 343 415
#     4  11  22  41  70 104 134 180 240 278 339 413
#     4  11  23  42  71 102 142 178 232 275 356 412
#     4  12  24  46  71  98 136 183 239 287 342 411
#     4  11  24  44  68 102 143 181 228 288 344 411
#     4  10  24  45  68 102 138 175 233 290 346 402
#
# _framework density 23.350995000000001
#
# number of rings (size 3 to 8) (size 9 to 14) (size 15 to 20)
#    0.000    1.067    5.333    0.800    0.000    3.200 
#    2.400    4.000    0.000    0.000    0.000    0.000 
#    0.000    0.000    0.000    0.000    0.000    0.000 
#
# Total GULP energy -83696.096912 kJ/mol
# GULP energy per Si atom -5579.739794 kJ/mol
# Density = 2.329785 g / cm^3
# Si number density = 23.350995 Si / 1000 Ang^3
#
#
#
# Elastic Constant Matrix: (Units=GPa)
#
#
# Indices 1 2 3 4 5 6 
#
# 1 98.1550 33.0465 28.3026 5.5289 -13.7108 13.9922
# 2 33.0465 126.1606 25.4235 17.4111 -8.3883 21.6336
# 3 28.3026 25.4235 60.1804 16.5917 -5.3692 -0.5558
# 4 5.5289 17.4111 16.5917 27.9396 12.9895 5.0107
# 5 -13.7108 -8.3883 -5.3692 12.9895 43.9073 10.4663
# 6 13.9922 21.6336 -0.5558 5.0107 10.4663 35.5122
#
#
#
# Elastic Compliance Matrix: (Units=1/GPa)
#
#
# Indices 1 2 3 4 5 6 
#
# 1 0.013757 -0.001084 -0.005702 0.000225 0.004828 -0.006304
# 2 -0.001084 0.011049 -0.001915 -0.006697 0.005167 -0.006912
# 3 -0.005702 -0.001915 0.024711 -0.015167 0.004245 0.004689
# 4 0.000225 -0.006697 -0.015167 0.058252 -0.020686 0.001631
# 5 0.004828 0.005167 0.004245 -0.020686 0.034849 -0.012336
# 6 -0.006304 -0.006912 0.004689 0.001631 -0.012336 0.038333
#
#
# Mechanical properties :
#
#
# Convention : Reuss Voigt Hill
#
# Bulk Modulus (GPa) = 31.13604 50.89345 41.01475
# Shear Modulus (GPa) = 23.91698 34.65338 29.28518
#
# Velocity S-wave (km/s) = 3.20384 3.85648 3.54521
# Velocity P-wave (km/s) = 5.20087 6.45540 5.86179
#
# Compressibility (1/GPa) = 0.03211713
#
# Stress axis : x y z
#
# Youngs Moduli (GPa) = 72.68888 90.50531 40.46840
#
# Poissons Ratio (x) = 0.09807 0.23074
# Poissons Ratio (y) = 0.07876 0.07748
# Poissons Ratio (z) = 0.41445 0.17329
#
# Static dielectric constant tensor:
#      x y z
#    x 1.912170 0.041500 -0.023170 
#    y 0.041500 1.872460 -0.005930 
#    z -0.023170 -0.005930 1.890630 
# 
# From -- ./inp_files/288988.got.cif
#   From: 2010.05.17/outbox.cif.g08.bks.cpg/sg2_145_cif.got.tgz:288988.got - 2010.06.03 11:33:40.
