data_PCOD9022685
_publ_section_title
;
Structure prediction by ZEFSAII (Michael W. Deem and Ramdas Pophale) SiO2 
 PCOD9022685
Probable space group: P -1
;
_chemical_formula_sum "Si O2"
_cell_formula_units_Z 14
_cell_length_a 7.353886
_cell_length_b 20.260145
_cell_length_c 7.788210
_cell_angle_alpha 123.560935
_cell_angle_beta 85.686204
_cell_angle_gamma 54.087576
_cell_volume 631.213559
_symmetry_space_group_name_H-M "P -1"
_symmetry_group_IT_number 2
_symmetry_cell_setting 'triclinic'
loop_
_space_group_symop_operation_xyz
x,y,z
-x,-y,-z
loop_
_atom_site_type_symbol
_atom_site_label
_atom_site_fract_x
_atom_site_fract_y
_atom_site_fract_z
Si Si1 0.259371 0.471075 0.894165
Si Si2 0.641380 0.021546 0.732317
Si Si3 0.384995 0.939054 0.600082
Si Si4 0.750720 0.609701 0.558373
Si Si5 0.899708 0.706961 0.439189
Si Si6 0.759472 0.137107 0.052032
Si Si7 0.837516 0.217461 0.494787
O O1 0.305743 0.442471 0.647553
O O2 0.542349 0.343474 0.769016
O O3 0.000000 0.500000 0.000000
O O4 0.153349 0.590068 0.136075
O O5 0.444240 0.010871 0.751910
O O6 0.953649 0.883810 0.522400
O O7 0.583251 0.077694 0.631613
O O8 0.370098 0.908345 0.019154
O O9 0.623484 0.809948 0.491421
O O10 0.065677 0.028371 0.796739
O O11 0.844761 0.657550 0.513846
O O12 0.459846 0.732727 0.839492
O O13 0.000000 0.500000 0.500000
O O14 0.004726 0.758554 0.565351
O O15 0.790268 0.166695 0.279250
#
# Coordination Sequence:
#
# PCOD9022685 Si02
#       7
#     2   2   2   2   2   2   2
#     4   9  20  38  60  86 124 162 206 252 300 368
#     4  10  23  41  62  93 131 160 204 253 300 381
#     4  10  24  40  62  98 121 166 207 244 316 364
#     4  10  24  41  61  93 120 163 208 257 314 360
#     4  10  22  40  64  88 128 162 207 259 297 376
#     4  11  24  39  65  91 130 160 202 261 308 366
#     4  10  22  39  63  95 120 167 208 246 317 356
#
# _framework density 22.179500000000001
#
# number of rings (size 3 to 8) (size 9 to 14) (size 15 to 20)
#    0.000    2.000    0.000    1.286   12.000    3.429 
#    0.000    4.286    0.000    0.000    0.000    0.000 
#    0.000    0.000    0.000    0.000    0.000    0.000 
#
# Total GULP energy -78180.704449 kJ/mol
# GULP energy per Si atom -5584.336032 kJ/mol
# Density = 2.212902 g / cm^3
# Si number density = 22.179500 Si / 1000 Ang^3
#
#
#
# Elastic Constant Matrix: (Units=GPa)
#
#
# Indices 1 2 3 4 5 6 
#
# 1 103.2209 31.8360 19.3856 0.3232 17.3842 -0.4467
# 2 31.8360 136.6607 29.2615 36.8679 -3.2201 -4.5305
# 3 19.3856 29.2615 86.9116 27.1380 5.6081 4.3207
# 4 0.3232 36.8679 27.1380 26.4865 -13.4604 -8.4263
# 5 17.3842 -3.2201 5.6081 -13.4604 39.8503 2.8163
# 6 -0.4467 -4.5305 4.3207 -8.4263 2.8163 23.3723
#
#
#
# Elastic Compliance Matrix: (Units=1/GPa)
#
#
# Indices 1 2 3 4 5 6 
#
# 1 0.012620 -0.005758 -0.006205 0.016114 -0.000085 0.006092
# 2 -0.005758 0.018921 0.012541 -0.051111 -0.013892 -0.015514
# 3 -0.006205 0.012541 0.034845 -0.074351 -0.024318 -0.028004
# 4 0.016114 -0.051111 -0.074351 0.251906 0.078347 0.085523
# 5 -0.000085 -0.013892 -0.024318 0.078347 0.052216 0.023755
# 6 0.006092 -0.015514 -0.028004 0.085523 0.023755 0.073042
#
#
# Mechanical properties :
#
#
# Convention : Reuss Voigt Hill
#
# Bulk Modulus (GPa) = 14.80591 54.19548 34.50070
# Shear Modulus (GPa) = 10.75485 34.36250 22.55867
#
# Velocity S-wave (km/s) = 2.20443 3.94037 3.19265
# Velocity P-wave (km/s) = 3.62896 6.72235 5.40182
#
# Compressibility (1/GPa) = 0.06754059
#
# Stress axis : x y z
#
# Youngs Moduli (GPa) = 79.24216 52.85272 28.69871
#
# Poissons Ratio (x) = 0.30435 0.17807
# Poissons Ratio (y) = 0.45631 -0.35992
# Poissons Ratio (z) = 0.49169 -0.66284
#
# Static dielectric constant tensor:
#      x y z
#    x 1.854710 0.011270 0.000470 
#    y 0.011270 1.812830 0.010330 
#    z 0.000470 0.010330 1.862160 
# 
# From -- ./inp_files/223793.got.cif
#   From: 2010.05.17/outbox.cif.g08.bks.cpg/sg2_112_cif.got.tgz:223793.got - 2010.06.03 11:33:40.
