data_PCOD9022844
_publ_section_title
;
Structure prediction by ZEFSAII (Michael W. Deem and Ramdas Pophale) SiO2 
 PCOD9022844
Probable space group: P -1
;
_chemical_formula_sum "Si O2"
_cell_formula_units_Z 14
_cell_length_a 12.158317
_cell_length_b 9.339456
_cell_length_c 7.572734
_cell_angle_alpha 97.805320
_cell_angle_beta 91.494945
_cell_angle_gamma 131.978527
_cell_volume 625.291332
_symmetry_space_group_name_H-M "P -1"
_symmetry_group_IT_number 2
_symmetry_cell_setting 'triclinic'
loop_
_space_group_symop_operation_xyz
x,y,z
-x,-y,-z
loop_
_atom_site_type_symbol
_atom_site_label
_atom_site_fract_x
_atom_site_fract_y
_atom_site_fract_z
Si Si1 0.428518 0.732157 0.052689
Si Si2 0.028996 0.173362 0.430278
Si Si3 0.059013 0.480277 0.676395
Si Si4 0.332241 0.443421 0.294367
Si Si5 0.230594 0.911443 0.816225
Si Si6 0.235212 0.837252 0.176667
Si Si7 0.521698 0.738751 0.662706
O O1 0.356912 0.532581 0.117600
O O2 0.334034 0.789086 0.110950
O O3 0.595553 0.900951 0.166685
O O4 0.551233 0.272791 0.157334
O O5 0.088507 0.341888 0.605349
O O6 0.878650 0.098992 0.318731
O O7 0.158434 0.276563 0.307883
O O8 0.000000 0.000000 0.500000
O O9 0.919727 0.356516 0.783169
O O10 0.000000 0.500000 0.500000
O O11 0.191467 0.706539 0.765849
O O12 0.410007 0.617820 0.473544
O O13 0.409217 0.356813 0.307056
O O14 0.198619 0.908837 0.021753
O O15 0.343037 0.029495 0.337442
#
# Coordination Sequence:
#
# PCOD9022844 Si02
#       7
#     2   2   2   2   2   2   2
#     4  11  24  43  72  99 134 170 226 277 328 393
#     4  11  25  44  65  96 133 173 223 265 332 396
#     4  10  22  39  64  95 134 169 216 269 323 394
#     4  11  25  43  70  94 136 180 218 272 334 393
#     4  10  23  42  64  96 132 169 216 276 327 388
#     4  11  23  44  68  96 135 172 221 276 331 390
#     4  10  24  43  68  99 134 172 227 274 328 392
#
# _framework density 22.389562999999999
#
# number of rings (size 3 to 8) (size 9 to 14) (size 15 to 20)
#    0.000    1.429    0.000    5.143   12.000    0.571 
#    0.000    3.571    0.000    0.000    0.000    0.000 
#    0.000    0.000    0.000    0.000    0.000    0.000 
#
# Total GULP energy -78279.356202 kJ/mol
# GULP energy per Si atom -5591.382586 kJ/mol
# Density = 2.233860 g / cm^3
# Si number density = 22.389563 Si / 1000 Ang^3
#
#
#
# Elastic Constant Matrix: (Units=GPa)
#
#
# Indices 1 2 3 4 5 6 
#
# 1 97.5715 35.7212 25.9926 -13.0722 0.1268 4.9017
# 2 35.7212 87.1146 7.7819 -20.3213 -6.4966 -6.5426
# 3 25.9926 7.7819 49.7349 -9.4244 -0.2745 9.1725
# 4 -13.0722 -20.3213 -9.4244 37.8703 2.8132 -10.8126
# 5 0.1268 -6.4966 -0.2745 2.8132 36.8064 -3.5212
# 6 4.9017 -6.5426 9.1725 -10.8126 -3.5212 30.3599
#
#
#
# Elastic Compliance Matrix: (Units=1/GPa)
#
#
# Indices 1 2 3 4 5 6 
#
# 1 0.013943 -0.005386 -0.006138 0.000000 -0.001207 -0.001698
# 2 -0.005386 0.016613 0.000518 0.009224 0.003008 0.007927
# 3 -0.006138 0.000518 0.024764 0.002804 -0.000437 -0.005431
# 4 0.000000 0.009224 0.002804 0.036033 0.000234 0.014001
# 5 -0.001207 0.003008 -0.000437 0.000234 0.028096 0.004317
# 6 -0.001698 0.007927 -0.005431 0.014001 0.004317 0.042049
#
#
# Mechanical properties :
#
#
# Convention : Reuss Voigt Hill
#
# Bulk Modulus (GPa) = 30.02300 41.49027 35.75664
# Shear Modulus (GPa) = 25.69215 32.00233 28.84724
#
# Velocity S-wave (km/s) = 3.39116 3.78476 3.59336
# Velocity P-wave (km/s) = 5.36393 6.13764 5.76378
#
# Compressibility (1/GPa) = 0.03330779
#
# Stress axis : x y z
#
# Youngs Moduli (GPa) = 71.72184 60.19407 40.38159
#
# Poissons Ratio (x) = 0.32423 0.24785
# Poissons Ratio (y) = 0.38633 -0.02093
# Poissons Ratio (z) = 0.44020 -0.03119
#
# Static dielectric constant tensor:
#      x y z
#    x 1.817130 0.026870 -0.004840 
#    y 0.026870 1.858840 0.078570 
#    z -0.004840 0.078570 1.893080 
# 
# From -- ./inp_files/244064.got.cif
#   From: 2010.05.17/outbox.cif.g08.bks.cpg/sg2_123_cif.got.tgz:244064.got - 2010.06.03 11:33:40.
