data_PCOD9022478
_publ_section_title
;
Structure prediction by ZEFSAII (Michael W. Deem and Ramdas Pophale) SiO2 
 PCOD9022478
Probable space group: P -1
;
_chemical_formula_sum "Si O2"
_cell_formula_units_Z 12
_cell_length_a 22.307237
_cell_length_b 14.629575
_cell_length_c 5.532262
_cell_angle_alpha 44.609683
_cell_angle_beta 50.744789
_cell_angle_gamma 21.604756
_cell_volume 463.875301
_symmetry_space_group_name_H-M "P -1"
_symmetry_group_IT_number 2
_symmetry_cell_setting 'triclinic'
loop_
_space_group_symop_operation_xyz
x,y,z
-x,-y,-z
loop_
_atom_site_type_symbol
_atom_site_label
_atom_site_fract_x
_atom_site_fract_y
_atom_site_fract_z
Si Si1 0.466591 0.159386 0.987224
Si Si2 0.589440 0.271446 0.025091
Si Si3 0.064879 0.270445 0.663649
Si Si4 0.008062 0.868108 0.544985
Si Si5 0.334048 0.595785 0.713839
Si Si6 0.219569 0.399397 0.554021
O O1 0.328262 0.300679 0.249030
O O2 0.651704 0.895764 0.116752
O O3 0.391277 0.416428 0.685824
O O4 0.500000 0.000000 0.000000
O O5 0.455768 0.380747 0.027033
O O6 0.650767 0.275902 0.644783
O O7 0.500000 0.500000 0.000000
O O8 0.740362 0.996844 0.313150
O O9 0.953557 0.403013 0.464707
O O10 0.000000 0.500000 0.500000
O O11 0.030649 0.199733 0.061313
O O12 0.169407 0.584812 0.524740
O O13 0.858069 0.125581 0.263223
O O14 0.000000 0.000000 0.500000
#
# Coordination Sequence:
#
# PCOD9022478 Si02
#       6
#     2   2   2   2   2   2
#     4  11  24  42  64  93 127 165 212 264 318 380
#     4  10  22  39  62  90 122 164 209 258 313 374
#     4  11  24  41  63  94 129 168 213 262 315 376
#     4  11  24  43  66  96 131 167 214 265 316 379
#     4  10  22  40  62  90 125 164 209 260 314 373
#     4  11  24  41  66  94 126 169 211 262 323 378
#
# _framework density 25.869024
#
# number of rings (size 3 to 8) (size 9 to 14) (size 15 to 20)
#    0.000    1.333    0.000    5.000    0.000   11.333 
#    0.000    0.000    0.000    0.000    0.000    0.000 
#    0.000    0.000    0.000    0.000    0.000    0.000 
#
# Total GULP energy -67018.098923 kJ/mol
# GULP energy per Si atom -5584.841577 kJ/mol
# Density = 2.581014 g / cm^3
# Si number density = 25.869024 Si / 1000 Ang^3
#
#
#
# Elastic Constant Matrix: (Units=GPa)
#
#
# Indices 1 2 3 4 5 6 
#
# 1 128.2552 49.7528 24.0339 -24.9948 8.1538 10.2923
# 2 49.7528 169.7179 18.1106 -51.2318 13.8458 16.9619
# 3 24.0339 18.1106 59.4059 -28.6808 -14.4786 -11.3639
# 4 -24.9948 -51.2318 -28.6808 63.4119 -7.5125 7.0496
# 5 8.1538 13.8458 -14.4786 -7.5125 49.7243 -19.9562
# 6 10.2923 16.9619 -11.3639 7.0496 -19.9562 52.2940
#
#
#
# Elastic Compliance Matrix: (Units=1/GPa)
#
#
# Indices 1 2 3 4 5 6 
#
# 1 0.010104 -0.001469 -0.005501 0.000261 -0.004618 -0.004505
# 2 -0.001469 0.009238 -0.000930 0.006605 -0.003696 -0.005210
# 3 -0.005501 -0.000930 0.032179 0.012241 0.017808 0.013523
# 4 0.000261 0.006605 0.012241 0.027514 0.005358 -0.001198
# 5 -0.004618 -0.003696 0.017808 0.005358 0.035427 0.018774
# 6 -0.004505 -0.005210 0.013523 -0.001198 0.018774 0.031964
#
#
# Mechanical properties :
#
#
# Convention : Reuss Voigt Hill
#
# Bulk Modulus (GPa) = 27.99526 60.13041 44.06284
# Shear Modulus (GPa) = 28.71364 50.78483 39.74924
#
# Velocity S-wave (km/s) = 3.33522 4.43555 3.92415
# Velocity P-wave (km/s) = 5.06725 7.03753 6.13204
#
# Compressibility (1/GPa) = 0.03572033
#
# Stress axis : x y z
#
# Youngs Moduli (GPa) = 98.97370 108.24684 31.07590
#
# Poissons Ratio (x) = 0.15902 0.17095
# Poissons Ratio (y) = 0.14539 0.02891
# Poissons Ratio (z) = 0.54445 0.10072
#
# Static dielectric constant tensor:
#      x y z
#    x 2.118780 -0.087060 0.029510 
#    y -0.087060 1.985420 0.079970 
#    z 0.029510 0.079970 2.082120 
# 
# From -- ./inp_files/60594.got.cif
#   From: 2010.05.17/outbox.cif.g08.bks.cpg/sg2_31_cif.got.tgz:60594.got - 2010.06.03 11:33:40.
