data_PCOD9022393
_publ_section_title
;
Structure prediction by ZEFSAII (Michael W. Deem and Ramdas Pophale) SiO2 
 PCOD9022393
Probable space group: P -1
;
_chemical_formula_sum "Si O2"
_cell_formula_units_Z 16
_cell_length_a 5.285162
_cell_length_b 11.379851
_cell_length_c 12.208303
_cell_angle_alpha 68.203048
_cell_angle_beta 103.798176
_cell_angle_gamma 101.556247
_cell_volume 656.984578
_symmetry_space_group_name_H-M "P -1"
_symmetry_group_IT_number 2
_symmetry_cell_setting 'triclinic'
loop_
_space_group_symop_operation_xyz
x,y,z
-x,-y,-z
loop_
_atom_site_type_symbol
_atom_site_label
_atom_site_fract_x
_atom_site_fract_y
_atom_site_fract_z
Si Si1 0.260371 0.851685 0.549583
Si Si2 0.249790 0.028176 0.321394
Si Si3 0.882476 0.502134 0.608009
Si Si4 0.810374 0.702442 0.868844
Si Si5 0.475360 0.084342 0.804143
Si Si6 0.870084 0.107131 0.017975
Si Si7 0.457772 0.286510 0.568783
Si Si8 0.210954 0.616232 0.785589
O O1 0.455863 0.945739 0.609902
O O2 0.400823 0.781327 0.490308
O O3 0.177005 0.740018 0.664579
O O4 0.096310 0.941575 0.428664
O O5 0.183451 0.169636 0.248775
O O6 0.299062 0.961908 0.234797
O O7 0.665983 0.380316 0.628026
O O8 0.730942 0.627147 0.542468
O O9 0.000000 0.500000 0.500000
O O10 0.096353 0.507456 0.724795
O O11 0.512806 0.632220 0.852496
O O12 0.925622 0.770837 0.968970
O O13 0.016025 0.617904 0.867040
O O14 0.344758 0.186074 0.683773
O O15 0.270795 0.965816 0.865106
O O16 0.628897 0.141919 0.907137
O O17 0.000000 0.000000 0.000000
#
# Coordination Sequence:
#
# PCOD9022393 Si02
#       8
#     2   2   2   2   2   2   2   2
#     4   9  17  32  53  83 123 161 195 237 301 382
#     4   9  17  32  53  83 123 161 195 237 301 382
#     4  11  22  38  64  91 123 166 214 261 315 382
#     4  11  23  38  61  90 125 168 214 259 316 376
#     4  10  22  39  61  92 129 167 209 262 318 378
#     4  11  22  38  64  91 123 166 214 261 315 382
#     4  10  22  39  61  92 129 167 209 262 318 378
#     4  11  23  38  61  90 125 168 214 259 316 376
#
# _framework density 24.353694999999998
#
# number of rings (size 3 to 8) (size 9 to 14) (size 15 to 20)
#    0.000    1.750    2.500    3.000    3.500    2.500 
#    0.000    0.000    0.000    1.500    0.000    0.000 
#    0.000    0.000    0.000    0.000    0.000    0.000 
#
# Total GULP energy -89285.170287 kJ/mol
# GULP energy per Si atom -5580.323143 kJ/mol
# Density = 2.429827 g / cm^3
# Si number density = 24.353695 Si / 1000 Ang^3
#
#
#
# Elastic Constant Matrix: (Units=GPa)
#
#
# Indices 1 2 3 4 5 6 
#
# 1 117.7305 42.3757 33.2757 36.0399 13.8791 24.8132
# 2 42.3757 61.5022 41.5066 32.4968 20.2583 15.2354
# 3 33.2757 41.5066 78.6460 20.2104 -1.9419 25.7918
# 4 36.0399 32.4968 20.2104 50.5547 16.1581 9.5646
# 5 13.8791 20.2583 -1.9419 16.1581 33.2213 32.0443
# 6 24.8132 15.2354 25.7918 9.5646 32.0443 38.7096
#
#
#
# Elastic Compliance Matrix: (Units=1/GPa)
#
#
# Indices 1 2 3 4 5 6 
#
# 1 0.010838 0.001092 -0.007328 -0.003224 -0.011989 0.008226
# 2 0.001092 0.017751 0.008828 -0.019971 0.036111 -0.038527
# 3 -0.007328 0.008828 -0.004767 0.008183 -0.044033 0.038828
# 4 -0.003224 -0.019971 0.008183 0.030510 0.010516 -0.011769
# 5 -0.011989 0.036111 -0.044033 0.010516 -0.069949 0.078118
# 6 0.008226 -0.038527 0.038828 -0.011769 0.078118 -0.051906
#
#
# Mechanical properties :
#
#
# Convention : Reuss Voigt Hill
#
# Bulk Modulus (GPa) = 34.47426 54.68830 44.58128
# Shear Modulus (GPa) = -79.31522 33.87849 -22.71836
#
# Velocity S-wave (km/s) = -5.71303 3.73380 -3.05757
# Velocity P-wave (km/s) = 5.41590 6.41037 2.42497
#
# Compressibility (1/GPa) = 0.02900715
#
# Stress axis : x y z
#
# Youngs Moduli (GPa) = 92.26432 56.33571 -209.75737
#
# Poissons Ratio (x) = -0.06152 -1.53701
# Poissons Ratio (y) = -0.10076 1.85178
# Poissons Ratio (z) = 0.67607 -0.49734
#
# Static dielectric constant tensor:
#      x y z
#    x 2.140270 -0.111280 -0.042230 
#    y -0.111280 2.099450 0.000450 
#    z -0.042230 0.000450 2.042410 
# 
# From -- ./inp_files/362961.got.cif
#   From: 2010.05.17/outbox.cif.g08.bks.cpg/sg2_182_cif.got.tgz:362961.got - 2010.06.03 11:33:40.
