data_PCOD9022477
_publ_section_title
;
Structure prediction by ZEFSAII (Michael W. Deem and Ramdas Pophale) SiO2 
 PCOD9022477
Probable space group: P -1
;
_chemical_formula_sum "Si O2"
_cell_formula_units_Z 12
_cell_length_a 7.102534
_cell_length_b 17.324462
_cell_length_c 6.823051
_cell_angle_alpha 73.487140
_cell_angle_beta 117.508933
_cell_angle_gamma 128.204763
_cell_volume 585.139612
_symmetry_space_group_name_H-M "P -1"
_symmetry_group_IT_number 2
_symmetry_cell_setting 'triclinic'
loop_
_space_group_symop_operation_xyz
x,y,z
-x,-y,-z
loop_
_atom_site_type_symbol
_atom_site_label
_atom_site_fract_x
_atom_site_fract_y
_atom_site_fract_z
Si Si1 0.039136 0.892024 0.145926
Si Si2 0.281562 0.769822 0.364994
Si Si3 0.800827 0.397358 0.289696
Si Si4 0.516168 0.272189 0.859979
Si Si5 0.845305 0.938265 0.660927
Si Si6 0.617498 0.441104 0.534383
O O1 0.148736 0.827082 0.272601
O O2 0.747919 0.828899 0.136745
O O3 0.196371 0.993312 0.268393
O O4 0.011340 0.912916 0.891914
O O5 0.151380 0.670435 0.499846
O O6 0.302574 0.746745 0.166436
O O7 0.573944 0.841443 0.535820
O O8 0.635549 0.423391 0.325145
O O9 0.079808 0.494813 0.303277
O O10 0.650368 0.335313 0.072478
O O11 0.467276 0.337077 0.646166
O O12 0.000000 0.000000 0.500000
O O13 0.500000 0.500000 0.500000
#
# Coordination Sequence:
#
# PCOD9022477 Si02
#       6
#     2   2   2   2   2   2
#     4  11  24  40  64  91 122 166 202 250 309 351
#     4  11  23  41  63  91 125 163 202 250 305 356
#     4  10  22  40  61  89 127 155 201 255 293 364
#     4  11  22  40  62  92 124 158 207 249 298 369
#     4  11  23  43  62  89 127 158 209 255 294 368
#     4  10  22  39  62  90 121 162 200 245 307 360
#
# _framework density 20.507926000000001
#
# number of rings (size 3 to 8) (size 9 to 14) (size 15 to 20)
#    0.000    1.333    3.333    2.000    0.000    4.000 
#    0.000    0.000    0.000    0.000    0.000    0.000 
#    0.000    0.000    0.000    0.000    0.000    0.000 
#
# Total GULP energy -67063.998969 kJ/mol
# GULP energy per Si atom -5588.666581 kJ/mol
# Density = 2.046125 g / cm^3
# Si number density = 20.507926 Si / 1000 Ang^3
#
#
#
# Elastic Constant Matrix: (Units=GPa)
#
#
# Indices 1 2 3 4 5 6 
#
# 1 59.4310 0.6894 25.4808 -1.0563 -9.4782 -27.5098
# 2 0.6894 71.2524 5.1902 0.1556 -8.5862 -0.9799
# 3 25.4808 5.1902 66.8542 7.3665 -23.5858 -0.8223
# 4 -1.0563 0.1556 7.3665 47.4322 -9.7760 -6.4915
# 5 -9.4782 -8.5862 -23.5858 -9.7760 19.6752 -2.9881
# 6 -27.5098 -0.9799 -0.8223 -6.4915 -2.9881 39.9468
#
#
#
# Elastic Compliance Matrix: (Units=1/GPa)
#
#
# Indices 1 2 3 4 5 6 
#
# 1 0.036204 0.002704 -0.008669 0.009455 0.017124 0.027637
# 2 0.002704 0.015372 0.001762 0.002708 0.012017 0.003614
# 3 -0.008669 0.001762 0.029183 0.001474 0.031898 -0.002701
# 4 0.009455 0.002708 0.001474 0.027583 0.023156 0.012823
# 5 0.017124 0.012017 0.031898 0.023156 0.117909 0.025327
# 6 0.027637 0.003614 -0.002701 0.012823 0.025327 0.048077
#
#
# Mechanical properties :
#
#
# Convention : Reuss Voigt Hill
#
# Bulk Modulus (GPa) = 13.82139 28.91760 21.36949
# Shear Modulus (GPa) = 16.29444 32.48932 24.39188
#
# Velocity S-wave (km/s) = 2.82182 3.98456 3.45249
# Velocity P-wave (km/s) = 4.16786 5.94140 5.13183
#
# Compressibility (1/GPa) = 0.07235164
#
# Stress axis : x y z
#
# Youngs Moduli (GPa) = 27.62139 65.05333 34.26605
#
# Poissons Ratio (x) = -0.17591 0.29707
# Poissons Ratio (y) = -0.07469 -0.06036
# Poissons Ratio (z) = 0.23946 -0.11460
#
# Static dielectric constant tensor:
#      x y z
#    x 1.709180 -0.010650 -0.019700 
#    y -0.010650 1.717900 -0.004080 
#    z -0.019700 -0.004080 1.722020 
# 
# From -- ./inp_files/3183.got.cif
#   From: 2010.05.17/outbox.cif.g08.bks.cpg/sg2_2_cif.got.tgz:3183.got - 2010.06.03 11:33:40.
