data_PCOD9022135
_publ_section_title
;
Structure prediction by ZEFSAII (Michael W. Deem and Ramdas Pophale) SiO2 
 PCOD9022135
Probable space group: P -1
;
_chemical_formula_sum "Si O2"
_cell_formula_units_Z 16
_cell_length_a 11.282309
_cell_length_b 11.343247
_cell_length_c 6.756686
_cell_angle_alpha 99.475984
_cell_angle_beta 60.703258
_cell_angle_gamma 89.186825
_cell_volume 739.292291
_symmetry_space_group_name_H-M "P -1"
_symmetry_group_IT_number 2
_symmetry_cell_setting 'triclinic'
loop_
_space_group_symop_operation_xyz
x,y,z
-x,-y,-z
loop_
_atom_site_type_symbol
_atom_site_label
_atom_site_fract_x
_atom_site_fract_y
_atom_site_fract_z
Si Si1 0.556966 0.352317 0.170273
Si Si2 0.317423 0.539564 0.557042
Si Si3 0.870138 0.581990 0.035852
Si Si4 0.824402 0.846093 0.998882
Si Si5 0.043553 0.838577 0.469870
Si Si6 0.180438 0.032339 0.571611
Si Si7 0.809474 0.408716 0.719257
Si Si8 0.402462 0.123844 0.135097
O O1 0.440904 0.465222 0.318254
O O2 0.633086 0.354701 0.321242
O O3 0.487294 0.233450 0.150142
O O4 0.668108 0.377033 0.922761
O O5 0.205109 0.584029 0.500930
O O6 0.256025 0.449369 0.734584
O O7 0.846857 0.529942 0.821814
O O8 0.865790 0.724106 0.055612
O O9 0.000000 0.500000 0.000000
O O10 0.809558 0.954054 0.198820
O O11 0.686097 0.845441 0.983439
O O12 0.941911 0.854188 0.743470
O O13 0.078524 0.700450 0.350510
O O14 0.966260 0.904707 0.366979
O O15 0.177525 0.899457 0.445100
O O16 0.294915 0.100436 0.389255
O O17 0.500000 0.000000 0.000000
#
# Coordination Sequence:
#
# PCOD9022135 Si02
#       8
#     2   2   2   2   2   2   2   2
#     4  10  22  39  57  83 118 154 196 241 289 345
#     4  10  22  39  60  84 117 158 194 239 291 346
#     4  11  23  38  60  92 122 152 194 240 292 351
#     4  11  23  39  62  87 118 158 193 239 297 347
#     4  10  22  39  60  87 117 151 194 242 292 349
#     4  10  22  41  61  85 119 154 193 242 293 346
#     4  11  22  37  60  87 117 154 194 239 292 348
#     4  11  24  40  61  89 118 153 199 245 289 345
#
# _framework density 21.642319000000001
#
# number of rings (size 3 to 8) (size 9 to 14) (size 15 to 20)
#    0.000    1.500    0.000    4.500    0.000    9.500 
#    0.000    0.000    0.000    0.000    0.000    0.000 
#    0.000    0.000    0.000    0.000    0.000    0.000 
#
# Total GULP energy -89443.364527 kJ/mol
# GULP energy per Si atom -5590.210283 kJ/mol
# Density = 2.159306 g / cm^3
# Si number density = 21.642319 Si / 1000 Ang^3
#
#
#
# Elastic Constant Matrix: (Units=GPa)
#
#
# Indices 1 2 3 4 5 6 
#
# 1 76.0312 21.8941 22.6374 -6.1005 15.5301 9.8543
# 2 21.8941 60.1688 10.5397 5.4856 8.7278 10.4748
# 3 22.6374 10.5397 70.4689 2.9076 9.1144 6.6745
# 4 -6.1005 5.4856 2.9076 21.2327 4.1913 1.6274
# 5 15.5301 8.7278 9.1144 4.1913 30.0931 4.6272
# 6 9.8543 10.4748 6.6745 1.6274 4.6272 42.0472
#
#
#
# Elastic Compliance Matrix: (Units=1/GPa)
#
#
# Indices 1 2 3 4 5 6 
#
# 1 0.018507 -0.005363 -0.004352 0.008947 -0.007645 -0.001816
# 2 -0.005363 0.020003 -0.000513 -0.006088 -0.001532 -0.003241
# 3 -0.004352 -0.000513 0.016136 -0.002864 -0.001926 -0.001091
# 4 0.008947 -0.006088 -0.002864 0.053551 -0.009261 -0.001179
# 5 -0.007645 -0.001532 -0.001926 -0.009261 0.039729 -0.001535
# 6 -0.001816 -0.003241 -0.001091 -0.001179 -0.001535 0.025403
#
#
# Mechanical properties :
#
#
# Convention : Reuss Voigt Hill
#
# Bulk Modulus (GPa) = 29.24706 35.20125 32.22416
# Shear Modulus (GPa) = 24.36885 28.78111 26.57498
#
# Velocity S-wave (km/s) = 3.35920 3.65067 3.50797
# Velocity P-wave (km/s) = 5.34685 5.83697 5.59728
#
# Compressibility (1/GPa) = 0.03419147
#
# Stress axis : x y z
#
# Youngs Moduli (GPa) = 54.03341 49.99371 61.97384
#
# Poissons Ratio (x) = 0.26810 0.26968
# Poissons Ratio (y) = 0.28977 0.03177
# Poissons Ratio (z) = 0.23513 0.02563
#
# Static dielectric constant tensor:
#      x y z
#    x 1.824840 0.001270 0.000980 
#    y 0.001270 1.777980 -0.012660 
#    z 0.000980 -0.012660 1.760670 
# 
# From -- ./inp_files/70998.got.cif
#   From: 2010.05.17/outbox.cif.g08.bks.cpg/sg2_36_cif.got.tgz:70998.got - 2010.06.03 11:33:40.
