data_PCOD9022494
_publ_section_title
;
Structure prediction by ZEFSAII (Michael W. Deem and Ramdas Pophale) SiO2 
 PCOD9022494
Probable space group: P -1
;
_chemical_formula_sum "Si O2"
_cell_formula_units_Z 14
_cell_length_a 15.410221
_cell_length_b 12.162310
_cell_length_c 9.616311
_cell_angle_alpha 141.840758
_cell_angle_beta 38.033823
_cell_angle_gamma 151.929524
_cell_volume 495.949030
_symmetry_space_group_name_H-M "P -1"
_symmetry_group_IT_number 2
_symmetry_cell_setting 'triclinic'
loop_
_space_group_symop_operation_xyz
x,y,z
-x,-y,-z
loop_
_atom_site_type_symbol
_atom_site_label
_atom_site_fract_x
_atom_site_fract_y
_atom_site_fract_z
Si Si1 0.152273 0.894226 0.790082
Si Si2 0.269705 0.619412 0.857697
Si Si3 0.374605 0.271273 0.539831
Si Si4 0.433999 0.672676 0.993552
Si Si5 0.569902 0.360285 0.732134
Si Si6 0.969085 0.814671 0.663011
Si Si7 0.860681 0.167821 0.948981
O O1 0.030766 0.762075 0.672246
O O2 0.376426 0.097903 0.663204
O O3 0.135149 0.768432 0.829493
O O4 0.090101 0.037063 0.067581
O O5 0.465427 0.737918 0.648801
O O6 0.338684 0.693182 0.005290
O O7 0.088025 0.321500 0.788223
O O8 0.193099 0.727622 0.988934
O O9 0.500000 0.500000 0.500000
O O10 0.350688 0.399463 0.815045
O O11 0.162827 0.005826 0.516393
O O12 0.670829 0.875302 0.886985
O O13 0.387134 0.695475 0.228918
O O14 0.773597 0.559374 0.594141
O O15 0.500000 0.500000 0.000000
#
# Coordination Sequence:
#
# PCOD9022494 Si02
#       7
#     2   2   2   2   2   2   2
#     4   9  17  30  52  78  97 128 173 212 246 294
#     4  10  21  36  51  75 106 138 170 204 253 307
#     4  10  20  33  51  76 105 134 166 207 256 303
#     4  10  19  34  55  77 101 132 171 214 253 294
#     4   9  17  28  50  79  99 124 168 212 249 292
#     4  10  17  31  51  74 105 132 161 212 259 290
#     4  10  20  35  56  75 100 136 174 210 248 302
#
# _framework density 28.228705000000001
#
# number of rings (size 3 to 8) (size 9 to 14) (size 15 to 20)
#    0.000    2.286    0.000    5.571    0.000    0.571 
#    0.000    6.429    0.000    3.429    0.000    0.000 
#    0.000    4.571    0.000    0.000    0.000    0.000 
#
# Total GULP energy -78297.234579 kJ/mol
# GULP energy per Si atom -5592.659613 kJ/mol
# Density = 2.816446 g / cm^3
# Si number density = 28.228705 Si / 1000 Ang^3
#
#
#
# Elastic Constant Matrix: (Units=GPa)
#
#
# Indices 1 2 3 4 5 6 
#
# 1 187.2594 34.6787 25.1416 -13.3330 -5.2204 -6.5046
# 2 34.6787 191.2673 74.5675 -74.0860 -20.8562 38.3794
# 3 25.1416 74.5675 71.7112 -31.1870 -8.7128 3.1057
# 4 -13.3330 -74.0860 -31.1870 70.7816 -1.2401 -14.8695
# 5 -5.2204 -20.8562 -8.7128 -1.2401 30.0041 -13.0875
# 6 -6.5046 38.3794 3.1057 -14.8695 -13.0875 49.6204
#
#
#
# Elastic Compliance Matrix: (Units=1/GPa)
#
#
# Indices 1 2 3 4 5 6 
#
# 1 0.005729 -0.000828 -0.001064 0.000121 0.000869 0.001724
# 2 -0.000828 0.015039 -0.010265 0.009683 0.004694 -0.006959
# 3 -0.001064 -0.010265 0.026096 0.002267 0.003771 0.007841
# 4 0.000121 0.009683 0.002267 0.026029 0.009680 0.002738
# 5 0.000869 0.004694 0.003771 0.009680 0.042789 0.010434
# 6 0.001724 -0.006959 0.007841 0.002738 0.010434 0.028843
#
#
# Mechanical properties :
#
#
# Convention : Reuss Voigt Hill
#
# Bulk Modulus (GPa) = 44.34610 79.89038 62.11824
# Shear Modulus (GPa) = 28.35177 51.13790 39.74483
#
# Velocity S-wave (km/s) = 3.17260 4.26086 3.75635
# Velocity P-wave (km/s) = 5.40039 7.25045 6.39270
#
# Compressibility (1/GPa) = 0.02254990
#
# Stress axis : x y z
#
# Youngs Moduli (GPa) = 174.54719 66.49384 38.31988
#
# Poissons Ratio (x) = 0.05508 0.04077
# Poissons Ratio (y) = 0.14459 0.39335
# Poissons Ratio (z) = 0.18569 0.68256
#
# Static dielectric constant tensor:
#      x y z
#    x 2.277780 -0.067240 0.017550 
#    y -0.067240 2.189620 -0.008530 
#    z 0.017550 -0.008530 2.347140 
# 
# From -- ./inp_files/431129.got.cif
#   From: 2010.05.17/outbox.cif.g08.bks.cpg/sg2_216_cif.got.tgz:431129.got - 2010.06.03 11:33:40.
