data_PCOD9022442
_publ_section_title
;
Structure prediction by ZEFSAII (Michael W. Deem and Ramdas Pophale) SiO2 
 PCOD9022442
Probable space group: P -1
;
_chemical_formula_sum "Si O2"
_cell_formula_units_Z 12
_cell_length_a 9.570359
_cell_length_b 11.400005
_cell_length_c 14.253770
_cell_angle_alpha 151.957499
_cell_angle_beta 48.680496
_cell_angle_gamma 124.908142
_cell_volume 548.844083
_symmetry_space_group_name_H-M "P -1"
_symmetry_group_IT_number 2
_symmetry_cell_setting 'triclinic'
loop_
_space_group_symop_operation_xyz
x,y,z
-x,-y,-z
loop_
_atom_site_type_symbol
_atom_site_label
_atom_site_fract_x
_atom_site_fract_y
_atom_site_fract_z
Si Si1 0.677596 0.581192 0.539139
Si Si2 0.500591 0.691757 0.421275
Si Si3 0.021089 0.304977 0.268517
Si Si4 0.629228 0.496899 0.032411
Si Si5 0.795180 0.950413 0.596706
Si Si6 0.195451 0.136418 0.900939
O O1 0.500000 0.500000 0.500000
O O2 0.590926 0.549842 0.659807
O O3 0.851769 0.386191 0.330930
O O4 0.765008 0.821471 0.620973
O O5 0.689388 0.767315 0.442864
O O6 0.363057 0.933483 0.667755
O O7 0.534432 0.637731 0.260301
O O8 0.000000 0.500000 0.500000
O O9 0.981183 0.038209 0.142247
O O10 0.195717 0.271342 0.098019
O O11 0.690663 0.218382 0.833819
O O12 0.500000 0.500000 0.000000
O O13 0.802368 0.658499 0.035426
O O14 0.000000 0.000000 0.500000
#
# Coordination Sequence:
#
# PCOD9022442 Si02
#       6
#     2   2   2   2   2   2
#     4   9  21  43  66  93 137 174 221 274 334 410
#     4  10  23  43  67  95 133 180 226 278 332 401
#     4  10  22  40  70  99 131 177 223 282 335 394
#     4  12  25  39  69  97 130 179 228 274 335 400
#     4  11  24  43  66  97 138 176 222 282 340 403
#     4  10  22  39  62 100 135 163 225 280 328 395
#
# _framework density 21.864132999999999
#
# number of rings (size 3 to 8) (size 9 to 14) (size 15 to 20)
#    0.000    1.667    1.667    1.500    4.667    2.667 
#    0.000   10.000    0.000    0.000    0.000    0.000 
#    0.000    0.000    0.000    0.000    0.000    0.000 
#
# Total GULP energy -66898.292619 kJ/mol
# GULP energy per Si atom -5574.857718 kJ/mol
# Density = 2.181437 g / cm^3
# Si number density = 21.864133 Si / 1000 Ang^3
#
#
#
# Elastic Constant Matrix: (Units=GPa)
#
#
# Indices 1 2 3 4 5 6 
#
# 1 51.8934 20.7332 42.9233 -8.3884 2.1560 0.6596
# 2 20.7332 210.3612 67.4426 -3.5699 10.1256 -10.0275
# 3 42.9233 67.4426 157.9682 -23.0131 19.6164 -12.0363
# 4 -8.3884 -3.5699 -23.0131 44.9459 -10.3850 -3.1285
# 5 2.1560 10.1256 19.6164 -10.3850 29.7831 -6.8388
# 6 0.6596 -10.0275 -12.0363 -3.1285 -6.8388 28.8346
#
#
#
# Elastic Compliance Matrix: (Units=1/GPa)
#
#
# Indices 1 2 3 4 5 6 
#
# 1 0.025474 -0.000496 -0.007055 0.001566 0.002862 -0.002851
# 2 -0.000496 0.005570 -0.002246 -0.000859 -0.000494 0.000801
# 3 -0.007055 -0.002246 0.010373 0.003177 -0.003722 0.003172
# 4 0.001566 -0.000859 0.003177 0.026522 0.008696 0.005932
# 5 0.002862 -0.000494 -0.003722 0.008696 0.041062 0.008892
# 6 -0.002851 0.000801 0.003172 0.005932 0.008892 0.039101
#
#
# Mechanical properties :
#
#
# Convention : Reuss Voigt Hill
#
# Bulk Modulus (GPa) = 45.82209 75.82455 60.82332
# Shear Modulus (GPa) = 28.57638 39.98763 34.28200
#
# Velocity S-wave (km/s) = 3.61916 4.28122 3.96404
# Velocity P-wave (km/s) = 6.20223 7.69374 6.98789
#
# Compressibility (1/GPa) = 0.02182354
#
# Stress axis : x y z
#
# Youngs Moduli (GPa) = 39.25549 179.53099 96.40534
#
# Poissons Ratio (x) = 0.08906 0.68011
# Poissons Ratio (y) = 0.01947 0.21653
# Poissons Ratio (z) = 0.27693 0.40323
#
# Static dielectric constant tensor:
#      x y z
#    x 1.861010 0.055200 0.017240 
#    y 0.055200 1.884250 -0.014830 
#    z 0.017240 -0.014830 1.785150 
# 
# From -- ./inp_files/519308.got.cif
#   From: 2010.05.17/outbox.cif.g08.bks.cpg/sg2_260_cif.got.tgz:519308.got - 2010.06.03 11:33:40.
