data_PCOD9022626
_publ_section_title
;
Structure prediction by ZEFSAII (Michael W. Deem and Ramdas Pophale) SiO2 
 PCOD9022626
Probable space group: P -1
;
_chemical_formula_sum "Si O2"
_cell_formula_units_Z 12
_cell_length_a 10.752851
_cell_length_b 9.929675
_cell_length_c 9.450083
_cell_angle_alpha 121.941830
_cell_angle_beta 106.930631
_cell_angle_gamma 39.793577
_cell_volume 535.517454
_symmetry_space_group_name_H-M "P -1"
_symmetry_group_IT_number 2
_symmetry_cell_setting 'triclinic'
loop_
_space_group_symop_operation_xyz
x,y,z
-x,-y,-z
loop_
_atom_site_type_symbol
_atom_site_label
_atom_site_fract_x
_atom_site_fract_y
_atom_site_fract_z
Si Si1 0.413089 0.754353 0.581112
Si Si2 0.808842 0.552845 0.501365
Si Si3 0.557035 0.128025 0.046461
Si Si4 0.952159 0.859106 0.888799
Si Si5 0.830309 0.549392 0.042341
Si Si6 0.181334 0.201738 0.589533
O O1 0.500000 0.500000 0.500000
O O2 0.602284 0.670204 0.535960
O O3 0.361603 0.866208 0.781664
O O4 0.244440 0.967085 0.529801
O O5 0.765532 0.756777 0.516334
O O6 0.942064 0.442105 0.626059
O O7 0.937336 0.318503 0.310270
O O8 0.721703 0.017300 0.920286
O O9 0.338120 0.382120 0.065610
O O10 0.500000 0.000000 0.000000
O O11 0.058788 0.681188 0.957501
O O12 0.000000 0.000000 0.000000
O O13 0.733498 0.761678 0.240478
O O14 0.000000 0.500000 0.000000
#
# Coordination Sequence:
#
# PCOD9022626 Si02
#       6
#     2   2   2   2   2   2
#     4  12  25  41  64  97 131 165 212 271 322 376
#     4  10  24  40  66  90 128 170 212 259 323 385
#     4  12  24  41  71  95 127 172 222 258 318 392
#     4  11  25  43  63  98 134 165 212 274 326 375
#     4  11  21  39  67  95 126 170 217 265 315 386
#     4  10  22  39  63  92 125 164 217 260 316 379
#
# _framework density 22.408235999999999
#
# number of rings (size 3 to 8) (size 9 to 14) (size 15 to 20)
#    0.000    1.000    3.333    2.500    4.667    5.333 
#    0.000    0.000    0.000    0.000    0.000    0.000 
#    0.000    0.000    0.000    0.000    0.000    0.000 
#
# Total GULP energy -66870.063111 kJ/mol
# GULP energy per Si atom -5572.505259 kJ/mol
# Density = 2.235723 g / cm^3
# Si number density = 22.408236 Si / 1000 Ang^3
#
#
#
# Elastic Constant Matrix: (Units=GPa)
#
#
# Indices 1 2 3 4 5 6 
#
# 1 75.7092 25.2636 20.5857 9.8079 -16.8786 1.9239
# 2 25.2636 150.8622 10.2510 -0.7826 11.4941 15.9682
# 3 20.5857 10.2510 90.2805 3.6219 -10.6466 11.7563
# 4 9.8079 -0.7826 3.6219 26.8149 0.8709 11.3363
# 5 -16.8786 11.4941 -10.6466 0.8709 31.8832 15.2849
# 6 1.9239 15.9682 11.7563 11.3363 15.2849 42.1818
#
#
#
# Elastic Compliance Matrix: (Units=1/GPa)
#
#
# Indices 1 2 3 4 5 6 
#
# 1 0.018322 -0.003683 -0.002045 -0.006400 0.011078 -0.001166
# 2 -0.003683 0.007793 -0.000377 0.002560 -0.004045 -0.001899
# 3 -0.002045 -0.000377 0.013057 0.001318 0.006268 -0.006028
# 4 -0.006400 0.002560 0.001318 0.045298 0.001487 -0.013757
# 5 0.011078 -0.004045 0.006268 0.001487 0.049955 -0.019222
# 6 -0.001166 -0.001899 -0.006028 -0.013757 -0.019222 0.036822
#
#
# Mechanical properties :
#
#
# Convention : Reuss Voigt Hill
#
# Bulk Modulus (GPa) = 37.08920 47.67250 42.38085
# Shear Modulus (GPa) = 25.98158 37.55943 31.77050
#
# Velocity S-wave (km/s) = 3.40879 4.09852 3.76946
# Velocity P-wave (km/s) = 5.66398 6.61195 6.15624
#
# Compressibility (1/GPa) = 0.02696203
#
# Stress axis : x y z
#
# Youngs Moduli (GPa) = 54.57968 128.31228 76.58783
#
# Poissons Ratio (x) = 0.47259 0.15659
# Poissons Ratio (y) = 0.20102 0.02891
# Poissons Ratio (z) = 0.11159 0.04843
#
# Static dielectric constant tensor:
#      x y z
#    x 1.627270 0.065900 0.248610 
#    y 0.065900 1.935970 0.016370 
#    z 0.248610 0.016370 2.025500 
# 
# From -- ./inp_files/245525.got.cif
#   From: 2010.05.17/outbox.cif.g08.bks.cpg/sg2_123_cif.got.tgz:245525.got - 2010.06.03 11:33:40.
