data_PCOD9022146
_publ_section_title
;
Structure prediction by ZEFSAII (Michael W. Deem and Ramdas Pophale) SiO2 
 PCOD9022146
Probable space group: P -1
;
_chemical_formula_sum "Si O2"
_cell_formula_units_Z 14
_cell_length_a 13.571484
_cell_length_b 5.556967
_cell_length_c 10.713426
_cell_angle_alpha 50.106028
_cell_angle_beta 85.975485
_cell_angle_gamma 95.927488
_cell_volume 606.652648
_symmetry_space_group_name_H-M "P -1"
_symmetry_group_IT_number 2
_symmetry_cell_setting 'triclinic'
loop_
_space_group_symop_operation_xyz
x,y,z
-x,-y,-z
loop_
_atom_site_type_symbol
_atom_site_label
_atom_site_fract_x
_atom_site_fract_y
_atom_site_fract_z
Si Si1 0.723250 0.289837 0.452033
Si Si2 0.755315 0.694924 0.756723
Si Si3 0.113848 0.665407 0.971390
Si Si4 0.683765 0.978464 0.302200
Si Si5 0.080628 0.300658 0.438504
Si Si6 0.930572 0.693556 0.265178
Si Si7 0.557932 0.242677 0.017281
O O1 0.687322 0.606782 0.398013
O O2 0.664521 0.094623 0.405752
O O3 0.836315 0.408529 0.349003
O O4 0.731924 0.048557 0.645046
O O5 0.807140 0.683336 0.621986
O O6 0.655428 0.442190 0.872678
O O7 0.840288 0.601960 0.869928
O O8 0.208211 0.809934 0.823514
O O9 0.092512 0.007390 0.908036
O O10 0.000000 0.500000 0.000000
O O11 0.600018 0.061034 0.187881
O O12 0.075542 0.268086 0.597410
O O13 0.037979 0.592105 0.281900
O O14 0.000000 0.000000 0.500000
O O15 0.500000 0.500000 0.000000
O O16 0.500000 0.000000 0.000000
#
# Coordination Sequence:
#
# PCOD9022146 Si02
#       7
#     2   2   2   2   2   2   2
#     4  11  22  43  68 101 139 178 229 273 344 413
#     4  11  24  41  70 101 134 184 237 287 340 420
#     4  10  22  39  57  97 138 183 234 275 343 410
#     4  10  24  46  71  99 139 183 220 286 351 413
#     4  11  21  39  63  96 139 180 237 276 343 409
#     4  10  23  37  61  91 142 192 217 282 335 410
#     4  11  26  52  76 103 139 180 230 296 356 404
#
# _framework density 23.077459000000001
#
# number of rings (size 3 to 8) (size 9 to 14) (size 15 to 20)
#    0.000    1.429    1.429    3.429    4.000    2.857 
#    7.714    4.286    0.000    0.000    0.000    0.000 
#    0.000    0.000    0.000    0.000    0.000    0.000 
#
# Total GULP energy -78109.301106 kJ/mol
# GULP energy per Si atom -5579.235793 kJ/mol
# Density = 2.302493 g / cm^3
# Si number density = 23.077459 Si / 1000 Ang^3
#
#
#
# Elastic Constant Matrix: (Units=GPa)
#
#
# Indices 1 2 3 4 5 6 
#
# 1 135.0593 71.9846 47.3674 -12.3698 25.6046 7.4330
# 2 71.9846 151.0092 64.6744 -1.1923 30.6046 7.6487
# 3 47.3674 64.6744 124.7554 -31.5430 40.8369 -0.8614
# 4 -12.3698 -1.1923 -31.5430 32.7833 -13.0339 3.4145
# 5 25.6046 30.6046 40.8369 -13.0339 47.8169 -0.7407
# 6 7.4330 7.6487 -0.8614 3.4145 -0.7407 35.6381
#
#
#
# Elastic Compliance Matrix: (Units=1/GPa)
#
#
# Indices 1 2 3 4 5 6 
#
# 1 0.010584 -0.004399 -0.000468 0.002875 -0.001693 -0.001585
# 2 -0.004399 0.011487 -0.005320 -0.007222 -0.002438 -0.001035
# 3 -0.000468 -0.005320 0.016412 0.012645 -0.006910 0.000281
# 4 0.002875 -0.007222 0.012645 0.045670 0.004686 -0.003022
# 5 -0.001693 -0.002438 -0.006910 0.004686 0.030572 0.000896
# 6 -0.001585 -0.001035 0.000281 -0.003022 0.000896 0.028928
#
#
# Mechanical properties :
#
#
# Convention : Reuss Voigt Hill
#
# Bulk Modulus (GPa) = 55.21828 86.54186 70.88007
# Shear Modulus (GPa) = 29.40082 38.36749 33.88415
#
# Velocity S-wave (km/s) = 3.57319 4.08186 3.83597
# Velocity P-wave (km/s) = 6.40335 7.73288 7.09931
#
# Compressibility (1/GPa) = 0.01810994
#
# Stress axis : x y z
#
# Youngs Moduli (GPa) = 94.47815 87.05535 60.93071
#
# Poissons Ratio (x) = 0.38295 0.02851
# Poissons Ratio (y) = 0.41560 0.32415
# Poissons Ratio (z) = 0.04421 0.46313
#
# Static dielectric constant tensor:
#      x y z
#    x 1.899550 -0.043670 0.059770 
#    y -0.043670 1.938820 0.003050 
#    z 0.059770 0.003050 1.958900 
# 
# From -- ./inp_files/409750.got.cif
#   From: 2010.05.17/outbox.cif.g08.bks.cpg/sg2_205_cif.got.tgz:409750.got - 2010.06.03 11:33:40.
