data_PCOD9022037
_publ_section_title
;
Structure prediction by ZEFSAII (Michael W. Deem and Ramdas Pophale) SiO2 
 PCOD9022037
Probable space group: P -1
;
_chemical_formula_sum "Si O2"
_cell_formula_units_Z 16
_cell_length_a 20.633038
_cell_length_b 14.547739
_cell_length_c 9.328109
_cell_angle_alpha 131.706754
_cell_angle_beta 48.851293
_cell_angle_gamma 159.428846
_cell_volume 727.870847
_symmetry_space_group_name_H-M "P -1"
_symmetry_group_IT_number 2
_symmetry_cell_setting 'triclinic'
loop_
_space_group_symop_operation_xyz
x,y,z
-x,-y,-z
loop_
_atom_site_type_symbol
_atom_site_label
_atom_site_fract_x
_atom_site_fract_y
_atom_site_fract_z
Si Si1 0.972380 0.535970 0.427136
Si Si2 0.731497 0.874057 0.095058
Si Si3 0.258183 0.899499 0.909194
Si Si4 0.642941 0.311337 0.702374
Si Si5 0.278203 0.342520 0.591274
Si Si6 0.911759 0.782480 0.000211
Si Si7 0.293120 0.069939 0.340587
Si Si8 0.639924 0.513375 0.689052
O O1 0.918218 0.379258 0.207875
O O2 0.788561 0.386271 0.560344
O O3 0.000000 0.500000 0.500000
O O4 0.151607 0.840487 0.429501
O O5 0.572367 0.712800 0.269142
O O6 0.698520 0.921621 0.058604
O O7 0.703042 0.698835 0.900634
O O8 0.939585 0.138974 0.124703
O O9 0.430239 0.023853 0.760688
O O10 0.252127 0.935792 0.119147
O O11 0.725766 0.504698 0.905039
O O12 0.645483 0.390280 0.631893
O O13 0.258216 0.170339 0.462613
O O14 0.487431 0.652669 0.651020
O O15 0.248107 0.339232 0.466896
O O16 0.136260 0.228318 0.785451
O O17 0.000000 0.000000 0.000000
#
# Coordination Sequence:
#
# PCOD9022037 Si02
#       8
#     2   2   2   2   2   2   2   2
#     4  12  28  48  73  99 136 189 244 281 333 415
#     4  10  22  38  69 101 140 182 221 278 358 408
#     4  11  23  48  70  96 142 185 230 282 341 415
#     4  11  24  44  70 105 133 183 235 287 350 406
#     4  11  25  41  70 108 146 173 227 294 356 411
#     4  12  23  38  63 100 142 179 223 284 347 414
#     4  11  25  44  69 104 139 183 229 288 350 407
#     4  10  22  40  68 103 143 176 221 285 354 416
#
# _framework density 21.981921
#
# number of rings (size 3 to 8) (size 9 to 14) (size 15 to 20)
#    0.000    1.000    3.750    2.250    8.750    1.500 
#    0.000    1.875    0.000    0.000    0.000    0.000 
#    0.000    0.000    0.000    0.000    0.000    0.000 
#
# Total GULP energy -89435.972076 kJ/mol
# GULP energy per Si atom -5589.748255 kJ/mol
# Density = 2.193189 g / cm^3
# Si number density = 21.981921 Si / 1000 Ang^3
#
#
#
# Elastic Constant Matrix: (Units=GPa)
#
#
# Indices 1 2 3 4 5 6 
#
# 1 101.5147 45.9548 50.4566 -15.6626 4.1595 3.2726
# 2 45.9548 112.2065 50.9772 -3.6403 10.1761 6.2972
# 3 50.4566 50.9772 123.7456 -9.6799 16.9066 -9.6754
# 4 -15.6626 -3.6403 -9.6799 44.6982 0.0896 5.0145
# 5 4.1595 10.1761 16.9066 0.0896 32.6475 -5.3209
# 6 3.2726 6.2972 -9.6754 5.0145 -5.3209 29.0908
#
#
#
# Elastic Compliance Matrix: (Units=1/GPa)
#
#
# Indices 1 2 3 4 5 6 
#
# 1 0.014388 -0.003713 -0.004388 0.004098 0.001133 -0.002773
# 2 -0.003713 0.012494 -0.003690 -0.000653 -0.002126 -0.003790
# 3 -0.004388 -0.003690 0.012311 0.000318 -0.003915 0.004616
# 4 0.004098 -0.000653 0.000318 0.024348 -0.001308 -0.004650
# 5 0.001133 -0.002126 -0.003915 -0.001308 0.034074 0.005489
# 6 -0.002773 -0.003790 0.004616 -0.004650 0.005489 0.038848
#
#
# Mechanical properties :
#
#
# Convention : Reuss Voigt Hill
#
# Bulk Modulus (GPa) = 64.05954 70.24932 67.15443
# Shear Modulus (GPa) = 30.25751 33.95918 32.10835
#
# Velocity S-wave (km/s) = 3.71411 3.93475 3.82602
# Velocity P-wave (km/s) = 6.89913 7.25742 7.08054
#
# Compressibility (1/GPa) = 0.01561048
#
# Stress axis : x y z
#
# Youngs Moduli (GPa) = 69.50215 80.04132 81.22912
#
# Poissons Ratio (x) = 0.29722 0.35644
# Poissons Ratio (y) = 0.25809 0.29970
# Poissons Ratio (z) = 0.30498 0.29532
#
# Static dielectric constant tensor:
#      x y z
#    x 1.768590 0.031810 -0.010100 
#    y 0.031810 1.862190 0.031350 
#    z -0.010100 0.031350 1.825600 
# 
# From -- ./inp_files/319487.got.cif
#   From: 2010.05.17/outbox.cif.g08.bks.cpg/sg2_160_cif.got.tgz:319487.got - 2010.06.03 11:33:40.
