data_PCOD9022418
_publ_section_title
;
Structure prediction by ZEFSAII (Michael W. Deem and Ramdas Pophale) SiO2 
 PCOD9022418
Probable space group: P -1
;
_chemical_formula_sum "Si O2"
_cell_formula_units_Z 14
_cell_length_a 20.210162
_cell_length_b 12.025518
_cell_length_c 5.348298
_cell_angle_alpha 91.673136
_cell_angle_beta 84.062999
_cell_angle_gamma 152.358312
_cell_volume 594.298076
_symmetry_space_group_name_H-M "P -1"
_symmetry_group_IT_number 2
_symmetry_cell_setting 'triclinic'
loop_
_space_group_symop_operation_xyz
x,y,z
-x,-y,-z
loop_
_atom_site_type_symbol
_atom_site_label
_atom_site_fract_x
_atom_site_fract_y
_atom_site_fract_z
Si Si1 0.041988 0.493708 0.731573
Si Si2 0.660589 0.996262 0.286875
Si Si3 0.437146 0.843615 0.265246
Si Si4 0.258814 0.307966 0.851299
Si Si5 0.168573 0.292214 0.388337
Si Si6 0.437074 0.320558 0.315528
Si Si7 0.197001 0.000802 0.047077
O O1 0.000000 0.500000 0.500000
O O2 0.949713 0.246015 0.773647
O O3 0.211664 0.727234 0.696096
O O4 0.000000 0.500000 0.000000
O O5 0.521624 0.851147 0.231389
O O6 0.633842 0.891556 0.545290
O O7 0.727182 0.997575 0.090044
O O8 0.264401 0.552776 0.335781
O O9 0.500000 0.000000 0.500000
O O10 0.500000 0.000000 0.000000
O O11 0.249689 0.357832 0.598104
O O12 0.423981 0.522253 0.863256
O O13 0.191764 0.274743 0.104608
O O14 0.179321 0.069948 0.856066
O O15 0.000000 0.000000 0.500000
O O16 0.500000 0.500000 0.500000
O O17 0.315449 0.208906 0.216282
#
# Coordination Sequence:
#
# PCOD9022418 Si02
#       7
#     2   2   2   2   2   2   2
#     4  10  22  39  61  95 137 182 220 267 337 421
#     4  11  24  43  70  97 142 184 228 286 358 423
#     4  12  29  50  74 102 138 193 253 298 352 426
#     4  12  25  43  74 111 142 182 236 295 362 435
#     4  12  28  51  76 104 145 192 247 308 359 415
#     4  12  22  39  68 108 144 181 223 280 361 435
#     4  11  24  39  69 107 147 175 227 286 364 433
#
# _framework density 23.557200000000002
#
# number of rings (size 3 to 8) (size 9 to 14) (size 15 to 20)
#    0.000    0.571    4.286    3.429    2.000    2.286 
#    0.000    0.000    0.000    0.000    0.000    0.000 
#    0.000    0.000    0.000    0.000    0.000    0.000 
#
# Total GULP energy -78048.634691 kJ/mol
# GULP energy per Si atom -5574.902478 kJ/mol
# Density = 2.350358 g / cm^3
# Si number density = 23.557200 Si / 1000 Ang^3
#
#
#
# Elastic Constant Matrix: (Units=GPa)
#
#
# Indices 1 2 3 4 5 6 
#
# 1 28.5815 16.5811 27.7815 -5.6089 6.9760 -20.1860
# 2 16.5811 151.8838 49.5425 -29.6092 -1.6877 8.5210
# 3 27.7815 49.5425 136.1701 -14.8920 21.6577 -13.2507
# 4 -5.6089 -29.6092 -14.8920 48.0111 -9.6978 -5.1030
# 5 6.9760 -1.6877 21.6577 -9.6978 43.6330 -4.4880
# 6 -20.1860 8.5210 -13.2507 -5.1030 -4.4880 16.0201
#
#
#
# Elastic Compliance Matrix: (Units=1/GPa)
#
#
# Indices 1 2 3 4 5 6 
#
# 1 -0.319143 0.049791 -0.002122 -0.055955 -0.004668 -0.449504
# 2 0.049791 0.001243 -0.003458 0.013012 0.003309 0.064289
# 3 -0.002122 -0.003458 0.010441 0.000764 -0.004098 0.006897
# 4 -0.055955 0.013012 0.000764 0.016205 0.005461 -0.070103
# 5 -0.004668 0.003309 -0.004098 0.005461 0.026859 -0.001768
# 6 -0.449504 0.064289 0.006897 -0.070103 -0.001768 -0.555288
#
#
# Mechanical properties :
#
#
# Convention : Reuss Voigt Hill
#
# Bulk Modulus (GPa) = -4.56546 56.04950 25.74202
# Shear Modulus (GPa) = -5.09623 36.38152 15.64265
#
# Velocity S-wave (km/s) = -1.47243 3.93414 2.57967
# Velocity P-wave (km/s) = 2.19840 6.66942 4.45243
#
# Compressibility (1/GPa) = -0.21903598
#
# Stress axis : x y z
#
# Youngs Moduli (GPa) = -3.13339 804.55536 95.77547
#
# Poissons Ratio (x) = -40.05942 0.20319
# Poissons Ratio (y) = 0.15601 0.33117
# Poissons Ratio (z) = -0.00665 2.78196
#
# Static dielectric constant tensor:
#      x y z
#    x 1.868720 -0.042310 0.010120 
#    y -0.042310 2.005380 -0.008800 
#    z 0.010120 -0.008800 1.944730 
# 
# From -- ./inp_files/118217.got.cif
#   From: 2010.05.17/outbox.cif.g08.bks.cpg/sg2_60_cif.got.tgz:118217.got - 2010.06.03 11:33:40.
