data_PCOD9022192
_publ_section_title
;
Structure prediction by ZEFSAII (Michael W. Deem and Ramdas Pophale) SiO2 
 PCOD9022192
Probable space group: P -1
;
_chemical_formula_sum "Si O2"
_cell_formula_units_Z 14
_cell_length_a 10.933310
_cell_length_b 12.483189
_cell_length_c 10.514256
_cell_angle_alpha 72.745949
_cell_angle_beta 38.691369
_cell_angle_gamma 102.821943
_cell_volume 557.259002
_symmetry_space_group_name_H-M "P -1"
_symmetry_group_IT_number 2
_symmetry_cell_setting 'triclinic'
loop_
_space_group_symop_operation_xyz
x,y,z
-x,-y,-z
loop_
_atom_site_type_symbol
_atom_site_label
_atom_site_fract_x
_atom_site_fract_y
_atom_site_fract_z
Si Si1 0.724819 0.491931 0.326092
Si Si2 0.475828 0.359396 0.099583
Si Si3 0.233242 0.829765 0.959985
Si Si4 0.889459 0.101750 0.358842
Si Si5 0.498425 0.154493 0.021478
Si Si6 0.139882 0.987658 0.136408
Si Si7 0.028852 0.421293 0.174355
O O1 0.500000 0.500000 0.500000
O O2 0.738157 0.375173 0.424248
O O3 0.771626 0.472869 0.150417
O O4 0.009783 0.673686 0.101001
O O5 0.507878 0.292861 0.975202
O O6 0.172048 0.193239 0.480641
O O7 0.500000 0.500000 0.000000
O O8 0.765022 0.460332 0.915794
O O9 0.245807 0.783066 0.112608
O O10 0.573336 0.963487 0.590447
O O11 0.167974 0.931223 0.004191
O O12 0.977756 0.266478 0.256666
O O13 0.799231 0.011865 0.600515
O O14 0.103275 0.105791 0.117416
O O15 0.425726 0.084762 0.962918
#
# Coordination Sequence:
#
# PCOD9022192 Si02
#       7
#     2   2   2   2   2   2   2
#     4  11  24  42  64  84 120 159 203 248 294 352
#     4  11  20  36  65  91 124 156 193 241 303 359
#     4  10  22  39  59  86 115 155 203 243 288 347
#     4   9  21  37  62  85 121 150 201 242 295 351
#     4   9  19  37  57  87 123 153 196 239 291 355
#     4  11  19  37  62  86 123 161 189 240 299 352
#     4  11  22  42  62  90 120 157 197 249 299 346
#
# _framework density 25.122966999999999
#
# number of rings (size 3 to 8) (size 9 to 14) (size 15 to 20)
#    0.857    0.857    1.429    4.714    0.000    2.857 
#    0.000    3.571    0.000    0.000    0.000    0.000 
#    0.000    0.000    0.000    0.000    0.000    0.000 
#
# Total GULP energy -78136.624646 kJ/mol
# GULP energy per Si atom -5581.187475 kJ/mol
# Density = 2.506579 g / cm^3
# Si number density = 25.122967 Si / 1000 Ang^3
#
#
#
# Elastic Constant Matrix: (Units=GPa)
#
#
# Indices 1 2 3 4 5 6 
#
# 1 84.5214 38.3850 29.8912 -7.2518 -17.1252 -20.7628
# 2 38.3850 148.8145 15.2788 -5.5839 -13.4725 -21.3540
# 3 29.8912 15.2788 51.1437 4.2115 -19.2979 -11.2908
# 4 -7.2518 -5.5839 4.2115 43.7074 -2.4973 -11.2248
# 5 -17.1252 -13.4725 -19.2979 -2.4973 27.8972 3.3653
# 6 -20.7628 -21.3540 -11.2908 -11.2248 3.3653 43.0954
#
#
#
# Elastic Compliance Matrix: (Units=1/GPa)
#
#
# Indices 1 2 3 4 5 6 
#
# 1 0.018685 -0.002419 -0.007253 0.005561 0.004942 0.006966
# 2 -0.002419 0.008026 0.000537 0.001526 0.002519 0.003153
# 3 -0.007253 0.000537 0.030683 -0.002406 0.016467 0.002898
# 4 0.005561 0.001526 -0.002406 0.026887 0.003745 0.009516
# 5 0.004942 0.002519 0.016467 0.003745 0.051229 0.004918
# 6 0.006966 0.003153 0.002898 0.009516 0.004918 0.030976
#
#
# Mechanical properties :
#
#
# Convention : Reuss Voigt Hill
#
# Bulk Modulus (GPa) = 25.56054 50.17661 37.86858
# Shear Modulus (GPa) = 25.27850 36.33498 30.80674
#
# Velocity S-wave (km/s) = 3.17549 3.80713 3.50557
# Velocity P-wave (km/s) = 4.86223 6.27228 5.61172
#
# Compressibility (1/GPa) = 0.03912280
#
# Stress axis : x y z
#
# Youngs Moduli (GPa) = 53.52004 124.58907 32.59183
#
# Poissons Ratio (x) = 0.30141 0.23639
# Poissons Ratio (y) = 0.12948 -0.01750
# Poissons Ratio (z) = 0.38818 -0.06690
#
# Static dielectric constant tensor:
#      x y z
#    x 2.070280 -0.085160 0.026920 
#    y -0.085160 1.924280 0.008380 
#    z 0.026920 0.008380 2.022090 
# 
# From -- ./inp_files/425753.got.cif
#   From: 2010.05.17/outbox.cif.g08.bks.cpg/sg2_213_cif.got.tgz:425753.got - 2010.06.03 11:33:40.
