data_PCOD9022644
_publ_section_title
;
Structure prediction by ZEFSAII (Michael W. Deem and Ramdas Pophale) SiO2 
 PCOD9022644
Probable space group: P -1
;
_chemical_formula_sum "Si O2"
_cell_formula_units_Z 16
_cell_length_a 20.912208
_cell_length_b 5.350962
_cell_length_c 12.826503
_cell_angle_alpha 84.348643
_cell_angle_beta 33.053220
_cell_angle_gamma 93.448637
_cell_volume 751.625218
_symmetry_space_group_name_H-M "P -1"
_symmetry_group_IT_number 2
_symmetry_cell_setting 'triclinic'
loop_
_space_group_symop_operation_xyz
x,y,z
-x,-y,-z
loop_
_atom_site_type_symbol
_atom_site_label
_atom_site_fract_x
_atom_site_fract_y
_atom_site_fract_z
Si Si1 0.540299 0.225827 0.518594
Si Si2 0.377854 0.493749 0.968955
Si Si3 0.946794 0.687863 0.182962
Si Si4 0.703417 0.586225 0.142560
Si Si5 0.618855 0.876278 0.562649
Si Si6 0.630708 0.045430 0.882442
Si Si7 0.831698 0.874612 0.130394
Si Si8 0.173604 0.903533 0.565131
O O1 0.671050 0.368741 0.286017
O O2 0.427004 0.345885 0.679175
O O3 0.500000 0.000000 0.500000
O O4 0.552091 0.093505 0.616524
O O5 0.294194 0.484182 0.979511
O O6 0.518759 0.621446 0.741531
O O7 0.354107 0.699546 0.077161
O O8 0.368790 0.212775 0.041901
O O9 0.893679 0.724958 0.138360
O O10 0.903805 0.389631 0.289862
O O11 0.900284 0.880690 0.318982
O O12 0.089758 0.827554 0.977873
O O13 0.815529 0.791968 0.034488
O O14 0.695134 0.828079 0.361340
O O15 0.717069 0.998932 0.507530
O O16 0.750649 0.090793 0.644209
O O17 0.500000 0.000000 0.000000
#
# Coordination Sequence:
#
# PCOD9022644 Si02
#       8
#     2   2   2   2   2   2   2   2
#     4  11  19  34  53  90 130 175 197 232 305 397
#     4  12  25  39  61  97 129 163 208 249 317 382
#     4  10  24  43  64  94 121 165 216 256 304 368
#     4  11  22  35  58  87 135 167 204 253 306 375
#     4  11  21  36  64  92 135 165 197 249 313 386
#     4  12  26  42  65  91 122 165 213 261 314 371
#     4  10  22  39  63  93 125 167 208 247 305 380
#     4  11  24  42  66  85 124 163 207 276 310 344
#
# _framework density 21.287203999999999
#
# number of rings (size 3 to 8) (size 9 to 14) (size 15 to 20)
#    0.000    1.000    3.750    3.375    3.500    5.500 
#    0.000    0.000    0.000    4.500    0.000    0.000 
#    0.000    0.000    0.000    0.000    0.000    0.000 
#
# Total GULP energy -89231.742671 kJ/mol
# GULP energy per Si atom -5576.983917 kJ/mol
# Density = 2.123875 g / cm^3
# Si number density = 21.287204 Si / 1000 Ang^3
#
#
#
# Elastic Constant Matrix: (Units=GPa)
#
#
# Indices 1 2 3 4 5 6 
#
# 1 72.9042 36.8642 25.1912 -0.3089 3.7600 22.5022
# 2 36.8642 116.3859 41.3357 4.9830 19.9207 14.1834
# 3 25.1912 41.3357 104.9319 -4.2463 10.0196 1.3770
# 4 -0.3089 4.9830 -4.2463 46.5626 1.0366 7.5922
# 5 3.7600 19.9207 10.0196 1.0366 23.3081 2.4459
# 6 22.5022 14.1834 1.3770 7.5922 2.4459 38.1496
#
#
#
# Elastic Compliance Matrix: (Units=1/GPa)
#
#
# Indices 1 2 3 4 5 6 
#
# 1 0.020298 -0.004621 -0.003121 0.002028 0.003054 -0.010741
# 2 -0.004621 0.012864 -0.003165 -0.001319 -0.008712 -0.001122
# 3 -0.003121 -0.003165 0.011740 0.001024 -0.002149 0.002528
# 4 0.002028 -0.001319 0.001024 0.022579 -0.000095 -0.005230
# 5 0.003054 -0.008712 -0.002149 -0.000095 0.050967 -0.001733
# 6 -0.010741 -0.001122 0.002528 -0.005230 -0.001733 0.034026
#
#
# Mechanical properties :
#
#
# Convention : Reuss Voigt Hill
#
# Bulk Modulus (GPa) = 43.31381 55.66714 49.49047
# Shear Modulus (GPa) = 27.47477 34.32613 30.90045
#
# Velocity S-wave (km/s) = 3.59649 4.01998 3.81412
# Velocity P-wave (km/s) = 6.13497 6.91045 6.53422
#
# Compressibility (1/GPa) = 0.02308732
#
# Stress axis : x y z
#
# Youngs Moduli (GPa) = 49.26500 77.73461 85.18236
#
# Poissons Ratio (x) = 0.35924 0.26587
# Poissons Ratio (y) = 0.22767 0.26959
# Poissons Ratio (z) = 0.15377 0.24602
#
# Static dielectric constant tensor:
#      x y z
#    x 1.826170 0.025850 0.037670 
#    y 0.025850 1.900770 0.044210 
#    z 0.037670 0.044210 1.816760 
# 
# From -- ./inp_files/468346.got.cif
#   From: 2010.05.17/outbox.cif.g08.bks.cpg/sg2_235_cif.got.tgz:468346.got - 2010.06.03 11:33:40.
