data_PCOD9022259
_publ_section_title
;
Structure prediction by ZEFSAII (Michael W. Deem and Ramdas Pophale) SiO2 
 PCOD9022259
Probable space group: P -1
;
_chemical_formula_sum "Si O2"
_cell_formula_units_Z 16
_cell_length_a 9.351628
_cell_length_b 6.833206
_cell_length_c 20.857345
_cell_angle_alpha 87.754157
_cell_angle_beta 39.664141
_cell_angle_gamma 68.165605
_cell_volume 717.725156
_symmetry_space_group_name_H-M "P -1"
_symmetry_group_IT_number 2
_symmetry_cell_setting 'triclinic'
loop_
_space_group_symop_operation_xyz
x,y,z
-x,-y,-z
loop_
_atom_site_type_symbol
_atom_site_label
_atom_site_fract_x
_atom_site_fract_y
_atom_site_fract_z
Si Si1 0.844972 0.538550 0.225675
Si Si2 0.485060 0.021017 0.114546
Si Si3 0.938877 0.474227 0.338000
Si Si4 0.473169 0.284615 0.000146
Si Si5 0.315816 0.113172 0.500174
Si Si6 0.484020 0.018359 0.755666
Si Si7 0.895983 0.199401 0.461740
Si Si8 0.535434 0.638257 0.657593
O O1 0.808009 0.588345 0.314047
O O2 0.702761 0.770609 0.229644
O O3 0.711302 0.392338 0.260094
O O4 0.157757 0.390538 0.106163
O O5 0.602266 0.104151 0.017093
O O6 0.224803 0.259797 0.223297
O O7 0.625054 0.915526 0.134887
O O8 0.415400 0.854031 0.102913
O O9 0.937405 0.656923 0.384358
O O10 0.809710 0.359548 0.425413
O O11 0.500000 0.500000 0.000000
O O12 0.453033 0.200190 0.403217
O O13 0.500000 0.000000 0.500000
O O14 0.227890 0.956175 0.498389
O O15 0.785512 0.959274 0.647988
O O16 0.518000 0.776759 0.725377
O O17 0.786206 0.380431 0.556649
#
# Coordination Sequence:
#
# PCOD9022259 Si02
#       8
#     2   2   2   2   2   2   2   2
#     4  11  24  39  61  93 124 158 204 256 310 369
#     4   9  22  43  65  92 119 153 201 249 306 374
#     4   9  20  38  61  88 121 162 207 254 297 352
#     4  10  23  46  72  92 115 152 201 260 317 369
#     4  11  21  36  61  91 124 168 214 256 297 344
#     4  11  24  39  61  92 128 166 200 246 304 365
#     4  10  22  39  60  88 126 171 215 247 290 357
#     4  11  23  38  56  86 131 171 205 246 299 357
#
# _framework density 22.292655
#
# number of rings (size 3 to 8) (size 9 to 14) (size 15 to 20)
#    0.000    1.750    0.000    3.375    0.000   15.500 
#    0.000    1.250    0.000    0.000    0.000    0.000 
#    0.000    0.000    0.000    0.000    0.000    0.000 
#
# Total GULP energy -89392.218005 kJ/mol
# GULP energy per Si atom -5587.013625 kJ/mol
# Density = 2.224192 g / cm^3
# Si number density = 22.292655 Si / 1000 Ang^3
#
#
#
# Elastic Constant Matrix: (Units=GPa)
#
#
# Indices 1 2 3 4 5 6 
#
# 1 68.9013 38.8747 27.6337 -9.3227 29.3999 -11.0276
# 2 38.8747 126.1545 27.7893 0.5799 30.6059 8.5808
# 3 27.6337 27.7893 69.5094 10.2825 28.9269 -1.1250
# 4 -9.3227 0.5799 10.2825 28.3569 0.2745 8.7822
# 5 29.3999 30.6059 28.9269 0.2745 52.2464 1.0326
# 6 -11.0276 8.5808 -1.1250 8.7822 1.0326 44.9972
#
#
#
# Elastic Compliance Matrix: (Units=1/GPa)
#
#
# Indices 1 2 3 4 5 6 
#
# 1 0.025211 -0.004888 -0.005880 0.008924 -0.008222 0.005411
# 2 -0.004888 0.010560 -0.001119 -0.000433 -0.002752 -0.003092
# 3 -0.005880 -0.001119 0.022177 -0.010348 -0.008291 0.001537
# 4 0.008924 -0.000433 -0.010348 0.043994 0.000860 -0.006595
# 5 -0.008222 -0.002752 -0.008291 0.000860 0.030015 -0.002554
# 6 0.005411 -0.003092 0.001537 -0.006595 -0.002554 0.025523
#
#
# Mechanical properties :
#
#
# Convention : Reuss Voigt Hill
#
# Bulk Modulus (GPa) = 29.26153 50.35119 39.80636
# Shear Modulus (GPa) = 25.95441 36.47125 31.21283
#
# Velocity S-wave (km/s) = 3.41582 4.04916 3.74590
# Velocity P-wave (km/s) = 5.35833 6.67057 6.05013
#
# Compressibility (1/GPa) = 0.03417456
#
# Stress axis : x y z
#
# Youngs Moduli (GPa) = 39.66488 94.70091 45.09142
#
# Poissons Ratio (x) = 0.46291 0.26512
# Poissons Ratio (y) = 0.19389 0.05045
# Poissons Ratio (z) = 0.23322 0.10597
#
# Static dielectric constant tensor:
#      x y z
#    x 1.857670 -0.045900 0.034360 
#    y -0.045900 1.856040 0.014210 
#    z 0.034360 0.014210 1.862500 
# 
# From -- ./inp_files/553511.got.cif
#   From: 2010.05.17/outbox.cif.g08.bks.cpg/sg2_277_cif.got.tgz:553511.got - 2010.06.03 11:33:40.
