data_PCOD9022611
_publ_section_title
;
Structure prediction by ZEFSAII (Michael W. Deem and Ramdas Pophale) SiO2 
 PCOD9022611
Probable space group: P -1
;
_chemical_formula_sum "Si O2"
_cell_formula_units_Z 16
_cell_length_a 11.924966
_cell_length_b 14.803910
_cell_length_c 9.240235
_cell_angle_alpha 52.096970
_cell_angle_beta 126.916716
_cell_angle_gamma 139.680313
_cell_volume 804.408034
_symmetry_space_group_name_H-M "P -1"
_symmetry_group_IT_number 2
_symmetry_cell_setting 'triclinic'
loop_
_space_group_symop_operation_xyz
x,y,z
-x,-y,-z
loop_
_atom_site_type_symbol
_atom_site_label
_atom_site_fract_x
_atom_site_fract_y
_atom_site_fract_z
Si Si1 0.867008 0.970113 0.740991
Si Si2 0.854970 0.729736 0.480897
Si Si3 0.450340 0.266362 0.864901
Si Si4 0.464937 0.346738 0.135242
Si Si5 0.802667 0.033644 0.933371
Si Si6 0.856050 0.525342 0.901699
Si Si7 0.803687 0.502589 0.439321
Si Si8 0.952502 0.352392 0.784175
O O1 0.706185 0.795483 0.773459
O O2 0.795930 0.016038 0.771143
O O3 0.962236 0.105067 0.568449
O O4 0.035851 0.973771 0.904015
O O5 0.684979 0.729440 0.345250
O O6 0.879107 0.656445 0.705573
O O7 0.803593 0.617264 0.420397
O O8 0.653817 0.380936 0.861518
O O9 0.442943 0.301915 0.993590
O O10 0.369813 0.099415 0.984121
O O11 0.634200 0.391681 0.315637
O O12 0.500000 0.500000 0.000000
O O13 0.846571 0.181189 0.876919
O O14 0.000000 0.500000 0.000000
O O15 0.889318 0.566674 0.056116
O O16 0.839208 0.410377 0.656376
O O17 0.967724 0.602934 0.358326
#
# Coordination Sequence:
#
# PCOD9022611 Si02
#       8
#     2   2   2   2   2   2   2   2
#     4   9  19  34  61  95 122 151 190 256 316 351
#     4  11  21  41  63  91 127 158 200 251 309 362
#     4  10  22  39  63  91 119 160 203 253 306 357
#     4  11  19  34  64  99 119 144 203 258 301 352
#     4   9  18  37  62  88 121 153 196 252 308 356
#     4  12  25  42  60  87 126 169 206 244 306 367
#     4  11  21  36  62  93 119 157 205 257 296 364
#     4  11  22  39  60  89 122 163 209 242 307 362
#
# _framework density 19.890401000000001
#
# number of rings (size 3 to 8) (size 9 to 14) (size 15 to 20)
#    0.000    1.500    5.000    1.875    0.000    0.000 
#    2.250    5.625    0.000    0.000    0.000    0.000 
#    0.000    0.000    0.000    0.000    0.000    0.000 
#
# Total GULP energy -89118.988018 kJ/mol
# GULP energy per Si atom -5569.936751 kJ/mol
# Density = 1.984513 g / cm^3
# Si number density = 19.890401 Si / 1000 Ang^3
#
#
#
# Elastic Constant Matrix: (Units=GPa)
#
#
# Indices 1 2 3 4 5 6 
#
# 1 36.1069 22.2670 17.0472 -17.7481 4.8827 15.2567
# 2 22.2670 117.4196 30.1026 -36.2908 11.3342 23.0076
# 3 17.0472 30.1026 104.1473 -12.4870 6.9526 18.2614
# 4 -17.7481 -36.2908 -12.4870 30.6973 1.2182 -8.6281
# 5 4.8827 11.3342 6.9526 1.2182 12.5365 4.3449
# 6 15.2567 23.0076 18.2614 -8.6281 4.3449 31.9415
#
#
#
# Elastic Compliance Matrix: (Units=1/GPa)
#
#
# Indices 1 2 3 4 5 6 
#
# 1 0.049934 0.005873 -0.001941 0.031497 -0.021350 -0.015559
# 2 0.005873 0.017659 -0.001038 0.022759 -0.017678 -0.006379
# 3 -0.001941 -0.001038 0.011290 0.001252 -0.003305 -0.003992
# 4 0.031497 0.022759 0.001252 0.078148 -0.039150 -0.005719
# 5 -0.021350 -0.017678 -0.003305 -0.039150 0.109948 -0.000711
# 6 -0.015559 -0.006379 -0.003992 -0.005719 -0.000711 0.044168
#
#
# Mechanical properties :
#
#
# Convention : Reuss Voigt Hill
#
# Bulk Modulus (GPa) = 11.81044 44.05636 27.93340
# Shear Modulus (GPa) = 14.98870 27.58554 21.28712
#
# Velocity S-wave (km/s) = 2.74809 3.72812 3.27497
# Velocity P-wave (km/s) = 4.00250 6.38197 5.32679
#
# Compressibility (1/GPa) = 0.08467087
#
# Stress axis : x y z
#
# Youngs Moduli (GPa) = 20.02644 56.62732 88.57155
#
# Poissons Ratio (x) = -0.33255 0.17191
# Poissons Ratio (y) = -0.11761 0.09194
# Poissons Ratio (z) = 0.03887 0.05878
#
# Static dielectric constant tensor:
#      x y z
#    x 1.732390 -0.000730 -0.013060 
#    y -0.000730 1.737170 0.004130 
#    z -0.013060 0.004130 1.738320 
# 
# From -- ./inp_files/186824.got.cif
#   From: 2010.05.17/outbox.cif.g08.bks.cpg/sg2_94_cif.got.tgz:186824.got - 2010.06.03 11:33:40.
