data_PCOD9022982
_publ_section_title
;
Structure prediction by ZEFSAII (Michael W. Deem and Ramdas Pophale) SiO2 
 PCOD9022982
Probable space group: P -1
;
_chemical_formula_sum "Si O2"
_cell_formula_units_Z 16
_cell_length_a 19.355567
_cell_length_b 7.794612
_cell_length_c 10.029184
_cell_angle_alpha 71.631297
_cell_angle_beta 35.059297
_cell_angle_gamma 56.877310
_cell_volume 699.916658
_symmetry_space_group_name_H-M "P -1"
_symmetry_group_IT_number 2
_symmetry_cell_setting 'triclinic'
loop_
_space_group_symop_operation_xyz
x,y,z
-x,-y,-z
loop_
_atom_site_type_symbol
_atom_site_label
_atom_site_fract_x
_atom_site_fract_y
_atom_site_fract_z
Si Si1 0.556180 0.451756 0.571893
Si Si2 0.236054 0.017605 0.022661
Si Si3 0.632991 0.641842 0.927295
Si Si4 0.022120 0.669182 0.060338
Si Si5 0.471627 0.915675 0.868571
Si Si6 0.957901 0.433019 0.445432
Si Si7 0.689520 0.728031 0.356792
Si Si8 0.170897 0.899382 0.883781
O O1 0.500000 0.500000 0.500000
O O2 0.600282 0.619750 0.493771
O O3 0.699532 0.220890 0.394013
O O4 0.446181 0.448280 0.843671
O O5 0.296462 0.148884 0.819491
O O6 0.348457 0.903391 0.990500
O O7 0.220931 0.886058 0.959614
O O8 0.080910 0.190527 0.279896
O O9 0.555448 0.727366 0.887830
O O10 0.800458 0.479301 0.692401
O O11 0.604696 0.854640 0.996267
O O12 0.958910 0.575316 0.286279
O O13 0.151276 0.472629 0.824179
O O14 0.085259 0.782384 0.024198
O O15 0.919079 0.854185 0.076557
O O16 0.596635 0.889565 0.580409
O O17 0.000000 0.500000 0.500000
#
# Coordination Sequence:
#
# PCOD9022982 Si02
#       8
#     2   2   2   2   2   2   2   2
#     4  11  23  41  67  91 125 166 215 267 319 381
#     4  11  22  40  70  98 127 171 215 263 317 380
#     4  11  26  41  66  93 131 177 207 263 331 373
#     4   9  23  42  65  97 128 170 217 259 321 381
#     4  11  23  41  62  99 128 166 218 264 315 381
#     4  11  24  43  65  91 136 171 213 262 319 390
#     4  10  22  39  65  95 127 165 216 267 309 378
#     4  10  22  41  69  96 127 166 218 269 313 371
#
# _framework density 22.859866
#
# number of rings (size 3 to 8) (size 9 to 14) (size 15 to 20)
#    0.000    1.500    1.250    2.625   10.500    1.500 
#    0.000    1.875    0.000    0.000    0.000    0.000 
#    0.000    0.000    0.000    0.000    0.000    0.000 
#
# Total GULP energy -89582.749861 kJ/mol
# GULP energy per Si atom -5598.921866 kJ/mol
# Density = 2.280784 g / cm^3
# Si number density = 22.859866 Si / 1000 Ang^3
#
#
#
# Elastic Constant Matrix: (Units=GPa)
#
#
# Indices 1 2 3 4 5 6 
#
# 1 121.3179 26.5324 33.9893 3.8559 -6.0892 -6.5341
# 2 26.5324 44.6825 21.0287 14.2639 -9.8689 -0.8431
# 3 33.9893 21.0287 151.0939 10.7271 -14.9092 -9.9816
# 4 3.8559 14.2639 10.7271 38.2319 5.2325 -3.6289
# 5 -6.0892 -9.8689 -14.9092 5.2325 28.3778 0.6954
# 6 -6.5341 -0.8431 -9.9816 -3.6289 0.6954 35.8713
#
#
#
# Elastic Compliance Matrix: (Units=1/GPa)
#
#
# Indices 1 2 3 4 5 6 
#
# 1 0.009959 -0.006051 -0.001561 0.001993 -0.001190 0.001462
# 2 -0.006051 0.033520 -0.001297 -0.013418 0.012207 -0.002269
# 3 -0.001561 -0.001297 0.007741 -0.001872 0.003588 0.001580
# 4 0.001993 -0.013418 -0.001872 0.033350 -0.011448 0.003122
# 5 -0.001190 0.012207 0.003588 -0.011448 0.043247 -0.000928
# 6 0.001462 -0.002269 0.001580 0.003122 -0.000928 0.028864
#
#
# Mechanical properties :
#
#
# Convention : Reuss Voigt Hill
#
# Bulk Modulus (GPa) = 29.93630 53.35502 41.64566
# Shear Modulus (GPa) = 26.93505 36.19913 31.56709
#
# Velocity S-wave (km/s) = 3.43632 3.98367 3.72007
# Velocity P-wave (km/s) = 5.37293 6.67459 6.05882
#
# Compressibility (1/GPa) = 0.03340426
#
# Stress axis : x y z
#
# Youngs Moduli (GPa) = 100.41192 29.83296 129.17805
#
# Poissons Ratio (x) = 0.18051 0.20159
# Poissons Ratio (y) = 0.60755 0.16752
# Poissons Ratio (z) = 0.15670 0.03869
#
# Static dielectric constant tensor:
#      x y z
#    x 2.743280 0.465220 0.243860 
#    y 0.465220 2.098060 0.178320 
#    z 0.243860 0.178320 1.905290 
# 
# From -- ./inp_files/274619.got.cif
#   From: 2010.05.17/outbox.cif.g08.bks.cpg/sg2_138_cif.got.tgz:274619.got - 2010.06.03 11:33:40.
