data_PCOD9022882
_publ_section_title
;
Structure prediction by ZEFSAII (Michael W. Deem and Ramdas Pophale) SiO2 
 PCOD9022882
Probable space group: P -1
;
_chemical_formula_sum "Si O2"
_cell_formula_units_Z 14
_cell_length_a 11.414586
_cell_length_b 12.454901
_cell_length_c 13.284077
_cell_angle_alpha 123.001608
_cell_angle_beta 157.523241
_cell_angle_gamma 56.883141
_cell_volume 600.035378
_symmetry_space_group_name_H-M "P -1"
_symmetry_group_IT_number 2
_symmetry_cell_setting 'triclinic'
loop_
_space_group_symop_operation_xyz
x,y,z
-x,-y,-z
loop_
_atom_site_type_symbol
_atom_site_label
_atom_site_fract_x
_atom_site_fract_y
_atom_site_fract_z
Si Si1 0.848368 0.157262 0.743076
Si Si2 0.707956 0.964083 0.808440
Si Si3 0.147662 0.975908 0.714105
Si Si4 0.186342 0.435260 0.857296
Si Si5 0.191806 0.584728 0.263360
Si Si6 0.731168 0.785154 0.355065
Si Si7 0.769630 0.576076 0.437116
O O1 0.543723 0.091108 0.489487
O O2 0.741338 0.300436 0.696301
O O3 0.983664 0.081071 0.713525
O O4 0.127678 0.140448 0.035235
O O5 0.532338 0.090550 0.790714
O O6 0.000000 0.000000 0.000000
O O7 0.000000 0.000000 0.500000
O O8 0.052432 0.840576 0.611865
O O9 0.500000 0.000000 0.000000
O O10 0.307295 0.324385 0.814864
O O11 0.013023 0.373703 0.779132
O O12 0.944820 0.543389 0.664062
O O13 0.460342 0.509072 0.153207
O O14 0.500000 0.500000 0.500000
O O15 0.000000 0.500000 0.000000
O O16 0.723109 0.719098 0.425158
O O17 0.000000 0.500000 0.500000
#
# Coordination Sequence:
#
# PCOD9022882 Si02
#       7
#     2   2   2   2   2   2   2
#     4  11  25  45  65  97 132 167 222 267 317 397
#     4  11  25  44  69  98 133 173 213 267 328 386
#     4  11  23  39  65  97 129 169 211 266 325 378
#     4  11  24  43  67  98 133 172 218 271 322 383
#     4  12  27  46  68  95 130 175 219 268 327 385
#     4  10  23  42  68 100 133 172 216 266 326 388
#     4  10  22  39  64  99 135 170 217 269 321 383
#
# _framework density 23.331956999999999
#
# number of rings (size 3 to 8) (size 9 to 14) (size 15 to 20)
#    0.000    1.143    0.000    6.429    0.000   17.143 
#    0.000    1.429    0.000    0.000    0.000    0.000 
#    0.000    0.000    0.000    0.000    0.000    0.000 
#
# Total GULP energy -78354.694238 kJ/mol
# GULP energy per Si atom -5596.763874 kJ/mol
# Density = 2.327885 g / cm^3
# Si number density = 23.331957 Si / 1000 Ang^3
#
#
#
# Elastic Constant Matrix: (Units=GPa)
#
#
# Indices 1 2 3 4 5 6 
#
# 1 57.2421 8.8065 16.9786 -2.2308 10.0584 3.1557
# 2 8.8065 107.4157 38.8813 -8.4213 6.0801 25.1746
# 3 16.9786 38.8813 169.3712 -5.9540 11.2008 10.5607
# 4 -2.2308 -8.4213 -5.9540 35.6559 11.9842 -1.2683
# 5 10.0584 6.0801 11.2008 11.9842 42.3078 -0.1275
# 6 3.1557 25.1746 10.5607 -1.2683 -0.1275 30.2258
#
#
#
# Elastic Compliance Matrix: (Units=1/GPa)
#
#
# Indices 1 2 3 4 5 6 
#
# 1 0.018921 -0.000332 -0.001346 0.002450 -0.004792 -0.001146
# 2 -0.000332 0.012704 -0.002034 0.002995 -0.002086 -0.009718
# 3 -0.001346 -0.002034 0.006666 0.001017 -0.001442 -0.000458
# 4 0.002450 0.002995 0.001017 0.032544 -0.010506 -0.001785
# 5 -0.004792 -0.002086 -0.001442 -0.010506 0.028440 0.002421
# 6 -0.001146 -0.009718 -0.000458 -0.001785 0.002421 0.041394
#
#
# Mechanical properties :
#
#
# Convention : Reuss Voigt Hill
#
# Bulk Modulus (GPa) = 32.39792 51.48464 41.94128
# Shear Modulus (GPa) = 31.56957 39.59540 35.58249
#
# Velocity S-wave (km/s) = 3.68239 4.12399 3.90943
# Velocity P-wave (km/s) = 5.65648 6.69257 6.19622
#
# Compressibility (1/GPa) = 0.03086618
#
# Stress axis : x y z
#
# Youngs Moduli (GPa) = 52.85239 78.71775 150.02311
#
# Poissons Ratio (x) = 0.02614 0.20193
# Poissons Ratio (y) = 0.01755 0.30511
# Poissons Ratio (z) = 0.07114 0.16009
#
# Static dielectric constant tensor:
#      x y z
#    x 1.983720 -0.044010 0.137790 
#    y -0.044010 2.004830 -0.116840 
#    z 0.137790 -0.116840 2.042710 
# 
# From -- ./inp_files/519892.got.cif
#   From: 2010.05.17/outbox.cif.g08.bks.cpg/sg2_260_cif.got.tgz:519892.got - 2010.06.03 11:33:40.
