data_PCOD9022420
_publ_section_title
;
Structure prediction by ZEFSAII (Michael W. Deem and Ramdas Pophale) SiO2 
 PCOD9022420
Probable space group: P -1
;
_chemical_formula_sum "Si O2"
_cell_formula_units_Z 14
_cell_length_a 15.390757
_cell_length_b 9.110528
_cell_length_c 5.920944
_cell_angle_alpha 86.091834
_cell_angle_beta 109.014818
_cell_angle_gamma 140.541134
_cell_volume 475.030974
_symmetry_space_group_name_H-M "P -1"
_symmetry_group_IT_number 2
_symmetry_cell_setting 'triclinic'
loop_
_space_group_symop_operation_xyz
x,y,z
-x,-y,-z
loop_
_atom_site_type_symbol
_atom_site_label
_atom_site_fract_x
_atom_site_fract_y
_atom_site_fract_z
Si Si1 0.365889 0.025183 0.443304
Si Si2 0.412675 0.794927 0.762682
Si Si3 0.021750 0.722255 0.651247
Si Si4 0.678377 0.763640 0.151416
Si Si5 0.129172 0.175505 0.342991
Si Si6 0.660928 0.496765 0.878955
Si Si7 0.963151 0.256670 0.834537
O O1 0.463015 0.134695 0.284661
O O2 0.484019 0.259298 0.686007
O O3 0.209525 0.907009 0.299402
O O4 0.342282 0.829948 0.539163
O O5 0.316490 0.568806 0.868882
O O6 0.500000 0.000000 0.000000
O O7 0.207195 0.952697 0.777504
O O8 0.969683 0.603356 0.367981
O O9 0.979139 0.619285 0.881391
O O10 0.973378 0.834579 0.613970
O O11 0.744063 0.752443 0.414757
O O12 0.500000 0.500000 0.000000
O O13 0.720321 0.734073 0.956832
O O14 0.238248 0.417733 0.255230
O O15 0.036911 0.922318 0.177051
#
# Coordination Sequence:
#
# PCOD9022420 Si02
#       7
#     2   2   2   2   2   2   2
#     4  10  22  39  61  96 123 165 214 274 326 379
#     4   9  21  39  61  88 127 164 209 269 336 387
#     4  11  25  42  62  94 137 181 214 252 319 388
#     4  11  23  36  59  92 134 166 212 264 316 379
#     4  11  24  39  60  94 133 177 211 254 318 388
#     4  11  21  34  62  90 126 163 211 265 318 386
#     4  11  23  39  66  90 129 172 218 259 312 381
#
# _framework density 29.471761000000001
#
# number of rings (size 3 to 8) (size 9 to 14) (size 15 to 20)
#    0.000    1.429    1.429    4.714   10.000    1.143 
#    0.000    0.000    0.000    1.714    0.000    0.000 
#    0.000    0.000    0.000    0.000    0.000    0.000 
#
# Total GULP energy -78267.117114 kJ/mol
# GULP energy per Si atom -5590.508365 kJ/mol
# Density = 2.940468 g / cm^3
# Si number density = 29.471761 Si / 1000 Ang^3
#
#
#
# Elastic Constant Matrix: (Units=GPa)
#
#
# Indices 1 2 3 4 5 6 
#
# 1 69.3002 20.6616 39.7862 -9.0967 7.8935 17.6434
# 2 20.6616 91.1302 56.2273 -3.9943 4.6048 3.1195
# 3 39.7862 56.2273 175.3647 -12.9608 -18.6095 10.4646
# 4 -9.0967 -3.9943 -12.9608 81.9776 5.5458 3.9592
# 5 7.8935 4.6048 -18.6095 5.5458 67.6420 9.9130
# 6 17.6434 3.1195 10.4646 3.9592 9.9130 54.4402
#
#
#
# Elastic Compliance Matrix: (Units=1/GPa)
#
#
# Indices 1 2 3 4 5 6 
#
# 1 0.018761 -0.001692 -0.003542 0.001847 -0.002469 -0.004987
# 2 -0.001692 0.014174 -0.004453 -0.000105 -0.002129 0.000987
# 3 -0.003542 -0.004453 0.008349 0.000540 0.003087 -0.000803
# 4 0.001847 -0.000105 0.000540 0.012614 -0.000881 -0.001453
# 5 -0.002469 -0.002129 0.003087 -0.000881 0.016522 -0.002616
# 6 -0.004987 0.000987 -0.000803 -0.001453 -0.002616 0.020665
#
#
# Mechanical properties :
#
#
# Convention : Reuss Voigt Hill
#
# Bulk Modulus (GPa) = 45.64077 63.23836 54.43956
# Shear Modulus (GPa) = 42.45858 55.41996 48.93927
#
# Velocity S-wave (km/s) = 3.79971 4.34111 4.07940
# Velocity P-wave (km/s) = 5.89663 6.82868 6.37970
#
# Compressibility (1/GPa) = 0.02191023
#
# Stress axis : x y z
#
# Youngs Moduli (GPa) = 53.30110 70.55301 119.77092
#
# Poissons Ratio (x) = 0.11936 0.42422
# Poissons Ratio (y) = 0.09018 0.53337
# Poissons Ratio (z) = 0.18879 0.31419
#
# Static dielectric constant tensor:
#      x y z
#    x 2.432400 0.033170 0.015160 
#    y 0.033170 2.332520 -0.064760 
#    z 0.015160 -0.064760 2.378950 
# 
# From -- ./inp_files/77446.got.cif
#   From: 2010.05.17/outbox.cif.g08.bks.cpg/sg2_39_cif.got.tgz:77446.got - 2010.06.03 11:33:40.
