data_PCOD9022428
_publ_section_title
;
Structure prediction by ZEFSAII (Michael W. Deem and Ramdas Pophale) SiO2 
 PCOD9022428
Probable space group: P -1
;
_chemical_formula_sum "Si O2"
_cell_formula_units_Z 14
_cell_length_a 20.349010
_cell_length_b 5.052074
_cell_length_c 5.644472
_cell_angle_alpha 84.405319
_cell_angle_beta 115.863258
_cell_angle_gamma 88.254215
_cell_volume 517.939940
_symmetry_space_group_name_H-M "P -1"
_symmetry_group_IT_number 2
_symmetry_cell_setting 'triclinic'
loop_
_space_group_symop_operation_xyz
x,y,z
-x,-y,-z
loop_
_atom_site_type_symbol
_atom_site_label
_atom_site_fract_x
_atom_site_fract_y
_atom_site_fract_z
Si Si1 0.566821 0.952182 0.431813
Si Si2 0.612423 0.446163 0.240760
Si Si3 0.680122 0.772865 0.971613
Si Si4 0.759161 0.116421 0.455713
Si Si5 0.816967 0.675958 0.948590
Si Si6 0.097291 0.711381 0.252739
Si Si7 0.958682 0.840292 0.254566
O O1 0.579639 0.663180 0.357033
O O2 0.500000 0.000000 0.500000
O O3 0.569389 0.183300 0.218245
O O4 0.638816 0.971992 0.704502
O O5 0.616788 0.599318 0.986971
O O6 0.699334 0.354671 0.413757
O O7 0.745880 0.585061 0.975259
O O8 0.717703 0.938291 0.220586
O O9 0.837713 0.202488 0.482639
O O10 0.782982 0.939685 0.737265
O O11 0.883156 0.728203 0.225437
O O12 0.859268 0.498887 0.831334
O O13 0.023186 0.634465 0.269118
O O14 0.069052 0.958082 0.017408
O O15 0.000000 0.000000 0.500000
#
# Coordination Sequence:
#
# PCOD9022428 Si02
#       7
#     2   2   2   2   2   2   2
#     4  12  29  52  78 112 155 195 245 308 373 450
#     4  12  26  51  74 115 151 192 252 305 368 452
#     4  12  25  44  78 105 149 197 248 306 377 447
#     4  11  23  44  69 105 144 187 254 302 370 441
#     4  11  23  43  68 101 144 196 246 314 374 441
#     4  10  22  39  64  97 143 190 247 317 366 440
#     4  10  22  39  61  97 142 191 251 306 380 437
#
# _framework density 27.030162000000001
#
# number of rings (size 3 to 8) (size 9 to 14) (size 15 to 20)
#    0.000    0.857    2.857    3.429    2.000    6.286 
#    0.000    0.000    0.000    0.000    0.000    0.000 
#    0.000    0.000    0.000    0.000    0.000    0.000 
#
# Total GULP energy -78437.066797 kJ/mol
# GULP energy per Si atom -5602.647628 kJ/mol
# Density = 2.696864 g / cm^3
# Si number density = 27.030162 Si / 1000 Ang^3
#
#
#
# Elastic Constant Matrix: (Units=GPa)
#
#
# Indices 1 2 3 4 5 6 
#
# 1 197.8185 39.7911 10.3889 3.3723 3.4047 -42.6660
# 2 39.7911 116.7915 14.5160 6.3284 0.2383 -32.7513
# 3 10.3889 14.5160 73.0775 -7.4107 22.8518 -12.7818
# 4 3.3723 6.3284 -7.4107 38.4603 -4.2089 -7.4175
# 5 3.4047 0.2383 22.8518 -4.2089 38.6456 -0.0634
# 6 -42.6660 -32.7513 -12.7818 -7.4175 -0.0634 55.3797
#
#
#
# Elastic Compliance Matrix: (Units=1/GPa)
#
#
# Indices 1 2 3 4 5 6 
#
# 1 0.006165 -0.000952 0.000323 0.000438 -0.000674 0.004320
# 2 -0.000952 0.010522 -0.001395 -0.000859 0.000759 0.005053
# 3 0.000323 -0.001395 0.018228 0.003357 -0.010426 0.004068
# 4 0.000438 -0.000859 0.003357 0.027693 0.001005 0.004314
# 5 -0.000674 0.000759 -0.010426 0.001005 0.032202 -0.002305
# 6 0.004320 0.005053 0.004068 0.004314 -0.002305 0.025888
#
#
# Mechanical properties :
#
#
# Convention : Reuss Voigt Hill
#
# Bulk Modulus (GPa) = 32.39703 57.45330 44.92516
# Shear Modulus (GPa) = 37.02775 48.02989 42.52882
#
# Velocity S-wave (km/s) = 3.70519 4.21990 3.97089
# Velocity P-wave (km/s) = 5.50600 6.71154 6.13844
#
# Compressibility (1/GPa) = 0.03086703
#
# Stress axis : x y z
#
# Youngs Moduli (GPa) = 162.19552 95.03901 54.86182
#
# Poissons Ratio (x) = 0.09045 -0.01773
# Poissons Ratio (y) = 0.15437 0.07655
# Poissons Ratio (z) = -0.05241 0.13261
#
# Static dielectric constant tensor:
#      x y z
#    x 2.156410 0.074290 -0.047260 
#    y 0.074290 2.139550 0.014710 
#    z -0.047260 0.014710 2.095720 
# 
# From -- ./inp_files/102871.got.cif
#   From: 2010.05.17/outbox.cif.g08.bks.cpg/sg2_52_cif.got.tgz:102871.got - 2010.06.03 11:33:40.
