data_PCOD9022148
_publ_section_title
;
Structure prediction by ZEFSAII (Michael W. Deem and Ramdas Pophale) SiO2 
 PCOD9022148
Probable space group: P -1
;
_chemical_formula_sum "Si O2"
_cell_formula_units_Z 16
_cell_length_a 5.613147
_cell_length_b 20.695428
_cell_length_c 21.827834
_cell_angle_alpha 157.190349
_cell_angle_beta 47.019327
_cell_angle_gamma 138.437471
_cell_volume 651.847281
_symmetry_space_group_name_H-M "P -1"
_symmetry_group_IT_number 2
_symmetry_cell_setting 'triclinic'
loop_
_space_group_symop_operation_xyz
x,y,z
-x,-y,-z
loop_
_atom_site_type_symbol
_atom_site_label
_atom_site_fract_x
_atom_site_fract_y
_atom_site_fract_z
Si Si1 0.113297 0.595724 0.188069
Si Si2 0.665932 0.048499 0.612159
Si Si3 0.242402 0.236432 0.358675
Si Si4 0.489759 0.071811 0.922939
Si Si5 0.533370 0.898790 0.180040
Si Si6 0.568547 0.554569 0.901211
Si Si7 0.005562 0.656247 0.389700
Si Si8 0.365556 0.155351 0.141186
O O1 0.338893 0.801344 0.303586
O O2 0.362863 0.506847 0.097099
O O3 0.878835 0.601079 0.293857
O O4 0.837475 0.505053 0.102068
O O5 0.716714 0.123407 0.738080
O O6 0.289376 0.870063 0.521173
O O7 0.000000 0.000000 0.500000
O O8 0.418080 0.291825 0.308629
O O9 0.259824 0.360560 0.522775
O O10 0.388218 0.088868 0.225531
O O11 0.816179 0.112080 0.313588
O O12 0.633762 0.159709 0.908611
O O13 0.531100 0.212241 0.094182
O O14 0.059705 0.960422 0.893006
O O15 0.738706 0.771997 0.050577
O O16 0.748848 0.453527 0.738479
O O17 0.500000 0.000000 0.000000
#
# Coordination Sequence:
#
# PCOD9022148 Si02
#       8
#     2   2   2   2   2   2   2   2
#     4  10  22  39  58  77 112 153 195 240 289 334
#     4  11  20  39  58  82 112 148 197 249 289 336
#     4   9  18  33  55  87 111 146 188 235 283 342
#     4   9  17  30  54  82 114 146 180 232 283 339
#     4  10  23  34  54  83 113 152 192 236 287 342
#     4  10  23  40  56  80 114 158 194 237 289 342
#     4   9  21  35  58  80 114 148 193 240 289 335
#     4   8  15  30  51  83 117 141 178 227 284 335
#
# _framework density 24.545624
#
# number of rings (size 3 to 8) (size 9 to 14) (size 15 to 20)
#    0.750    1.750    1.250    0.375    3.500    2.000 
#    2.250    0.000    0.000    0.750    0.000   30.625 
#    0.000    0.000    0.000    0.000    0.000    0.000 
#
# Total GULP energy -89242.291666 kJ/mol
# GULP energy per Si atom -5577.643229 kJ/mol
# Density = 2.448976 g / cm^3
# Si number density = 24.545624 Si / 1000 Ang^3
#
#
#
# Elastic Constant Matrix: (Units=GPa)
#
#
# Indices 1 2 3 4 5 6 
#
# 1 119.7927 36.8290 20.7750 -10.3864 7.9184 -23.8848
# 2 36.8290 89.2698 38.5440 -20.0047 8.1205 -39.7860
# 3 20.7750 38.5440 105.8890 -44.9424 13.2499 -27.2081
# 4 -10.3864 -20.0047 -44.9424 54.4964 -14.0333 19.9191
# 5 7.9184 8.1205 13.2499 -14.0333 27.3884 -7.4804
# 6 -23.8848 -39.7860 -27.2081 19.9191 -7.4804 46.5120
#
#
#
# Elastic Compliance Matrix: (Units=1/GPa)
#
#
# Indices 1 2 3 4 5 6 
#
# 1 0.009809 -0.002793 -0.000416 -0.000810 -0.001538 0.002505
# 2 -0.002793 0.019878 -0.003673 -0.001440 -0.000223 0.014001
# 3 -0.000416 -0.003673 0.015964 0.011214 -0.000466 0.001106
# 4 -0.000810 -0.001440 0.011214 0.032062 0.009681 -0.007262
# 5 -0.001538 -0.000223 -0.000466 0.009681 0.042605 0.001453
# 6 0.002505 0.014001 0.001106 -0.007262 0.001453 0.038753
#
#
# Mechanical properties :
#
#
# Convention : Reuss Voigt Hill
#
# Bulk Modulus (GPa) = 31.35960 56.36084 43.86022
# Shear Modulus (GPa) = 27.25324 40.26625 33.75974
#
# Velocity S-wave (km/s) = 3.33575 4.05466 3.71265
# Velocity P-wave (km/s) = 5.25738 6.70312 6.02378
#
# Compressibility (1/GPa) = 0.03188816
#
# Stress axis : x y z
#
# Youngs Moduli (GPa) = 101.94432 50.30713 62.63936
#
# Poissons Ratio (x) = 0.14049 0.02604
# Poissons Ratio (y) = 0.28470 0.23009
# Poissons Ratio (z) = 0.04238 0.18479
#
# Static dielectric constant tensor:
#      x y z
#    x 1.979790 -0.002900 0.065170 
#    y -0.002900 2.002450 0.005240 
#    z 0.065170 0.005240 1.995520 
# 
# From -- ./inp_files/583067.got.cif
#   From: 2010.05.17/outbox.cif.g08.bks.cpg/sg2_292_cif.got.tgz:583067.got - 2010.06.03 11:33:40.
