data_PCOD9022283
_publ_section_title
;
Structure prediction by ZEFSAII (Michael W. Deem and Ramdas Pophale) SiO2 
 PCOD9022283
Probable space group: P -1
;
_chemical_formula_sum "Si O2"
_cell_formula_units_Z 14
_cell_length_a 14.191103
_cell_length_b 14.533216
_cell_length_c 7.677022
_cell_angle_alpha 130.471904
_cell_angle_beta 120.446323
_cell_angle_gamma 27.456115
_cell_volume 544.419609
_symmetry_space_group_name_H-M "P -1"
_symmetry_group_IT_number 2
_symmetry_cell_setting 'triclinic'
loop_
_space_group_symop_operation_xyz
x,y,z
-x,-y,-z
loop_
_atom_site_type_symbol
_atom_site_label
_atom_site_fract_x
_atom_site_fract_y
_atom_site_fract_z
Si Si1 0.496644 0.756319 0.401668
Si Si2 0.495843 0.862480 0.980384
Si Si3 0.144556 0.378803 0.158610
Si Si4 0.559531 0.407760 0.636631
Si Si5 0.850517 0.301745 0.965055
Si Si6 0.273305 0.881940 0.036825
Si Si7 0.770392 0.644987 0.290864
O O1 0.428745 0.746047 0.496788
O O2 0.636801 0.742126 0.460336
O O3 0.657229 0.510871 0.165273
O O4 0.299140 0.934077 0.303322
O O5 0.690519 0.670268 0.791768
O O6 0.405869 0.831722 0.956345
O O7 0.607778 0.823644 0.202940
O O8 0.307648 0.115349 0.026796
O O9 0.963798 0.555012 0.352653
O O10 0.000000 0.500000 0.000000
O O11 0.500000 0.500000 0.500000
O O12 0.775156 0.270609 0.723781
O O13 0.378993 0.652638 0.869204
O O14 0.874884 0.415846 0.053630
O O15 0.046408 0.084105 0.995547
#
# Coordination Sequence:
#
# PCOD9022283 Si02
#       7
#     2   2   2   2   2   2   2
#     4   8  18  31  47  68  88 121 158 192 233 266
#     4   9  14  24  41  66  98 121 138 181 235 273
#     4   9  15  22  39  70 100 115 139 180 235 278
#     4  11  22  33  44  66  97 124 157 196 231 272
#     4   9  17  30  49  66  88 119 161 188 226 268
#     4  10  17  31  51  67  93 124 157 190 228 272
#     4   8  15  26  43  66  90 117 151 186 219 270
#
# _framework density 25.715457000000001
#
# number of rings (size 3 to 8) (size 9 to 14) (size 15 to 20)
#    0.857    2.000    2.857    1.714    0.000    2.857 
#    0.000    0.000    0.000    0.000    0.000    1.000 
#    0.000   17.714    0.000    0.571    0.000    0.000 
#
# Total GULP energy -77936.982141 kJ/mol
# GULP energy per Si atom -5566.927296 kJ/mol
# Density = 2.565693 g / cm^3
# Si number density = 25.715457 Si / 1000 Ang^3
#
#
#
# Elastic Constant Matrix: (Units=GPa)
#
#
# Indices 1 2 3 4 5 6 
#
# 1 120.1674 42.0856 47.0237 -29.5800 -2.9088 18.5250
# 2 42.0856 161.0341 19.6196 -32.5847 15.2814 -6.3867
# 3 47.0237 19.6196 23.4795 -3.5242 -8.9615 -11.0599
# 4 -29.5800 -32.5847 -3.5242 23.2475 9.5462 14.6869
# 5 -2.9088 15.2814 -8.9615 9.5462 41.5027 -16.3464
# 6 18.5250 -6.3867 -11.0599 14.6869 -16.3464 32.7984
#
#
#
# Elastic Compliance Matrix: (Units=1/GPa)
#
#
# Indices 1 2 3 4 5 6 
#
# 1 0.002749 -0.004894 0.005980 -0.014101 0.010979 0.011297
# 2 -0.004894 0.007630 0.005646 0.002833 -0.000822 0.004476
# 3 0.005980 0.005646 0.013640 0.040365 -0.017673 -0.024562
# 4 -0.014101 0.002833 0.040365 0.020789 0.008649 0.017129
# 5 0.010979 -0.000822 -0.017673 0.008649 0.016154 -0.008143
# 6 0.011297 0.004476 -0.024562 0.017129 -0.008143 0.004969
#
#
# Mechanical properties :
#
#
# Convention : Reuss Voigt Hill
#
# Bulk Modulus (GPa) = 26.67964 58.01541 42.34753
# Shear Modulus (GPa) = 76.96958 32.57317 54.77138
#
# Velocity S-wave (km/s) = 5.47688 3.56290 4.62009
# Velocity P-wave (km/s) = 7.09876 6.28770 6.70551
#
# Compressibility (1/GPa) = 0.03748176
#
# Stress axis : x y z
#
# Youngs Moduli (GPa) = 363.80778 131.06607 73.31627
#
# Poissons Ratio (x) = 0.64145 -0.43843
# Poissons Ratio (y) = 1.78052 -0.41395
# Poissons Ratio (z) = -2.17555 -0.74001
#
# Static dielectric constant tensor:
#      x y z
#    x 2.088390 0.004280 -0.046930 
#    y 0.004280 1.983690 -0.066720 
#    z -0.046930 -0.066720 2.148290 
# 
# From -- ./inp_files/310065.got.cif
#   From: 2010.05.17/outbox.cif.g08.bks.cpg/sg2_156_cif.got.tgz:310065.got - 2010.06.03 11:33:40.
