data_PCOD9022354
_publ_section_title
;
Structure prediction by ZEFSAII (Michael W. Deem and Ramdas Pophale) SiO2 
 PCOD9022354
Probable space group: P -1
;
_chemical_formula_sum "Si O2"
_cell_formula_units_Z 16
_cell_length_a 9.957172
_cell_length_b 5.820833
_cell_length_c 19.840684
_cell_angle_alpha 133.845628
_cell_angle_beta 128.573255
_cell_angle_gamma 52.254542
_cell_volume 614.379027
_symmetry_space_group_name_H-M "P -1"
_symmetry_group_IT_number 2
_symmetry_cell_setting 'triclinic'
loop_
_space_group_symop_operation_xyz
x,y,z
-x,-y,-z
loop_
_atom_site_type_symbol
_atom_site_label
_atom_site_fract_x
_atom_site_fract_y
_atom_site_fract_z
Si Si1 0.747918 0.798061 0.315278
Si Si2 0.477638 0.383966 0.547198
Si Si3 0.733274 0.116935 0.133826
Si Si4 0.588086 0.093159 0.948368
Si Si5 0.123666 0.383608 0.412765
Si Si6 0.133808 0.101480 0.115792
Si Si7 0.643763 0.896910 0.705462
Si Si8 0.971422 0.845713 0.272990
O O1 0.694348 0.507481 0.199911
O O2 0.813029 0.947803 0.299302
O O3 0.930389 0.643307 0.385095
O O4 0.570850 0.911462 0.331106
O O5 0.500000 0.500000 0.500000
O O6 0.260633 0.550695 0.524545
O O7 0.608400 0.562199 0.660556
O O8 0.500000 0.000000 0.500000
O O9 0.575340 0.029300 0.105128
O O10 0.908787 0.977387 0.205431
O O11 0.736611 0.993953 0.034506
O O12 0.695191 0.916616 0.881313
O O13 0.500000 0.500000 0.000000
O O14 0.235677 0.225175 0.347837
O O15 0.096801 0.068563 0.379763
O O16 0.251374 0.901058 0.175770
O O17 0.037455 0.447650 0.196715
O O18 0.000000 0.000000 0.000000
#
# Coordination Sequence:
#
# PCOD9022354 Si02
#       8
#     2   2   2   2   2   2   2   2
#     4  11  23  44  69 102 145 181 241 295 366 432
#     4  10  23  47  78 112 150 196 245 309 372 447
#     4  10  22  39  61  88 132 183 230 296 357 420
#     4  11  23  40  59  90 131 178 241 299 352 433
#     4  10  24  45  74 101 144 185 239 301 365 436
#     4  12  24  38  67  94 138 187 233 290 367 426
#     4  11  24  45  74 102 142 192 239 296 369 442
#     4  11  23  42  65  95 142 179 232 302 354 430
#
# _framework density 26.042556000000001
#
# number of rings (size 3 to 8) (size 9 to 14) (size 15 to 20)
#    0.000    1.250    1.250    4.500    5.250    2.000 
#    9.000    0.625    0.000    0.000    0.000    0.000 
#    0.000    0.000    0.000    0.000    0.000    0.000 
#
# Total GULP energy -89069.860069 kJ/mol
# GULP energy per Si atom -5566.866254 kJ/mol
# Density = 2.598328 g / cm^3
# Si number density = 26.042556 Si / 1000 Ang^3
#
#
#
# Elastic Constant Matrix: (Units=GPa)
#
#
# Indices 1 2 3 4 5 6 
#
# 1 147.2210 38.4362 51.1597 17.3451 -0.2160 -4.1008
# 2 38.4362 55.0587 7.0310 -14.9073 -0.2435 -13.6990
# 3 51.1597 7.0310 121.1407 -10.5826 5.6475 1.8780
# 4 17.3451 -14.9073 -10.5826 20.9941 -3.6230 11.5363
# 5 -0.2160 -0.2435 5.6475 -3.6230 59.3071 9.6213
# 6 -4.1008 -13.6990 1.8780 11.5363 9.6213 41.7992
#
#
#
# Elastic Compliance Matrix: (Units=1/GPa)
#
#
# Indices 1 2 3 4 5 6 
#
# 1 0.025908 -0.028743 -0.014049 -0.054866 -0.003616 0.009728
# 2 -0.028743 0.054827 0.015438 0.075258 0.004438 -0.007337
# 3 -0.014049 0.015438 0.016382 0.035047 0.001750 -0.007130
# 4 -0.054866 0.075258 0.035047 0.186941 0.014220 -0.037160
# 5 -0.003616 0.004438 0.001750 0.014220 0.018739 -0.007217
# 6 0.009728 -0.007337 -0.007130 -0.037160 -0.007217 0.034711
#
#
# Mechanical properties :
#
#
# Convention : Reuss Voigt Hill
#
# Bulk Modulus (GPa) = 23.57942 57.40823 40.49383
# Shear Modulus (GPa) = 12.30454 39.53964 25.92209
#
# Velocity S-wave (km/s) = 2.17601 3.90073 3.15838
# Velocity P-wave (km/s) = 3.92266 6.50995 5.37432
#
# Compressibility (1/GPa) = 0.04240986
#
# Stress axis : x y z
#
# Youngs Moduli (GPa) = 38.59739 18.23914 61.04135
#
# Poissons Ratio (x) = 0.52426 0.85754
# Poissons Ratio (y) = 1.10942 -0.94235
# Poissons Ratio (z) = 0.54224 -0.28157
#
# Static dielectric constant tensor:
#      x y z
#    x 1.997250 -0.059540 -0.019020 
#    y -0.059540 2.325480 0.036310 
#    z -0.019020 0.036310 2.317620 
# 
# From -- ./inp_files/585949.got.cif
#   From: 2010.05.17/outbox.cif.g08.bks.cpg/sg2_293_cif.got.tgz:585949.got - 2010.06.03 11:33:40.
