data_PCOD9022470
_publ_section_title
;
Structure prediction by ZEFSAII (Michael W. Deem and Ramdas Pophale) SiO2 
 PCOD9022470
Probable space group: P -1
;
_chemical_formula_sum "Si O2"
_cell_formula_units_Z 16
_cell_length_a 6.378079
_cell_length_b 17.060455
_cell_length_c 8.359019
_cell_angle_alpha 129.810671
_cell_angle_beta 104.844766
_cell_angle_gamma 74.671567
_cell_volume 669.186320
_symmetry_space_group_name_H-M "P -1"
_symmetry_group_IT_number 2
_symmetry_cell_setting 'triclinic'
loop_
_space_group_symop_operation_xyz
x,y,z
-x,-y,-z
loop_
_atom_site_type_symbol
_atom_site_label
_atom_site_fract_x
_atom_site_fract_y
_atom_site_fract_z
Si Si1 0.738188 0.544603 0.705115
Si Si2 0.311743 0.942638 0.668176
Si Si3 0.093445 0.876245 0.221951
Si Si4 0.211861 0.003111 0.161991
Si Si5 0.382500 0.498045 0.807890
Si Si6 0.102136 0.355566 0.438475
Si Si7 0.051760 0.795355 0.564856
Si Si8 0.019647 0.668968 0.082618
O O1 0.515892 0.512032 0.689753
O O2 0.781739 0.627655 0.685836
O O3 0.892753 0.442725 0.541112
O O4 0.824184 0.600502 0.951995
O O5 0.262097 0.894694 0.422693
O O6 0.542933 0.977070 0.802494
O O7 0.265349 0.852834 0.666317
O O8 0.121120 0.040431 0.746056
O O9 0.999622 0.774015 0.117177
O O10 0.231892 0.895414 0.118331
O O11 0.131998 0.107538 0.388039
O O12 0.000000 0.000000 0.000000
O O13 0.282033 0.391659 0.639503
O O14 0.500000 0.500000 0.000000
O O15 0.198477 0.595120 0.920376
O O16 0.024741 0.250130 0.343648
O O17 0.070253 0.704118 0.318069
#
# Coordination Sequence:
#
# PCOD9022470 Si02
#       8
#     2   2   2   2   2   2   2   2
#     4  10  22  39  62  89 131 169 212 269 324 388
#     4   9  20  41  63  92 124 176 222 275 332 397
#     4   9  20  38  64  89 130 170 227 272 325 402
#     4  11  24  39  64  97 138 172 222 282 348 403
#     4  11  22  38  64  96 130 171 221 267 326 392
#     4  10  22  40  61  90 131 170 212 269 326 392
#     4  10  22  39  62  93 129 170 220 273 329 401
#     4  10  22  39  63  95 126 171 224 266 322 398
#
# _framework density 23.909635999999999
#
# number of rings (size 3 to 8) (size 9 to 14) (size 15 to 20)
#    0.000    2.000    0.000    3.000    1.750   10.000 
#    0.000    0.000    5.500    0.000    0.000    0.000 
#    0.000    0.000    0.000    0.000    0.000    0.000 
#
# Total GULP energy -89070.656725 kJ/mol
# GULP energy per Si atom -5566.916045 kJ/mol
# Density = 2.385522 g / cm^3
# Si number density = 23.909636 Si / 1000 Ang^3
#
#
#
# Elastic Constant Matrix: (Units=GPa)
#
#
# Indices 1 2 3 4 5 6 
#
# 1 131.2876 44.5549 40.0435 -10.1922 31.3486 38.4872
# 2 44.5549 99.3183 5.3600 -2.6290 8.3574 38.4990
# 3 40.0435 5.3600 79.7617 -6.0461 13.4826 6.2151
# 4 -10.1922 -2.6290 -6.0461 33.5339 5.3696 -0.1076
# 5 31.3486 8.3574 13.4826 5.3696 33.7003 -3.4811
# 6 38.4872 38.4990 6.2151 -0.1076 -3.4811 35.4604
#
#
#
# Elastic Compliance Matrix: (Units=1/GPa)
#
#
# Indices 1 2 3 4 5 6 
#
# 1 0.025107 0.005146 -0.004587 0.011618 -0.028239 -0.034770
# 2 0.005146 0.020409 0.001156 0.005556 -0.014225 -0.029326
# 3 -0.004587 0.001156 0.015226 0.001815 -0.002314 0.000834
# 4 0.011618 0.005556 0.001815 0.037415 -0.021032 -0.020911
# 5 -0.028239 -0.014225 -0.002314 -0.021032 0.069245 0.053233
# 6 -0.034770 -0.029326 0.000834 -0.020911 0.053233 0.102794
#
#
# Mechanical properties :
#
#
# Convention : Reuss Voigt Hill
#
# Bulk Modulus (GPa) = 15.58303 54.47605 35.02954
# Shear Modulus (GPa) = 17.35156 35.23285 26.29220
#
# Velocity S-wave (km/s) = 2.69683 3.84289 3.31969
# Velocity P-wave (km/s) = 4.02850 6.52105 5.42000
#
# Compressibility (1/GPa) = 0.06417236
#
# Stress axis : x y z
#
# Youngs Moduli (GPa) = 39.82912 48.99697 65.67499
#
# Poissons Ratio (x) = -0.25214 0.30127
# Poissons Ratio (y) = -0.20496 -0.07591
# Poissons Ratio (z) = 0.18271 -0.05663
#
# Static dielectric constant tensor:
#      x y z
#    x 2.085690 -0.089440 -0.031230 
#    y -0.089440 2.019840 -0.070770 
#    z -0.031230 -0.070770 2.045400 
# 
# From -- ./inp_files/139600.got.cif
#   From: 2010.05.17/outbox.cif.g08.bks.cpg/sg2_70_cif.got.tgz:139600.got - 2010.06.03 11:33:40.
