data_PCOD9022938
_publ_section_title
;
Structure prediction by ZEFSAII (Michael W. Deem and Ramdas Pophale) SiO2 
 PCOD9022938
Probable space group: P -1
;
_chemical_formula_sum "Si O2"
_cell_formula_units_Z 10
_cell_length_a 10.282712
_cell_length_b 6.707219
_cell_length_c 12.755756
_cell_angle_alpha 104.536181
_cell_angle_beta 32.659264
_cell_angle_gamma 114.959163
_cell_volume 420.521920
_symmetry_space_group_name_H-M "P -1"
_symmetry_group_IT_number 2
_symmetry_cell_setting 'triclinic'
loop_
_space_group_symop_operation_xyz
x,y,z
-x,-y,-z
loop_
_atom_site_type_symbol
_atom_site_label
_atom_site_fract_x
_atom_site_fract_y
_atom_site_fract_z
Si Si1 0.350637 0.469915 0.247041
Si Si2 0.448754 0.067875 0.929729
Si Si3 0.155551 0.381906 0.941288
Si Si4 0.196251 0.835620 0.485297
Si Si5 0.128839 0.023512 0.764429
O O1 0.445330 0.660048 0.116989
O O2 0.606962 0.462427 0.125445
O O3 0.233745 0.599790 0.426638
O O4 0.112196 0.245103 0.343452
O O5 0.619861 0.023847 0.714843
O O6 0.500000 0.000000 0.000000
O O7 0.145214 0.969822 0.089440
O O8 0.265871 0.250581 0.766715
O O9 0.000000 0.500000 0.000000
O O10 0.958227 0.185374 0.123894
O O11 0.263259 0.969167 0.565458
#
# Coordination Sequence:
#
# PCOD9022938 Si02
#       5
#     2   2   2   2   2
#     4   8  19  40  61  93 126 160 206 261 309 367
#     4   9  19  36  62  93 124 161 204 259 314 364
#     4  10  22  42  62  91 129 169 208 253 316 373
#     4   9  19  40  65  91 125 159 211 260 312 365
#     4  10  22  39  65  92 126 166 208 261 307 373
#
# _framework density 23.779975
#
# number of rings (size 3 to 8) (size 9 to 14) (size 15 to 20)
#    1.200    1.600    0.000    0.000    0.000    8.000 
#    0.000    1.000    0.000    0.000    0.000    0.000 
#    0.000    0.000    0.000    0.000    0.000    0.000 
#
# Total GULP energy -55890.954229 kJ/mol
# GULP energy per Si atom -5589.095423 kJ/mol
# Density = 2.372585 g / cm^3
# Si number density = 23.779975 Si / 1000 Ang^3
#
#
#
# Elastic Constant Matrix: (Units=GPa)
#
#
# Indices 1 2 3 4 5 6 
#
# 1 164.5940 53.1035 47.6928 -2.0741 13.6893 -25.1341
# 2 53.1035 74.9491 23.0006 4.5053 14.6205 -4.4702
# 3 47.6928 23.0006 72.1114 9.7317 21.9331 -0.9914
# 4 -2.0741 4.5053 9.7317 16.2371 9.2250 5.2739
# 5 13.6893 14.6205 21.9331 9.2250 53.6948 12.1391
# 6 -25.1341 -4.4702 -0.9914 5.2739 12.1391 52.8419
#
#
#
# Elastic Compliance Matrix: (Units=1/GPa)
#
#
# Indices 1 2 3 4 5 6 
#
# 1 0.010110 -0.005461 -0.005388 0.005145 -0.000652 0.003882
# 2 -0.005461 0.018204 -0.000928 -0.003721 -0.002518 -0.000125
# 3 -0.005388 -0.000928 0.020598 -0.009862 -0.005069 -0.000106
# 4 0.005145 -0.003721 -0.009862 0.075113 -0.008354 -0.003630
# 5 -0.000652 -0.002518 -0.005069 -0.008354 0.024189 -0.005341
# 6 0.003882 -0.000125 -0.000106 -0.003630 -0.005341 0.022348
#
#
# Mechanical properties :
#
#
# Convention : Reuss Voigt Hill
#
# Bulk Modulus (GPa) = 39.43483 62.13869 50.78676
# Shear Modulus (GPa) = 24.68301 37.07860 30.88081
#
# Velocity S-wave (km/s) = 3.22526 3.95300 3.60753
# Velocity P-wave (km/s) = 5.52168 6.85728 6.22540
#
# Compressibility (1/GPa) = 0.02535829
#
# Stress axis : x y z
#
# Youngs Moduli (GPa) = 98.90841 54.93387 48.54801
#
# Poissons Ratio (x) = 0.29998 0.26157
# Poissons Ratio (y) = 0.54011 0.04507
# Poissons Ratio (z) = 0.53290 0.05100
#
# Static dielectric constant tensor:
#      x y z
#    x 1.887210 0.009580 -0.011480 
#    y 0.009580 1.951770 0.085320 
#    z -0.011480 0.085320 1.938790 
# 
# From -- ./inp_files/510923.got.cif
#   From: 2010.05.17/outbox.cif.g08.bks.cpg/sg2_256_cif.got.tgz:510923.got - 2010.06.03 11:33:40.
