data_PCOD9022674
_publ_section_title
;
Structure prediction by ZEFSAII (Michael W. Deem and Ramdas Pophale) SiO2 
 PCOD9022674
Probable space group: P -1
;
_chemical_formula_sum "Si O2"
_cell_formula_units_Z 16
_cell_length_a 22.141781
_cell_length_b 8.799954
_cell_length_c 14.388015
_cell_angle_alpha 31.526432
_cell_angle_beta 30.759164
_cell_angle_gamma 51.481997
_cell_volume 683.692764
_symmetry_space_group_name_H-M "P -1"
_symmetry_group_IT_number 2
_symmetry_cell_setting 'triclinic'
loop_
_space_group_symop_operation_xyz
x,y,z
-x,-y,-z
loop_
_atom_site_type_symbol
_atom_site_label
_atom_site_fract_x
_atom_site_fract_y
_atom_site_fract_z
Si Si1 0.209415 0.094852 0.422267
Si Si2 0.720743 0.930442 0.273624
Si Si3 0.134488 0.585483 0.331601
Si Si4 0.713089 0.527209 0.056453
Si Si5 0.813862 0.585495 0.212323
Si Si6 0.502561 0.352822 0.970694
Si Si7 0.108449 0.039844 0.261322
Si Si8 0.516991 0.349310 0.653026
O O1 0.150302 0.257448 0.488965
O O2 0.159323 0.724614 0.664125
O O3 0.201718 0.253838 0.252277
O O4 0.357757 0.218845 0.193035
O O5 0.820061 0.767342 0.205706
O O6 0.597029 0.630830 0.633562
O O7 0.728448 0.198756 0.197998
O O8 0.749375 0.148206 0.024793
O O9 0.000000 0.500000 0.500000
O O10 0.128601 0.730379 0.364140
O O11 0.572823 0.532234 0.226631
O O12 0.765779 0.695627 0.995737
O O13 0.662415 0.477082 0.435831
O O14 0.905362 0.822439 0.891656
O O15 0.500000 0.500000 0.000000
O O16 0.533601 0.035217 0.092104
O O17 0.000000 0.000000 0.500000
O O18 0.500000 0.500000 0.500000
#
# Coordination Sequence:
#
# PCOD9022674 Si02
#       8
#     2   2   2   2   2   2   2   2
#     4  10  23  42  64  96 130 170 211 266 328 384
#     4  10  22  39  63  94 129 172 213 261 324 377
#     4  10  23  46  71  93 126 170 220 269 323 390
#     4  11  22  37  64  93 130 169 214 260 322 386
#     4  10  22  42  62  91 132 169 214 264 319 387
#     4  11  24  37  62  98 139 170 216 268 320 388
#     4  11  23  41  66  94 122 168 217 274 322 382
#     4  11  21  36  60  92 130 169 214 256 318 384
#
# _framework density 23.402324
#
# number of rings (size 3 to 8) (size 9 to 14) (size 15 to 20)
#    0.000    1.500    1.250    3.750    3.500    8.500 
#    0.000    7.500    0.000    0.000    0.000    0.000 
#    0.000    0.000    0.000    0.000    0.000    0.000 
#
# Total GULP energy -89218.773253 kJ/mol
# GULP energy per Si atom -5576.173328 kJ/mol
# Density = 2.334906 g / cm^3
# Si number density = 23.402324 Si / 1000 Ang^3
#
#
#
# Elastic Constant Matrix: (Units=GPa)
#
#
# Indices 1 2 3 4 5 6 
#
# 1 55.6224 36.9051 20.5092 -4.0443 -5.7869 12.8691
# 2 36.9051 237.7484 65.9398 -25.6445 5.1653 19.8688
# 3 20.5092 65.9398 104.7116 0.3242 -3.3344 -2.1654
# 4 -4.0443 -25.6445 0.3242 52.1325 1.2643 4.9929
# 5 -5.7869 5.1653 -3.3344 1.2643 14.2366 4.5782
# 6 12.8691 19.8688 -2.1654 4.9929 4.5782 38.9482
#
#
#
# Elastic Compliance Matrix: (Units=1/GPa)
#
#
# Indices 1 2 3 4 5 6 
#
# 1 0.024000 -0.002306 -0.003031 0.001262 0.012521 -0.008556
# 2 -0.002306 0.006217 -0.003639 0.003237 -0.003491 -0.002617
# 3 -0.003031 -0.003639 0.012584 -0.002502 0.002090 0.003632
# 4 0.001262 0.003237 -0.002502 0.021383 -0.001616 -0.004759
# 5 0.012521 -0.003491 0.002090 -0.001616 0.080944 -0.011548
# 6 -0.008556 -0.002617 0.003632 -0.004759 -0.011548 0.032006
#
#
# Mechanical properties :
#
#
# Convention : Reuss Voigt Hill
#
# Bulk Modulus (GPa) = 40.24027 71.64340 55.94184
# Shear Modulus (GPa) = 24.58591 39.37866 31.98229
#
# Velocity S-wave (km/s) = 3.24477 4.10650 3.70080
# Velocity P-wave (km/s) = 5.59199 7.29141 6.49750
#
# Compressibility (1/GPa) = 0.02485073
#
# Stress axis : x y z
#
# Youngs Moduli (GPa) = 41.66707 160.85175 79.46320
#
# Poissons Ratio (x) = 0.37087 0.24084
# Poissons Ratio (y) = 0.09607 0.28914
# Poissons Ratio (z) = 0.12629 0.58528
#
# Static dielectric constant tensor:
#      x y z
#    x 1.924950 0.049790 -0.027080 
#    y 0.049790 2.081420 0.065640 
#    z -0.027080 0.065640 1.989200 
# 
# From -- ./inp_files/379143.got.cif
#   From: 2010.05.17/outbox.cif.g08.bks.cpg/sg2_190_cif.got.tgz:379143.got - 2010.06.03 11:33:40.
