data_PCOD9022124
_publ_section_title
;
Structure prediction by ZEFSAII (Michael W. Deem and Ramdas Pophale) SiO2 
 PCOD9022124
Probable space group: P -1
;
_chemical_formula_sum "Si O2"
_cell_formula_units_Z 10
_cell_length_a 5.341486
_cell_length_b 15.454101
_cell_length_c 11.946352
_cell_angle_alpha 27.863032
_cell_angle_beta 111.708092
_cell_angle_gamma 117.761517
_cell_volume 405.734127
_symmetry_space_group_name_H-M "P -1"
_symmetry_group_IT_number 2
_symmetry_cell_setting 'triclinic'
loop_
_space_group_symop_operation_xyz
x,y,z
-x,-y,-z
loop_
_atom_site_type_symbol
_atom_site_label
_atom_site_fract_x
_atom_site_fract_y
_atom_site_fract_z
Si Si1 0.821819 0.441592 0.920722
Si Si2 0.401335 0.598113 0.762008
Si Si3 0.583202 0.734144 0.243214
Si Si4 0.924010 0.079475 0.058661
Si Si5 0.767502 0.021918 0.350817
O O1 0.587258 0.546157 0.756114
O O2 0.068218 0.508623 0.793310
O O3 0.690817 0.211293 0.157025
O O4 0.000000 0.500000 0.000000
O O5 0.499298 0.828335 0.529300
O O6 0.500000 0.500000 0.000000
O O7 0.500000 0.500000 0.500000
O O8 0.299172 0.798405 0.132078
O O9 0.774570 0.813905 0.072189
O O10 0.788351 0.867832 0.219360
O O11 0.919393 0.049166 0.224908
O O12 0.000000 0.000000 0.500000
#
# Coordination Sequence:
#
# PCOD9022124 Si02
#       5
#     2   2   2   2   2
#     4  10  22  39  56  83 124 177 222 247 305 383
#     4  10  22  40  57  83 126 180 220 249 305 385
#     4  10  22  50  73  94 131 167 231 288 332 380
#     4  10  25  42  70 106 125 174 227 271 337 401
#     4  12  24  42  66  99 146 178 210 275 328 404
#
# _framework density 24.646681000000001
#
# number of rings (size 3 to 8) (size 9 to 14) (size 15 to 20)
#    0.000    1.600    4.000    0.600    0.000   11.200 
#    0.000    0.000    0.000    0.000    0.000    0.000 
#    0.000    0.000    0.000    0.000    0.000    0.000 
#
# Total GULP energy -56005.364900 kJ/mol
# GULP energy per Si atom -5600.536490 kJ/mol
# Density = 2.459058 g / cm^3
# Si number density = 24.646681 Si / 1000 Ang^3
#
#
#
# Elastic Constant Matrix: (Units=GPa)
#
#
# Indices 1 2 3 4 5 6 
#
# 1 119.2542 -7.0785 26.7472 -25.8723 6.1265 -1.3546
# 2 -7.0785 112.2219 61.4748 -16.0038 8.3214 -18.9987
# 3 26.7472 61.4748 152.4417 -60.5908 -2.5435 -7.4835
# 4 -25.8723 -16.0038 -60.5908 61.3192 -10.1232 -6.5118
# 5 6.1265 8.3214 -2.5435 -10.1232 28.6451 0.0115
# 6 -1.3546 -18.9987 -7.4835 -6.5118 0.0115 23.7615
#
#
#
# Elastic Compliance Matrix: (Units=1/GPa)
#
#
# Indices 1 2 3 4 5 6 
#
# 1 0.009687 0.002352 -0.001015 0.003784 -0.001509 0.003151
# 2 0.002352 0.014376 -0.006550 -0.001733 -0.005877 0.009093
# 3 -0.001015 -0.006550 0.015853 0.015425 0.008977 0.003920
# 4 0.003784 -0.001733 0.015425 0.036447 0.013939 0.013670
# 5 -0.001509 -0.005877 0.008977 0.013939 0.042662 0.001842
# 6 0.003151 0.009093 0.003920 0.013670 0.001842 0.054515
#
#
# Mechanical properties :
#
#
# Convention : Reuss Voigt Hill
#
# Bulk Modulus (GPa) = 33.91116 60.68940 47.30028
# Shear Modulus (GPa) = 25.80049 42.93011 34.36530
#
# Velocity S-wave (km/s) = 3.23896 4.17804 3.73811
# Velocity P-wave (km/s) = 5.27035 6.92473 6.15339
#
# Compressibility (1/GPa) = 0.02948882
#
# Stress axis : x y z
#
# Youngs Moduli (GPa) = 103.23309 69.56274 63.08137
#
# Poissons Ratio (x) = -0.16359 0.06400
# Poissons Ratio (y) = -0.24277 0.41319
# Poissons Ratio (z) = 0.10473 0.45565
#
# Static dielectric constant tensor:
#      x y z
#    x 2.131180 -0.015810 -0.135400 
#    y -0.015810 1.941110 0.053830 
#    z -0.135400 0.053830 1.964940 
# 
# From -- ./inp_files/72862.got.cif
#   From: 2010.05.17/outbox.cif.g08.bks.cpg/sg2_37_cif.got.tgz:72862.got - 2010.06.03 11:33:40.
