data_PCOD9022867
_publ_section_title
;
Structure prediction by ZEFSAII (Michael W. Deem and Ramdas Pophale) SiO2 
 PCOD9022867
Probable space group: P -1
;
_chemical_formula_sum "Si O2"
_cell_formula_units_Z 14
_cell_length_a 9.427097
_cell_length_b 14.773215
_cell_length_c 7.608197
_cell_angle_alpha 62.031976
_cell_angle_beta 79.403190
_cell_angle_gamma 127.636495
_cell_volume 548.551325
_symmetry_space_group_name_H-M "P -1"
_symmetry_group_IT_number 2
_symmetry_cell_setting 'triclinic'
loop_
_space_group_symop_operation_xyz
x,y,z
-x,-y,-z
loop_
_atom_site_type_symbol
_atom_site_label
_atom_site_fract_x
_atom_site_fract_y
_atom_site_fract_z
Si Si1 0.583917 0.065895 0.723498
Si Si2 0.676945 0.506239 0.457430
Si Si3 0.922430 0.737338 0.666409
Si Si4 0.873277 0.439670 0.272386
Si Si5 0.329825 0.613137 0.092627
Si Si6 0.094839 0.854401 0.910544
Si Si7 0.784764 0.874574 0.518436
O O1 0.794765 0.106506 0.592072
O O2 0.708785 0.248023 0.516442
O O3 0.346782 0.936574 0.773157
O O4 0.500000 0.000000 0.000000
O O5 0.500000 0.500000 0.500000
O O6 0.721815 0.454284 0.333157
O O7 0.583498 0.378268 0.748248
O O8 0.937823 0.712224 0.228779
O O9 0.937750 0.754716 0.858550
O O10 0.795104 0.559661 0.803177
O O11 0.783270 0.752423 0.593599
O O12 0.116667 0.572818 0.213538
O O13 0.000000 0.500000 0.000000
O O14 0.539660 0.766335 0.773891
O O15 0.157682 0.011510 0.751928
O O16 0.000000 0.000000 0.500000
#
# Coordination Sequence:
#
# PCOD9022867 Si02
#       7
#     2   2   2   2   2   2   2
#     4  11  24  42  65  97 131 171 223 282 333 387
#     4  12  26  44  66  99 136 174 220 277 335 397
#     4  10  22  41  66  95 131 176 223 271 332 402
#     4  11  25  46  69  96 131 182 227 264 330 411
#     4  11  23  43  67  95 131 175 220 273 332 401
#     4  11  23  41  65  96 131 173 222 276 331 396
#     4  10  22  39  64  98 131 173 222 275 331 394
#
# _framework density 25.521768999999999
#
# number of rings (size 3 to 8) (size 9 to 14) (size 15 to 20)
#    0.000    1.143    0.000    7.286    0.000    8.000 
#    0.000    2.143    0.000    0.000    0.000    0.000 
#    0.000    0.000    0.000    0.000    0.000    0.000 
#
# Total GULP energy -78342.271851 kJ/mol
# GULP energy per Si atom -5595.876561 kJ/mol
# Density = 2.546368 g / cm^3
# Si number density = 25.521769 Si / 1000 Ang^3
#
#
#
# Elastic Constant Matrix: (Units=GPa)
#
#
# Indices 1 2 3 4 5 6 
#
# 1 114.8072 21.2901 37.8153 7.5093 -16.7782 -25.1053
# 2 21.2901 48.1772 13.7253 1.3817 -1.4178 -15.8924
# 3 37.8153 13.7253 136.7560 -12.2621 6.4534 -20.2094
# 4 7.5093 1.3817 -12.2621 37.2632 6.1492 -0.1325
# 5 -16.7782 -1.4178 6.4534 6.1492 53.6841 -7.2637
# 6 -25.1053 -15.8924 -20.2094 -0.1325 -7.2637 30.8909
#
#
#
# Elastic Compliance Matrix: (Units=1/GPa)
#
#
# Indices 1 2 3 4 5 6 
#
# 1 0.013215 -0.001584 -0.002783 -0.004515 0.006232 0.009551
# 2 -0.001584 0.025671 -0.000555 -0.001103 0.002003 0.012023
# 3 -0.002783 -0.000555 0.009008 0.003890 -0.002022 0.002887
# 4 -0.004515 -0.001103 0.003890 0.030003 -0.005739 -0.002913
# 5 0.006232 0.002003 -0.002022 -0.005739 0.022900 0.010133
# 6 0.009551 0.012023 0.002887 -0.002913 0.010133 0.050579
#
#
# Mechanical properties :
#
#
# Convention : Reuss Voigt Hill
#
# Bulk Modulus (GPa) = 26.28011 49.48909 37.88460
# Shear Modulus (GPa) = 28.75150 39.49494 34.12322
#
# Velocity S-wave (km/s) = 3.36005 3.93810 3.66050
# Velocity P-wave (km/s) = 5.03714 6.33334 5.72206
#
# Compressibility (1/GPa) = 0.03805160
#
# Stress axis : x y z
#
# Youngs Moduli (GPa) = 75.67079 38.95377 111.00772
#
# Poissons Ratio (x) = 0.06169 0.30891
# Poissons Ratio (y) = 0.11984 0.06164
# Poissons Ratio (z) = 0.21057 0.02163
#
# Static dielectric constant tensor:
#      x y z
#    x 2.066740 0.038090 0.029410 
#    y 0.038090 2.137360 0.015570 
#    z 0.029410 0.015570 1.982580 
# 
# From -- ./inp_files/216704.got.cif
#   From: 2010.05.17/outbox.cif.g08.bks.cpg/sg2_109_cif.got.tgz:216704.got - 2010.06.03 11:33:40.
