data_PCOD9022958
_publ_section_title
;
Structure prediction by ZEFSAII (Michael W. Deem and Ramdas Pophale) SiO2 
 PCOD9022958
Probable space group: P -1
;
_chemical_formula_sum "Si O2"
_cell_formula_units_Z 16
_cell_length_a 13.147467
_cell_length_b 17.219263
_cell_length_c 9.266725
_cell_angle_alpha 84.662795
_cell_angle_beta 84.883147
_cell_angle_gamma 156.675815
_cell_volume 741.480618
_symmetry_space_group_name_H-M "P -1"
_symmetry_group_IT_number 2
_symmetry_cell_setting 'triclinic'
loop_
_space_group_symop_operation_xyz
x,y,z
-x,-y,-z
loop_
_atom_site_type_symbol
_atom_site_label
_atom_site_fract_x
_atom_site_fract_y
_atom_site_fract_z
Si Si1 0.173019 0.958302 0.110474
Si Si2 0.032125 0.361862 0.506174
Si Si3 0.395466 0.152959 0.750014
Si Si4 0.121533 0.792401 0.762152
Si Si5 0.459772 0.005766 0.160884
Si Si6 0.819880 0.706221 0.458326
Si Si7 0.923600 0.889924 0.660131
Si Si8 0.354142 0.472805 0.952796
O O1 0.370717 0.031456 0.140647
O O2 0.029343 0.894383 0.280202
O O3 0.896209 0.727906 0.095195
O O4 0.348740 0.126731 0.933112
O O5 0.289146 0.602085 0.388901
O O6 0.160643 0.372484 0.545912
O O7 0.874235 0.224007 0.403261
O O8 0.799738 0.219987 0.678708
O O9 0.307764 0.001963 0.744018
O O10 0.169260 0.049428 0.718479
O O11 0.253861 0.811838 0.821706
O O12 0.807115 0.590146 0.897372
O O13 0.500000 0.000000 0.000000
O O14 0.500000 0.500000 0.500000
O O15 0.884563 0.779445 0.599677
O O16 0.623707 0.701951 0.798706
O O17 0.000000 0.000000 0.500000
O O18 0.500000 0.500000 0.000000
#
# Coordination Sequence:
#
# PCOD9022958 Si02
#       8
#     2   2   2   2   2   2   2   2
#     4  10  22  39  65  93 131 171 219 263 322 384
#     4  11  25  42  67  96 127 170 220 264 322 385
#     4  11  23  42  65  96 130 168 217 263 323 380
#     4  11  23  44  70  90 131 172 217 266 324 380
#     4  11  22  43  70  96 126 175 215 268 327 381
#     4  11  21  38  62  92 130 171 211 264 319 378
#     4  12  24  38  61 100 133 170 214 262 319 389
#     4  11  19  38  65  91 128 173 207 258 327 382
#
# _framework density 21.578448000000002
#
# number of rings (size 3 to 8) (size 9 to 14) (size 15 to 20)
#    0.000    1.000    7.500    1.125    1.750    1.500 
#    0.000    2.500    0.000    0.000    0.000    0.000 
#    0.000    0.000    0.000    0.000    0.000    0.000 
#
# Total GULP energy -89360.678117 kJ/mol
# GULP energy per Si atom -5585.042382 kJ/mol
# Density = 2.152933 g / cm^3
# Si number density = 21.578448 Si / 1000 Ang^3
#
#
#
# Elastic Constant Matrix: (Units=GPa)
#
#
# Indices 1 2 3 4 5 6 
#
# 1 80.0934 35.4774 37.3090 -8.0749 7.1290 33.9049
# 2 35.4774 53.9291 46.8894 -6.4997 1.7847 12.2174
# 3 37.3090 46.8894 208.7835 -22.3809 -5.4133 8.3678
# 4 -8.0749 -6.4997 -22.3809 37.2931 5.5550 6.4973
# 5 7.1290 1.7847 -5.4133 5.5550 38.7576 2.0596
# 6 33.9049 12.2174 8.3678 6.4973 2.0596 44.6579
#
#
#
# Elastic Compliance Matrix: (Units=1/GPa)
#
#
# Indices 1 2 3 4 5 6 
#
# 1 0.026715 -0.011915 -0.000755 0.007013 -0.004536 -0.017693
# 2 -0.011915 0.030030 -0.004739 -0.000521 0.000126 0.001788
# 3 -0.000755 -0.004739 0.006279 0.002605 0.000846 0.000275
# 4 0.007013 -0.000521 0.002605 0.032317 -0.004995 -0.010141
# 5 -0.004536 0.000126 0.000846 -0.004995 0.027320 0.002717
# 6 -0.017693 0.001788 0.000275 -0.010141 0.002717 0.036634
#
#
# Mechanical properties :
#
#
# Convention : Reuss Voigt Hill
#
# Bulk Modulus (GPa) = 35.45348 64.68419 50.06883
# Shear Modulus (GPa) = 24.56836 39.01704 31.79270
#
# Velocity S-wave (km/s) = 3.37792 4.25685 3.84259
# Velocity P-wave (km/s) = 5.62845 7.36222 6.55293
#
# Compressibility (1/GPa) = 0.02820598
#
# Stress axis : x y z
#
# Youngs Moduli (GPa) = 37.43214 33.30047 159.26022
#
# Poissons Ratio (x) = 0.39677 0.12020
# Poissons Ratio (y) = 0.44600 0.75477
# Poissons Ratio (z) = 0.02825 0.15782
#
# Static dielectric constant tensor:
#      x y z
#    x 2.103130 0.114930 -0.014840 
#    y 0.114930 1.840450 -0.031330 
#    z -0.014840 -0.031330 1.841200 
# 
# From -- ./inp_files/319351.got.cif
#   From: 2010.05.17/outbox.cif.g08.bks.cpg/sg2_160_cif.got.tgz:319351.got - 2010.06.03 11:33:40.
