data_PCOD9022260
_publ_section_title
;
Structure prediction by ZEFSAII (Michael W. Deem and Ramdas Pophale) SiO2 
 PCOD9022260
Probable space group: P -1
;
_chemical_formula_sum "Si O2"
_cell_formula_units_Z 14
_cell_length_a 10.283929
_cell_length_b 8.887316
_cell_length_c 9.730062
_cell_angle_alpha 114.751254
_cell_angle_beta 71.483634
_cell_angle_gamma 138.313821
_cell_volume 537.075521
_symmetry_space_group_name_H-M "P -1"
_symmetry_group_IT_number 2
_symmetry_cell_setting 'triclinic'
loop_
_space_group_symop_operation_xyz
x,y,z
-x,-y,-z
loop_
_atom_site_type_symbol
_atom_site_label
_atom_site_fract_x
_atom_site_fract_y
_atom_site_fract_z
Si Si1 0.817680 0.959038 0.343221
Si Si2 0.866410 0.775203 0.858146
Si Si3 0.599239 0.763273 0.608416
Si Si4 0.331421 0.819414 0.603905
Si Si5 0.988750 0.510337 0.769324
Si Si6 0.286286 0.758626 0.018178
Si Si7 0.468914 0.571238 0.867281
O O1 0.779738 0.944307 0.512482
O O2 0.676278 0.690988 0.241521
O O3 0.739683 0.050319 0.315807
O O4 0.037586 0.112988 0.281692
O O5 0.646761 0.638983 0.913999
O O6 0.889235 0.597398 0.795542
O O7 0.000000 0.000000 0.000000
O O8 0.500000 0.500000 0.500000
O O9 0.452873 0.789397 0.636585
O O10 0.602663 0.758217 0.768570
O O11 0.111514 0.552146 0.612416
O O12 0.500000 0.000000 0.500000
O O13 0.148628 0.673941 0.900349
O O14 0.820752 0.268948 0.818403
O O15 0.329509 0.601366 0.968034
O O16 0.500000 0.000000 0.000000
#
# Coordination Sequence:
#
# PCOD9022260 Si02
#       7
#     2   2   2   2   2   2   2
#     4   9  21  38  66  89 129 168 206 266 323 379
#     4  11  23  39  60  92 129 167 213 264 319 381
#     4   9  18  37  64  95 123 165 211 261 317 383
#     4   9  17  37  66  92 123 167 207 256 325 378
#     4  10  22  39  60  88 127 163 210 254 319 376
#     4  11  23  39  61  91 127 169 213 262 315 376
#     4  11  22  39  64  94 126 169 215 262 321 376
#
# _framework density 26.067097
#
# number of rings (size 3 to 8) (size 9 to 14) (size 15 to 20)
#    0.000    2.000    1.429    1.714    0.000    6.286 
#    0.000    0.000    3.143   17.143    0.000    0.000 
#    0.000    0.000    0.000    0.000    0.000    0.000 
#
# Total GULP energy -77957.865576 kJ/mol
# GULP energy per Si atom -5568.418970 kJ/mol
# Density = 2.600777 g / cm^3
# Si number density = 26.067097 Si / 1000 Ang^3
#
#
#
# Elastic Constant Matrix: (Units=GPa)
#
#
# Indices 1 2 3 4 5 6 
#
# 1 101.4591 10.9945 2.2162 -9.5274 -6.5963 4.3376
# 2 10.9945 103.3793 35.3109 -48.1212 -8.5212 9.3241
# 3 2.2162 35.3109 114.9821 -45.0098 -26.9557 27.5917
# 4 -9.5274 -48.1212 -45.0098 56.0154 10.4273 -17.0818
# 5 -6.5963 -8.5212 -26.9557 10.4273 26.8027 -10.6600
# 6 4.3376 9.3241 27.5917 -17.0818 -10.6600 42.2081
#
#
#
# Elastic Compliance Matrix: (Units=1/GPa)
#
#
# Indices 1 2 3 4 5 6 
#
# 1 0.010257 -0.000442 0.001460 0.001862 0.002965 -0.000409
# 2 -0.000442 0.016360 0.000401 0.014902 0.000637 0.002361
# 3 0.001460 0.000401 0.016103 0.010301 0.011173 -0.003775
# 4 0.001862 0.014902 0.010301 0.040921 0.002400 0.006950
# 5 0.002965 0.000637 0.011173 0.002400 0.050969 0.006095
# 6 -0.000409 0.002361 -0.003775 0.006950 0.006095 0.030032
#
#
# Mechanical properties :
#
#
# Convention : Reuss Voigt Hill
#
# Bulk Modulus (GPa) = 21.95004 46.31819 34.13411
# Shear Modulus (GPa) = 28.25019 43.09182 35.67101
#
# Velocity S-wave (km/s) = 3.29561 4.07026 3.70324
# Velocity P-wave (km/s) = 4.78751 6.31639 5.60433
#
# Compressibility (1/GPa) = 0.04555801
#
# Stress axis : x y z
#
# Youngs Moduli (GPa) = 97.49216 61.12644 62.09914
#
# Poissons Ratio (x) = 0.02700 -0.09066
# Poissons Ratio (y) = 0.04306 -0.02489
# Poissons Ratio (z) = -0.14233 -0.02450
#
# Static dielectric constant tensor:
#      x y z
#    x 1.994790 -0.114650 -0.052180 
#    y -0.114650 2.006580 -0.064810 
#    z -0.052180 -0.064810 2.096400 
# 
# From -- ./inp_files/327038.got.cif
#   From: 2010.05.17/outbox.cif.g08.bks.cpg/sg2_164_cif.got.tgz:327038.got - 2010.06.03 11:33:40.
