data_PCOD9022915
_publ_section_title
;
Structure prediction by ZEFSAII (Michael W. Deem and Ramdas Pophale) SiO2 
 PCOD9022915
Probable space group: P -1
;
_chemical_formula_sum "Si O2"
_cell_formula_units_Z 11
_cell_length_a 13.406943
_cell_length_b 9.704526
_cell_length_c 8.844033
_cell_angle_alpha 46.100665
_cell_angle_beta 138.608157
_cell_angle_gamma 146.637803
_cell_volume 411.281904
_symmetry_space_group_name_H-M "P -1"
_symmetry_group_IT_number 2
_symmetry_cell_setting 'triclinic'
loop_
_space_group_symop_operation_xyz
x,y,z
-x,-y,-z
loop_
_atom_site_type_symbol
_atom_site_label
_atom_site_fract_x
_atom_site_fract_y
_atom_site_fract_z
Si Si1 0.543079 0.152475 0.582442
Si Si2 0.698727 0.085026 0.087463
Si Si3 0.506105 0.534537 0.299221
Si Si4 0.948688 0.822552 0.898597
Si Si5 0.000000 0.500000 0.000000
Si Si6 0.097120 0.791906 0.392349
O O1 0.575892 0.400924 0.400602
O O2 0.500000 0.000000 0.500000
O O3 0.330918 0.967558 0.571119
O O4 0.717414 0.217817 0.843088
O O5 0.652162 0.828748 0.203427
O O6 0.909202 0.338175 0.188370
O O7 0.500000 0.000000 0.000000
O O8 0.500000 0.500000 0.500000
O O9 0.272902 0.384117 0.117318
O O10 0.953701 0.691491 0.859624
O O11 0.979377 0.076299 0.713373
O O12 0.099179 0.870545 0.160484
O O13 0.000000 0.500000 0.500000
#
# Coordination Sequence:
#
# PCOD9022915 Si02
#       6
#     2   2   2   2   1   2
#     4  11  24  42  66 101 132 173 232 273 335 407
#     4  12  24  44  71  96 140 178 218 285 338 396
#     4  11  22  42  69  94 136 184 221 273 347 397
#     4  10  22  40  60  97 130 169 221 275 322 400
#     4  12  24  40  70 100 130 172 234 266 338 400
#     4  10  22  39  65  88 132 173 214 269 337 388
#
# _framework density 26.745645
#
# number of rings (size 3 to 8) (size 9 to 14) (size 15 to 20)
#    0.000    1.091    3.636    2.182    0.000    2.182 
#    0.000    4.545    0.000    0.000    0.000    0.000 
#    0.000    0.000    0.000    0.000    0.000    0.000 
#
# Total GULP energy -61383.039188 kJ/mol
# GULP energy per Si atom -5580.276290 kJ/mol
# Density = 2.668477 g / cm^3
# Si number density = 26.745645 Si / 1000 Ang^3
#
#
#
# Elastic Constant Matrix: (Units=GPa)
#
#
# Indices 1 2 3 4 5 6 
#
# 1 130.4560 65.3384 37.7770 -28.8002 28.9851 -36.8946
# 2 65.3384 212.7633 69.3961 -63.1099 22.5654 -17.3100
# 3 37.7770 69.3961 120.6004 -10.6821 25.4516 -19.9599
# 4 -28.8002 -63.1099 -10.6821 81.1439 -15.4107 6.0721
# 5 28.9851 22.5654 25.4516 -15.4107 32.4331 -7.2726
# 6 -36.8946 -17.3100 -19.9599 6.0721 -7.2726 79.8844
#
#
#
# Elastic Compliance Matrix: (Units=1/GPa)
#
#
# Indices 1 2 3 4 5 6 
#
# 1 0.011876 -0.002285 -0.000010 0.000646 -0.007760 0.004232
# 2 -0.002285 0.008005 -0.003919 0.005309 0.001953 -0.000526
# 3 -0.000010 -0.003919 0.012238 -0.003078 -0.007946 0.001714
# 4 0.000646 0.005309 -0.003078 0.017507 0.006448 -0.000064
# 5 -0.007760 0.001953 -0.007946 0.006448 0.045371 -0.001506
# 6 0.004232 -0.000526 0.001714 -0.000064 -0.001506 0.014655
#
#
# Mechanical properties :
#
#
# Convention : Reuss Voigt Hill
#
# Bulk Modulus (GPa) = 50.78435 89.87141 70.32788
# Shear Modulus (GPa) = 38.86673 58.11284 48.48979
#
# Velocity S-wave (km/s) = 3.81622 4.66638 4.26255
# Velocity P-wave (km/s) = 6.20058 7.91888 7.11182
#
# Compressibility (1/GPa) = 0.01969110
#
# Stress axis : x y z
#
# Youngs Moduli (GPa) = 84.20076 124.92130 81.70975
#
# Poissons Ratio (x) = 0.28542 0.00082
# Poissons Ratio (y) = 0.19238 0.32026
# Poissons Ratio (z) = 0.00085 0.48963
#
# Static dielectric constant tensor:
#      x y z
#    x 7.449690 1.997200 -1.588180 
#    y 1.997200 3.005450 -0.452310 
#    z -1.588180 -0.452310 2.674720 
# 
# From -- ./inp_files/129341.got.cif
#   From: 2010.05.17/outbox.cif.g08.bks.cpg/sg2_65_cif.got.tgz:129341.got - 2010.06.03 11:33:40.
