data_PCOD9022352
_publ_section_title
;
Structure prediction by ZEFSAII (Michael W. Deem and Ramdas Pophale) SiO2 
 PCOD9022352
Probable space group: P -1
;
_chemical_formula_sum "Si O2"
_cell_formula_units_Z 14
_cell_length_a 8.421226
_cell_length_b 28.561423
_cell_length_c 31.069978
_cell_angle_alpha 171.706672
_cell_angle_beta 147.073929
_cell_angle_gamma 31.843456
_cell_volume 568.633429
_symmetry_space_group_name_H-M "P -1"
_symmetry_group_IT_number 2
_symmetry_cell_setting 'triclinic'
loop_
_space_group_symop_operation_xyz
x,y,z
-x,-y,-z
loop_
_atom_site_type_symbol
_atom_site_label
_atom_site_fract_x
_atom_site_fract_y
_atom_site_fract_z
Si Si1 0.135920 0.558457 0.024976
Si Si2 0.282019 0.319698 0.531240
Si Si3 0.714037 0.233809 0.367474
Si Si4 0.468810 0.436420 0.070868
Si Si5 0.919996 0.348949 0.702722
Si Si6 0.927435 0.454037 0.698449
Si Si7 0.964704 0.623373 0.652566
O O1 0.858503 0.413258 0.847286
O O2 0.418844 0.403647 0.978369
O O3 0.048507 0.950363 0.373069
O O4 0.123977 0.510812 0.927854
O O5 0.566843 0.463017 0.739773
O O6 0.963487 0.415255 0.570591
O O7 0.203369 0.415527 0.551182
O O8 0.405190 0.926434 0.209987
O O9 0.755154 0.249469 0.442800
O O10 0.368959 0.389932 0.420170
O O11 0.793083 0.850581 0.021195
O O12 0.721486 0.636488 0.317017
O O13 0.918480 0.410809 0.707956
O O14 0.000000 0.500000 0.500000
O O15 0.000000 0.000000 0.000000
#
# Coordination Sequence:
#
# PCOD9022352 Si02
#       7
#     2   2   2   2   2   2   2
#     4  10  22  39  61  88 125 164 209 253 301 358
#     4  10  23  42  66  90 123 164 206 248 306 368
#     4  11  23  42  64  92 125 162 204 249 301 366
#     4   9  22  41  62  90 123 165 208 253 301 362
#     4  11  22  38  61  91 124 164 205 254 306 355
#     4  11  23  40  64  92 127 162 205 253 305 359
#     4  12  26  44  67  95 126 157 200 254 309 366
#
# _framework density 24.620431
#
# number of rings (size 3 to 8) (size 9 to 14) (size 15 to 20)
#    0.000    1.429    0.000    4.714    0.000   14.286 
#    0.000    5.000    0.000    0.000    0.000    0.000 
#    0.000    0.000    0.000    0.000    0.000    0.000 
#
# Total GULP energy -78341.467340 kJ/mol
# GULP energy per Si atom -5595.819096 kJ/mol
# Density = 2.456439 g / cm^3
# Si number density = 24.620431 Si / 1000 Ang^3
#
#
#
# Elastic Constant Matrix: (Units=GPa)
#
#
# Indices 1 2 3 4 5 6 
#
# 1 53.2851 20.7809 -6.2786 -4.9923 -2.3940 4.6854
# 2 20.7809 171.1701 46.6942 -1.2827 -3.0240 24.8862
# 3 -6.2786 46.6942 2.3580 -22.6113 -24.0718 -20.0549
# 4 -4.9923 -1.2827 -22.6113 27.6680 7.4072 -1.5902
# 5 -2.3940 -3.0240 -24.0718 7.4072 34.4923 -9.8097
# 6 4.6854 24.8862 -20.0549 -1.5902 -9.8097 40.0864
#
#
#
# Elastic Compliance Matrix: (Units=1/GPa)
#
#
# Indices 1 2 3 4 5 6 
#
# 1 0.018821 -0.000543 -0.004096 0.000571 -0.003040 -0.004633
# 2 -0.000543 0.004203 0.005818 0.003871 0.003985 0.001494
# 3 -0.004096 0.005818 -0.013562 -0.009376 -0.010911 -0.012960
# 4 0.000571 0.003871 -0.009376 0.032461 -0.015914 -0.009767
# 5 -0.003040 0.003985 -0.010911 -0.015914 0.024289 -0.002265
# 6 -0.004633 0.001494 -0.012960 -0.009767 -0.002265 0.017135
#
#
# Mechanical properties :
#
#
# Convention : Reuss Voigt Hill
#
# Bulk Modulus (GPa) = 84.60885 38.80069 61.70477
# Shear Modulus (GPa) = 58.87275 31.49047 45.18161
#
# Velocity S-wave (km/s) = 4.89531 3.58024 4.28849
# Velocity P-wave (km/s) = 8.14813 5.73451 7.04545
#
# Compressibility (1/GPa) = 0.01181909
#
# Stress axis : x y z
#
# Youngs Moduli (GPa) = 53.13355 237.91408 -73.73555
#
# Poissons Ratio (x) = 0.12926 -0.30203
# Poissons Ratio (y) = 0.02887 0.42901
# Poissons Ratio (z) = 0.21764 -1.38422
#
# Static dielectric constant tensor:
#      x y z
#    x 2.058130 -0.004500 0.022590 
#    y -0.004500 1.950460 0.001200 
#    z 0.022590 0.001200 1.900430 
# 
# From -- ./inp_files/39523.got.cif
#   From: 2010.05.17/outbox.cif.g08.bks.cpg/sg2_20_cif.got.tgz:39523.got - 2010.06.03 11:33:40.
