data_PCOD9022534
_publ_section_title
;
Structure prediction by ZEFSAII (Michael W. Deem and Ramdas Pophale) SiO2 
 PCOD9022534
Probable space group: P -1
;
_chemical_formula_sum "Si O2"
_cell_formula_units_Z 16
_cell_length_a 11.312871
_cell_length_b 18.306984
_cell_length_c 15.064509
_cell_angle_alpha 155.422556
_cell_angle_beta 31.580522
_cell_angle_gamma 149.253238
_cell_volume 626.073075
_symmetry_space_group_name_H-M "P -1"
_symmetry_group_IT_number 2
_symmetry_cell_setting 'triclinic'
loop_
_space_group_symop_operation_xyz
x,y,z
-x,-y,-z
loop_
_atom_site_type_symbol
_atom_site_label
_atom_site_fract_x
_atom_site_fract_y
_atom_site_fract_z
Si Si1 0.843766 0.817385 0.278866
Si Si2 0.118642 0.574491 0.391838
Si Si3 0.171392 0.569805 0.140075
Si Si4 0.199676 0.203860 0.203377
Si Si5 0.657871 0.511810 0.325070
Si Si6 0.679276 0.904547 0.660197
Si Si7 0.212356 0.812818 0.755285
Si Si8 0.260253 0.952894 0.542515
O O1 0.774855 0.927619 0.523534
O O2 0.756388 0.869597 0.300409
O O3 0.735928 0.594421 0.122719
O O4 0.142703 0.915192 0.198724
O O5 0.181823 0.578378 0.251560
O O6 0.289319 0.716647 0.514566
O O7 0.894378 0.648131 0.620744
O O8 0.027626 0.358721 0.244305
O O9 0.282467 0.789559 0.284142
O O10 0.906628 0.500622 0.186922
O O11 0.482389 0.328798 0.181018
O O12 0.001192 0.139033 0.340278
O O13 0.180759 0.002829 0.955028
O O14 0.500000 0.500000 0.500000
O O15 0.698221 0.713477 0.476542
O O16 0.398582 0.868907 0.781734
O O17 0.500000 0.000000 0.500000
#
# Coordination Sequence:
#
# PCOD9022534 Si02
#       8
#     2   2   2   2   2   2   2   2
#     4  11  25  46  66  96 136 176 226 269 332 402
#     4  10  22  39  62  94 134 160 219 276 317 397
#     4  11  23  44  71  96 128 180 224 272 334 388
#     4  11  22  41  69  99 127 175 218 269 339 384
#     4  12  20  42  73  99 133 164 223 286 329 385
#     4  11  24  44  66  99 137 173 218 284 331 387
#     4  11  22  41  64  97 133 170 214 274 338 386
#     4  11  25  45  67  99 138 177 222 270 320 408
#
# _framework density 25.556121999999998
#
# number of rings (size 3 to 8) (size 9 to 14) (size 15 to 20)
#    0.000    1.000    5.000    1.875    3.500    1.000 
#    6.750    3.750    0.000    0.000    0.000    0.000 
#    0.000    0.000    0.000    0.000    0.000    0.000 
#
# Total GULP energy -89381.922670 kJ/mol
# GULP energy per Si atom -5586.370167 kJ/mol
# Density = 2.549795 g / cm^3
# Si number density = 25.556122 Si / 1000 Ang^3
#
#
#
# Elastic Constant Matrix: (Units=GPa)
#
#
# Indices 1 2 3 4 5 6 
#
# 1 103.3694 17.2020 18.5253 -4.5777 -20.5717 10.6350
# 2 17.2020 63.9689 17.5344 22.6869 0.1231 12.7982
# 3 18.5253 17.5344 99.9983 30.3054 -6.9157 14.2153
# 4 -4.5777 22.6869 30.3054 31.1438 -5.0288 5.7432
# 5 -20.5717 0.1231 -6.9157 -5.0288 31.0092 3.8582
# 6 10.6350 12.7982 14.2153 5.7432 3.8582 42.6093
#
#
#
# Elastic Compliance Matrix: (Units=1/GPa)
#
#
# Indices 1 2 3 4 5 6 
#
# 1 0.015002 -0.007326 -0.004659 0.014514 0.011670 -0.003002
# 2 -0.007326 0.025870 0.004246 -0.024663 -0.007600 -0.003346
# 3 -0.004659 0.004246 0.016239 -0.019454 -0.002305 -0.002699
# 4 0.014514 -0.024663 -0.019454 0.074222 0.017589 -0.001321
# 5 0.011670 -0.007600 -0.002305 0.017589 0.043122 -0.006136
# 6 -0.003002 -0.003346 -0.002699 -0.001321 -0.006136 0.026858
#
#
# Mechanical properties :
#
#
# Convention : Reuss Voigt Hill
#
# Bulk Modulus (GPa) = 24.02071 41.54001 32.78036
# Shear Modulus (GPa) = 21.67591 35.22411 28.45001
#
# Velocity S-wave (km/s) = 2.91549 3.71658 3.34014
# Velocity P-wave (km/s) = 4.55555 5.89126 5.26593
#
# Compressibility (1/GPa) = 0.04163074
#
# Stress axis : x y z
#
# Youngs Moduli (GPa) = 66.65610 38.65479 61.58113
#
# Poissons Ratio (x) = 0.28320 0.28693
# Poissons Ratio (y) = 0.48835 -0.26144
# Poissons Ratio (z) = 0.31057 -0.16411
#
# Static dielectric constant tensor:
#      x y z
#    x 2.032840 0.030010 0.024350 
#    y 0.030010 2.096060 -0.019380 
#    z 0.024350 -0.019380 2.012670 
# 
# From -- ./inp_files/427878.got.cif
#   From: 2010.05.17/outbox.cif.g08.bks.cpg/sg2_214_cif.got.tgz:427878.got - 2010.06.03 11:33:40.
