data_PCOD9022025
_publ_section_title
;
Structure prediction by ZEFSAII (Michael W. Deem and Ramdas Pophale) SiO2 
 PCOD9022025
Probable space group: P -1
;
_chemical_formula_sum "Si O2"
_cell_formula_units_Z 14
_cell_length_a 11.001050
_cell_length_b 11.386500
_cell_length_c 7.737971
_cell_angle_alpha 107.448001
_cell_angle_beta 107.391311
_cell_angle_gamma 45.313067
_cell_volume 651.853950
_symmetry_space_group_name_H-M "P -1"
_symmetry_group_IT_number 2
_symmetry_cell_setting 'triclinic'
loop_
_space_group_symop_operation_xyz
x,y,z
-x,-y,-z
loop_
_atom_site_type_symbol
_atom_site_label
_atom_site_fract_x
_atom_site_fract_y
_atom_site_fract_z
Si Si1 0.292744 0.066680 0.396021
Si Si2 0.161870 0.529234 0.418476
Si Si3 0.458897 0.804415 0.659535
Si Si4 0.831957 0.192012 0.550568
Si Si5 0.468640 0.853675 0.068093
Si Si6 0.169643 0.915092 0.140640
Si Si7 0.178887 0.378056 0.697206
O O1 0.596791 0.081460 0.481849
O O2 0.234928 0.229045 0.528394
O O3 0.395972 0.007222 0.233104
O O4 0.144469 0.065986 0.285426
O O5 0.346114 0.366425 0.354082
O O6 0.140489 0.686166 0.437654
O O7 0.160872 0.503018 0.612833
O O8 0.006242 0.547920 0.282694
O O9 0.330244 0.770532 0.589997
O O10 0.438185 0.889288 0.868836
O O11 0.802682 0.200869 0.748108
O O12 0.000000 0.000000 0.500000
O O13 0.344116 0.822501 0.063917
O O14 0.667767 0.704317 0.137610
O O15 0.000000 0.000000 0.000000
#
# Coordination Sequence:
#
# PCOD9022025 Si02
#       7
#     2   2   2   2   2   2   2
#     4   9  21  41  68  93 130 170 210 266 314 374
#     4  11  24  40  67  90 132 176 208 265 325 381
#     4  11  22  41  68  98 129 168 211 270 324 371
#     4  11  22  42  68  95 126 165 217 268 327 380
#     4  10  22  38  68  98 127 168 218 261 313 386
#     4   9  19  37  64  96 123 154 216 269 313 370
#     4  11  22  44  62  93 134 176 214 256 323 377
#
# _framework density 21.477202999999999
#
# number of rings (size 3 to 8) (size 9 to 14) (size 15 to 20)
#    0.857    0.857    1.429    3.429    0.000    1.143 
#    0.000    7.143    0.000    0.000    0.000    0.000 
#    0.000    0.000    0.000    0.000    0.000    0.000 
#
# Total GULP energy -78152.860898 kJ/mol
# GULP energy per Si atom -5582.347207 kJ/mol
# Density = 2.142832 g / cm^3
# Si number density = 21.477203 Si / 1000 Ang^3
#
#
#
# Elastic Constant Matrix: (Units=GPa)
#
#
# Indices 1 2 3 4 5 6 
#
# 1 140.7290 49.0857 50.1392 -7.2880 12.7900 -5.8005
# 2 49.0857 90.1448 26.5215 -5.7507 1.8641 -6.0763
# 3 50.1392 26.5215 135.3908 -23.7503 6.4554 -6.7267
# 4 -7.2880 -5.7507 -23.7503 21.5791 -13.9849 9.6437
# 5 12.7900 1.8641 6.4554 -13.9849 40.7523 -9.5426
# 6 -5.8005 -6.0763 -6.7267 9.6437 -9.5426 51.3434
#
#
#
# Elastic Compliance Matrix: (Units=1/GPa)
#
#
# Indices 1 2 3 4 5 6 
#
# 1 0.010060 -0.004664 -0.003331 -0.004036 -0.003753 0.000209
# 2 -0.004664 0.013997 -0.000667 0.002230 0.001924 0.000981
# 3 -0.003331 -0.000667 0.010902 0.013541 0.003793 -0.000865
# 4 -0.004036 0.002230 0.013541 0.080355 0.024497 -0.008958
# 5 -0.003753 0.001924 0.003793 0.024497 0.033903 0.002000
# 6 0.000209 0.000981 -0.000865 -0.008958 0.002000 0.021557
#
#
# Mechanical properties :
#
#
# Convention : Reuss Voigt Hill
#
# Bulk Modulus (GPa) = 56.69957 68.63971 62.66964
# Shear Modulus (GPa) = 25.77658 38.76948 32.27303
#
# Velocity S-wave (km/s) = 3.46812 4.25331 3.88063
# Velocity P-wave (km/s) = 6.51877 7.49330 7.02296
#
# Compressibility (1/GPa) = 0.01763682
#
# Stress axis : x y z
#
# Youngs Moduli (GPa) = 99.40544 71.44142 91.73021
#
# Poissons Ratio (x) = 0.33318 0.30552
# Poissons Ratio (y) = 0.46360 0.06115
# Poissons Ratio (z) = 0.33108 0.04763
#
# Static dielectric constant tensor:
#      x y z
#    x 1.850810 -0.024040 0.005550 
#    y -0.024040 1.773940 0.014240 
#    z 0.005550 0.014240 1.783340 
# 
# From -- ./inp_files/189510.got.cif
#   From: 2010.05.17/outbox.cif.g08.bks.cpg/sg2_95_cif.got.tgz:189510.got - 2010.06.03 11:33:40.
