data_PCOD9022542
_publ_section_title
;
Structure prediction by ZEFSAII (Michael W. Deem and Ramdas Pophale) SiO2 
 PCOD9022542
Probable space group: P -1
;
_chemical_formula_sum "Si O2"
_cell_formula_units_Z 14
_cell_length_a 14.601380
_cell_length_b 11.712453
_cell_length_c 5.357973
_cell_angle_alpha 55.490911
_cell_angle_beta 61.087186
_cell_angle_gamma 45.054465
_cell_volume 528.950988
_symmetry_space_group_name_H-M "P -1"
_symmetry_group_IT_number 2
_symmetry_cell_setting 'triclinic'
loop_
_space_group_symop_operation_xyz
x,y,z
-x,-y,-z
loop_
_atom_site_type_symbol
_atom_site_label
_atom_site_fract_x
_atom_site_fract_y
_atom_site_fract_z
Si Si1 0.318733 0.717586 0.404620
Si Si2 0.521853 0.151592 0.124276
Si Si3 0.078018 0.026130 0.156820
Si Si4 0.787000 0.790365 0.190689
Si Si5 0.574601 0.575263 0.695637
Si Si6 0.173348 0.677534 0.034856
Si Si7 0.220539 0.364467 0.112711
O O1 0.392224 0.516444 0.500782
O O2 0.246334 0.748273 0.719188
O O3 0.209138 0.830782 0.194023
O O4 0.406607 0.782760 0.204987
O O5 0.501593 0.233803 0.327243
O O6 0.379886 0.237879 0.086827
O O7 0.630376 0.946043 0.230514
O O8 0.973730 0.156340 0.923203
O O9 0.140187 0.121268 0.050729
O O10 0.000000 0.000000 0.500000
O O11 0.828247 0.688766 0.523445
O O12 0.811526 0.675890 0.060930
O O13 0.500000 0.500000 0.000000
O O14 0.720967 0.476639 0.734460
O O15 0.161572 0.564518 0.980942
#
# Coordination Sequence:
#
# PCOD9022542 Si02
#       7
#     2   2   2   2   2   2   2
#     4   9  19  40  62  94 129 165 221 276 326 381
#     4   9  20  40  63  95 130 172 219 272 328 388
#     4   9  21  46  67  95 126 166 224 273 331 385
#     4  11  24  47  63  99 131 174 222 268 325 394
#     4   9  19  35  57  94 124 164 207 270 325 382
#     4  10  22  39  62  95 127 174 220 268 327 387
#     4  11  25  41  68  93 137 177 216 267 328 393
#
# _framework density 26.467479000000001
#
# number of rings (size 3 to 8) (size 9 to 14) (size 15 to 20)
#    0.000    2.286    0.000    0.857    4.000    6.857 
#   33.429    0.000    0.000    0.000    0.000    0.000 
#    0.000    0.000    0.000    0.000    0.000    0.000 
#
# Total GULP energy -78228.842214 kJ/mol
# GULP energy per Si atom -5587.774444 kJ/mol
# Density = 2.640724 g / cm^3
# Si number density = 26.467479 Si / 1000 Ang^3
#
#
#
# Elastic Constant Matrix: (Units=GPa)
#
#
# Indices 1 2 3 4 5 6 
#
# 1 90.9930 21.9326 25.6607 2.8524 -0.4398 -6.7634
# 2 21.9326 123.6632 18.9420 -0.8150 6.3105 1.3705
# 3 25.6607 18.9420 115.9810 -4.2348 -19.9602 14.4904
# 4 2.8524 -0.8150 -4.2348 32.2456 6.9014 10.6835
# 5 -0.4398 6.3105 -19.9602 6.9014 46.0172 -6.7266
# 6 -6.7634 1.3705 14.4904 10.6835 -6.7266 50.4925
#
#
#
# Elastic Compliance Matrix: (Units=1/GPa)
#
#
# Indices 1 2 3 4 5 6 
#
# 1 0.012583 -0.001822 -0.002985 -0.002568 -0.000083 0.003124
# 2 -0.001822 0.008714 -0.001259 0.000820 -0.001962 -0.000554
# 3 -0.002985 -0.001259 0.010656 0.001862 0.004007 -0.003284
# 4 -0.002568 0.000820 0.001862 0.035886 -0.006071 -0.009302
# 5 -0.000083 -0.001962 0.004007 -0.006071 0.025164 0.003529
# 6 0.003124 -0.000554 -0.003284 -0.009302 0.003529 0.023619
#
#
# Mechanical properties :
#
#
# Convention : Reuss Voigt Hill
#
# Bulk Modulus (GPa) = 50.44768 51.52309 50.98538
# Shear Modulus (GPa) = 36.93865 43.35786 40.14826
#
# Velocity S-wave (km/s) = 3.73986 4.05180 3.89895
# Velocity P-wave (km/s) = 6.14413 6.43415 6.29081
#
# Compressibility (1/GPa) = 0.01982252
#
# Stress axis : x y z
#
# Youngs Moduli (GPa) = 79.47224 114.75697 93.84494
#
# Poissons Ratio (x) = 0.20907 0.28010
# Poissons Ratio (y) = 0.14478 0.11812
# Poissons Ratio (z) = 0.23720 0.14444
#
# Static dielectric constant tensor:
#      x y z
#    x 2.222780 -0.026560 0.086530 
#    y -0.026560 2.096140 0.055380 
#    z 0.086530 0.055380 2.166850 
# 
# From -- ./inp_files/93126.got.cif
#   From: 2010.05.17/outbox.cif.g08.bks.cpg/sg2_47_cif.got.tgz:93126.got - 2010.06.03 11:33:40.
