data_PCOD9022170
_publ_section_title
;
Structure prediction by ZEFSAII (Michael W. Deem and Ramdas Pophale) SiO2 
 PCOD9022170
Probable space group: P -1
;
_chemical_formula_sum "Si O2"
_cell_formula_units_Z 16
_cell_length_a 13.979740
_cell_length_b 14.298557
_cell_length_c 11.023243
_cell_angle_alpha 49.827833
_cell_angle_beta 147.205522
_cell_angle_gamma 141.251839
_cell_volume 746.613728
_symmetry_space_group_name_H-M "P -1"
_symmetry_group_IT_number 2
_symmetry_cell_setting 'triclinic'
loop_
_space_group_symop_operation_xyz
x,y,z
-x,-y,-z
loop_
_atom_site_type_symbol
_atom_site_label
_atom_site_fract_x
_atom_site_fract_y
_atom_site_fract_z
Si Si1 0.358793 0.687118 0.735767
Si Si2 0.368378 0.378823 0.356362
Si Si3 0.912926 0.317194 0.913163
Si Si4 0.236358 0.080259 0.741007
Si Si5 0.036646 0.441974 0.402519
Si Si6 0.607869 0.009442 0.790538
Si Si7 0.519063 0.854899 0.284478
Si Si8 0.369913 0.376390 0.760589
O O1 0.206986 0.576009 0.562131
O O2 0.497670 0.864768 0.710405
O O3 0.195604 0.652998 0.701737
O O4 0.519087 0.644300 0.988774
O O5 0.500000 0.500000 0.500000
O O6 0.390642 0.242082 0.502456
O O7 0.466447 0.463999 0.261954
O O8 0.127082 0.329291 0.157759
O O9 0.968563 0.472005 0.791373
O O10 0.741393 0.258842 0.888405
O O11 0.777863 0.179877 0.786871
O O12 0.386715 0.079817 0.800196
O O13 0.326074 0.249883 0.725531
O O14 0.261228 0.014834 0.946391
O O15 0.000000 0.000000 0.500000
O O16 0.146201 0.355920 0.565028
O O17 0.433822 0.021893 0.668806
#
# Coordination Sequence:
#
# PCOD9022170 Si02
#       8
#     2   2   2   2   2   2   2   2
#     4  10  23  42  65  88 122 150 210 253 306 357
#     4  12  22  40  57  90 126 160 202 245 298 357
#     4  10  23  40  62  86 127 156 207 246 299 358
#     4  11  22  38  59  89 129 163 199 240 295 367
#     4  11  22  42  66  90 114 164 197 260 308 351
#     4   9  22  41  59  88 119 161 197 251 289 363
#     4  10  22  39  58  89 121 166 197 241 292 365
#     4  11  22  38  62  90 121 158 199 251 296 361
#
# _framework density 21.430091000000001
#
# number of rings (size 3 to 8) (size 9 to 14) (size 15 to 20)
#    0.750    0.750    3.750    1.500    1.750    1.000 
#    6.750    0.000    0.000    1.500    0.000    0.000 
#    0.000    0.000    0.000    0.000    0.000    0.000 
#
# Total GULP energy -89320.659264 kJ/mol
# GULP energy per Si atom -5582.541204 kJ/mol
# Density = 2.138131 g / cm^3
# Si number density = 21.430091 Si / 1000 Ang^3
#
#
#
# Elastic Constant Matrix: (Units=GPa)
#
#
# Indices 1 2 3 4 5 6 
#
# 1 37.7136 -12.1081 14.1757 -0.9488 24.3961 -0.1379
# 2 -12.1081 52.5881 26.7234 -7.5797 0.4715 -11.8274
# 3 14.1757 26.7234 90.8218 -3.8115 28.6078 -7.8442
# 4 -0.9488 -7.5797 -3.8115 32.1381 -6.1929 8.0147
# 5 24.3961 0.4715 28.6078 -6.1929 35.5339 1.5612
# 6 -0.1379 -11.8274 -7.8442 8.0147 1.5612 30.5701
#
#
#
# Elastic Compliance Matrix: (Units=1/GPa)
#
#
# Indices 1 2 3 4 5 6 
#
# 1 0.058039 0.015053 0.000206 -0.005107 -0.041525 0.009598
# 2 0.015053 0.029608 -0.009235 0.003669 -0.003020 0.008345
# 3 0.000206 -0.009235 0.018834 -0.003782 -0.015976 0.003068
# 4 -0.005107 0.003669 -0.003782 0.036381 0.013273 -0.009790
# 5 -0.041525 -0.003020 -0.015976 0.013273 0.072422 -0.012634
# 6 0.009598 0.008345 0.003068 -0.009790 -0.012634 0.039983
#
#
# Mechanical properties :
#
#
# Convention : Reuss Voigt Hill
#
# Bulk Modulus (GPa) = 8.43666 26.52281 17.47974
# Shear Modulus (GPa) = 17.68482 29.80394 23.74438
#
# Velocity S-wave (km/s) = 2.87580 3.73332 3.33226
# Velocity P-wave (km/s) = 3.86941 5.56659 4.79371
#
# Compressibility (1/GPa) = 0.11853029
#
# Stress axis : x y z
#
# Youngs Moduli (GPa) = 17.22967 33.77522 53.09434
#
# Poissons Ratio (x) = -0.50843 -0.01096
# Poissons Ratio (y) = -0.25936 0.49034
# Poissons Ratio (z) = -0.00356 0.31192
#
# Static dielectric constant tensor:
#      x y z
#    x 1.789620 -0.002310 -0.038900 
#    y -0.002310 1.796810 -0.009950 
#    z -0.038900 -0.009950 1.777860 
# 
# From -- ./inp_files/454689.got.cif
#   From: 2010.05.17/outbox.cif.g08.bks.cpg/sg2_228_cif.got.tgz:454689.got - 2010.06.03 11:33:40.
