data_PCOD9022527
_publ_section_title
;
Structure prediction by ZEFSAII (Michael W. Deem and Ramdas Pophale) SiO2 
 PCOD9022527
Probable space group: P -1
;
_chemical_formula_sum "Si O2"
_cell_formula_units_Z 16
_cell_length_a 16.148059
_cell_length_b 14.357806
_cell_length_c 7.914847
_cell_angle_alpha 104.185205
_cell_angle_beta 119.464228
_cell_angle_gamma 26.414316
_cell_volume 613.607181
_symmetry_space_group_name_H-M "P -1"
_symmetry_group_IT_number 2
_symmetry_cell_setting 'triclinic'
loop_
_space_group_symop_operation_xyz
x,y,z
-x,-y,-z
loop_
_atom_site_type_symbol
_atom_site_label
_atom_site_fract_x
_atom_site_fract_y
_atom_site_fract_z
Si Si1 0.764838 0.579512 0.370663
Si Si2 0.418073 0.752858 0.224763
Si Si3 0.592016 0.930435 0.752680
Si Si4 0.130080 0.507669 0.156452
Si Si5 0.296595 0.657226 0.077326
Si Si6 0.184413 0.665443 0.296510
Si Si7 0.194351 0.906185 0.672640
Si Si8 0.898393 0.882332 0.643279
O O1 0.557157 0.690629 0.206263
O O2 0.841987 0.516671 0.619600
O O3 0.988296 0.325548 0.383075
O O4 0.626841 0.803739 0.272064
O O5 0.269876 0.792829 0.066636
O O6 0.636314 0.505018 0.443651
O O7 0.275970 0.954360 0.299221
O O8 0.672323 0.752080 0.824580
O O9 0.500000 0.000000 0.500000
O O10 0.854966 0.737572 0.937636
O O11 0.193336 0.553395 0.169558
O O12 0.257361 0.679603 0.247556
O O13 0.556656 0.376115 0.169001
O O14 0.107832 0.763781 0.845575
O O15 0.921426 0.918853 0.223440
O O16 0.000000 0.000000 0.500000
O O17 0.223536 0.949527 0.561318
#
# Coordination Sequence:
#
# PCOD9022527 Si02
#       8
#     2   2   2   2   2   2   2   2
#     4  10  22  39  62  94 125 165 206 263 316 372
#     4  11  22  42  60  88 135 171 216 257 309 371
#     4   9  19  38  67  96 120 153 209 261 321 387
#     4   9  19  38  66  94 118 163 209 256 320 386
#     4  12  26  40  61  94 132 177 219 262 309 366
#     4  11  22  41  66  90 127 174 210 262 320 370
#     4  12  23  42  63  86 130 176 218 263 312 364
#     4  12  25  38  61  95 127 169 221 262 304 375
#
# _framework density 26.075315
#
# number of rings (size 3 to 8) (size 9 to 14) (size 15 to 20)
#    0.000    1.250    5.000    1.500    3.500    2.000 
#    0.000    0.000    0.000   14.250    0.000    0.000 
#    0.000    0.000    0.000    0.000    0.000    0.000 
#
# Total GULP energy -89618.799466 kJ/mol
# GULP energy per Si atom -5601.174967 kJ/mol
# Density = 2.601597 g / cm^3
# Si number density = 26.075315 Si / 1000 Ang^3
#
#
#
# Elastic Constant Matrix: (Units=GPa)
#
#
# Indices 1 2 3 4 5 6 
#
# 1 42.7718 25.8578 2.3309 2.4492 -2.1983 14.0341
# 2 25.8578 186.1421 4.0584 -4.7759 -13.0032 24.8131
# 3 2.3309 4.0584 70.0200 -21.2266 13.2153 15.6180
# 4 2.4492 -4.7759 -21.2266 41.4521 1.0150 -1.8015
# 5 -2.1983 -13.0032 13.2153 1.0150 31.1268 -2.8970
# 6 14.0341 24.8131 15.6180 -1.8015 -2.8970 42.2870
#
#
#
# Elastic Compliance Matrix: (Units=1/GPa)
#
#
# Indices 1 2 3 4 5 6 
#
# 1 0.027768 -0.002891 0.000325 -0.002143 -0.000034 -0.007733
# 2 -0.002891 0.006285 0.000171 0.000818 0.002079 -0.002614
# 3 0.000325 0.000171 0.021280 0.010783 -0.010064 -0.008298
# 4 -0.002143 0.000818 0.010783 0.029880 -0.005629 -0.002864
# 5 -0.000034 0.002079 -0.010064 -0.005629 0.037902 0.004866
# 6 -0.007733 -0.002614 -0.008298 -0.002864 0.004866 0.031024
#
#
# Mechanical properties :
#
#
# Convention : Reuss Voigt Hill
#
# Bulk Modulus (GPa) = 19.78544 40.38091 30.08318
# Shear Modulus (GPa) = 28.44499 40.75231 34.59865
#
# Velocity S-wave (km/s) = 3.30643 3.95760 3.64658
# Velocity P-wave (km/s) = 4.70966 6.03352 5.41222
#
# Compressibility (1/GPa) = 0.05054221
#
# Stress axis : x y z
#
# Youngs Moduli (GPa) = 36.01250 159.11426 46.99198
#
# Poissons Ratio (x) = 0.46001 -0.01527
# Poissons Ratio (y) = 0.10411 -0.00802
# Poissons Ratio (z) = -0.01170 -0.02714
#
# Static dielectric constant tensor:
#      x y z
#    x 1.984700 0.009170 0.019260 
#    y 0.009170 2.072860 0.062110 
#    z 0.019260 0.062110 2.196550 
# 
# From -- ./inp_files/348526.got.cif
#   From: 2010.05.17/outbox.cif.g08.bks.cpg/sg2_175_cif.got.tgz:348526.got - 2010.06.03 11:33:40.
