data_PCOD9022694
_publ_section_title
;
Structure prediction by ZEFSAII (Michael W. Deem and Ramdas Pophale) SiO2 
 PCOD9022694
Probable space group: P -1
;
_chemical_formula_sum "Si O2"
_cell_formula_units_Z 16
_cell_length_a 14.244748
_cell_length_b 21.142320
_cell_length_c 5.457467
_cell_angle_alpha 120.840776
_cell_angle_beta 46.456039
_cell_angle_gamma 147.526327
_cell_volume 629.660036
_symmetry_space_group_name_H-M "P -1"
_symmetry_group_IT_number 2
_symmetry_cell_setting 'triclinic'
loop_
_space_group_symop_operation_xyz
x,y,z
-x,-y,-z
loop_
_atom_site_type_symbol
_atom_site_label
_atom_site_fract_x
_atom_site_fract_y
_atom_site_fract_z
Si Si1 0.669914 0.364328 0.745912
Si Si2 0.187452 0.983975 0.469299
Si Si3 0.920019 0.404938 0.761518
Si Si4 0.986621 0.098005 0.880475
Si Si5 0.596583 0.661872 0.157723
Si Si6 0.320649 0.440625 0.509192
Si Si7 0.108362 0.803287 0.026864
Si Si8 0.657168 0.206978 0.160837
O O1 0.883117 0.508033 0.604076
O O2 0.476881 0.326752 0.928484
O O3 0.658332 0.287638 0.440826
O O4 0.711993 0.346004 0.893980
O O5 0.068359 0.962334 0.403455
O O6 0.117097 0.867235 0.357260
O O7 0.435981 0.096361 0.210409
O O8 0.130430 0.988402 0.846993
O O9 0.000000 0.500000 0.000000
O O10 0.849537 0.297829 0.801881
O O11 0.900830 0.143710 0.075257
O O12 0.229500 0.217096 0.757468
O O13 0.395239 0.549551 0.463213
O O14 0.682725 0.623051 0.823159
O O15 0.500000 0.500000 0.500000
O O16 0.103373 0.337994 0.840570
O O17 0.298930 0.833482 0.789741
#
# Coordination Sequence:
#
# PCOD9022694 Si02
#       8
#     2   2   2   2   2   2   2   2
#     4  10  23  40  66  90 129 167 208 268 326 391
#     4  10  23  42  65  96 131 173 218 272 327 377
#     4   9  21  43  57  91 124 164 211 260 320 384
#     4  10  22  43  64  94 136 168 215 277 323 379
#     4  11  22  40  62  95 128 166 216 265 328 390
#     4  11  21  37  64  93 123 169 209 265 327 388
#     4  10  22  39  63  95 131 164 215 272 323 381
#     4  11  23  40  65  94 122 173 216 265 325 388
#
# _framework density 25.410537999999999
#
# number of rings (size 3 to 8) (size 9 to 14) (size 15 to 20)
#    0.750    1.000    2.500    1.125    1.750    6.500 
#    0.000    1.250    0.000    0.000    0.000    0.000 
#    0.000    0.000    0.000    0.000    0.000    0.000 
#
# Total GULP energy -89400.610314 kJ/mol
# GULP energy per Si atom -5587.538145 kJ/mol
# Density = 2.535270 g / cm^3
# Si number density = 25.410538 Si / 1000 Ang^3
#
#
#
# Elastic Constant Matrix: (Units=GPa)
#
#
# Indices 1 2 3 4 5 6 
#
# 1 150.1495 34.5293 8.9091 -4.5877 8.6392 24.1831
# 2 34.5293 72.3028 5.3298 -16.9349 4.4239 32.1133
# 3 8.9091 5.3298 34.2970 6.8473 13.7313 2.9420
# 4 -4.5877 -16.9349 6.8473 24.7770 -1.7183 4.9427
# 5 8.6392 4.4239 13.7313 -1.7183 39.9948 7.8076
# 6 24.1831 32.1133 2.9420 4.9427 7.8076 39.3848
#
#
#
# Elastic Compliance Matrix: (Units=1/GPa)
#
#
# Indices 1 2 3 4 5 6 
#
# 1 0.007753 -0.001815 -0.001617 0.001280 -0.000224 -0.003276
# 2 -0.001815 0.042624 -0.015253 0.041681 0.010476 -0.039809
# 3 -0.001617 -0.015253 0.042763 -0.027130 -0.017137 0.017038
# 4 0.001280 0.041681 -0.027130 0.087190 0.017375 -0.047131
# 5 -0.000224 0.010476 -0.017137 0.017375 0.033641 -0.015974
# 6 -0.003276 -0.039809 0.017038 -0.047131 -0.015974 0.067670
#
#
# Mechanical properties :
#
#
# Convention : Reuss Voigt Hill
#
# Bulk Modulus (GPa) = 17.93043 39.36511 28.64777
# Shear Modulus (GPa) = 14.81035 34.69672 24.75354
#
# Velocity S-wave (km/s) = 2.41683 3.69920 3.12451
# Velocity P-wave (km/s) = 3.85483 5.81126 4.93105
#
# Compressibility (1/GPa) = 0.05577112
#
# Stress axis : x y z
#
# Youngs Moduli (GPa) = 128.98303 23.46080 23.38443
#
# Poissons Ratio (x) = 0.04258 0.03780
# Poissons Ratio (y) = 0.23408 0.35669
# Poissons Ratio (z) = 0.20851 0.35786
#
# Static dielectric constant tensor:
#      x y z
#    x 1.978800 0.001920 -0.008880 
#    y 0.001920 1.951660 -0.026740 
#    z -0.008880 -0.026740 2.139370 
# 
# From -- ./inp_files/100954.got.cif
#   From: 2010.05.17/outbox.cif.g08.bks.cpg/sg2_51_cif.got.tgz:100954.got - 2010.06.03 11:33:40.
