data_PCOD9022588
_publ_section_title
;
Structure prediction by ZEFSAII (Michael W. Deem and Ramdas Pophale) SiO2 
 PCOD9022588
Probable space group: P -1
;
_chemical_formula_sum "Si O2"
_cell_formula_units_Z 14
_cell_length_a 9.376814
_cell_length_b 11.694820
_cell_length_c 9.045813
_cell_angle_alpha 52.874012
_cell_angle_beta 50.539405
_cell_angle_gamma 73.693642
_cell_volume 602.047840
_symmetry_space_group_name_H-M "P -1"
_symmetry_group_IT_number 2
_symmetry_cell_setting 'triclinic'
loop_
_space_group_symop_operation_xyz
x,y,z
-x,-y,-z
loop_
_atom_site_type_symbol
_atom_site_label
_atom_site_fract_x
_atom_site_fract_y
_atom_site_fract_z
Si Si1 0.423168 0.061942 0.696081
Si Si2 0.021608 0.933544 0.374217
Si Si3 0.799318 0.130599 0.211954
Si Si4 0.625604 0.212681 0.696757
Si Si5 0.528749 0.410712 0.867665
Si Si6 0.201890 0.583411 0.846485
Si Si7 0.300021 0.295462 0.376490
O O1 0.628641 0.055911 0.492746
O O2 0.460464 0.108200 0.802517
O O3 0.348657 0.191393 0.555742
O O4 0.278318 0.919412 0.858619
O O5 0.872435 0.791420 0.533856
O O6 0.215777 0.877559 0.292504
O O7 0.978190 0.058607 0.193215
O O8 0.000000 0.000000 0.500000
O O9 0.826455 0.298440 0.102442
O O10 0.564567 0.300634 0.804401
O O11 0.709859 0.326851 0.424335
O O12 0.348708 0.483406 0.881611
O O13 0.698716 0.544412 0.680880
O O14 0.469749 0.327154 0.123276
O O15 0.000000 0.500000 0.000000
#
# Coordination Sequence:
#
# PCOD9022588 Si02
#       7
#     2   2   2   2   2   2   2
#     4   9  17  35  64  87 110 156 206 241 286 357
#     4  11  20  37  64  88 119 157 209 241 295 359
#     4   9  18  34  62  86 112 154 207 234 294 358
#     4  11  22  38  64  93 119 156 204 255 288 348
#     4  11  23  39  61  90 126 157 200 246 306 355
#     4  11  21  36  63  92 116 156 200 247 293 363
#     4  10  22  39  63  86 119 166 198 241 306 363
#
# _framework density 23.253965999999998
#
# number of rings (size 3 to 8) (size 9 to 14) (size 15 to 20)
#    0.000    1.714    5.714    1.286    0.000    0.571 
#    0.000    0.714    0.000    1.714    0.000    0.000 
#    0.000    0.000    0.000    0.000    0.000    0.000 
#
# Total GULP energy -78348.208637 kJ/mol
# GULP energy per Si atom -5596.300617 kJ/mol
# Density = 2.320104 g / cm^3
# Si number density = 23.253966 Si / 1000 Ang^3
#
#
#
# Elastic Constant Matrix: (Units=GPa)
#
#
# Indices 1 2 3 4 5 6 
#
# 1 183.9593 114.2154 39.2134 -10.3987 0.1221 27.9059
# 2 114.2154 226.3565 26.2314 10.9538 -0.3288 34.5776
# 3 39.2134 26.2314 46.8327 -6.5144 3.7177 6.6348
# 4 -10.3987 10.9538 -6.5144 21.5378 10.7718 6.3325
# 5 0.1221 -0.3288 3.7177 10.7718 18.2714 -8.1293
# 6 27.9059 34.5776 6.6348 6.3325 -8.1293 52.7088
#
#
#
# Elastic Compliance Matrix: (Units=1/GPa)
#
#
# Indices 1 2 3 4 5 6 
#
# 1 0.010574 -0.004871 -0.002862 0.012925 -0.009443 -0.005051
# 2 -0.004871 0.007615 -0.002171 -0.010289 0.006735 0.000132
# 3 -0.002862 -0.002171 0.030950 0.022639 -0.022869 -0.007204
# 4 0.012925 -0.010289 0.022639 0.117735 -0.087924 -0.030649
# 5 -0.009443 0.006735 -0.022869 -0.087924 0.126310 0.033504
# 6 -0.005051 0.000132 -0.007204 -0.030649 0.033504 0.031316
#
#
# Mechanical properties :
#
#
# Convention : Reuss Voigt Hill
#
# Bulk Modulus (GPa) = 34.09429 90.71879 62.40654
# Shear Modulus (GPa) = 14.12093 37.00282 25.56187
#
# Velocity S-wave (km/s) = 2.46691 3.99337 3.31909
# Velocity P-wave (km/s) = 4.77575 7.76914 6.44854
#
# Compressibility (1/GPa) = 0.02933042
#
# Stress axis : x y z
#
# Youngs Moduli (GPa) = 94.57605 131.32312 32.31027
#
# Poissons Ratio (x) = 0.63968 0.09247
# Poissons Ratio (y) = 0.46069 0.07015
# Poissons Ratio (z) = 0.27066 0.28510
#
# Static dielectric constant tensor:
#      x y z
#    x 1.882490 0.019710 0.007820 
#    y 0.019710 1.888580 -0.018670 
#    z 0.007820 -0.018670 1.901350 
# 
# From -- ./inp_files/184837.got.cif
#   From: 2010.05.17/outbox.cif.g08.bks.cpg/sg2_93_cif.got.tgz:184837.got - 2010.06.03 11:33:40.
