data_PCOD9022731
_publ_section_title
;
Structure prediction by ZEFSAII (Michael W. Deem and Ramdas Pophale) SiO2 
 PCOD9022731
Probable space group: P -1
;
_chemical_formula_sum "Si O2"
_cell_formula_units_Z 12
_cell_length_a 14.013682
_cell_length_b 8.822729
_cell_length_c 14.391109
_cell_angle_alpha 40.727264
_cell_angle_beta 151.032622
_cell_angle_gamma 117.643712
_cell_volume 436.683546
_symmetry_space_group_name_H-M "P -1"
_symmetry_group_IT_number 2
_symmetry_cell_setting 'triclinic'
loop_
_space_group_symop_operation_xyz
x,y,z
-x,-y,-z
loop_
_atom_site_type_symbol
_atom_site_label
_atom_site_fract_x
_atom_site_fract_y
_atom_site_fract_z
Si Si1 0.501393 0.694479 0.189541
Si Si2 0.529212 0.547269 0.896958
Si Si3 0.379373 0.838869 0.217202
Si Si4 0.288622 0.980803 0.280394
Si Si5 0.844655 0.815296 0.668532
Si Si6 0.022016 0.400755 0.301392
O O1 0.434127 0.701841 0.021809
O O2 0.315374 0.880590 0.033176
O O3 0.610245 0.350460 0.459972
O O4 0.726405 0.716546 0.375387
O O5 0.266454 0.893532 0.498936
O O6 0.500000 0.500000 0.000000
O O7 0.783769 0.504633 0.112890
O O8 0.500000 0.500000 0.500000
O O9 0.227086 0.006177 0.103652
O O10 0.592283 0.876773 0.389113
O O11 0.500000 0.000000 0.500000
O O12 0.039155 0.310251 0.939581
O O13 0.974900 0.782050 0.697299
O O14 0.000000 0.500000 0.000000
#
# Coordination Sequence:
#
# PCOD9022731 Si02
#       6
#     2   2   2   2   2   2
#     4  10  22  39  63  99 132 175 227 279 336 410
#     4  12  27  48  68  93 138 190 230 276 338 401
#     4   9  19  33  60  99 134 164 210 270 343 396
#     4  11  17  35  67  98 137 173 210 279 347 396
#     4  11  23  41  69 104 132 168 226 283 341 408
#     4  11  23  41  67  95 140 172 227 281 340 401
#
# _framework density 27.479855000000001
#
# number of rings (size 3 to 8) (size 9 to 14) (size 15 to 20)
#    0.000    1.333    3.333    2.500    2.333    4.000 
#    0.000    3.333    0.000    0.000    0.000    0.000 
#    0.000    0.000    0.000    0.000    0.000    0.000 
#
# Total GULP energy -66891.527991 kJ/mol
# GULP energy per Si atom -5574.293999 kJ/mol
# Density = 2.741731 g / cm^3
# Si number density = 27.479855 Si / 1000 Ang^3
#
#
#
# Elastic Constant Matrix: (Units=GPa)
#
#
# Indices 1 2 3 4 5 6 
#
# 1 153.8927 43.4024 16.9153 -4.7214 2.1748 -44.3600
# 2 43.4024 187.4719 31.0902 4.7875 0.9992 -28.3462
# 3 16.9153 31.0902 53.0294 3.8883 -8.3971 6.1466
# 4 -4.7214 4.7875 3.8883 43.8793 -3.9527 -4.1348
# 5 2.1748 0.9992 -8.3971 -3.9527 37.4137 -0.6090
# 6 -44.3600 -28.3462 6.1466 -4.1348 -0.6090 63.3903
#
#
#
# Elastic Compliance Matrix: (Units=1/GPa)
#
#
# Indices 1 2 3 4 5 6 
#
# 1 0.008997 -0.000542 -0.003605 0.001869 -0.001014 0.006515
# 2 -0.000542 0.006615 -0.004201 -0.000225 -0.001063 0.002961
# 3 -0.003605 -0.004201 0.024287 -0.002239 0.005425 -0.006850
# 4 0.001869 -0.000225 -0.002239 0.023670 0.001944 0.002987
# 5 -0.001014 -0.001063 0.005425 0.001944 0.028217 -0.001313
# 6 0.006515 0.002961 -0.006850 0.002987 -0.001313 0.022505
#
#
# Mechanical properties :
#
#
# Convention : Reuss Voigt Hill
#
# Bulk Modulus (GPa) = 43.09575 64.13442 53.61509
# Shear Modulus (GPa) = 36.04327 49.13574 42.58950
#
# Velocity S-wave (km/s) = 3.62557 4.23314 3.94108
# Velocity P-wave (km/s) = 5.76568 6.87619 6.34527
#
# Compressibility (1/GPa) = 0.02320414
#
# Stress axis : x y z
#
# Youngs Moduli (GPa) = 111.14969 151.16074 41.17403
#
# Poissons Ratio (x) = 0.08198 0.14842
# Poissons Ratio (y) = 0.06028 0.17296
# Poissons Ratio (z) = 0.40065 0.63498
#
# Static dielectric constant tensor:
#      x y z
#    x 2.406720 0.017970 -0.090140 
#    y 0.017970 2.207750 -0.013070 
#    z -0.090140 -0.013070 2.286770 
# 
# From -- ./inp_files/529424.got.cif
#   From: 2010.05.17/outbox.cif.g08.bks.cpg/sg2_265_cif.got.tgz:529424.got - 2010.06.03 11:33:40.
