data_PCOD9022832
_publ_section_title
;
Structure prediction by ZEFSAII (Michael W. Deem and Ramdas Pophale) SiO2 
 PCOD9022832
Probable space group: P -1
;
_chemical_formula_sum "Si O2"
_cell_formula_units_Z 16
_cell_length_a 15.706903
_cell_length_b 8.880043
_cell_length_c 9.322958
_cell_angle_alpha 94.522536
_cell_angle_beta 124.022482
_cell_angle_gamma 127.964897
_cell_volume 647.561855
_symmetry_space_group_name_H-M "P -1"
_symmetry_group_IT_number 2
_symmetry_cell_setting 'triclinic'
loop_
_space_group_symop_operation_xyz
x,y,z
-x,-y,-z
loop_
_atom_site_type_symbol
_atom_site_label
_atom_site_fract_x
_atom_site_fract_y
_atom_site_fract_z
Si Si1 0.773300 0.898710 0.512217
Si Si2 0.141322 0.857569 0.682599
Si Si3 0.705988 0.454911 0.881935
Si Si4 0.894532 0.700707 0.653658
Si Si5 0.036962 0.720619 0.061952
Si Si6 0.649306 0.171662 0.035080
Si Si7 0.402768 0.353932 0.156758
Si Si8 0.531317 0.220996 0.412084
O O1 0.850703 0.084844 0.469405
O O2 0.868278 0.849496 0.623153
O O3 0.576995 0.627869 0.277910
O O4 0.793065 0.029278 0.678711
O O5 0.292503 0.131327 0.922519
O O6 0.968148 0.711907 0.581329
O O7 0.194876 0.747175 0.754485
O O8 0.679889 0.373367 0.015174
O O9 0.704328 0.632601 0.885555
O O10 0.570173 0.240491 0.616888
O O11 0.885210 0.604093 0.008916
O O12 0.712597 0.424570 0.514830
O O13 0.022164 0.790604 0.903511
O O14 0.000000 0.500000 0.000000
O O15 0.593196 0.024691 0.821334
O O16 0.500000 0.000000 0.000000
O O17 0.465264 0.313036 0.334162
#
# Coordination Sequence:
#
# PCOD9022832 Si02
#       8
#     2   2   2   2   2   2   2   2
#     4  11  23  41  65  90 122 162 202 249 304 358
#     4  11  23  41  63  91 123 161 202 249 302 362
#     4  11  22  40  64  88 118 163 204 248 301 361
#     4  10  22  41  65  91 120 156 203 254 301 357
#     4  11  25  43  61  90 126 161 201 251 301 358
#     4  11  24  40  59  89 127 162 200 250 302 359
#     4  10  22  39  64  95 121 153 204 257 301 354
#     4   9  22  41  63  90 121 158 204 252 303 357
#
# _framework density 24.708061000000001
#
# number of rings (size 3 to 8) (size 9 to 14) (size 15 to 20)
#    0.000    1.500    0.000    4.125    0.000   12.000 
#    0.000    1.875    0.000    0.000    0.000    0.000 
#    0.000    0.000    0.000    0.000    0.000    0.000 
#
# Total GULP energy -89609.627960 kJ/mol
# GULP energy per Si atom -5600.601748 kJ/mol
# Density = 2.465182 g / cm^3
# Si number density = 24.708061 Si / 1000 Ang^3
#
#
#
# Elastic Constant Matrix: (Units=GPa)
#
#
# Indices 1 2 3 4 5 6 
#
# 1 115.7181 42.1406 17.6709 -4.1792 22.5701 -6.1414
# 2 42.1406 91.0433 34.2808 -31.1249 2.4939 -7.7377
# 3 17.6709 34.2808 102.0097 -9.7935 -5.6409 -12.5572
# 4 -4.1792 -31.1249 -9.7935 41.3496 -2.8861 -9.7568
# 5 22.5701 2.4939 -5.6409 -2.8861 30.8553 -0.3614
# 6 -6.1414 -7.7377 -12.5572 -9.7568 -0.3614 42.8442
#
#
#
# Elastic Compliance Matrix: (Units=1/GPa)
#
#
# Indices 1 2 3 4 5 6 
#
# 1 0.013111 -0.007359 -0.000977 -0.005367 -0.009689 -0.001040
# 2 -0.007359 0.021648 -0.003486 0.016367 0.004592 0.005599
# 3 -0.000977 -0.003486 0.011781 0.000990 0.003277 0.002936
# 4 -0.005367 0.016367 0.000990 0.039370 0.006601 0.011498
# 5 -0.009689 0.004592 0.003277 0.006601 0.040368 0.002245
# 6 -0.001040 0.005599 0.002936 0.011498 0.002245 0.027700
#
#
# Mechanical properties :
#
#
# Convention : Reuss Voigt Hill
#
# Bulk Modulus (GPa) = 43.67304 55.21729 49.44517
# Shear Modulus (GPa) = 26.98985 37.32173 32.15579
#
# Velocity S-wave (km/s) = 3.30866 3.89074 3.61145
# Velocity P-wave (km/s) = 5.68421 6.52535 6.11925
#
# Compressibility (1/GPa) = 0.02289742
#
# Stress axis : x y z
#
# Youngs Moduli (GPa) = 76.26939 46.19415 84.87994
#
# Poissons Ratio (x) = 0.33992 0.08296
# Poissons Ratio (y) = 0.56123 0.29586
# Poissons Ratio (z) = 0.07455 0.16101
#
# Static dielectric constant tensor:
#      x y z
#    x 1.911170 0.008750 0.008950 
#    y 0.008750 1.965450 0.069480 
#    z 0.008950 0.069480 2.010080 
# 
# From -- ./inp_files/244784.got.cif
#   From: 2010.05.17/outbox.cif.g08.bks.cpg/sg2_123_cif.got.tgz:244784.got - 2010.06.03 11:33:40.
