data_PCOD9022157
_publ_section_title
;
Structure prediction by ZEFSAII (Michael W. Deem and Ramdas Pophale) SiO2 
 PCOD9022157
Probable space group: P -1
;
_chemical_formula_sum "Si O2"
_cell_formula_units_Z 14
_cell_length_a 19.700985
_cell_length_b 17.607074
_cell_length_c 9.236636
_cell_angle_alpha 55.893740
_cell_angle_beta 43.051939
_cell_angle_gamma 20.171721
_cell_volume 638.744579
_symmetry_space_group_name_H-M "P -1"
_symmetry_group_IT_number 2
_symmetry_cell_setting 'triclinic'
loop_
_space_group_symop_operation_xyz
x,y,z
-x,-y,-z
loop_
_atom_site_type_symbol
_atom_site_label
_atom_site_fract_x
_atom_site_fract_y
_atom_site_fract_z
Si Si1 0.673245 0.445245 0.799157
Si Si2 0.336839 0.227613 0.445537
Si Si3 0.307625 0.183218 0.242999
Si Si4 0.841690 0.002407 0.964943
Si Si5 0.130597 0.922654 0.728336
Si Si6 0.281134 0.516467 0.634205
Si Si7 0.576186 0.108611 0.478858
O O1 0.715022 0.449456 0.570949
O O2 0.500000 0.500000 0.000000
O O3 0.974560 0.153712 0.696180
O O4 0.458260 0.699420 0.942802
O O5 0.422073 0.154042 0.220589
O O6 0.413058 0.232761 0.448184
O O7 0.998360 0.518412 0.650178
O O8 0.500000 0.000000 0.500000
O O9 0.292124 0.097628 0.441551
O O10 0.500000 0.000000 0.000000
O O11 0.038465 0.922600 0.759779
O O12 0.990893 0.795792 0.860081
O O13 0.795984 0.995656 0.201450
O O14 0.461518 0.654392 0.504440
O O15 0.000000 0.000000 0.000000
O O16 0.365553 0.337238 0.677978
#
# Coordination Sequence:
#
# PCOD9022157 Si02
#       7
#     2   2   2   2   2   2   2
#     4   9  19  36  55  78 112 151 199 257 298 342
#     4   9  21  41  64  90 120 157 191 243 307 361
#     4  10  22  41  69  95 118 156 202 243 302 376
#     4  10  22  39  58  86 122 164 205 254 299 353
#     4  11  19  39  61  81 120 165 205 253 300 344
#     4  11  22  38  58  87 119 164 210 247 298 355
#     4  10  22  39  60  90 132 155 196 257 305 355
#
# _framework density 21.917995999999999
#
# number of rings (size 3 to 8) (size 9 to 14) (size 15 to 20)
#    0.000    2.000    4.286    0.429    0.000   11.429 
#    2.571    0.000    0.000    0.000    0.000    0.000 
#    0.000    0.000    0.000    0.000    0.000    0.000 
#
# Total GULP energy -78004.275741 kJ/mol
# GULP energy per Si atom -5571.733982 kJ/mol
# Density = 2.186811 g / cm^3
# Si number density = 21.917996 Si / 1000 Ang^3
#
#
#
# Elastic Constant Matrix: (Units=GPa)
#
#
# Indices 1 2 3 4 5 6 
#
# 1 91.5065 29.5962 10.2726 10.0021 11.4940 1.7994
# 2 29.5962 160.0031 35.7247 20.7572 5.2874 3.9129
# 3 10.2726 35.7247 55.7506 19.1198 19.6140 1.9126
# 4 10.0021 20.7572 19.1198 35.0774 16.6362 10.6551
# 5 11.4940 5.2874 19.6140 16.6362 24.4720 3.1403
# 6 1.7994 3.9129 1.9126 10.6551 3.1403 40.3572
#
#
#
# Elastic Compliance Matrix: (Units=1/GPa)
#
#
# Indices 1 2 3 4 5 6 
#
# 1 0.012358 -0.002445 0.001565 0.000220 -0.006689 0.000074
# 2 -0.002445 0.008350 -0.005856 -0.004452 0.007038 0.000205
# 3 0.001565 -0.005856 0.030133 -0.003876 -0.021210 0.001744
# 4 0.000220 -0.004452 -0.003876 0.049920 -0.028643 -0.010345
# 5 -0.006689 0.007038 -0.021210 -0.028643 0.078691 0.002060
# 6 0.000074 0.000205 0.001744 -0.010345 0.002060 0.027244
#
#
# Mechanical properties :
#
#
# Convention : Reuss Voigt Hill
#
# Bulk Modulus (GPa) = 26.76074 50.93858 38.84966
# Shear Modulus (GPa) = 21.49406 35.42578 28.45992
#
# Velocity S-wave (km/s) = 3.13494 4.02467 3.60734
# Velocity P-wave (km/s) = 5.03387 6.69987 5.92571
#
# Compressibility (1/GPa) = 0.03736818
#
# Stress axis : x y z
#
# Youngs Moduli (GPa) = 80.91990 119.76677 33.18664
#
# Poissons Ratio (x) = 0.29277 -0.05193
# Poissons Ratio (y) = 0.19781 0.19435
# Poissons Ratio (z) = -0.12663 0.70139
#
# Static dielectric constant tensor:
#      x y z
#    x 1.908550 0.042480 -0.019530 
#    y 0.042480 1.828960 0.011640 
#    z -0.019530 0.011640 1.791080 
# 
# From -- ./inp_files/348404.got.cif
#   From: 2010.05.17/outbox.cif.g08.bks.cpg/sg2_175_cif.got.tgz:348404.got - 2010.06.03 11:33:40.
