data_PCOD9022645
_publ_section_title
;
Structure prediction by ZEFSAII (Michael W. Deem and Ramdas Pophale) SiO2 
 PCOD9022645
Probable space group: P -1
;
_chemical_formula_sum "Si O2"
_cell_formula_units_Z 16
_cell_length_a 12.547113
_cell_length_b 14.664632
_cell_length_c 6.617786
_cell_angle_alpha 90.925719
_cell_angle_beta 70.753070
_cell_angle_gamma 45.230226
_cell_volume 758.081280
_symmetry_space_group_name_H-M "P -1"
_symmetry_group_IT_number 2
_symmetry_cell_setting 'triclinic'
loop_
_space_group_symop_operation_xyz
x,y,z
-x,-y,-z
loop_
_atom_site_type_symbol
_atom_site_label
_atom_site_fract_x
_atom_site_fract_y
_atom_site_fract_z
Si Si1 0.034377 0.279262 0.619844
Si Si2 0.622363 0.929021 0.114788
Si Si3 0.368786 0.970362 0.523072
Si Si4 0.401099 0.748008 0.410851
Si Si5 0.745341 0.328858 0.758651
Si Si6 0.796613 0.532995 0.063203
Si Si7 0.067996 0.370349 0.219014
Si Si8 0.550397 0.404872 0.273842
O O1 0.046556 0.357530 0.464470
O O2 0.931359 0.255474 0.594624
O O3 0.913827 0.385500 0.880367
O O4 0.219051 0.131215 0.561253
O O5 0.543305 0.901080 0.313085
O O6 0.613898 0.028568 0.246550
O O7 0.815018 0.784997 0.936475
O O8 0.500000 0.000000 0.000000
O O9 0.333150 0.891922 0.459790
O O10 0.299828 0.736410 0.336729
O O11 0.405375 0.713551 0.640801
O O12 0.598730 0.628972 0.210276
O O13 0.615340 0.485611 0.761167
O O14 0.701165 0.340775 0.023204
O O15 0.825368 0.605923 0.913947
O O16 0.886521 0.490853 0.223873
O O17 0.500000 0.500000 0.500000
#
# Coordination Sequence:
#
# PCOD9022645 Si02
#       8
#     2   2   2   2   2   2   2   2
#     4  12  23  41  64  95 132 171 210 262 322 374
#     4  11  22  45  65  90 129 171 212 253 326 396
#     4  11  25  41  66  92 129 170 210 264 320 387
#     4  11  23  42  65  95 127 172 215 262 313 379
#     4  10  22  39  63  93 128 169 217 262 311 375
#     4  11  23  40  64  97 134 157 218 270 314 377
#     4  11  23  40  65  98 125 170 209 269 323 377
#     4   9  18  38  61  88 122 167 211 259 312 362
#
# _framework density 21.105917999999999
#
# number of rings (size 3 to 8) (size 9 to 14) (size 15 to 20)
#    0.000    1.250    3.750    3.375    0.000    2.500 
#    4.500    0.625    0.000    0.000    0.000    0.000 
#    0.000    0.000    0.000    0.000    0.000    0.000 
#
# Total GULP energy -89292.060548 kJ/mol
# GULP energy per Si atom -5580.753784 kJ/mol
# Density = 2.105788 g / cm^3
# Si number density = 21.105918 Si / 1000 Ang^3
#
#
#
# Elastic Constant Matrix: (Units=GPa)
#
#
# Indices 1 2 3 4 5 6 
#
# 1 83.5729 23.3297 10.3142 -11.3690 -0.3639 -3.1077
# 2 23.3297 69.9222 31.7185 -7.8125 2.1488 4.3814
# 3 10.3142 31.7185 81.6506 -16.2279 6.2803 -4.7155
# 4 -11.3690 -7.8125 -16.2279 30.5007 2.5548 0.0899
# 5 -0.3639 2.1488 6.2803 2.5548 22.4067 6.1485
# 6 -3.1077 4.3814 -4.7155 0.0899 6.1485 27.6798
#
#
#
# Elastic Compliance Matrix: (Units=1/GPa)
#
#
# Indices 1 2 3 4 5 6 
#
# 1 0.013894 -0.004839 0.001291 0.004699 -0.000961 0.002744
# 2 -0.004839 0.019541 -0.007617 -0.000982 0.001754 -0.005321
# 3 0.001291 -0.007617 0.017571 0.008425 -0.006729 0.005811
# 4 0.004699 -0.000982 0.008425 0.039402 -0.007699 0.003701
# 5 -0.000961 0.001754 -0.006729 -0.007699 0.050714 -0.012772
# 6 0.002744 -0.005321 0.005811 0.003701 -0.012772 0.041093
#
#
# Mechanical properties :
#
#
# Convention : Reuss Voigt Hill
#
# Bulk Modulus (GPa) = 34.87272 40.65228 37.76250
# Shear Modulus (GPa) = 23.35306 27.43634 25.39470
#
# Velocity S-wave (km/s) = 3.32997 3.60937 3.47248
# Velocity P-wave (km/s) = 5.59853 6.05582 5.83166
#
# Compressibility (1/GPa) = 0.02867571
#
# Stress axis : x y z
#
# Youngs Moduli (GPa) = 71.97305 51.17398 56.91211
#
# Poissons Ratio (x) = 0.24762 -0.07346
# Poissons Ratio (y) = 0.34826 0.43352
# Poissons Ratio (z) = -0.09290 0.38981
#
# Static dielectric constant tensor:
#      x y z
#    x 1.805560 0.029940 0.044670 
#    y 0.029940 1.762170 -0.007420 
#    z 0.044670 -0.007420 1.799510 
# 
# From -- ./inp_files/77823.got.cif
#   From: 2010.05.17/outbox.cif.g08.bks.cpg/sg2_39_cif.got.tgz:77823.got - 2010.06.03 11:33:40.
