data_PCOD9022615
_publ_section_title
;
Structure prediction by ZEFSAII (Michael W. Deem and Ramdas Pophale) SiO2 
 PCOD9022615
Probable space group: P -1
;
_chemical_formula_sum "Si O2"
_cell_formula_units_Z 9
_cell_length_a 15.753210
_cell_length_b 12.856742
_cell_length_c 15.032072
_cell_angle_alpha 27.716008
_cell_angle_beta 161.959644
_cell_angle_gamma 153.483248
_cell_volume 407.667571
_symmetry_space_group_name_H-M "P -1"
_symmetry_group_IT_number 2
_symmetry_cell_setting 'triclinic'
loop_
_space_group_symop_operation_xyz
x,y,z
-x,-y,-z
loop_
_atom_site_type_symbol
_atom_site_label
_atom_site_fract_x
_atom_site_fract_y
_atom_site_fract_z
Si Si1 0.000000 0.500000 0.000000
Si Si2 0.417762 0.334588 0.421155
Si Si3 0.177925 0.780169 0.556391
Si Si4 0.712039 0.846076 0.925594
Si Si5 0.309241 0.642619 0.509538
O O1 0.696313 0.410251 0.706458
O O2 0.818432 0.561416 0.856944
O O3 0.540024 0.418051 0.380984
O O4 0.267778 0.043846 0.488745
O O5 0.472523 0.749052 0.839485
O O6 0.968509 0.578113 0.564591
O O7 0.006789 0.213292 0.721911
O O8 0.553736 0.739179 0.757326
O O9 0.783386 0.131062 0.778157
#
# Coordination Sequence:
#
# PCOD9022615 Si02
#       5
#     1   2   2   2   2
#     4  10  22  44  60  80 118 150 196 270 304 332
#     4  10  22  40  62  84 115 155 200 250 303 348
#     4  11  22  39  61  93 125 157 196 242 290 356
#     4  10  23  37  59  94 131 160 191 233 289 356
#     4  10  22  39  63  91 124 163 197 235 293 361
#
# _framework density 22.076812
#
# number of rings (size 3 to 8) (size 9 to 14) (size 15 to 20)
#    0.000    1.778    0.000    4.000    0.000   15.111 
#    0.000    6.667    0.000    0.000    0.000    0.000 
#    0.000    0.000    0.000    0.000    0.000    0.000 
#
# Total GULP energy -50179.580411 kJ/mol
# GULP energy per Si atom -5575.508935 kJ/mol
# Density = 2.202656 g / cm^3
# Si number density = 22.076812 Si / 1000 Ang^3
#
#
#
# Elastic Constant Matrix: (Units=GPa)
#
#
# Indices 1 2 3 4 5 6 
#
# 1 159.4558 81.0696 20.8169 -5.0745 35.1604 0.8067
# 2 81.0696 49.4249 40.7480 13.3222 7.2544 30.0917
# 3 20.8169 40.7480 94.7126 14.3841 17.8454 12.3880
# 4 -5.0745 13.3222 14.3841 27.7501 4.8685 -2.4447
# 5 35.1604 7.2544 17.8454 4.8685 33.7819 2.2529
# 6 0.8067 30.0917 12.3880 -2.4447 2.2529 33.0901
#
#
#
# Elastic Compliance Matrix: (Units=1/GPa)
#
#
# Indices 1 2 3 4 5 6 
#
# 1 -0.001511 0.015003 -0.003791 -0.007037 0.002225 -0.012859
# 2 0.015003 -0.022554 0.004408 0.016069 -0.016805 0.020826
# 3 -0.003791 0.004408 0.012486 -0.009818 -0.001567 -0.009209
# 4 -0.007037 0.016069 -0.009818 0.030417 0.005268 -0.008878
# 5 0.002225 -0.016805 -0.001567 0.005268 0.030019 0.014160
# 6 -0.012859 0.020826 -0.009209 -0.008878 0.014160 0.013423
#
#
# Mechanical properties :
#
#
# Convention : Reuss Voigt Hill
#
# Bulk Modulus (GPa) = 50.86513 65.42915 58.14714
# Shear Modulus (GPa) = 132.99488 29.65501 81.32495
#
# Velocity S-wave (km/s) = 7.76998 3.66903 6.07596
# Velocity P-wave (km/s) = 10.17777 6.90293 8.69590
#
# Compressibility (1/GPa) = 0.01965983
#
# Stress axis : x y z
#
# Youngs Moduli (GPa) = -661.86557 -44.33835 80.08946
#
# Poissons Ratio (x) = 0.66520 0.30364
# Poissons Ratio (y) = 9.92982 -0.35301
# Poissons Ratio (z) = -2.50930 0.19543
#
# Static dielectric constant tensor:
#      x y z
#    x 1.790320 0.015890 -0.005140 
#    y 0.015890 1.829090 -0.021290 
#    z -0.005140 -0.021290 1.794290 
# 
# From -- ./inp_files/530393.got.cif
#   From: 2010.05.17/outbox.cif.g08.bks.cpg/sg2_266_cif.got.tgz:530393.got - 2010.06.03 11:33:40.
