data_PCOD9022417
_publ_section_title
;
Structure prediction by ZEFSAII (Michael W. Deem and Ramdas Pophale) SiO2 
 PCOD9022417
Probable space group: P -1
;
_chemical_formula_sum "Si O2"
_cell_formula_units_Z 16
_cell_length_a 18.968159
_cell_length_b 21.199174
_cell_length_c 9.298270
_cell_angle_alpha 153.953367
_cell_angle_beta 37.309527
_cell_angle_gamma 152.680381
_cell_volume 753.420914
_symmetry_space_group_name_H-M "P -1"
_symmetry_group_IT_number 2
_symmetry_cell_setting 'triclinic'
loop_
_space_group_symop_operation_xyz
x,y,z
-x,-y,-z
loop_
_atom_site_type_symbol
_atom_site_label
_atom_site_fract_x
_atom_site_fract_y
_atom_site_fract_z
Si Si1 0.434263 0.597335 0.858023
Si Si2 0.029265 0.359858 0.713067
Si Si3 0.706530 0.131339 0.843400
Si Si4 0.119707 0.428736 0.038960
Si Si5 0.211434 0.784541 0.796912
Si Si6 0.468124 0.280864 0.740310
Si Si7 0.310603 0.440796 0.267795
Si Si8 0.524423 0.201485 0.082268
O O1 0.500000 0.500000 0.500000
O O2 0.444819 0.729279 0.989885
O O3 0.256157 0.428130 0.838932
O O4 0.521536 0.720414 0.108951
O O5 0.146643 0.367573 0.437047
O O6 0.854300 0.164205 0.609942
O O7 0.099141 0.422129 0.886940
O O8 0.000000 0.500000 0.000000
O O9 0.576816 0.910521 0.637622
O O10 0.759595 0.239347 0.132000
O O11 0.642236 0.187586 0.942770
O O12 0.181405 0.624600 0.415096
O O13 0.950765 0.262450 0.033929
O O14 0.356306 0.996678 0.950253
O O15 0.631252 0.462787 0.784635
O O16 0.341252 0.296934 0.937112
O O17 0.440205 0.621334 0.528559
#
# Coordination Sequence:
#
# PCOD9022417 Si02
#       8
#     2   2   2   2   2   2   2   2
#     4  12  24  43  64  90 133 172 207 259 323 383
#     4  11  21  39  64  93 133 166 209 269 315 375
#     4  11  23  38  68 100 127 164 216 267 315 373
#     4  10  22  39  61  95 130 169 203 262 332 364
#     4  10  23  39  64  97 132 159 212 271 314 372
#     4  11  25  42  67  94 127 173 211 261 321 378
#     4  11  23  43  65  95 127 167 219 252 318 389
#     4  12  22  41  65  95 126 162 218 262 305 381
#
# _framework density 21.236470000000001
#
# number of rings (size 3 to 8) (size 9 to 14) (size 15 to 20)
#    0.000    1.000    5.000    1.125    1.750    4.500 
#    0.000    0.625    0.000    0.000    0.000    0.000 
#    0.000    0.000    0.000    0.000    0.000    0.000 
#
# Total GULP energy -89346.478860 kJ/mol
# GULP energy per Si atom -5584.154929 kJ/mol
# Density = 2.118813 g / cm^3
# Si number density = 21.236470 Si / 1000 Ang^3
#
#
#
# Elastic Constant Matrix: (Units=GPa)
#
#
# Indices 1 2 3 4 5 6 
#
# 1 90.0759 33.9236 32.6050 -8.4910 -1.0287 -6.6473
# 2 33.9236 128.4466 19.8835 -22.9888 -12.3277 18.6570
# 3 32.6050 19.8835 68.3593 -19.2242 -5.5877 5.8097
# 4 -8.4910 -22.9888 -19.2242 41.6216 5.7408 -4.5565
# 5 -1.0287 -12.3277 -5.5877 5.7408 32.2656 -8.7217
# 6 -6.6473 18.6570 5.8097 -4.5565 -8.7217 39.8775
#
#
#
# Elastic Compliance Matrix: (Units=1/GPa)
#
#
# Indices 1 2 3 4 5 6 
#
# 1 0.015451 -0.004102 -0.007165 -0.001771 -0.000593 0.005206
# 2 -0.004102 0.010428 0.000743 0.004484 0.001902 -0.004742
# 3 -0.007165 0.000743 0.020424 0.007838 0.001295 -0.003339
# 4 -0.001771 0.004484 0.007838 0.030036 -0.002506 -0.000651
# 5 -0.000593 0.001902 0.001295 -0.002506 0.033984 0.005969
# 6 0.005206 -0.004742 -0.003339 -0.000651 0.005969 0.029881
#
#
# Mechanical properties :
#
#
# Convention : Reuss Voigt Hill
#
# Bulk Modulus (GPa) = 39.59791 51.07845 45.33818
# Shear Modulus (GPa) = 29.46908 36.11758 32.79333
#
# Velocity S-wave (km/s) = 3.72918 4.12847 3.93389
# Velocity P-wave (km/s) = 6.10156 6.84325 6.48302
#
# Compressibility (1/GPa) = 0.02525386
#
# Stress axis : x y z
#
# Youngs Moduli (GPa) = 64.72243 95.89990 48.96204
#
# Poissons Ratio (x) = 0.39334 0.35083
# Poissons Ratio (y) = 0.26546 -0.03637
# Poissons Ratio (z) = 0.46377 -0.07124
#
# Static dielectric constant tensor:
#      x y z
#    x 1.787970 -0.018290 0.011300 
#    y -0.018290 1.852780 -0.038910 
#    z 0.011300 -0.038910 1.765690 
# 
# From -- ./inp_files/338229.got.cif
#   From: 2010.05.17/outbox.cif.g08.bks.cpg/sg2_170_cif.got.tgz:338229.got - 2010.06.03 11:33:40.
