data_PCOD9022246
_publ_section_title
;
Structure prediction by ZEFSAII (Michael W. Deem and Ramdas Pophale) SiO2 
 PCOD9022246
Probable space group: P -1
;
_chemical_formula_sum "Si O2"
_cell_formula_units_Z 14
_cell_length_a 5.012221
_cell_length_b 8.499801
_cell_length_c 15.958422
_cell_angle_alpha 91.731356
_cell_angle_beta 112.664270
_cell_angle_gamma 79.392969
_cell_volume 616.032153
_symmetry_space_group_name_H-M "P -1"
_symmetry_group_IT_number 2
_symmetry_cell_setting 'triclinic'
loop_
_space_group_symop_operation_xyz
x,y,z
-x,-y,-z
loop_
_atom_site_type_symbol
_atom_site_label
_atom_site_fract_x
_atom_site_fract_y
_atom_site_fract_z
Si Si1 0.866552 0.677033 0.953191
Si Si2 0.585923 0.158986 0.975237
Si Si3 0.820338 0.013518 0.565596
Si Si4 0.335323 0.457358 0.226379
Si Si5 0.075382 0.670739 0.607916
Si Si6 0.967213 0.334782 0.598191
Si Si7 0.726240 0.673517 0.211437
O O1 0.573333 0.717119 0.973289
O O2 0.796678 0.670950 0.845937
O O3 0.087707 0.802257 0.996030
O O4 0.000000 0.500000 0.000000
O O5 0.414902 0.191262 0.866976
O O6 0.500000 0.000000 0.000000
O O7 0.954459 0.850361 0.628939
O O8 0.500000 0.000000 0.500000
O O9 0.799328 0.192526 0.602082
O O10 0.000000 0.000000 0.500000
O O11 0.587079 0.383862 0.322453
O O12 0.521012 0.541882 0.183860
O O13 0.058883 0.591169 0.225055
O O14 0.037455 0.673034 0.502864
O O15 0.905073 0.526966 0.611065
O O16 0.261270 0.279998 0.688273
#
# Coordination Sequence:
#
# PCOD9022246 Si02
#       7
#     2   2   2   2   2   2   2
#     4  12  22  43  70  91 126 178 218 270 333 389
#     4  12  25  42  65  99 135 169 219 278 338 401
#     4  10  22  39  60  87 122 165 210 259 315 376
#     4  11  23  38  67  95 122 166 222 266 312 398
#     4   9  21  41  63  97 126 169 222 261 319 398
#     4   9  21  39  65  88 130 169 205 268 324 374
#     4  11  22  40  62  94 125 168 213 262 332 387
#
# _framework density 22.726085999999999
#
# number of rings (size 3 to 8) (size 9 to 14) (size 15 to 20)
#    0.000    1.429    2.857    1.714    0.000   12.571 
#    0.000    4.286    0.000    0.000    0.000    0.000 
#    0.000    0.000    0.000    0.000    0.000    0.000 
#
# Total GULP energy -77953.295113 kJ/mol
# GULP energy per Si atom -5568.092508 kJ/mol
# Density = 2.267436 g / cm^3
# Si number density = 22.726086 Si / 1000 Ang^3
#
#
#
# Elastic Constant Matrix: (Units=GPa)
#
#
# Indices 1 2 3 4 5 6 
#
# 1 101.9959 19.3759 13.5802 -8.8158 21.2187 7.3870
# 2 19.3759 137.7150 33.1949 -19.1321 12.7246 39.1018
# 3 13.5802 33.1949 161.2658 -12.2505 4.8716 13.4077
# 4 -8.8158 -19.1321 -12.2505 28.4246 5.8736 -1.6501
# 5 21.2187 12.7246 4.8716 5.8736 30.7798 4.4893
# 6 7.3870 39.1018 13.4077 -1.6501 4.4893 25.3556
#
#
#
# Elastic Compliance Matrix: (Units=1/GPa)
#
#
# Indices 1 2 3 4 5 6 
#
# 1 0.012406 0.000791 -0.000235 0.006117 -0.009629 -0.002607
# 2 0.000791 0.015558 -0.000455 0.010390 -0.005634 -0.022309
# 3 -0.000235 -0.000455 0.006740 0.002556 -0.000843 -0.002479
# 4 0.006117 0.010390 0.002556 0.047734 -0.016100 -0.013200
# 5 -0.009629 -0.005634 -0.000843 -0.016100 0.044215 0.003063
# 6 -0.002607 -0.022309 -0.002479 -0.013200 0.003063 0.074511
#
#
# Mechanical properties :
#
#
# Convention : Reuss Voigt Hill
#
# Bulk Modulus (GPa) = 28.64866 59.25318 43.95092
# Shear Modulus (GPa) = 23.51867 39.23372 31.37620
#
# Velocity S-wave (km/s) = 3.22044 4.15947 3.71971
# Velocity P-wave (km/s) = 5.14410 7.01410 6.15058
#
# Compressibility (1/GPa) = 0.03490565
#
# Stress axis : x y z
#
# Youngs Moduli (GPa) = 80.60540 64.27612 148.36647
#
# Poissons Ratio (x) = -0.05083 0.03490
# Poissons Ratio (y) = -0.06375 0.06748
# Poissons Ratio (z) = 0.01896 0.02923
#
# Static dielectric constant tensor:
#      x y z
#    x 1.853250 -0.034610 -0.036550 
#    y -0.034610 1.987670 0.052510 
#    z -0.036550 0.052510 1.919950 
# 
# From -- ./inp_files/547196.got.cif
#   From: 2010.05.17/outbox.cif.g08.bks.cpg/sg2_274_cif.got.tgz:547196.got - 2010.06.03 11:33:40.
