data_PCOD9022713
_publ_section_title
;
Structure prediction by ZEFSAII (Michael W. Deem and Ramdas Pophale) SiO2 
 PCOD9022713
Probable space group: P -1
;
_chemical_formula_sum "Si O2"
_cell_formula_units_Z 16
_cell_length_a 21.100831
_cell_length_b 8.760274
_cell_length_c 24.182770
_cell_angle_alpha 147.692305
_cell_angle_beta 162.076677
_cell_angle_gamma 33.546247
_cell_volume 723.512342
_symmetry_space_group_name_H-M "P -1"
_symmetry_group_IT_number 2
_symmetry_cell_setting 'triclinic'
loop_
_space_group_symop_operation_xyz
x,y,z
-x,-y,-z
loop_
_atom_site_type_symbol
_atom_site_label
_atom_site_fract_x
_atom_site_fract_y
_atom_site_fract_z
Si Si1 0.232301 0.406071 0.691583
Si Si2 0.490735 0.676282 0.410625
Si Si3 0.129358 0.521251 0.879660
Si Si4 0.347117 0.342904 0.892745
Si Si5 0.052352 0.220114 0.878277
Si Si6 0.991921 0.164527 0.935078
Si Si7 0.796763 0.197601 0.562211
Si Si8 0.456255 0.282672 0.164606
O O1 0.242816 0.450043 0.780112
O O2 0.000000 0.500000 0.500000
O O3 0.285637 0.063381 0.616633
O O4 0.427425 0.555320 0.879596
O O5 0.250458 0.703129 0.235016
O O6 0.626129 0.490489 0.512812
O O7 0.554022 0.484471 0.349421
O O8 0.500000 0.000000 0.500000
O O9 0.196707 0.443908 0.849570
O O10 0.984185 0.304801 0.716600
O O11 0.335166 0.473153 0.073683
O O12 0.022097 0.858316 0.896940
O O13 0.395990 0.994495 0.821903
O O14 0.087550 0.119784 0.939637
O O15 0.892081 0.085436 0.666127
O O16 0.948579 0.564937 0.899591
O O17 0.272625 0.177679 0.016345
#
# Coordination Sequence:
#
# PCOD9022713 Si02
#       8
#     2   2   2   2   2   2   2   2
#     4  11  25  44  69 102 133 182 223 279 342 394
#     4  11  22  40  62  94 136 165 218 272 341 389
#     4  11  24  40  68  97 131 172 230 270 337 396
#     4  11  25  45  70  96 139 179 227 276 337 404
#     4   9  22  39  66  89 133 164 225 266 337 396
#     4  10  22  39  63  97 125 178 215 276 327 407
#     4  11  23  43  67  97 133 176 218 282 337 399
#     4  10  22  43  66  90 128 178 216 273 334 402
#
# _framework density 22.114342000000001
#
# number of rings (size 3 to 8) (size 9 to 14) (size 15 to 20)
#    0.000    1.500    2.500    1.875    7.000    3.500 
#    4.500    0.000    0.000    0.000    0.000    0.000 
#    0.000    0.000    0.000    0.000    0.000    0.000 
#
# Total GULP energy -89340.356401 kJ/mol
# GULP energy per Si atom -5583.772275 kJ/mol
# Density = 2.206401 g / cm^3
# Si number density = 22.114342 Si / 1000 Ang^3
#
#
#
# Elastic Constant Matrix: (Units=GPa)
#
#
# Indices 1 2 3 4 5 6 
#
# 1 35.3243 -7.3942 -1.0227 -5.6343 -2.5937 -9.2343
# 2 -7.3942 104.7535 17.0003 -0.1785 1.4083 0.8959
# 3 -1.0227 17.0003 77.7014 -1.1109 -16.8530 3.2907
# 4 -5.6343 -0.1785 -1.1109 43.1402 5.2282 -4.3956
# 5 -2.5937 1.4083 -16.8530 5.2282 17.9967 0.1717
# 6 -9.2343 0.8959 3.2907 -4.3956 0.1717 23.7543
#
#
#
# Elastic Compliance Matrix: (Units=1/GPa)
#
#
# Indices 1 2 3 4 5 6 
#
# 1 0.033498 0.002196 0.000110 0.005435 0.003047 0.013908
# 2 0.002196 0.010230 -0.003011 0.000789 -0.003543 0.001057
# 3 0.000110 -0.003011 0.017314 -0.001894 0.017042 -0.002716
# 4 0.005435 0.000789 -0.001894 0.025610 -0.008561 0.007146
# 5 0.003047 -0.003543 0.017042 -0.008561 0.074758 -0.003167
# 6 0.013908 0.001057 -0.002716 0.007146 -0.003167 0.049186
#
#
# Mechanical properties :
#
#
# Convention : Reuss Voigt Hill
#
# Bulk Modulus (GPa) = 16.76946 26.10510 21.43728
# Shear Modulus (GPa) = 21.56251 30.92462 26.24357
#
# Velocity S-wave (km/s) = 3.12596 3.74357 3.44862
# Velocity P-wave (km/s) = 4.54185 5.52413 5.05689
#
# Compressibility (1/GPa) = 0.05963221
#
# Stress axis : x y z
#
# Youngs Moduli (GPa) = 29.85228 97.75306 57.75593
#
# Poissons Ratio (x) = -0.21467 -0.00636
# Poissons Ratio (y) = -0.06556 0.17392
# Poissons Ratio (z) = -0.00329 0.29436
#
# Static dielectric constant tensor:
#      x y z
#    x 1.808220 0.021900 -0.005610 
#    y 0.021900 1.845640 0.010040 
#    z -0.005610 0.010040 1.876620 
# 
# From -- ./inp_files/474877.got.cif
#   From: 2010.05.17/outbox.cif.g08.bks.cpg/sg2_238_cif.got.tgz:474877.got - 2010.06.03 11:33:40.
