data_PCOD9022984
_publ_section_title
;
Structure prediction by ZEFSAII (Michael W. Deem and Ramdas Pophale) SiO2 
 PCOD9022984
Probable space group: P -1
;
_chemical_formula_sum "Si O2"
_cell_formula_units_Z 16
_cell_length_a 6.879085
_cell_length_b 28.181435
_cell_length_c 5.210248
_cell_angle_alpha 57.164014
_cell_angle_beta 108.274426
_cell_angle_gamma 81.645443
_cell_volume 740.275375
_symmetry_space_group_name_H-M "P -1"
_symmetry_group_IT_number 2
_symmetry_cell_setting 'triclinic'
loop_
_space_group_symop_operation_xyz
x,y,z
-x,-y,-z
loop_
_atom_site_type_symbol
_atom_site_label
_atom_site_fract_x
_atom_site_fract_y
_atom_site_fract_z
Si Si1 0.884559 0.956563 0.700112
Si Si2 0.943881 0.352883 0.880132
Si Si3 0.755805 0.486857 0.168192
Si Si4 0.568411 0.053039 0.615657
Si Si5 0.911811 0.581832 0.876547
Si Si6 0.528448 0.318515 0.717667
Si Si7 0.566132 0.737844 0.677692
Si Si8 0.359469 0.878942 0.059844
O O1 0.666031 0.954404 0.480823
O O2 0.776102 0.987988 0.834253
O O3 0.000000 0.000000 0.500000
O O4 0.097300 0.892500 0.958364
O O5 0.884510 0.421377 0.546171
O O6 0.737375 0.336327 0.784593
O O7 0.000204 0.366363 0.152610
O O8 0.171820 0.298640 0.051076
O O9 0.866725 0.472257 0.976401
O O10 0.500000 0.500000 0.000000
O O11 0.800416 0.545137 0.116987
O O12 0.585463 0.083216 0.800847
O O13 0.590640 0.095764 0.264778
O O14 0.697182 0.620987 0.500133
O O15 0.502108 0.296236 0.485756
O O16 0.549812 0.267875 0.089161
O O17 0.503431 0.807319 0.363813
#
# Coordination Sequence:
#
# PCOD9022984 Si02
#       8
#     2   2   2   2   2   2   2   2
#     4   9  21  39  64  97 133 166 206 258 310 364
#     4  11  24  40  63  86 127 160 205 257 317 372
#     4  11  21  39  62  91 120 157 200 255 317 378
#     4  10  22  39  65  95 129 168 208 255 312 363
#     4  10  23  39  60  91 121 155 202 255 313 383
#     4  11  24  43  65  89 121 165 208 256 317 367
#     4  11  26  43  64  91 125 165 214 260 304 368
#     4  11  23  41  63  92 127 168 214 257 305 366
#
# _framework density 21.613579000000001
#
# number of rings (size 3 to 8) (size 9 to 14) (size 15 to 20)
#    0.000    1.500    2.500    1.500    1.750    9.000 
#    0.000    0.000    0.000    0.000    0.000    0.000 
#    0.000    0.000    0.000    0.000    0.000    0.000 
#
# Total GULP energy -89194.105159 kJ/mol
# GULP energy per Si atom -5574.631572 kJ/mol
# Density = 2.156439 g / cm^3
# Si number density = 21.613579 Si / 1000 Ang^3
#
#
#
# Elastic Constant Matrix: (Units=GPa)
#
#
# Indices 1 2 3 4 5 6 
#
# 1 136.3635 42.1380 42.5085 5.6758 33.2063 24.2380
# 2 42.1380 59.9450 17.1402 6.0131 17.9567 11.2688
# 3 42.5085 17.1402 101.7362 -13.9957 2.7133 2.5613
# 4 5.6758 6.0131 -13.9957 39.1735 -0.9060 7.7982
# 5 33.2063 17.9567 2.7133 -0.9060 39.7205 5.3799
# 6 24.2380 11.2688 2.5613 7.7982 5.3799 25.6941
#
#
#
# Elastic Compliance Matrix: (Units=1/GPa)
#
#
# Indices 1 2 3 4 5 6 
#
# 1 0.013614 -0.004020 -0.004800 -0.001583 -0.008132 -0.008418
# 2 -0.004020 0.023183 -0.002401 -0.003230 -0.006516 -0.003791
# 3 -0.004800 -0.002401 0.012825 0.005380 0.004100 0.001811
# 4 -0.001583 -0.003230 0.005380 0.029767 0.004114 -0.007522
# 5 -0.008132 -0.006516 0.004100 0.004114 0.034511 0.001646
# 6 -0.008418 -0.003791 0.001811 -0.007522 0.001646 0.050281
#
#
# Mechanical properties :
#
#
# Convention : Reuss Voigt Hill
#
# Bulk Modulus (GPa) = 36.79307 55.73536 46.26421
# Shear Modulus (GPa) = 25.55133 34.00149 29.77641
#
# Velocity S-wave (km/s) = 3.44203 3.97060 3.71573
# Velocity P-wave (km/s) = 5.73209 6.84574 6.31351
#
# Compressibility (1/GPa) = 0.02717903
#
# Stress axis : x y z
#
# Youngs Moduli (GPa) = 73.45120 43.13483 77.97448
#
# Poissons Ratio (x) = 0.17342 0.37429
# Poissons Ratio (y) = 0.29531 0.18722
# Poissons Ratio (z) = 0.35257 0.10357
#
# Static dielectric constant tensor:
#      x y z
#    x 1.796710 -0.066300 -0.061450 
#    y -0.066300 1.915730 0.066510 
#    z -0.061450 0.066510 1.912580 
# 
# From -- ./inp_files/13026.got.cif
#   From: 2010.05.17/outbox.cif.g08.bks.cpg/sg2_7_cif.got.tgz:13026.got - 2010.06.03 11:33:40.
