data_PCOD9022784
_publ_section_title
;
Structure prediction by ZEFSAII (Michael W. Deem and Ramdas Pophale) SiO2 
 PCOD9022784
Probable space group: P -1
;
_chemical_formula_sum "Si O2"
_cell_formula_units_Z 15
_cell_length_a 9.461536
_cell_length_b 7.498842
_cell_length_c 14.761827
_cell_angle_alpha 48.915102
_cell_angle_beta 66.189904
_cell_angle_gamma 101.530128
_cell_volume 533.152586
_symmetry_space_group_name_H-M "P -1"
_symmetry_group_IT_number 2
_symmetry_cell_setting 'triclinic'
loop_
_space_group_symop_operation_xyz
x,y,z
-x,-y,-z
loop_
_atom_site_type_symbol
_atom_site_label
_atom_site_fract_x
_atom_site_fract_y
_atom_site_fract_z
Si Si1 0.361053 0.401216 0.430216
Si Si2 0.080700 0.882329 0.815613
Si Si3 0.241623 0.041412 0.391080
Si Si4 0.356331 0.715796 0.560458
Si Si5 0.280740 0.792071 0.937790
Si Si6 0.500000 0.500000 0.000000
Si Si7 0.115814 0.911877 0.102252
Si Si8 0.158642 0.600127 0.346346
O O1 0.314628 0.230395 0.403177
O O2 0.544638 0.441057 0.414287
O O3 0.356386 0.670248 0.313448
O O4 0.172442 0.172367 0.626770
O O5 0.953051 0.569949 0.891582
O O6 0.924094 0.857567 0.934689
O O7 0.263500 0.926521 0.804030
O O8 0.334852 0.276803 0.203359
O O9 0.336938 0.873795 0.428995
O O10 0.990987 0.735488 0.558493
O O11 0.116258 0.421795 0.745999
O O12 0.500000 0.000000 0.500000
O O13 0.410602 0.684003 0.951850
O O14 0.255852 0.962778 0.967592
O O15 0.206503 0.875404 0.180468
O O16 0.000000 0.500000 0.500000
#
# Coordination Sequence:
#
# PCOD9022784 Si02
#       8
#     2   2   2   2   2   1   2   2
#     4  11  20  39  64  98 122 164 217 270 321 381
#     4  11  23  42  69  96 130 178 222 265 331 401
#     4  10  22  39  64  91 127 169 214 265 330 386
#     4   9  20  38  65  97 126 161 217 272 323 382
#     4  11  25  44  66  94 135 177 221 270 332 395
#     4  12  24  42  66  94 130 176 220 270 330 392
#     4  11  23  44  67  97 134 175 220 273 332 393
#     4  11  21  38  62  94 128 163 211 267 320 386
#
# _framework density 28.134533000000001
#
# number of rings (size 3 to 8) (size 9 to 14) (size 15 to 20)
#    0.000    1.333    1.333    5.600    0.000    3.733 
#    2.400    0.667    0.000    0.000    0.000    0.000 
#    0.000    0.000    0.000    0.000    0.000    0.000 
#
# Total GULP energy -83735.012338 kJ/mol
# GULP energy per Si atom -5582.334156 kJ/mol
# Density = 2.807050 g / cm^3
# Si number density = 28.134533 Si / 1000 Ang^3
#
#
#
# Elastic Constant Matrix: (Units=GPa)
#
#
# Indices 1 2 3 4 5 6 
#
# 1 228.5796 28.2424 55.2853 10.3670 23.2884 -46.4137
# 2 28.2424 124.8247 5.6602 17.4966 -4.9157 -14.2530
# 3 55.2853 5.6602 96.5702 15.3655 16.5174 -10.7808
# 4 10.3670 17.4966 15.3655 42.9257 -17.2791 6.9165
# 5 23.2884 -4.9157 16.5174 -17.2791 50.2626 -1.3374
# 6 -46.4137 -14.2530 -10.7808 6.9165 -1.3374 49.3247
#
#
#
# Elastic Compliance Matrix: (Units=1/GPa)
#
#
# Indices 1 2 3 4 5 6 
#
# 1 0.006608 -0.000433 -0.002056 -0.002970 -0.003291 0.005971
# 2 -0.000433 0.009047 0.000940 -0.004719 -0.000764 0.003053
# 3 -0.002056 0.000940 0.014029 -0.007769 -0.006175 0.002326
# 4 -0.002970 -0.004719 -0.007769 0.036798 0.015836 -0.010587
# 5 -0.003291 -0.000764 -0.006175 0.015836 0.028656 -0.006111
# 6 0.005971 0.003053 0.002326 -0.010587 -0.006111 0.028601
#
#
# Mechanical properties :
#
#
# Convention : Reuss Voigt Hill
#
# Bulk Modulus (GPa) = 37.61413 69.81670 53.71542
# Shear Modulus (GPa) = 36.84651 52.55504 44.70078
#
# Velocity S-wave (km/s) = 3.62284 4.32671 3.99033
# Velocity P-wave (km/s) = 5.55863 7.05902 6.35327
#
# Compressibility (1/GPa) = 0.02658575
#
# Stress axis : x y z
#
# Youngs Moduli (GPa) = 151.33427 110.53897 71.28263
#
# Poissons Ratio (x) = 0.04791 0.14653
# Poissons Ratio (y) = 0.06559 -0.06702
# Poissons Ratio (z) = 0.31108 -0.10394
#
# Static dielectric constant tensor:
#      x y z
#    x 2.302410 0.237440 -0.289060 
#    y 0.237440 2.596480 -0.444590 
#    z -0.289060 -0.444590 2.683080 
# 
# From -- ./inp_files/492020.got.cif
#   From: 2010.05.17/outbox.cif.g08.bks.cpg/sg2_247_cif.got.tgz:492020.got - 2010.06.03 11:33:40.
