data_PCOD9022100
_publ_section_title
;
Structure prediction by ZEFSAII (Michael W. Deem and Ramdas Pophale) SiO2 
 PCOD9022100
Probable space group: P -1
;
_chemical_formula_sum "Si O2"
_cell_formula_units_Z 16
_cell_length_a 9.431294
_cell_length_b 14.465441
_cell_length_c 7.644799
_cell_angle_alpha 45.003739
_cell_angle_beta 102.594127
_cell_angle_gamma 112.259691
_cell_volume 680.592244
_symmetry_space_group_name_H-M "P -1"
_symmetry_group_IT_number 2
_symmetry_cell_setting 'triclinic'
loop_
_space_group_symop_operation_xyz
x,y,z
-x,-y,-z
loop_
_atom_site_type_symbol
_atom_site_label
_atom_site_fract_x
_atom_site_fract_y
_atom_site_fract_z
Si Si1 0.102984 0.813886 0.346845
Si Si2 0.901611 0.529762 0.667183
Si Si3 0.629433 0.934216 0.856653
Si Si4 0.096767 0.116402 0.497661
Si Si5 0.854599 0.590032 0.979882
Si Si6 0.366656 0.677475 0.639268
Si Si7 0.556299 0.366852 0.673965
Si Si8 0.381302 0.070646 0.539482
O O1 0.221053 0.732963 0.548411
O O2 0.976803 0.681764 0.392756
O O3 0.997602 0.861184 0.392562
O O4 0.230250 0.961891 0.132905
O O5 0.734162 0.428313 0.705173
O O6 0.023917 0.447405 0.812609
O O7 0.890927 0.568520 0.816159
O O8 0.677563 0.973675 0.612901
O O9 0.477016 0.979969 0.768312
O O10 0.568169 0.769949 0.092758
O O11 0.250763 0.081702 0.617608
O O12 0.141498 0.255844 0.210206
O O13 0.000000 0.000000 0.500000
O O14 0.689483 0.481124 0.113950
O O15 0.425640 0.683599 0.449902
O O16 0.498181 0.777082 0.657015
O O17 0.500000 0.500000 0.500000
#
# Coordination Sequence:
#
# PCOD9022100 Si02
#       8
#     2   2   2   2   2   2   2   2
#     4   9  20  40  65  90 127 161 213 270 323 381
#     4   9  20  42  66  94 126 168 218 272 327 381
#     4  10  22  44  66  95 132 170 218 269 329 387
#     4  11  21  33  64 105 129 151 217 278 333 373
#     4   9  20  37  70  92 126 163 214 280 325 369
#     4  10  23  42  63  94 130 176 215 255 334 390
#     4  12  28  41  65  94 139 179 220 257 322 399
#     4  10  22  38  72  96 126 166 217 280 327 371
#
# _framework density 23.508937
#
# number of rings (size 3 to 8) (size 9 to 14) (size 15 to 20)
#    0.000    2.000    1.250    1.500    7.000    6.500 
#    0.000    0.625    8.250    0.000    0.000    0.000 
#    0.000    0.000    0.000    0.000    0.000    0.000 
#
# Total GULP energy -89213.003729 kJ/mol
# GULP energy per Si atom -5575.812733 kJ/mol
# Density = 2.345543 g / cm^3
# Si number density = 23.508937 Si / 1000 Ang^3
#
#
#
# Elastic Constant Matrix: (Units=GPa)
#
#
# Indices 1 2 3 4 5 6 
#
# 1 108.9799 5.7688 27.9721 -0.7301 2.2057 -13.3069
# 2 5.7688 63.6825 36.7100 -16.7222 -5.6356 -2.0738
# 3 27.9721 36.7100 102.2269 -36.9139 -7.2109 0.7162
# 4 -0.7301 -16.7222 -36.9139 32.5664 -1.0662 -12.1083
# 5 2.2057 -5.6356 -7.2109 -1.0662 20.0811 -12.8478
# 6 -13.3069 -2.0738 0.7162 -12.1083 -12.8478 42.6267
#
#
#
# Elastic Compliance Matrix: (Units=1/GPa)
#
#
# Indices 1 2 3 4 5 6 
#
# 1 0.010596 0.000535 -0.004876 -0.004516 -0.002032 0.001521
# 2 0.000535 0.021403 -0.003722 0.009656 0.009530 0.006886
# 3 -0.004876 -0.003722 0.024978 0.031419 0.017940 0.012209
# 4 -0.004516 0.009656 0.031419 0.085727 0.041727 0.035460
# 5 -0.002032 0.009530 0.017940 0.041727 0.085032 0.037010
# 6 0.001521 0.006886 0.012209 0.035460 0.037010 0.045292
#
#
# Mechanical properties :
#
#
# Convention : Reuss Voigt Hill
#
# Bulk Modulus (GPa) = 24.47913 46.19902 35.33908
# Shear Modulus (GPa) = 16.51423 32.68405 24.59914
#
# Velocity S-wave (km/s) = 2.65328 3.73269 3.23828
# Velocity P-wave (km/s) = 4.45217 6.18641 5.38951
#
# Compressibility (1/GPa) = 0.04085112
#
# Stress axis : x y z
#
# Youngs Moduli (GPa) = 94.37746 46.72295 40.03523
#
# Poissons Ratio (x) = -0.02499 0.19521
# Poissons Ratio (y) = -0.05048 0.14899
# Poissons Ratio (z) = 0.46018 0.17388
#
# Static dielectric constant tensor:
#      x y z
#    x 1.988450 0.030230 -0.100960 
#    y 0.030230 1.902800 0.003460 
#    z -0.100960 0.003460 2.030540 
# 
# From -- ./inp_files/205336.got.cif
#   From: 2010.05.17/outbox.cif.g08.bks.cpg/sg2_103_cif.got.tgz:205336.got - 2010.06.03 11:33:40.
