data_PCOD9022011
_publ_section_title
;
Structure prediction by ZEFSAII (Michael W. Deem and Ramdas Pophale) SiO2 
 PCOD9022011
Probable space group: P -1
;
_chemical_formula_sum "Si O2"
_cell_formula_units_Z 14
_cell_length_a 8.501771
_cell_length_b 12.290280
_cell_length_c 17.517241
_cell_angle_alpha 34.873107
_cell_angle_beta 56.272872
_cell_angle_gamma 34.960616
_cell_volume 560.039092
_symmetry_space_group_name_H-M "P -1"
_symmetry_group_IT_number 2
_symmetry_cell_setting 'triclinic'
loop_
_space_group_symop_operation_xyz
x,y,z
-x,-y,-z
loop_
_atom_site_type_symbol
_atom_site_label
_atom_site_fract_x
_atom_site_fract_y
_atom_site_fract_z
Si Si1 0.785884 0.848851 0.772144
Si Si2 0.906043 0.767523 0.406259
Si Si3 0.733005 0.828346 0.967049
Si Si4 0.992610 0.919033 0.426766
Si Si5 0.075810 0.910868 0.901607
Si Si6 0.355743 0.551903 0.175196
Si Si7 0.721445 0.790937 0.656467
O O1 0.628464 0.954108 0.836252
O O2 0.675257 0.827072 0.739525
O O3 0.817360 0.044475 0.628553
O O4 0.102211 0.500600 0.896696
O O5 0.000000 0.500000 0.500000
O O6 0.121144 0.698793 0.448633
O O7 0.857378 0.968729 0.242075
O O8 0.616971 0.932039 0.436765
O O9 0.959479 0.820196 0.936869
O O10 0.500000 0.000000 0.000000
O O11 0.679102 0.248579 0.292074
O O12 0.922620 0.815091 0.568648
O O13 0.337949 0.663385 0.032632
O O14 0.811721 0.189859 0.867149
O O15 0.180219 0.488383 0.242132
#
# Coordination Sequence:
#
# PCOD9022011 Si02
#       7
#     2   2   2   2   2   2   2
#     4  11  24  44  67  96 134 176 220 263 336 395
#     4  11  23  40  65  93 130 169 220 273 327 388
#     4  11  24  43  67  97 136 172 216 276 329 392
#     4  11  22  42  65  91 134 174 215 265 332 388
#     4  11  21  40  65  97 129 164 224 274 324 387
#     4  10  22  38  68  95 126 171 217 273 326 385
#     4  11  23  42  64  97 132 174 218 267 331 392
#
# _framework density 24.998256000000001
#
# number of rings (size 3 to 8) (size 9 to 14) (size 15 to 20)
#    0.000    1.143    2.857    4.714    0.000    6.857 
#    2.571    0.714    0.000    0.000    0.000    0.000 
#    0.000    0.000    0.000    0.000    0.000    0.000 
#
# Total GULP energy -78267.585425 kJ/mol
# GULP energy per Si atom -5590.541816 kJ/mol
# Density = 2.494136 g / cm^3
# Si number density = 24.998256 Si / 1000 Ang^3
#
#
#
# Elastic Constant Matrix: (Units=GPa)
#
#
# Indices 1 2 3 4 5 6 
#
# 1 61.2136 8.0860 27.9150 -1.1775 -16.3498 26.2396
# 2 8.0860 90.3627 44.6776 8.5430 -2.4861 21.0799
# 3 27.9150 44.6776 122.9188 22.8133 -27.6188 11.8410
# 4 -1.1775 8.5430 22.8133 47.5921 11.1628 -3.3758
# 5 -16.3498 -2.4861 -27.6188 11.1628 44.4116 -4.0004
# 6 26.2396 21.0799 11.8410 -3.3758 -4.0004 44.7331
#
#
#
# Elastic Compliance Matrix: (Units=1/GPa)
#
#
# Indices 1 2 3 4 5 6 
#
# 1 0.025917 0.003588 -0.004371 -0.000335 0.005735 -0.015249
# 2 0.003588 0.015664 -0.006391 0.000382 -0.002593 -0.007998
# 3 -0.004371 -0.006391 0.014953 -0.008242 0.009571 0.001851
# 4 -0.000335 0.000382 -0.008242 0.027919 -0.011953 0.003236
# 5 0.005735 -0.002593 0.009571 -0.011953 0.033204 -0.002608
# 6 -0.015249 -0.007998 0.001851 0.003236 -0.002608 0.034589
#
#
# Mechanical properties :
#
#
# Convention : Reuss Voigt Hill
#
# Bulk Modulus (GPa) = 23.70406 48.42805 36.06605
# Shear Modulus (GPa) = 27.67703 40.26844 33.97273
#
# Velocity S-wave (km/s) = 3.33101 4.01789 3.69047
# Velocity P-wave (km/s) = 4.92920 6.39838 5.71123
#
# Compressibility (1/GPa) = 0.04218687
#
# Stress axis : x y z
#
# Youngs Moduli (GPa) = 38.58448 63.84189 66.87686
#
# Poissons Ratio (x) = -0.22909 0.29229
# Poissons Ratio (y) = -0.13846 0.42743
# Poissons Ratio (z) = 0.16863 0.40804
#
# Static dielectric constant tensor:
#      x y z
#    x 2.116270 -0.003370 0.084150 
#    y -0.003370 2.011810 0.015930 
#    z 0.084150 0.015930 2.016670 
# 
# From -- ./inp_files/308586.got.cif
#   From: 2010.05.17/outbox.cif.g08.bks.cpg/sg2_155_cif.got.tgz:308586.got - 2010.06.03 11:33:40.
