data_PCOD9022471
_publ_section_title
;
Structure prediction by ZEFSAII (Michael W. Deem and Ramdas Pophale) SiO2 
 PCOD9022471
Probable space group: P -1
;
_chemical_formula_sum "Si O2"
_cell_formula_units_Z 16
_cell_length_a 14.720639
_cell_length_b 9.501976
_cell_length_c 11.620572
_cell_angle_alpha 95.328344
_cell_angle_beta 29.453649
_cell_angle_gamma 102.209274
_cell_volume 766.955830
_symmetry_space_group_name_H-M "P -1"
_symmetry_group_IT_number 2
_symmetry_cell_setting 'triclinic'
loop_
_space_group_symop_operation_xyz
x,y,z
-x,-y,-z
loop_
_atom_site_type_symbol
_atom_site_label
_atom_site_fract_x
_atom_site_fract_y
_atom_site_fract_z
Si Si1 0.472388 0.192223 0.150202
Si Si2 0.637082 0.151018 0.324668
Si Si3 0.944764 0.127616 0.145155
Si Si4 0.508381 0.626355 0.632201
Si Si5 0.902257 0.053671 0.451748
Si Si6 0.126959 0.665937 0.354814
Si Si7 0.828470 0.556978 0.135099
Si Si8 0.801747 0.122335 0.898510
O O1 0.438895 0.298498 0.297162
O O2 0.277923 0.078266 0.316292
O O3 0.591569 0.089225 0.071951
O O4 0.638030 0.296772 0.895542
O O5 0.773685 0.187242 0.285318
O O6 0.502218 0.248065 0.437914
O O7 0.500000 0.000000 0.500000
O O8 0.774156 0.140111 0.065098
O O9 0.890091 0.069511 0.328728
O O10 0.111303 0.276340 0.961820
O O11 0.000000 0.000000 0.000000
O O12 0.663914 0.546077 0.412601
O O13 0.287848 0.531425 0.852142
O O14 0.089198 0.996962 0.260588
O O15 0.917808 0.210535 0.503511
O O16 0.000000 0.500000 0.500000
O O17 0.094813 0.724345 0.266425
O O18 0.000000 0.500000 0.000000
#
# Coordination Sequence:
#
# PCOD9022471 Si02
#       8
#     2   2   2   2   2   2   2   2
#     4   9  22  41  67  92 125 167 217 269 330 381
#     4  11  20  38  61  98 134 168 215 266 327 395
#     4  12  23  36  64  99 132 170 219 266 322 400
#     4  10  22  39  62  89 134 175 212 268 329 390
#     4  12  22  41  69  97 129 172 221 273 331 391
#     4  10  24  45  68  94 129 171 223 279 331 386
#     4  11  23  40  59  92 133 179 216 262 329 398
#     4   9  22  40  70  91 129 172 215 273 328 387
#
# _framework density 20.861698000000001
#
# number of rings (size 3 to 8) (size 9 to 14) (size 15 to 20)
#    0.750    0.750    2.500    3.750    1.750    0.000 
#    0.000    0.625    0.000    0.000    0.000    0.000 
#    0.000    0.000    0.000    0.000    0.000    0.000 
#
# Total GULP energy -89087.576915 kJ/mol
# GULP energy per Si atom -5567.973557 kJ/mol
# Density = 2.081422 g / cm^3
# Si number density = 20.861698 Si / 1000 Ang^3
#
#
#
# Elastic Constant Matrix: (Units=GPa)
#
#
# Indices 1 2 3 4 5 6 
#
# 1 50.6611 19.2377 29.6760 5.3329 5.9530 3.0689
# 2 19.2377 129.6635 59.6750 -9.4146 6.9146 16.0856
# 3 29.6760 59.6750 94.2702 0.9439 4.6052 4.9569
# 4 5.3329 -9.4146 0.9439 51.4980 -7.4021 -4.9781
# 5 5.9530 6.9146 4.6052 -7.4021 32.4923 -1.4583
# 6 3.0689 16.0856 4.9569 -4.9781 -1.4583 26.2920
#
#
#
# Elastic Compliance Matrix: (Units=1/GPa)
#
#
# Indices 1 2 3 4 5 6 
#
# 1 0.025176 0.000046 -0.007578 -0.003328 -0.004415 -0.002413
# 2 0.000046 0.011920 -0.007205 0.001548 -0.001428 -0.005726
# 3 -0.007578 -0.007205 0.017440 -0.000610 0.000397 0.001911
# 4 -0.003328 0.001548 -0.000610 0.021203 0.005371 0.003869
# 5 -0.004415 -0.001428 0.000397 0.005371 0.033244 0.004175
# 6 -0.002413 -0.005726 0.001911 0.003869 0.004175 0.042423
#
#
# Mechanical properties :
#
#
# Convention : Reuss Voigt Hill
#
# Bulk Modulus (GPa) = 39.90145 54.64135 47.27140
# Shear Modulus (GPa) = 26.42207 33.12354 29.77281
#
# Velocity S-wave (km/s) = 3.56270 3.98900 3.78186
# Velocity P-wave (km/s) = 6.00766 6.88950 6.46364
#
# Compressibility (1/GPa) = 0.02506174
#
# Stress axis : x y z
#
# Youngs Moduli (GPa) = 39.72023 83.89095 57.33784
#
# Poissons Ratio (x) = -0.00383 0.43453
# Poissons Ratio (y) = -0.00181 0.41311
# Poissons Ratio (z) = 0.30102 0.60441
#
# Static dielectric constant tensor:
#      x y z
#    x 1.731580 0.038850 -0.006770 
#    y 0.038850 1.770050 -0.015380 
#    z -0.006770 -0.015380 1.826870 
# 
# From -- ./inp_files/447472.got.cif
#   From: 2010.05.17/outbox.cif.g08.bks.cpg/sg2_224_cif.got.tgz:447472.got - 2010.06.03 11:33:40.
