data_PCOD9022455
_publ_section_title
;
Structure prediction by ZEFSAII (Michael W. Deem and Ramdas Pophale) SiO2 
 PCOD9022455
Probable space group: P -1
;
_chemical_formula_sum "Si O2"
_cell_formula_units_Z 16
_cell_length_a 4.986942
_cell_length_b 25.611253
_cell_length_c 5.656210
_cell_angle_alpha 67.796718
_cell_angle_beta 91.968770
_cell_angle_gamma 110.915082
_cell_volume 620.546015
_symmetry_space_group_name_H-M "P -1"
_symmetry_group_IT_number 2
_symmetry_cell_setting 'triclinic'
loop_
_space_group_symop_operation_xyz
x,y,z
-x,-y,-z
loop_
_atom_site_type_symbol
_atom_site_label
_atom_site_fract_x
_atom_site_fract_y
_atom_site_fract_z
Si Si1 0.372573 0.269444 0.609167
Si Si2 0.953087 0.318697 0.772016
Si Si3 0.635377 0.103652 0.734896
Si Si4 0.092455 0.770564 0.708639
Si Si5 0.928374 0.939962 0.449994
Si Si6 0.930228 0.850748 0.946268
Si Si7 0.668422 0.454951 0.072028
Si Si8 0.207450 0.570855 0.378584
O O1 0.715534 0.297158 0.591491
O O2 0.227628 0.303068 0.729821
O O3 0.206590 0.267855 0.364827
O O4 0.274192 0.198424 0.797196
O O5 0.981350 0.387008 0.702885
O O6 0.806801 0.276791 0.066659
O O7 0.716660 0.175339 0.551822
O O8 0.795833 0.072924 0.613994
O O9 0.295866 0.068184 0.755745
O O10 0.791773 0.103928 0.986216
O O11 0.031857 0.810368 0.843700
O O12 0.777186 0.885771 0.725555
O O13 0.000000 0.000000 0.500000
O O14 0.625989 0.419398 0.380397
O O15 0.500000 0.500000 0.000000
O O16 0.619640 0.419563 0.881126
O O17 0.000000 0.500000 0.000000
O O18 0.000000 0.500000 0.500000
#
# Coordination Sequence:
#
# PCOD9022455 Si02
#       8
#     2   2   2   2   2   2   2   2
#     4  10  23  41  63  93 124 162 211 263 327 383
#     4  11  24  40  64  94 127 161 212 266 323 388
#     4  10  22  39  62  87 121 164 208 255 314 375
#     4   9  21  41  65  89 124 161 209 263 320 384
#     4  11  23  38  59  90 125 163 208 256 309 372
#     4   9  21  40  62  89 121 165 206 259 317 378
#     4  10  22  42  67  91 127 170 219 262 319 393
#     4  10  24  45  68  99 133 178 221 274 337 406
#
# _framework density 25.783747000000002
#
# number of rings (size 3 to 8) (size 9 to 14) (size 15 to 20)
#    0.000    2.000    0.000    1.500    1.750   18.000 
#    2.250    0.000    0.000    0.000    0.000    0.000 
#    0.000    0.000    0.000    0.000    0.000    0.000 
#
# Total GULP energy -89531.575306 kJ/mol
# GULP energy per Si atom -5595.723457 kJ/mol
# Density = 2.572506 g / cm^3
# Si number density = 25.783747 Si / 1000 Ang^3
#
#
#
# Elastic Constant Matrix: (Units=GPa)
#
#
# Indices 1 2 3 4 5 6 
#
# 1 107.5252 14.0486 17.4029 -4.5834 0.2903 -13.6973
# 2 14.0486 80.5359 23.2151 -1.6010 1.5693 -19.1875
# 3 17.4029 23.2151 99.9992 39.8819 9.2372 -22.1444
# 4 -4.5834 -1.6010 39.8819 37.5186 -4.0409 9.3363
# 5 0.2903 1.5693 9.2372 -4.0409 27.6188 10.2604
# 6 -13.6973 -19.1875 -22.1444 9.3363 10.2604 41.8405
#
#
#
# Elastic Compliance Matrix: (Units=1/GPa)
#
#
# Indices 1 2 3 4 5 6 
#
# 1 0.010587 -0.000626 -0.009088 0.013299 0.007281 -0.006384
# 2 -0.000626 0.014621 -0.004186 0.004149 -0.000072 0.003376
# 3 -0.009088 -0.004186 0.108026 -0.154537 -0.099724 0.111218
# 4 0.013299 0.004149 -0.154537 0.250861 0.150588 -0.168438
# 5 0.007281 -0.000072 -0.099724 0.150588 0.135040 -0.117146
# 6 -0.006384 0.003376 0.111218 -0.168438 -0.117146 0.148534
#
#
# Mechanical properties :
#
#
# Convention : Reuss Voigt Hill
#
# Bulk Modulus (GPa) = 9.48442 44.15485 26.81964
# Shear Modulus (GPa) = 6.84358 36.95515 21.89936
#
# Velocity S-wave (km/s) = 1.63095 3.78997 2.91752
# Velocity P-wave (km/s) = 2.68944 6.02611 4.66622
#
# Compressibility (1/GPa) = 0.10543603
#
# Stress axis : x y z
#
# Youngs Moduli (GPa) = 94.45800 68.39542 9.25700
#
# Poissons Ratio (x) = 0.04279 0.08412
# Poissons Ratio (y) = 0.05910 0.03875
# Poissons Ratio (z) = 0.85839 0.28629
#
# Static dielectric constant tensor:
#      x y z
#    x 2.089430 -0.041090 -0.156170 
#    y -0.041090 2.092790 0.095600 
#    z -0.156170 0.095600 2.174320 
# 
# From -- ./inp_files/12468.got.cif
#   From: 2010.05.17/outbox.cif.g08.bks.cpg/sg2_7_cif.got.tgz:12468.got - 2010.06.03 11:33:40.
