data_PCOD9022530
_publ_section_title
;
Structure prediction by ZEFSAII (Michael W. Deem and Ramdas Pophale) SiO2 
 PCOD9022530
Probable space group: P -1
;
_chemical_formula_sum "Si O2"
_cell_formula_units_Z 16
_cell_length_a 19.121662
_cell_length_b 16.242695
_cell_length_c 8.110483
_cell_angle_alpha 41.746465
_cell_angle_beta 143.246766
_cell_angle_gamma 151.674952
_cell_volume 707.747543
_symmetry_space_group_name_H-M "P -1"
_symmetry_group_IT_number 2
_symmetry_cell_setting 'triclinic'
loop_
_space_group_symop_operation_xyz
x,y,z
-x,-y,-z
loop_
_atom_site_type_symbol
_atom_site_label
_atom_site_fract_x
_atom_site_fract_y
_atom_site_fract_z
Si Si1 0.517252 0.393583 0.915509
Si Si2 0.429458 0.772235 0.185742
Si Si3 0.722770 0.591590 0.700276
Si Si4 0.718047 0.082923 0.431249
Si Si5 0.975597 0.537527 0.579250
Si Si6 0.630327 0.984174 0.785897
Si Si7 0.006401 0.707827 0.868028
Si Si8 0.266977 0.540511 0.529363
O O1 0.662139 0.555183 0.827790
O O2 0.359473 0.360687 0.630474
O O3 0.590840 0.444339 0.162642
O O4 0.458671 0.209307 0.042317
O O5 0.366163 0.601391 0.237892
O O6 0.347471 0.702137 0.318356
O O7 0.624069 0.925913 0.359516
O O8 0.371880 0.850209 0.862477
O O9 0.914073 0.714470 0.830205
O O10 0.905597 0.256818 0.488573
O O11 0.697893 0.022629 0.668882
O O12 0.000000 0.500000 0.500000
O O13 0.798169 0.444739 0.448138
O O14 0.022673 0.459380 0.901622
O O15 0.500000 0.000000 0.500000
O O16 0.795730 0.127610 0.995720
O O17 0.888932 0.638933 0.589983
#
# Coordination Sequence:
#
# PCOD9022530 Si02
#       8
#     2   2   2   2   2   2   2   2
#     4  11  24  43  70  93 126 175 219 267 315 397
#     4  10  22  39  62  94 129 164 211 272 316 380
#     4  10  23  46  68  90 127 173 225 258 325 383
#     4  11  22  36  60  95 129 168 203 262 327 375
#     4  12  22  36  60  90 131 170 207 260 321 383
#     4  12  25  40  66 100 134 169 212 267 328 383
#     4  11  24  39  64  95 129 172 212 271 317 380
#     4  11  23  39  62  97 124 169 219 260 324 379
#
# _framework density 22.606929999999998
#
# number of rings (size 3 to 8) (size 9 to 14) (size 15 to 20)
#    0.000    1.000    5.000    2.625    0.000    4.500 
#    0.000    0.000    0.000    2.250    0.000    0.000 
#    0.000    0.000    0.000    0.000    0.000    0.000 
#
# Total GULP energy -89345.502459 kJ/mol
# GULP energy per Si atom -5584.093904 kJ/mol
# Density = 2.255548 g / cm^3
# Si number density = 22.606930 Si / 1000 Ang^3
#
#
#
# Elastic Constant Matrix: (Units=GPa)
#
#
# Indices 1 2 3 4 5 6 
#
# 1 50.0965 9.1484 6.2414 1.6725 -0.6594 21.5422
# 2 9.1484 96.5372 33.4059 30.2653 -5.1641 7.9870
# 3 6.2414 33.4059 129.9534 8.9363 -0.0444 5.0711
# 4 1.6725 30.2653 8.9363 32.0948 -0.3188 -1.7088
# 5 -0.6594 -5.1641 -0.0444 -0.3188 35.3918 2.0429
# 6 21.5422 7.9870 5.0711 -1.7088 2.0429 28.0566
#
#
#
# Elastic Compliance Matrix: (Units=1/GPa)
#
#
# Indices 1 2 3 4 5 6 
#
# 1 0.030195 0.000237 -0.000393 -0.002920 0.001927 -0.023498
# 2 0.000237 0.016771 -0.003058 -0.015244 0.002629 -0.005524
# 3 -0.000393 -0.003058 0.008475 0.000524 -0.000421 -0.000297
# 4 -0.002920 -0.015244 0.000524 0.046019 -0.002410 0.009465
# 5 0.001927 0.002629 -0.000421 -0.002410 0.028907 -0.004403
# 6 -0.023498 -0.005524 -0.000297 0.009465 -0.004403 0.056208
#
#
# Mechanical properties :
#
#
# Convention : Reuss Voigt Hill
#
# Bulk Modulus (GPa) = 20.40229 41.57538 30.98884
# Shear Modulus (GPa) = 23.88462 34.29474 29.08968
#
# Velocity S-wave (km/s) = 3.25394 3.89910 3.59103
# Velocity P-wave (km/s) = 4.81268 6.22102 5.56161
#
# Compressibility (1/GPa) = 0.04901410
#
# Stress axis : x y z
#
# Youngs Moduli (GPa) = 33.11846 59.62616 117.98851
#
# Poissons Ratio (x) = -0.01413 0.04634
# Poissons Ratio (y) = -0.00785 0.36080
# Poissons Ratio (z) = 0.01301 0.18233
#
# Static dielectric constant tensor:
#      x y z
#    x 1.952030 0.000310 -0.014340 
#    y 0.000310 1.847960 0.047700 
#    z -0.014340 0.047700 1.864430 
# 
# From -- ./inp_files/348859.got.cif
#   From: 2010.05.17/outbox.cif.g08.bks.cpg/sg2_175_cif.got.tgz:348859.got - 2010.06.03 11:33:40.
