data_PCOD9022945
_publ_section_title
;
Structure prediction by ZEFSAII (Michael W. Deem and Ramdas Pophale) SiO2 
 PCOD9022945
Probable space group: P -1
;
_chemical_formula_sum "Si O2"
_cell_formula_units_Z 16
_cell_length_a 10.866858
_cell_length_b 13.612334
_cell_length_c 9.459320
_cell_angle_alpha 135.296648
_cell_angle_beta 114.611400
_cell_angle_gamma 93.963133
_cell_volume 734.693698
_symmetry_space_group_name_H-M "P -1"
_symmetry_group_IT_number 2
_symmetry_cell_setting 'triclinic'
loop_
_space_group_symop_operation_xyz
x,y,z
-x,-y,-z
loop_
_atom_site_type_symbol
_atom_site_label
_atom_site_fract_x
_atom_site_fract_y
_atom_site_fract_z
Si Si1 0.667214 0.618292 0.295395
Si Si2 0.815445 0.773357 0.252442
Si Si3 0.441710 0.098399 0.165269
Si Si4 0.934283 0.333087 0.708373
Si Si5 0.536329 0.444066 0.606239
Si Si6 0.299636 0.034202 0.749720
Si Si7 0.405036 0.895562 0.207481
Si Si8 0.105007 0.521799 0.708567
O O1 0.771578 0.772858 0.395541
O O2 0.617078 0.648541 0.453303
O O3 0.771965 0.539516 0.293307
O O4 0.500000 0.500000 0.000000
O O5 0.820768 0.926567 0.340329
O O6 0.952111 0.735202 0.283559
O O7 0.673544 0.610371 0.926778
O O8 0.570948 0.301201 0.450255
O O9 0.381538 0.004280 0.190570
O O10 0.310547 0.078679 0.966657
O O11 0.500000 0.000000 0.000000
O O12 0.967004 0.404253 0.638770
O O13 0.760199 0.161984 0.490273
O O14 0.000000 0.500000 0.000000
O O15 0.500000 0.500000 0.500000
O O16 0.474233 0.141503 0.858690
O O17 0.500000 0.000000 0.500000
O O18 0.234139 0.724749 0.998604
O O19 0.000000 0.500000 0.500000
#
# Coordination Sequence:
#
# PCOD9022945 Si02
#       8
#     2   2   2   2   2   2   2   2
#     4   9  21  38  66  96 131 174 229 276 328 406
#     4  10  22  39  65  92 129 173 221 277 340 397
#     4  10  24  37  60  96 134 165 216 283 337 389
#     4  11  25  42  66  95 132 177 225 276 340 409
#     4  11  21  38  64  98 130 170 225 275 337 404
#     4  11  22  44  64  95 135 171 221 285 338 395
#     4  11  24  39  69  96 131 176 233 278 333 405
#     4  11  24  44  66  97 140 181 217 282 354 403
#
# _framework density 21.777782999999999
#
# number of rings (size 3 to 8) (size 9 to 14) (size 15 to 20)
#    0.000    1.500    1.250    3.375   12.250    1.000 
#    0.000    0.000    0.000    2.250    0.000    0.000 
#    0.000    0.000    0.000    0.000    0.000    0.000 
#
# Total GULP energy -89185.560593 kJ/mol
# GULP energy per Si atom -5574.097537 kJ/mol
# Density = 2.172822 g / cm^3
# Si number density = 21.777783 Si / 1000 Ang^3
#
#
#
# Elastic Constant Matrix: (Units=GPa)
#
#
# Indices 1 2 3 4 5 6 
#
# 1 41.6948 30.8447 -1.7536 -8.8718 -8.6764 1.7152
# 2 30.8447 197.8639 53.6130 -12.4594 -12.9402 -3.3890
# 3 -1.7536 53.6130 82.6938 5.1180 -9.3945 13.7223
# 4 -8.8718 -12.4594 5.1180 53.6625 0.3259 1.2265
# 5 -8.6764 -12.9402 -9.3945 0.3259 27.8218 -3.1424
# 6 1.7152 -3.3890 13.7223 1.2265 -3.1424 25.5488
#
#
#
# Elastic Compliance Matrix: (Units=1/GPa)
#
#
# Indices 1 2 3 4 5 6 
#
# 1 0.031241 -0.005848 0.006082 0.003296 0.008444 -0.005260
# 2 -0.005848 0.007761 -0.005968 0.001298 0.000275 0.004599
# 3 0.006082 -0.005968 0.018426 -0.001923 0.004180 -0.010490
# 4 0.003296 0.001298 -0.001923 0.019657 0.000767 0.000134
# 5 0.008444 0.000275 0.004180 0.000767 0.040350 0.002150
# 6 -0.005260 0.004599 -0.010490 0.000134 0.002150 0.045996
#
#
# Mechanical properties :
#
#
# Convention : Reuss Voigt Hill
#
# Bulk Modulus (GPa) = 21.75844 54.18453 37.97148
# Shear Modulus (GPa) = 26.28549 37.37651 31.83100
#
# Velocity S-wave (km/s) = 3.47794 4.14728 3.82727
# Velocity P-wave (km/s) = 5.11282 6.91866 6.08312
#
# Compressibility (1/GPa) = 0.04595919
#
# Stress axis : x y z
#
# Youngs Moduli (GPa) = 32.00941 128.84475 54.27170
#
# Poissons Ratio (x) = 0.75355 -0.33010
# Poissons Ratio (y) = 0.18721 0.32390
# Poissons Ratio (z) = -0.19469 0.76897
#
# Static dielectric constant tensor:
#      x y z
#    x 1.990730 -0.000260 0.066490 
#    y -0.000260 1.800250 0.035770 
#    z 0.066490 0.035770 1.780060 
# 
# From -- ./inp_files/218890.got.cif
#   From: 2010.05.17/outbox.cif.g08.bks.cpg/sg2_110_cif.got.tgz:218890.got - 2010.06.03 11:33:40.
