data_PCOD9022733
_publ_section_title
;
Structure prediction by ZEFSAII (Michael W. Deem and Ramdas Pophale) SiO2 
 PCOD9022733
Probable space group: P -1
;
_chemical_formula_sum "Si O2"
_cell_formula_units_Z 16
_cell_length_a 5.178381
_cell_length_b 12.859512
_cell_length_c 12.150891
_cell_angle_alpha 115.188983
_cell_angle_beta 84.596685
_cell_angle_gamma 74.084956
_cell_volume 683.151418
_symmetry_space_group_name_H-M "P -1"
_symmetry_group_IT_number 2
_symmetry_cell_setting 'triclinic'
loop_
_space_group_symop_operation_xyz
x,y,z
-x,-y,-z
loop_
_atom_site_type_symbol
_atom_site_label
_atom_site_fract_x
_atom_site_fract_y
_atom_site_fract_z
Si Si1 0.271254 0.224887 0.292445
Si Si2 0.374376 0.602846 0.223316
Si Si3 0.682037 0.077951 0.067358
Si Si4 0.871829 0.899783 0.553263
Si Si5 0.416366 0.463519 0.368924
Si Si6 0.861782 0.401535 0.986392
Si Si7 0.445305 0.846952 0.388464
Si Si8 0.116107 0.722360 0.867505
O O1 0.580210 0.126705 0.216566
O O2 0.141375 0.186734 0.385557
O O3 0.276066 0.362174 0.352729
O O4 0.109812 0.210743 0.183557
O O5 0.269218 0.565299 0.326814
O O6 0.577585 0.479749 0.098228
O O7 0.505756 0.706829 0.288550
O O8 0.164817 0.656801 0.155241
O O9 0.677948 0.206683 0.072777
O O10 0.500000 0.000000 0.000000
O O11 0.000000 0.000000 0.000000
O O12 0.709768 0.864459 0.442268
O O13 0.187592 0.877746 0.499066
O O14 0.692102 0.044025 0.645261
O O15 0.500000 0.500000 0.500000
O O16 0.701868 0.394293 0.262610
O O17 0.018982 0.306437 0.030621
O O18 0.000000 0.500000 0.000000
#
# Coordination Sequence:
#
# PCOD9022733 Si02
#       8
#     2   2   2   2   2   2   2   2
#     4  11  23  40  68  97 138 175 219 278 346 399
#     4  10  22  40  65  93 133 173 229 271 339 388
#     4  11  23  43  65  97 132 175 221 278 334 401
#     4  10  24  42  69  94 137 168 224 269 337 398
#     4  10  22  39  63  99 134 175 223 277 339 402
#     4  10  22  42  64  93 133 179 226 279 330 403
#     4  10  23  45  65  98 128 177 218 278 325 401
#     4  10  23  41  64  99 136 177 223 278 341 402
#
# _framework density 23.420871000000002
#
# number of rings (size 3 to 8) (size 9 to 14) (size 15 to 20)
#    0.000    1.750    1.250    1.500    7.000    2.500 
#    2.250    0.000    0.000    0.000    0.000    0.000 
#    0.000    0.000    0.000    0.000    0.000    0.000 
#
# Total GULP energy -89201.791913 kJ/mol
# GULP energy per Si atom -5575.111995 kJ/mol
# Density = 2.336756 g / cm^3
# Si number density = 23.420871 Si / 1000 Ang^3
#
#
#
# Elastic Constant Matrix: (Units=GPa)
#
#
# Indices 1 2 3 4 5 6 
#
# 1 77.7482 14.9450 26.7730 -6.3213 9.0408 16.6946
# 2 14.9450 103.3908 71.5398 -24.9092 12.7649 23.7707
# 3 26.7730 71.5398 98.9446 -8.0197 21.6577 8.0582
# 4 -6.3213 -24.9092 -8.0197 47.7512 6.2951 0.2611
# 5 9.0408 12.7649 21.6577 6.2951 31.1978 8.1482
# 6 16.6946 23.7707 8.0582 0.2611 8.1482 39.6628
#
#
#
# Elastic Compliance Matrix: (Units=1/GPa)
#
#
# Indices 1 2 3 4 5 6 
#
# 1 0.016693 0.006092 -0.007751 0.004193 -0.000434 -0.009041
# 2 0.006092 0.030765 -0.022077 0.012863 0.002867 -0.017191
# 3 -0.007751 -0.022077 0.029003 -0.006298 -0.010951 0.012893
# 4 0.004193 0.012863 -0.006298 0.027963 -0.005875 -0.007171
# 5 -0.000434 0.002867 -0.010951 -0.005875 0.041849 -0.007869
# 6 -0.009041 -0.017191 0.012893 -0.007171 -0.007869 0.038365
#
#
# Mechanical properties :
#
#
# Convention : Reuss Voigt Hill
#
# Bulk Modulus (GPa) = 34.49520 56.28880 45.39200
# Shear Modulus (GPa) = 20.68060 34.84408 27.76234
#
# Velocity S-wave (km/s) = 2.97475 3.86130 3.44665
# Velocity P-wave (km/s) = 5.15357 6.63064 5.93821
#
# Compressibility (1/GPa) = 0.02898954
#
# Stress axis : x y z
#
# Youngs Moduli (GPa) = 59.90646 32.50456 34.47911
#
# Poissons Ratio (x) = -0.19803 0.26723
# Poissons Ratio (y) = -0.36498 0.76121
# Poissons Ratio (z) = 0.46431 0.71762
#
# Static dielectric constant tensor:
#      x y z
#    x 2.012540 -0.092600 -0.027590 
#    y -0.092600 1.993790 0.023860 
#    z -0.027590 0.023860 1.907420 
# 
# From -- ./inp_files/365243.got.cif
#   From: 2010.05.17/outbox.cif.g08.bks.cpg/sg2_183_cif.got.tgz:365243.got - 2010.06.03 11:33:40.
