data_PCOD9022266
_publ_section_title
;
Structure prediction by ZEFSAII (Michael W. Deem and Ramdas Pophale) SiO2 
 PCOD9022266
Probable space group: P -1
;
_chemical_formula_sum "Si O2"
_cell_formula_units_Z 12
_cell_length_a 5.265563
_cell_length_b 16.783240
_cell_length_c 14.978857
_cell_angle_alpha 32.984562
_cell_angle_beta 97.535291
_cell_angle_gamma 80.079992
_cell_volume 608.930941
_symmetry_space_group_name_H-M "P -1"
_symmetry_group_IT_number 2
_symmetry_cell_setting 'triclinic'
loop_
_space_group_symop_operation_xyz
x,y,z
-x,-y,-z
loop_
_atom_site_type_symbol
_atom_site_label
_atom_site_fract_x
_atom_site_fract_y
_atom_site_fract_z
Si Si1 0.641948 0.109904 0.877577
Si Si2 0.299509 0.510569 0.188975
Si Si3 0.215377 0.382621 0.480949
Si Si4 0.407383 0.795562 0.645872
Si Si5 0.447363 0.437929 0.676809
Si Si6 0.059134 0.191057 0.245540
O O1 0.494525 0.197256 0.693490
O O2 0.523379 0.263054 0.799876
O O3 0.500000 0.000000 0.000000
O O4 0.000000 0.000000 0.000000
O O5 0.170744 0.430217 0.329689
O O6 0.508042 0.354436 0.279714
O O7 0.470808 0.571590 0.205437
O O8 0.064613 0.673772 0.967626
O O9 0.331523 0.505292 0.407074
O O10 0.907733 0.424041 0.472553
O O11 0.706223 0.779325 0.716482
O O12 0.210745 0.779823 0.729622
O O13 0.223147 0.989732 0.415779
#
# Coordination Sequence:
#
# PCOD9022266 Si02
#       6
#     2   2   2   2   2   2
#     4  12  24  42  66  92 126 166 206 259 315 373
#     4  10  24  37  68  86 126 160 210 249 322 354
#     4  10  23  41  63  90 124 164 207 258 306 377
#     4  10  22  39  60  89 123 161 205 254 306 371
#     4  10  23  41  63  90 124 164 207 258 306 377
#     4  10  22  39  60  89 123 161 205 254 306 371
#
# _framework density 19.706668000000001
#
# number of rings (size 3 to 8) (size 9 to 14) (size 15 to 20)
#    1.000    0.667    0.000    4.000    4.667    1.333 
#    0.000    0.000    0.000    0.000    0.000    0.000 
#    0.000    0.000    0.000    0.000    0.000    0.000 
#
# Total GULP energy -66892.049165 kJ/mol
# GULP energy per Si atom -5574.337430 kJ/mol
# Density = 1.966182 g / cm^3
# Si number density = 19.706668 Si / 1000 Ang^3
#
#
#
# Elastic Constant Matrix: (Units=GPa)
#
#
# Indices 1 2 3 4 5 6 
#
# 1 101.9579 8.5812 29.8943 1.2049 0.9413 -4.7173
# 2 8.5812 64.4569 50.9768 -0.4644 6.7823 7.4783
# 3 29.8943 50.9768 154.9051 4.3523 -0.5212 -8.9646
# 4 1.2049 -0.4644 4.3523 19.7311 -0.1926 -3.7377
# 5 0.9413 6.7823 -0.5212 -0.1926 26.2095 -9.3928
# 6 -4.7173 7.4783 -8.9646 -3.7377 -9.3928 19.4770
#
#
#
# Elastic Compliance Matrix: (Units=1/GPa)
#
#
# Indices 1 2 3 4 5 6 
#
# 1 0.010450 -0.000194 -0.001843 0.000136 0.000336 0.001945
# 2 -0.000194 0.028545 -0.010760 -0.001670 -0.016248 -0.024116
# 3 -0.001843 -0.010760 0.011099 -0.000170 0.007507 0.012381
# 4 0.000136 -0.001670 -0.000170 0.053295 0.005675 0.013560
# 5 0.000336 -0.016248 0.007507 0.005675 0.056132 0.037934
# 6 0.001945 -0.024116 0.012381 0.013560 0.037934 0.087667
#
#
# Mechanical properties :
#
#
# Convention : Reuss Voigt Hill
#
# Bulk Modulus (GPa) = 40.81511 55.58051 48.19781
# Shear Modulus (GPa) = 17.79684 28.54136 23.16910
#
# Velocity S-wave (km/s) = 3.00840 3.80980 3.43257
# Velocity P-wave (km/s) = 5.72919 6.90057 6.34198
#
# Compressibility (1/GPa) = 0.02450073
#
# Stress axis : x y z
#
# Youngs Moduli (GPa) = 95.69430 35.03231 90.10123
#
# Poissons Ratio (x) = 0.00679 0.16606
# Poissons Ratio (y) = 0.01854 0.96946
# Poissons Ratio (z) = 0.17637 0.37694
#
# Static dielectric constant tensor:
#      x y z
#    x 1.690070 -0.000410 -0.005260 
#    y -0.000410 1.680150 0.032420 
#    z -0.005260 0.032420 1.733910 
# 
# From -- ./inp_files/366644.got.cif
#   From: 2010.05.17/outbox.cif.g08.bks.cpg/sg2_184_cif.got.tgz:366644.got - 2010.06.03 11:33:40.
