data_PCOD9022132
_publ_section_title
;
Structure prediction by ZEFSAII (Michael W. Deem and Ramdas Pophale) SiO2 
 PCOD9022132
Probable space group: P -1
;
_chemical_formula_sum "Si O2"
_cell_formula_units_Z 16
_cell_length_a 7.646480
_cell_length_b 12.453308
_cell_length_c 18.609204
_cell_angle_alpha 26.219867
_cell_angle_beta 95.708838
_cell_angle_gamma 80.601502
_cell_volume 637.677317
_symmetry_space_group_name_H-M "P -1"
_symmetry_group_IT_number 2
_symmetry_cell_setting 'triclinic'
loop_
_space_group_symop_operation_xyz
x,y,z
-x,-y,-z
loop_
_atom_site_type_symbol
_atom_site_label
_atom_site_fract_x
_atom_site_fract_y
_atom_site_fract_z
Si Si1 0.305621 0.203879 0.717388
Si Si2 0.381678 0.609097 0.056230
Si Si3 0.329523 0.383906 0.057564
Si Si4 0.709807 0.686315 0.505181
Si Si5 0.284412 0.797509 0.584028
Si Si6 0.806768 0.886948 0.884079
Si Si7 0.322419 0.663364 0.508521
Si Si8 0.984342 0.583504 0.716040
O O1 0.196472 0.360580 0.542855
O O2 0.273747 0.417024 0.652329
O O3 0.561191 0.042727 0.808111
O O4 0.280072 0.937438 0.883679
O O5 0.245962 0.573485 0.012863
O O6 0.478638 0.393249 0.257523
O O7 0.577431 0.516351 0.062449
O O8 0.161635 0.354815 0.026500
O O9 0.528365 0.044529 0.289127
O O10 0.573505 0.544195 0.586647
O O11 0.876784 0.596671 0.628766
O O12 0.252753 0.848185 0.467622
O O13 0.192956 0.595638 0.713465
O O14 0.169862 0.107157 0.433978
O O15 0.791585 0.140453 0.684492
O O16 0.961901 0.703210 0.065779
#
# Coordination Sequence:
#
# PCOD9022132 Si02
#       8
#     2   2   2   2   2   2   2   2
#     4   9  18  36  60  80 105 156 195 219 265 340
#     4   9  15  29  53  84 106 138 184 233 262 321
#     4   8  14  29  54  82 103 140 190 220 267 327
#     4   9  18  35  61  81 106 149 190 231 269 338
#     4  11  22  34  57  88 119 141 179 242 282 331
#     4   9  18  36  59  81 111 150 184 227 283 341
#     4  10  22  39  57  81 114 152 192 224 271 329
#     4  11  21  36  58  86 114 145 185 227 298 329
#
# _framework density 25.091059999999999
#
# number of rings (size 3 to 8) (size 9 to 14) (size 15 to 20)
#    0.000    3.000    3.750    1.500    0.000    1.500 
#    0.000    3.125    5.500    0.000    0.000    0.000 
#    0.000    0.000    0.000    0.000    0.000    0.000 
#
# Total GULP energy -89348.005258 kJ/mol
# GULP energy per Si atom -5584.250329 kJ/mol
# Density = 2.503395 g / cm^3
# Si number density = 25.091060 Si / 1000 Ang^3
#
#
#
# Elastic Constant Matrix: (Units=GPa)
#
#
# Indices 1 2 3 4 5 6 
#
# 1 74.6122 22.7855 10.2722 2.7776 7.6141 14.2402
# 2 22.7855 134.0956 39.5476 10.5005 8.9975 24.6577
# 3 10.2722 39.5476 75.9436 35.2449 7.3607 11.8075
# 4 2.7776 10.5005 35.2449 36.2255 16.3579 -2.5901
# 5 7.6141 8.9975 7.3607 16.3579 23.2387 6.9705
# 6 14.2402 24.6577 11.8075 -2.5901 6.9705 25.2469
#
#
#
# Elastic Compliance Matrix: (Units=1/GPa)
#
#
# Indices 1 2 3 4 5 6 
#
# 1 0.015320 -0.001141 -0.000136 -0.000106 -0.002419 -0.006806
# 2 -0.001141 0.010256 -0.005418 0.002941 -0.002170 -0.005939
# 3 -0.000136 -0.005418 0.052270 -0.075059 0.050647 -0.040761
# 4 -0.000106 0.002941 -0.075059 0.155124 -0.110100 0.078603
# 5 -0.002419 -0.002170 0.050647 -0.110100 0.126005 -0.066288
# 6 -0.006806 -0.005939 -0.040761 0.078603 -0.066288 0.094677
#
#
# Mechanical properties :
#
#
# Convention : Reuss Voigt Hill
#
# Bulk Modulus (GPa) = 15.51448 47.76245 31.63847
# Shear Modulus (GPa) = 10.23482 31.07865 20.65674
#
# Velocity S-wave (km/s) = 2.02186 3.52324 2.87238
# Velocity P-wave (km/s) = 3.41281 5.96892 4.86185
#
# Compressibility (1/GPa) = 0.06445590
#
# Stress axis : x y z
#
# Youngs Moduli (GPa) = 65.27625 97.49980 19.13127
#
# Poissons Ratio (x) = 0.11123 0.00261
# Poissons Ratio (y) = 0.07447 0.10365
# Poissons Ratio (z) = 0.00891 0.52825
#
# Static dielectric constant tensor:
#      x y z
#    x 2.153810 -0.035490 -0.031830 
#    y -0.035490 1.967860 -0.010810 
#    z -0.031830 -0.010810 1.965030 
# 
# From -- ./inp_files/568483.got.cif
#   From: 2010.05.17/outbox.cif.g08.bks.cpg/sg2_285_cif.got.tgz:568483.got - 2010.06.03 11:33:40.
