data_PCOD9022539
_publ_section_title
;
Structure prediction by ZEFSAII (Michael W. Deem and Ramdas Pophale) SiO2 
 PCOD9022539
Probable space group: P -1
;
_chemical_formula_sum "Si O2"
_cell_formula_units_Z 14
_cell_length_a 24.390565
_cell_length_b 8.181204
_cell_length_c 9.391927
_cell_angle_alpha 67.917906
_cell_angle_beta 149.460738
_cell_angle_gamma 130.614147
_cell_volume 634.601271
_symmetry_space_group_name_H-M "P -1"
_symmetry_group_IT_number 2
_symmetry_cell_setting 'triclinic'
loop_
_space_group_symop_operation_xyz
x,y,z
-x,-y,-z
loop_
_atom_site_type_symbol
_atom_site_label
_atom_site_fract_x
_atom_site_fract_y
_atom_site_fract_z
Si Si1 0.839906 0.267001 0.041342
Si Si2 0.168501 0.895589 0.199854
Si Si3 0.648163 0.601645 0.719372
Si Si4 0.068387 0.113359 0.272900
Si Si5 0.652968 0.784382 0.225450
Si Si6 0.905380 0.660529 0.269276
Si Si7 0.563787 0.886557 0.731995
O O1 0.853209 0.462213 0.096541
O O2 0.988330 0.323374 0.390970
O O3 0.823613 0.263528 0.835652
O O4 0.700331 0.009882 0.888210
O O5 0.251709 0.132390 0.207852
O O6 0.261961 0.030469 0.509617
O O7 0.997559 0.767511 0.880739
O O8 0.500000 0.500000 0.500000
O O9 0.573527 0.404148 0.491203
O O10 0.765139 0.597211 0.052685
O O11 0.237395 0.237155 0.594324
O O12 0.998081 0.909741 0.305354
O O13 0.000000 0.000000 0.000000
O O14 0.500000 0.500000 0.000000
O O15 0.627660 0.921361 0.018490
O O16 0.500000 0.000000 0.500000
#
# Coordination Sequence:
#
# PCOD9022539 Si02
#       7
#     2   2   2   2   2   2   2
#     4  11  22  40  65  91 127 165 212 261 319 384
#     4  10  22  39  62  95 126 158 216 266 309 377
#     4  11  21  36  63  98 126 162 217 264 308 375
#     4   9  20  38  63  90 122 162 209 261 313 376
#     4  11  22  41  66  93 126 171 210 258 325 381
#     4  10  22  39  63  91 124 172 208 255 326 378
#     4  12  23  39  65  93 131 169 209 261 324 377
#
# _framework density 22.061097
#
# number of rings (size 3 to 8) (size 9 to 14) (size 15 to 20)
#    0.000    1.429    5.714    0.000    0.000    3.429 
#    0.000    3.571    0.000    0.000    0.000    0.000 
#    0.000    0.000    0.000    0.000    0.000    0.000 
#
# Total GULP energy -77998.819269 kJ/mol
# GULP energy per Si atom -5571.344233 kJ/mol
# Density = 2.201088 g / cm^3
# Si number density = 22.061097 Si / 1000 Ang^3
#
#
#
# Elastic Constant Matrix: (Units=GPa)
#
#
# Indices 1 2 3 4 5 6 
#
# 1 112.7414 22.1874 69.9871 -12.4378 6.0031 6.6722
# 2 22.1874 50.4073 31.0428 -2.8405 -0.0207 6.6405
# 3 69.9871 31.0428 131.8151 -13.6621 26.5716 1.6331
# 4 -12.4378 -2.8405 -13.6621 35.2425 2.6692 -0.3672
# 5 6.0031 -0.0207 26.5716 2.6692 50.5769 7.6901
# 6 6.6722 6.6405 1.6331 -0.3672 7.6901 15.4584
#
#
#
# Elastic Compliance Matrix: (Units=1/GPa)
#
#
# Indices 1 2 3 4 5 6 
#
# 1 0.014260 -0.000418 -0.007911 0.001603 0.003413 -0.006800
# 2 -0.000418 0.026040 -0.007069 -0.001370 0.005854 -0.013204
# 3 -0.007911 -0.007069 0.015456 0.003391 -0.008772 0.009262
# 4 0.001603 -0.001370 0.003391 0.030464 -0.003916 0.002210
# 5 0.003413 0.005854 -0.008772 -0.003916 0.026682 -0.016428
# 6 -0.006800 -0.013204 0.009262 0.002210 -0.016428 0.080543
#
#
# Mechanical properties :
#
#
# Convention : Reuss Voigt Hill
#
# Bulk Modulus (GPa) = 40.06127 60.15535 50.10831
# Shear Modulus (GPa) = 21.49964 31.70533 26.60249
#
# Velocity S-wave (km/s) = 3.12516 3.79510 3.47631
# Velocity P-wave (km/s) = 5.58756 6.82133 6.23504
#
# Compressibility (1/GPa) = 0.02496177
#
# Stress axis : x y z
#
# Youngs Moduli (GPa) = 70.12443 38.40176 64.69872
#
# Poissons Ratio (x) = 0.01604 0.51181
# Poissons Ratio (y) = 0.02929 0.45738
# Poissons Ratio (z) = 0.55473 0.27147
#
# Static dielectric constant tensor:
#      x y z
#    x 1.934550 -0.126410 0.038990 
#    y -0.126410 1.902680 -0.045560 
#    z 0.038990 -0.045560 1.934560 
# 
# From -- ./inp_files/154008.got.cif
#   From: 2010.05.17/outbox.cif.g08.bks.cpg/sg2_78_cif.got.tgz:154008.got - 2010.06.03 11:33:40.
