data_PCOD9022403
_publ_section_title
;
Structure prediction by ZEFSAII (Michael W. Deem and Ramdas Pophale) SiO2 
 PCOD9022403
Probable space group: P -1
;
_chemical_formula_sum "Si O2"
_cell_formula_units_Z 16
_cell_length_a 6.186463
_cell_length_b 18.374769
_cell_length_c 16.363814
_cell_angle_alpha 24.358130
_cell_angle_beta 77.298745
_cell_angle_gamma 70.752242
_cell_volume 708.689741
_symmetry_space_group_name_H-M "P -1"
_symmetry_group_IT_number 2
_symmetry_cell_setting 'triclinic'
loop_
_space_group_symop_operation_xyz
x,y,z
-x,-y,-z
loop_
_atom_site_type_symbol
_atom_site_label
_atom_site_fract_x
_atom_site_fract_y
_atom_site_fract_z
Si Si1 0.890022 0.387520 0.685853
Si Si2 0.279758 0.041670 0.033413
Si Si3 0.004487 0.522197 0.716009
Si Si4 0.021540 0.965367 0.414765
Si Si5 0.060014 0.056591 0.737198
Si Si6 0.385641 0.851580 0.627968
Si Si7 0.497984 0.276221 0.888555
Si Si8 0.127952 0.407784 0.166528
O O1 0.627051 0.381523 0.709298
O O2 0.000000 0.500000 0.500000
O O3 0.920841 0.441815 0.722811
O O4 0.055920 0.179700 0.866401
O O5 0.166481 0.900623 0.228546
O O6 0.356239 0.156978 0.979331
O O7 0.500000 0.000000 0.000000
O O8 0.903397 0.745293 0.481464
O O9 0.289059 0.437468 0.784617
O O10 0.923203 0.486810 0.849850
O O11 0.011604 0.007328 0.278122
O O12 0.275500 0.919880 0.479221
O O13 0.951743 0.776819 0.625057
O O14 0.835527 0.126937 0.317064
O O15 0.286997 0.884464 0.921688
O O16 0.594320 0.661493 0.800357
O O17 0.500000 0.000000 0.500000
O O18 0.000000 0.500000 0.000000
#
# Coordination Sequence:
#
# PCOD9022403 Si02
#       8
#     2   2   2   2   2   2   2   2
#     4  10  24  42  65  95 127 170 209 263 327 382
#     4  10  24  40  62  97 123 166 217 259 320 386
#     4  10  24  42  64  98 127 168 220 259 326 386
#     4   9  20  40  60  92 118 166 214 249 325 376
#     4  10  23  40  66  91 125 171 214 263 318 382
#     4   9  19  38  60  87 122 155 207 258 305 382
#     4  10  24  43  61  95 131 164 210 268 318 382
#     4  10  22  39  61  94 126 164 209 261 321 378
#
# _framework density 22.576875000000001
#
# number of rings (size 3 to 8) (size 9 to 14) (size 15 to 20)
#    0.000    2.250    0.000    0.000    7.000    7.500 
#   18.000    0.000    0.000    0.000    0.000    0.000 
#    0.000    0.000    0.000    0.000    0.000    0.000 
#
# Total GULP energy -89171.386007 kJ/mol
# GULP energy per Si atom -5573.211625 kJ/mol
# Density = 2.252549 g / cm^3
# Si number density = 22.576875 Si / 1000 Ang^3
#
#
#
# Elastic Constant Matrix: (Units=GPa)
#
#
# Indices 1 2 3 4 5 6 
#
# 1 69.4236 1.4769 22.2618 -5.2001 12.3253 -8.0790
# 2 1.4769 76.6618 25.3446 2.0368 10.8734 -17.6082
# 3 22.2618 25.3446 78.2620 9.3941 1.9138 -15.3071
# 4 -5.2001 2.0368 9.3941 24.6212 -6.3797 5.2731
# 5 12.3253 10.8734 1.9138 -6.3797 32.0123 -9.3044
# 6 -8.0790 -17.6082 -15.3071 5.2731 -9.3044 39.5540
#
#
#
# Elastic Compliance Matrix: (Units=1/GPa)
#
#
# Indices 1 2 3 4 5 6 
#
# 1 0.017828 0.002579 -0.006187 0.004173 -0.006445 0.000323
# 2 0.002579 0.016494 -0.004809 -0.001383 -0.005135 0.004985
# 3 -0.006187 -0.004809 0.018056 -0.008203 0.002855 0.005348
# 4 0.004173 -0.001383 -0.008203 0.048140 0.006685 -0.007783
# 5 -0.006445 -0.005135 0.002855 0.006685 0.038256 0.005611
# 6 0.000323 0.004985 0.005348 -0.007783 0.005611 0.031994
#
#
# Mechanical properties :
#
#
# Convention : Reuss Voigt Hill
#
# Bulk Modulus (GPa) = 28.13271 35.83488 31.98379
# Shear Modulus (GPa) = 25.06917 30.92178 27.99548
#
# Velocity S-wave (km/s) = 3.33587 3.70486 3.52519
# Velocity P-wave (km/s) = 5.22736 5.84877 5.54677
#
# Compressibility (1/GPa) = 0.03554582
#
# Stress axis : x y z
#
# Youngs Moduli (GPa) = 56.09276 60.62637 55.38469
#
# Poissons Ratio (x) = -0.15637 0.34264
# Poissons Ratio (y) = -0.14468 0.26632
# Poissons Ratio (z) = 0.34702 0.29153
#
# Static dielectric constant tensor:
#      x y z
#    x 1.814790 -0.053480 -0.019250 
#    y -0.053480 1.875550 0.001550 
#    z -0.019250 0.001550 1.901390 
# 
# From -- ./inp_files/52028.got.cif
#   From: 2010.05.17/outbox.cif.g08.bks.cpg/sg2_27_cif.got.tgz:52028.got - 2010.06.03 11:33:40.
