data_PCOD9022701
_publ_section_title
;
Structure prediction by ZEFSAII (Michael W. Deem and Ramdas Pophale) SiO2 
 PCOD9022701
Probable space group: P -1
;
_chemical_formula_sum "Si O2"
_cell_formula_units_Z 16
_cell_length_a 18.892592
_cell_length_b 11.138691
_cell_length_c 12.629996
_cell_angle_alpha 44.775164
_cell_angle_beta 142.752004
_cell_angle_gamma 155.219987
_cell_volume 673.397635
_symmetry_space_group_name_H-M "P -1"
_symmetry_group_IT_number 2
_symmetry_cell_setting 'triclinic'
loop_
_space_group_symop_operation_xyz
x,y,z
-x,-y,-z
loop_
_atom_site_type_symbol
_atom_site_label
_atom_site_fract_x
_atom_site_fract_y
_atom_site_fract_z
Si Si1 0.001728 0.370725 0.976198
Si Si2 0.875915 0.824978 0.854901
Si Si3 0.604757 0.769719 0.648013
Si Si4 0.201899 0.389047 0.767667
Si Si5 0.062727 0.548518 0.366791
Si Si6 0.361864 0.827762 0.841123
Si Si7 0.424051 0.218094 0.154035
Si Si8 0.376824 0.797317 0.285697
O O1 0.158170 0.584701 0.120359
O O2 0.117390 0.365746 0.043836
O O3 0.954989 0.461504 0.775928
O O4 0.804699 0.046681 0.986154
O O5 0.002290 0.060283 0.765136
O O6 0.669523 0.679377 0.717300
O O7 0.000000 0.000000 0.000000
O O8 0.580170 0.706789 0.782218
O O9 0.411789 0.650445 0.462945
O O10 0.788107 0.119672 0.636708
O O11 0.143576 0.475307 0.565719
O O12 0.292106 0.563805 0.876809
O O13 0.384757 0.506460 0.857530
O O14 0.843397 0.317541 0.294421
O O15 0.488203 0.041459 0.758955
O O16 0.500000 0.000000 0.000000
O O17 0.445164 0.032240 0.295957
#
# Coordination Sequence:
#
# PCOD9022701 Si02
#       8
#     2   2   2   2   2   2   2   2
#     4  11  24  39  61  90 132 166 201 257 315 365
#     4  12  23  42  64  90 127 168 207 251 309 380
#     4  11  21  39  67  93 122 166 208 254 309 375
#     4  11  23  38  65  91 122 164 211 258 303 370
#     4  11  19  37  61  90 122 159 211 254 300 360
#     4  11  19  32  55  92 122 152 202 262 309 347
#     4  10  22  39  63  96 120 164 211 256 310 366
#     4  11  22  37  62  95 128 159 206 265 315 360
#
# _framework density 23.760104999999999
#
# number of rings (size 3 to 8) (size 9 to 14) (size 15 to 20)
#    0.000    1.000    7.500    1.875    1.750    1.000 
#    0.000    0.000    0.000    0.750    0.000    0.000 
#    0.000    0.000    0.000    0.000    0.000    0.000 
#
# Total GULP energy -89386.230885 kJ/mol
# GULP energy per Si atom -5586.639430 kJ/mol
# Density = 2.370603 g / cm^3
# Si number density = 23.760105 Si / 1000 Ang^3
#
#
#
# Elastic Constant Matrix: (Units=GPa)
#
#
# Indices 1 2 3 4 5 6 
#
# 1 105.5544 23.3759 22.5833 5.4961 8.0528 24.1090
# 2 23.3759 70.4100 32.9982 8.7438 -5.4806 36.7911
# 3 22.5833 32.9982 103.2016 11.2245 9.3474 6.6861
# 4 5.4961 8.7438 11.2245 35.7150 11.2599 10.4375
# 5 8.0528 -5.4806 9.3474 11.2599 33.0117 8.4376
# 6 24.1090 36.7911 6.6861 10.4375 8.4376 43.7661
#
#
#
# Elastic Compliance Matrix: (Units=1/GPa)
#
#
# Indices 1 2 3 4 5 6 
#
# 1 0.011311 0.000413 -0.002232 0.000947 -0.000768 -0.006315
# 2 0.000413 0.039987 -0.012161 -0.001908 0.019659 -0.035319
# 3 -0.002232 -0.012161 0.014255 -0.002018 -0.007695 0.011239
# 4 0.000947 -0.001908 -0.002018 0.033535 -0.010230 -0.004635
# 5 -0.000768 0.019659 -0.007695 -0.010230 0.044812 -0.021127
# 6 -0.006315 -0.035319 0.011239 -0.004635 -0.021127 0.059479
#
#
# Mechanical properties :
#
#
# Convention : Reuss Voigt Hill
#
# Bulk Modulus (GPa) = 26.59997 48.56455 37.58226
# Shear Modulus (GPa) = 20.50273 35.84578 28.17425
#
# Velocity S-wave (km/s) = 2.94071 3.88835 3.44725
# Velocity P-wave (km/s) = 4.76969 6.37518 5.62996
#
# Compressibility (1/GPa) = 0.03759403
#
# Stress axis : x y z
#
# Youngs Moduli (GPa) = 88.40607 25.00802 70.15173
#
# Poissons Ratio (x) = -0.01033 0.15655
# Poissons Ratio (y) = -0.03650 0.85311
# Poissons Ratio (z) = 0.19729 0.30412
#
# Static dielectric constant tensor:
#      x y z
#    x 1.991870 -0.025700 0.046770 
#    y -0.025700 1.927160 -0.026540 
#    z 0.046770 -0.026540 1.972480 
# 
# From -- ./inp_files/450613.got.cif
#   From: 2010.05.17/outbox.cif.g08.bks.cpg/sg2_226_cif.got.tgz:450613.got - 2010.06.03 11:33:40.
