data_PCOD9022959
_publ_section_title
;
Structure prediction by ZEFSAII (Michael W. Deem and Ramdas Pophale) SiO2 
 PCOD9022959
Probable space group: P -1
;
_chemical_formula_sum "Si O2"
_cell_formula_units_Z 16
_cell_length_a 15.982146
_cell_length_b 18.418003
_cell_length_c 8.832735
_cell_angle_alpha 44.322200
_cell_angle_beta 123.273028
_cell_angle_gamma 155.336214
_cell_volume 710.609433
_symmetry_space_group_name_H-M "P -1"
_symmetry_group_IT_number 2
_symmetry_cell_setting 'triclinic'
loop_
_space_group_symop_operation_xyz
x,y,z
-x,-y,-z
loop_
_atom_site_type_symbol
_atom_site_label
_atom_site_fract_x
_atom_site_fract_y
_atom_site_fract_z
Si Si1 0.105161 0.508113 0.225691
Si Si2 0.745156 0.699768 0.979540
Si Si3 0.644954 0.714489 0.413834
Si Si4 0.623393 0.123902 0.273107
Si Si5 0.807388 0.271042 0.742695
Si Si6 0.017730 0.131494 0.468242
Si Si7 0.767356 0.589134 0.441438
Si Si8 0.932639 0.149054 0.049621
O O1 0.266569 0.669289 0.000503
O O2 0.842311 0.343435 0.839966
O O3 0.149359 0.729437 0.708942
O O4 0.156190 0.454840 0.458869
O O5 0.805909 0.724545 0.174475
O O6 0.500000 0.500000 0.000000
O O7 0.828766 0.669508 0.027663
O O8 0.863946 0.912721 0.729829
O O9 0.500000 0.500000 0.500000
O O10 0.805933 0.785404 0.552746
O O11 0.487711 0.641494 0.460923
O O12 0.788155 0.929754 0.147121
O O13 0.428379 0.917602 0.273396
O O14 0.500000 0.000000 0.500000
O O15 0.000000 0.500000 0.500000
O O16 0.849140 0.186890 0.888012
O O17 0.134549 0.305590 0.452078
O O18 0.918075 0.108368 0.273444
#
# Coordination Sequence:
#
# PCOD9022959 Si02
#       8
#     2   2   2   2   2   2   2   2
#     4  11  26  47  72 106 145 188 245 300 364 430
#     4  11  22  40  63  97 136 168 220 288 338 417
#     4   9  19  39  66  93 129 169 215 280 337 415
#     4  11  25  46  73  99 143 184 244 309 357 417
#     4  12  25  47  72 102 148 194 243 302 358 432
#     4  10  22  39  65  93 132 173 222 276 343 418
#     4  11  22  41  66  98 131 173 225 277 354 414
#     4  11  23  41  67  98 131 184 231 271 359 423
#
# _framework density 22.515885000000001
#
# number of rings (size 3 to 8) (size 9 to 14) (size 15 to 20)
#    0.000    1.250    1.250    5.250    3.500    0.000 
#    4.500    0.000    0.000    0.000    0.000    0.000 
#    0.000    0.000    0.000    0.000    0.000    0.000 
#
# Total GULP energy -89087.239474 kJ/mol
# GULP energy per Si atom -5567.952467 kJ/mol
# Density = 2.246464 g / cm^3
# Si number density = 22.515885 Si / 1000 Ang^3
#
#
#
# Elastic Constant Matrix: (Units=GPa)
#
#
# Indices 1 2 3 4 5 6 
#
# 1 76.4567 36.8401 15.6653 -4.6653 11.6398 6.6469
# 2 36.8401 150.6268 47.4480 -7.8079 0.5866 16.4210
# 3 15.6653 47.4480 102.4747 -3.3462 0.2010 12.4743
# 4 -4.6653 -7.8079 -3.3462 31.4840 3.3720 -6.1180
# 5 11.6398 0.5866 0.2010 3.3720 37.0371 -2.0601
# 6 6.6469 16.4210 12.4743 -6.1180 -2.0601 29.7602
#
#
#
# Elastic Compliance Matrix: (Units=1/GPa)
#
#
# Indices 1 2 3 4 5 6 
#
# 1 0.015868 -0.003430 -0.000601 0.001717 -0.005164 -0.001404
# 2 -0.003430 0.008805 -0.003221 0.000761 0.000746 -0.002534
# 3 -0.000601 -0.003221 0.011704 -0.000238 0.000029 -0.003041
# 4 0.001717 0.000761 -0.000238 0.033697 -0.003285 0.005996
# 5 -0.005164 0.000746 0.000029 -0.003285 0.029025 0.002064
# 6 -0.001404 -0.002534 -0.003041 0.005996 0.002064 0.037965
#
#
# Mechanical properties :
#
#
# Convention : Reuss Voigt Hill
#
# Bulk Modulus (GPa) = 45.71397 58.82947 52.27172
# Shear Modulus (GPa) = 31.47489 34.96322 33.21906
#
# Velocity S-wave (km/s) = 3.74290 3.94486 3.84521
# Velocity P-wave (km/s) = 6.24709 6.85084 6.55592
#
# Compressibility (1/GPa) = 0.02187515
#
# Stress axis : x y z
#
# Youngs Moduli (GPa) = 63.02054 113.57050 85.44061
#
# Poissons Ratio (x) = 0.38949 0.05132
# Poissons Ratio (y) = 0.21613 0.27519
# Poissons Ratio (z) = 0.03785 0.36579
#
# Static dielectric constant tensor:
#      x y z
#    x 1.918700 -0.021370 -0.088920 
#    y -0.021370 1.882250 -0.023990 
#    z -0.088920 -0.023990 1.965240 
# 
# From -- ./inp_files/349868.got.cif
#   From: 2010.05.17/outbox.cif.g08.bks.cpg/sg2_175_cif.got.tgz:349868.got - 2010.06.03 11:33:40.
