data_PCOD9022063
_publ_section_title
;
Structure prediction by ZEFSAII (Michael W. Deem and Ramdas Pophale) SiO2 
 PCOD9022063
Probable space group: P -1
;
_chemical_formula_sum "Si O2"
_cell_formula_units_Z 16
_cell_length_a 9.522531
_cell_length_b 19.463566
_cell_length_c 13.173229
_cell_angle_alpha 144.443081
_cell_angle_beta 139.038525
_cell_angle_gamma 28.089946
_cell_volume 662.241001
_symmetry_space_group_name_H-M "P -1"
_symmetry_group_IT_number 2
_symmetry_cell_setting 'triclinic'
loop_
_space_group_symop_operation_xyz
x,y,z
-x,-y,-z
loop_
_atom_site_type_symbol
_atom_site_label
_atom_site_fract_x
_atom_site_fract_y
_atom_site_fract_z
Si Si1 0.626282 0.533931 0.697503
Si Si2 0.935694 0.713905 0.219546
Si Si3 0.105597 0.997956 0.442655
Si Si4 0.157742 0.590961 0.961537
Si Si5 0.264955 0.570097 0.723150
Si Si6 0.931575 0.870014 0.034015
Si Si7 0.670710 0.104191 0.994864
Si Si8 0.257243 0.346400 0.585298
O O1 0.500000 0.500000 0.500000
O O2 0.964794 0.404482 0.772188
O O3 0.500190 0.515155 0.703988
O O4 0.578626 0.836767 0.151502
O O5 0.088953 0.631478 0.091949
O O6 0.466885 0.721417 0.826220
O O7 0.974902 0.835661 0.416130
O O8 0.976742 0.964887 0.244155
O O9 0.461041 0.835270 0.441116
O O10 0.000000 0.000000 0.500000
O O11 0.917247 0.766689 0.981142
O O12 0.500000 0.500000 0.000000
O O13 0.111583 0.477798 0.755241
O O14 0.348762 0.418809 0.647234
O O15 0.963830 0.650631 0.594773
O O16 0.205552 0.710389 0.925101
O O17 0.702797 0.995912 0.972322
O O18 0.000000 0.000000 0.000000
#
# Coordination Sequence:
#
# PCOD9022063 Si02
#       8
#     2   2   2   2   2   2   2   2
#     4  12  27  50  73 103 144 195 248 302 358 435
#     4  12  27  48  75 108 151 189 247 307 373 437
#     4  12  22  41  68 110 145 180 235 301 374 438
#     4  11  21  42  74 113 144 189 234 308 387 436
#     4  10  22  43  68 100 143 182 241 292 365 433
#     4  11  22  44  71 103 143 193 232 304 365 433
#     4  12  28  50  72 103 147 203 253 300 351 433
#     4  10  22  38  70 107 140 185 232 295 373 447
#
# _framework density 24.160388999999999
#
# number of rings (size 3 to 8) (size 9 to 14) (size 15 to 20)
#    0.000    0.750    3.750    4.125    1.750    0.500 
#    6.750    1.250    0.000    0.000    0.000    0.000 
#    0.000    0.000    0.000    0.000    0.000    0.000 
#
# Total GULP energy -89373.096396 kJ/mol
# GULP energy per Si atom -5585.818525 kJ/mol
# Density = 2.410540 g / cm^3
# Si number density = 24.160389 Si / 1000 Ang^3
#
#
#
# Elastic Constant Matrix: (Units=GPa)
#
#
# Indices 1 2 3 4 5 6 
#
# 1 60.6217 29.5532 16.2837 1.2011 -10.0599 7.7540
# 2 29.5532 168.8882 35.7552 6.7813 -14.5720 23.1267
# 3 16.2837 35.7552 167.1720 13.6711 -12.1294 8.8193
# 4 1.2011 6.7813 13.6711 52.0641 10.2783 2.9746
# 5 -10.0599 -14.5720 -12.1294 10.2783 23.4762 -4.4199
# 6 7.7540 23.1267 8.8193 2.9746 -4.4199 39.5366
#
#
#
# Elastic Compliance Matrix: (Units=1/GPa)
#
#
# Indices 1 2 3 4 5 6 
#
# 1 0.019149 -0.002397 -0.000705 -0.001171 0.006608 -0.001369
# 2 -0.002397 0.007248 -0.000853 -0.001055 0.002895 -0.003176
# 3 -0.000705 -0.000853 0.006699 -0.002325 0.003595 -0.000280
# 4 -0.001171 -0.001055 -0.002325 0.022561 -0.012563 -0.001737
# 5 0.006608 0.002895 0.003595 -0.012563 0.055209 0.003326
# 6 -0.001369 -0.003176 -0.000280 -0.001737 0.003326 0.027985
#
#
# Mechanical properties :
#
#
# Convention : Reuss Voigt Hill
#
# Bulk Modulus (GPa) = 39.70483 62.20734 50.95609
# Shear Modulus (GPa) = 32.22588 44.02137 38.12363
#
# Velocity S-wave (km/s) = 3.65613 4.27318 3.97664
# Velocity P-wave (km/s) = 5.85598 7.08168 6.49780
#
# Compressibility (1/GPa) = 0.02518585
#
# Stress axis : x y z
#
# Youngs Moduli (GPa) = 52.22337 137.96593 149.28200
#
# Poissons Ratio (x) = 0.33067 0.10526
# Poissons Ratio (y) = 0.12517 0.12732
# Poissons Ratio (z) = 0.03682 0.11767
#
# Static dielectric constant tensor:
#      x y z
#    x 2.042560 -0.175290 0.040330 
#    y -0.175290 2.062710 -0.087450 
#    z 0.040330 -0.087450 1.948510 
# 
# From -- ./inp_files/357540.got.cif
#   From: 2010.05.17/outbox.cif.g08.bks.cpg/sg2_179_cif.got.tgz:357540.got - 2010.06.03 11:33:40.
