data_PCOD9022767
_publ_section_title
;
Structure prediction by ZEFSAII (Michael W. Deem and Ramdas Pophale) SiO2 
 PCOD9022767
Probable space group: P -1
;
_chemical_formula_sum "Si O2"
_cell_formula_units_Z 14
_cell_length_a 15.466279
_cell_length_b 12.586780
_cell_length_c 7.071620
_cell_angle_alpha 90.420177
_cell_angle_beta 57.240502
_cell_angle_gamma 45.657923
_cell_volume 635.458941
_symmetry_space_group_name_H-M "P -1"
_symmetry_group_IT_number 2
_symmetry_cell_setting 'triclinic'
loop_
_space_group_symop_operation_xyz
x,y,z
-x,-y,-z
loop_
_atom_site_type_symbol
_atom_site_label
_atom_site_fract_x
_atom_site_fract_y
_atom_site_fract_z
Si Si1 0.694674 0.577568 0.501097
Si Si2 0.504557 0.373816 0.545412
Si Si3 0.014929 0.839949 0.441198
Si Si4 0.428884 0.965355 0.964152
Si Si5 0.987265 0.633340 0.595449
Si Si6 0.898903 0.053774 0.927163
Si Si7 0.584163 0.240729 0.865330
O O1 0.670494 0.539325 0.332045
O O2 0.883012 0.453957 0.377833
O O3 0.573697 0.604286 0.786160
O O4 0.570682 0.792121 0.645269
O O5 0.500000 0.500000 0.500000
O O6 0.527059 0.341446 0.740635
O O7 0.703269 0.165744 0.212386
O O8 0.131441 0.812738 0.160346
O O9 0.036074 0.694099 0.402763
O O10 0.028621 0.863961 0.644798
O O11 0.801560 0.066485 0.656258
O O12 0.230961 0.158640 0.107618
O O13 0.419887 0.883067 0.136392
O O14 0.500000 0.000000 0.000000
O O15 0.000000 0.500000 0.500000
O O16 0.000000 0.000000 0.000000
#
# Coordination Sequence:
#
# PCOD9022767 Si02
#       7
#     2   2   2   2   2   2   2
#     4  10  23  40  61  89 130 156 209 252 308 374
#     4  12  25  38  58  94 127 164 207 257 310 367
#     4  10  22  39  64  89 121 168 211 253 317 370
#     4   9  18  40  67  87 119 164 201 253 313 364
#     4  11  20  37  69  93 118 165 207 256 317 368
#     4  11  22  39  61  90 123 166 211 253 311 374
#     4   9  20  40  57  85 125 160 205 248 308 366
#
# _framework density 22.031324000000001
#
# number of rings (size 3 to 8) (size 9 to 14) (size 15 to 20)
#    0.857    0.857    4.286    0.000    4.000    0.571 
#    0.000    0.714    0.000    4.286    0.000    0.000 
#    0.000    0.000    0.000    0.000    0.000    0.000 
#
# Total GULP energy -77969.092480 kJ/mol
# GULP energy per Si atom -5569.220891 kJ/mol
# Density = 2.198118 g / cm^3
# Si number density = 22.031324 Si / 1000 Ang^3
#
#
#
# Elastic Constant Matrix: (Units=GPa)
#
#
# Indices 1 2 3 4 5 6 
#
# 1 143.0776 50.1311 -1.4842 -2.2053 10.1057 -5.7443
# 2 50.1311 114.2436 9.1723 7.9434 10.9052 -9.9509
# 3 -1.4842 9.1723 41.7339 -5.4041 7.7215 -3.9320
# 4 -2.2053 7.9434 -5.4041 27.6207 -7.2239 0.2006
# 5 10.1057 10.9052 7.7215 -7.2239 27.2874 3.1715
# 6 -5.7443 -9.9509 -3.9320 0.2006 3.1715 47.5855
#
#
#
# Elastic Compliance Matrix: (Units=1/GPa)
#
#
# Indices 1 2 3 4 5 6 
#
# 1 0.008496 -0.003770 0.001712 0.001637 -0.001748 0.000488
# 2 -0.003770 0.011535 -0.002378 -0.005185 -0.004152 0.002059
# 3 0.001712 -0.002378 0.026489 0.004339 -0.006298 0.002300
# 4 0.001637 -0.005185 0.004339 0.041679 0.011442 -0.001466
# 5 -0.001748 -0.004152 -0.006298 0.011442 0.044299 -0.004600
# 6 0.000488 0.002059 0.002300 -0.001466 -0.004600 0.022007
#
#
# Mechanical properties :
#
#
# Convention : Reuss Voigt Hill
#
# Bulk Modulus (GPa) = 26.56257 46.07705 36.31981
# Shear Modulus (GPa) = 28.42095 36.58111 32.50103
#
# Velocity S-wave (km/s) = 3.59559 4.07924 3.84502
# Velocity P-wave (km/s) = 5.41485 6.56861 6.01944
#
# Compressibility (1/GPa) = 0.03764696
#
# Stress axis : x y z
#
# Youngs Moduli (GPa) = 117.69948 86.69459 37.75202
#
# Poissons Ratio (x) = 0.32685 -0.06463
# Poissons Ratio (y) = 0.44374 0.08978
# Poissons Ratio (z) = -0.20151 0.20618
#
# Static dielectric constant tensor:
#      x y z
#    x 1.814330 -0.004080 -0.035080 
#    y -0.004080 1.844600 0.068870 
#    z -0.035080 0.068870 1.874190 
# 
# From -- ./inp_files/98014.got.cif
#   From: 2010.05.17/outbox.cif.g08.bks.cpg/sg2_50_cif.got.tgz:98014.got - 2010.06.03 11:33:40.
