data_PCOD9022562
_publ_section_title
;
Structure prediction by ZEFSAII (Michael W. Deem and Ramdas Pophale) SiO2 
 PCOD9022562
Probable space group: P -1
;
_chemical_formula_sum "Si O2"
_cell_formula_units_Z 14
_cell_length_a 14.530611
_cell_length_b 6.632369
_cell_length_c 24.419599
_cell_angle_alpha 64.820772
_cell_angle_beta 161.574346
_cell_angle_gamma 108.214979
_cell_volume 638.142380
_symmetry_space_group_name_H-M "P -1"
_symmetry_group_IT_number 2
_symmetry_cell_setting 'triclinic'
loop_
_space_group_symop_operation_xyz
x,y,z
-x,-y,-z
loop_
_atom_site_type_symbol
_atom_site_label
_atom_site_fract_x
_atom_site_fract_y
_atom_site_fract_z
Si Si1 0.719228 0.309764 0.898967
Si Si2 0.712587 0.911511 0.577754
Si Si3 0.864817 0.580348 0.149867
Si Si4 0.787129 0.854189 0.419276
Si Si5 0.246246 0.915037 0.948926
Si Si6 0.388858 0.157126 0.256599
Si Si7 0.715774 0.569496 0.194651
O O1 0.440800 0.206678 0.745144
O O2 0.617774 0.577126 0.790041
O O3 0.797186 0.279574 0.011048
O O4 0.032351 0.174021 0.059580
O O5 0.826342 0.629553 0.665612
O O6 0.024050 0.957617 0.766427
O O7 0.500000 0.000000 0.500000
O O8 0.559213 0.050209 0.421419
O O9 0.816513 0.585110 0.187590
O O10 0.845704 0.845542 0.096176
O O11 0.575934 0.526954 0.965166
O O12 0.013852 0.613283 0.599140
O O13 0.570665 0.996845 0.328925
O O14 0.000000 0.000000 0.500000
O O15 0.585406 0.811154 0.127157
#
# Coordination Sequence:
#
# PCOD9022562 Si02
#       7
#     2   2   2   2   2   2   2
#     4  11  26  46  69 100 140 188 228 287 347 408
#     4  11  23  44  70  99 133 178 233 285 341 409
#     4  10  22  41  64  97 138 173 223 291 340 404
#     4  12  25  44  71 102 139 184 235 283 344 420
#     4  11  23  41  67 102 132 180 227 284 347 409
#     4  11  25  48  70  99 143 183 234 286 342 417
#     4  10  22  39  62  97 137 176 225 278 346 404
#
# _framework density 21.938677999999999
#
# number of rings (size 3 to 8) (size 9 to 14) (size 15 to 20)
#    0.000    1.143    2.857    2.571    2.000    5.143 
#    2.571    0.000    0.000    0.000    0.000    0.000 
#    0.000    0.000    0.000    0.000    0.000    0.000 
#
# Total GULP energy -78250.193091 kJ/mol
# GULP energy per Si atom -5589.299506 kJ/mol
# Density = 2.188875 g / cm^3
# Si number density = 21.938678 Si / 1000 Ang^3
#
#
#
# Elastic Constant Matrix: (Units=GPa)
#
#
# Indices 1 2 3 4 5 6 
#
# 1 77.9975 18.3717 24.1506 -21.1971 12.2764 -12.2671
# 2 18.3717 78.7873 44.3729 -17.4057 4.8009 -4.6530
# 3 24.1506 44.3729 138.2347 -27.0241 -1.5418 -1.0517
# 4 -21.1971 -17.4057 -27.0241 43.5746 -8.5741 12.3506
# 5 12.2764 4.8009 -1.5418 -8.5741 43.9486 -8.6256
# 6 -12.2671 -4.6530 -1.0517 12.3506 -8.6256 29.0649
#
#
#
# Elastic Compliance Matrix: (Units=1/GPa)
#
#
# Indices 1 2 3 4 5 6 
#
# 1 0.015873 -0.001512 -0.001368 0.004718 -0.002689 0.003605
# 2 -0.001512 0.016209 -0.004415 0.002718 -0.000899 0.000375
# 3 -0.001368 -0.004415 0.009801 0.004659 0.001642 -0.002422
# 4 0.004718 0.002718 0.004659 0.032754 0.002884 -0.010467
# 5 -0.002689 -0.000899 0.001642 0.002884 0.025212 0.005037
# 6 0.003605 0.000375 -0.002422 -0.010467 0.005037 0.041842
#
#
# Mechanical properties :
#
#
# Convention : Reuss Voigt Hill
#
# Bulk Modulus (GPa) = 36.63835 52.08999 44.36417
# Shear Modulus (GPa) = 30.23387 37.19256 33.71322
#
# Velocity S-wave (km/s) = 3.71632 4.12186 3.92433
# Velocity P-wave (km/s) = 5.92885 6.81528 6.38746
#
# Compressibility (1/GPa) = 0.02729380
#
# Stress axis : x y z
#
# Youngs Moduli (GPa) = 62.99984 61.69552 102.03198
#
# Poissons Ratio (x) = 0.09326 0.13958
# Poissons Ratio (y) = 0.09524 0.45044
# Poissons Ratio (z) = 0.08618 0.27237
#
# Static dielectric constant tensor:
#      x y z
#    x 1.795230 0.017650 0.030880 
#    y 0.017650 1.863820 -0.002750 
#    z 0.030880 -0.002750 1.811420 
# 
# From -- ./inp_files/101171.got.cif
#   From: 2010.05.17/outbox.cif.g08.bks.cpg/sg2_51_cif.got.tgz:101171.got - 2010.06.03 11:33:40.
