data_PCOD9022055
_publ_section_title
;
Structure prediction by ZEFSAII (Michael W. Deem and Ramdas Pophale) SiO2 
 PCOD9022055
Probable space group: P -1
;
_chemical_formula_sum "Si O2"
_cell_formula_units_Z 13
_cell_length_a 7.791954
_cell_length_b 13.454851
_cell_length_c 8.333381
_cell_angle_alpha 57.316803
_cell_angle_beta 48.483883
_cell_angle_gamma 69.579697
_cell_volume 550.543294
_symmetry_space_group_name_H-M "P -1"
_symmetry_group_IT_number 2
_symmetry_cell_setting 'triclinic'
loop_
_space_group_symop_operation_xyz
x,y,z
-x,-y,-z
loop_
_atom_site_type_symbol
_atom_site_label
_atom_site_fract_x
_atom_site_fract_y
_atom_site_fract_z
Si Si1 0.030910 0.960741 0.698522
Si Si2 0.500000 0.500000 0.500000
Si Si3 0.197476 0.821942 0.194190
Si Si4 0.346461 0.788993 0.764904
Si Si5 0.678697 0.758897 0.062165
Si Si6 0.199864 0.317060 0.310935
Si Si7 0.781817 0.457874 0.064572
O O1 0.283959 0.908748 0.608624
O O2 0.960961 0.068415 0.760220
O O3 0.858817 0.852161 0.940266
O O4 0.000000 0.000000 0.500000
O O5 0.623279 0.635885 0.291658
O O6 0.564506 0.477954 0.293314
O O7 0.436894 0.825102 0.136558
O O8 0.053445 0.709739 0.446389
O O9 0.258307 0.807519 0.984194
O O10 0.608748 0.748592 0.647648
O O11 0.212789 0.677937 0.866255
O O12 0.766082 0.729681 0.851913
O O13 0.231857 0.457363 0.153838
O O14 0.000000 0.500000 0.000000
#
# Coordination Sequence:
#
# PCOD9022055 Si02
#       7
#     2   1   2   2   2   2   2
#     4  12  25  45  70  98 138 188 237 284 334 404
#     4  10  22  38  70 100 130 166 222 286 348 386
#     4  11  24  45  67  97 140 185 223 285 349 406
#     4  11  26  43  66 100 141 179 230 284 348 414
#     4  10  22  43  69 102 132 179 235 288 337 410
#     4  10  22  43  67  99 141 176 226 283 351 416
#     4  11  23  42  70 104 136 176 233 285 345 414
#
# _framework density 23.613038
#
# number of rings (size 3 to 8) (size 9 to 14) (size 15 to 20)
#    0.000    1.231    1.538    4.154    2.154    3.692 
#    2.769    0.000    0.000    0.000    0.000    0.000 
#    0.000    0.000    0.000    0.000    0.000    0.000 
#
# Total GULP energy -72492.377721 kJ/mol
# GULP energy per Si atom -5576.336748 kJ/mol
# Density = 2.355929 g / cm^3
# Si number density = 23.613038 Si / 1000 Ang^3
#
#
#
# Elastic Constant Matrix: (Units=GPa)
#
#
# Indices 1 2 3 4 5 6 
#
# 1 62.6186 -2.8426 6.4020 4.0074 -11.9190 -11.2637
# 2 -2.8426 87.8973 -5.4657 -3.4866 -0.7067 1.4617
# 3 6.4020 -5.4657 69.6439 -15.6127 2.3201 -3.8663
# 4 4.0074 -3.4866 -15.6127 29.5927 2.3335 -5.2096
# 5 -11.9190 -0.7067 2.3201 2.3335 19.2960 -3.4336
# 6 -11.2637 1.4617 -3.8663 -5.2096 -3.4336 44.2933
#
#
#
# Elastic Compliance Matrix: (Units=1/GPa)
#
#
# Indices 1 2 3 4 5 6 
#
# 1 0.020316 0.000316 -0.003024 -0.004483 0.014442 0.005484
# 2 0.000316 0.011550 0.001324 0.002011 0.000228 0.000069
# 3 -0.003024 0.001324 0.017310 0.010353 -0.004879 0.001538
# 4 -0.004483 0.002011 0.010353 0.041441 -0.008252 0.003932
# 5 0.014442 0.000228 -0.004879 -0.008252 0.063619 0.007200
# 6 0.005484 0.000069 0.001538 0.003932 0.007200 0.025124
#
#
# Mechanical properties :
#
#
# Convention : Reuss Voigt Hill
#
# Bulk Modulus (GPa) = 21.54828 24.03858 22.79343
# Shear Modulus (GPa) = 25.30409 33.44080 29.37245
#
# Velocity S-wave (km/s) = 3.27711 3.76733 3.53073
# Velocity P-wave (km/s) = 4.84403 5.39685 5.12789
#
# Compressibility (1/GPa) = 0.04640742
#
# Stress axis : x y z
#
# Youngs Moduli (GPa) = 49.22345 86.58050 57.77130
#
# Poissons Ratio (x) = -0.02736 0.17472
# Poissons Ratio (y) = -0.01556 -0.07651
# Poissons Ratio (z) = 0.14887 -0.11467
#
# Static dielectric constant tensor:
#      x y z
#    x 1.946950 -0.045000 -0.021320 
#    y -0.045000 1.915420 -0.027870 
#    z -0.021320 -0.027870 1.845970 
# 
# From -- ./inp_files/134642.got.cif
#   From: 2010.05.17/outbox.cif.g08.bks.cpg/sg2_68_cif.got.tgz:134642.got - 2010.06.03 11:33:40.
