data_PCOD9022607
_publ_section_title
;
Structure prediction by ZEFSAII (Michael W. Deem and Ramdas Pophale) SiO2 
 PCOD9022607
Probable space group: P -1
;
_chemical_formula_sum "Si O2"
_cell_formula_units_Z 14
_cell_length_a 25.063648
_cell_length_b 27.222026
_cell_length_c 9.108347
_cell_angle_alpha 147.378023
_cell_angle_beta 31.770511
_cell_angle_gamma 169.282054
_cell_volume 606.995891
_symmetry_space_group_name_H-M "P -1"
_symmetry_group_IT_number 2
_symmetry_cell_setting 'triclinic'
loop_
_space_group_symop_operation_xyz
x,y,z
-x,-y,-z
loop_
_atom_site_type_symbol
_atom_site_label
_atom_site_fract_x
_atom_site_fract_y
_atom_site_fract_z
Si Si1 0.702787 0.760660 0.185372
Si Si2 0.952129 0.601850 0.053653
Si Si3 0.297598 0.561842 0.468204
Si Si4 0.878271 0.649411 0.960698
Si Si5 0.191361 0.723975 0.441549
Si Si6 0.543340 0.111084 0.054646
Si Si7 0.401878 0.234495 0.263863
O O1 0.540023 0.705930 0.345308
O O2 0.730824 0.808369 0.412902
O O3 0.500000 0.500000 0.000000
O O4 0.000000 0.000000 0.000000
O O5 0.914513 0.585068 0.274279
O O6 0.681089 0.424319 0.170216
O O7 0.942086 0.488095 0.745377
O O8 0.282374 0.915836 0.056737
O O9 0.173593 0.400924 0.218348
O O10 0.407871 0.752640 0.634797
O O11 0.991228 0.643906 0.731686
O O12 0.573147 0.414142 0.169183
O O13 0.143448 0.943827 0.108348
O O14 0.500000 0.000000 0.500000
O O15 0.233005 0.746413 0.224494
O O16 0.500000 0.000000 0.000000
#
# Coordination Sequence:
#
# PCOD9022607 Si02
#       7
#     2   2   2   2   2   2   2
#     4  11  26  51  80 102 128 177 236 287 356 427
#     4  10  22  39  63  90 139 190 245 272 323 406
#     4  10  26  42  69 101 140 184 230 292 345 406
#     4  12  25  42  65 104 146 179 222 283 352 399
#     4  11  22  36  57  96 136 192 234 273 325 395
#     4  11  23  38  64  97 143 187 242 274 328 407
#     4  11  26  43  70 102 136 175 224 288 345 415
#
# _framework density 23.064406000000002
#
# number of rings (size 3 to 8) (size 9 to 14) (size 15 to 20)
#    0.000    1.143    1.429    3.429   14.000    3.429 
#    0.000    4.286    0.000    0.000    0.000    0.000 
#    0.000    0.000    0.000    0.000    0.000    0.000 
#
# Total GULP energy -78181.672475 kJ/mol
# GULP energy per Si atom -5584.405177 kJ/mol
# Density = 2.301191 g / cm^3
# Si number density = 23.064406 Si / 1000 Ang^3
#
#
#
# Elastic Constant Matrix: (Units=GPa)
#
#
# Indices 1 2 3 4 5 6 
#
# 1 50.0399 -0.0352 24.3684 -2.1476 13.4940 -3.2386
# 2 -0.0352 98.7178 57.9235 1.1357 4.5450 -3.0096
# 3 24.3684 57.9235 157.5662 -2.4513 31.6880 -6.3384
# 4 -2.1476 1.1357 -2.4513 46.1929 -0.6263 5.1122
# 5 13.4940 4.5450 31.6880 -0.6263 42.6540 3.3411
# 6 -3.2386 -3.0096 -6.3384 5.1122 3.3411 27.1124
#
#
#
# Elastic Compliance Matrix: (Units=1/GPa)
#
#
# Indices 1 2 3 4 5 6 
#
# 1 0.023206 0.002211 -0.003189 0.000466 -0.005425 0.002852
# 2 0.002211 0.013378 -0.005671 -0.000529 0.002060 0.000269
# 3 -0.003189 -0.005671 0.010253 0.000219 -0.006165 0.002105
# 4 0.000466 -0.000529 0.000219 0.022163 0.000399 -0.004180
# 5 -0.005425 0.002060 -0.006165 0.000399 0.029968 -0.005629
# 6 0.002852 0.000269 0.002105 -0.004180 -0.005629 0.039228
#
#
# Mechanical properties :
#
#
# Convention : Reuss Voigt Hill
#
# Bulk Modulus (GPa) = 29.81744 52.31526 41.06635
# Shear Modulus (GPa) = 30.73649 38.12967 34.43308
#
# Velocity S-wave (km/s) = 3.65449 4.07035 3.86801
# Velocity P-wave (km/s) = 5.54644 6.69491 6.14755
#
# Compressibility (1/GPa) = 0.03353743
#
# Stress axis : x y z
#
# Youngs Moduli (GPa) = 43.09262 74.75029 97.53692
#
# Poissons Ratio (x) = -0.16524 0.31100
# Poissons Ratio (y) = -0.09526 0.55317
# Poissons Ratio (z) = 0.13740 0.42394
#
# Static dielectric constant tensor:
#      x y z
#    x 1.923160 -0.039800 0.055710 
#    y -0.039800 1.997130 -0.032870 
#    z 0.055710 -0.032870 1.879170 
# 
# From -- ./inp_files/35263.got.cif
#   From: 2010.05.17/outbox.cif.g08.bks.cpg/sg2_18_cif.got.tgz:35263.got - 2010.06.03 11:33:40.
