data_PCOD9022899
_publ_section_title
;
Structure prediction by ZEFSAII (Michael W. Deem and Ramdas Pophale) SiO2 
 PCOD9022899
Probable space group: P -1
;
_chemical_formula_sum "Si O2"
_cell_formula_units_Z 16
_cell_length_a 10.057909
_cell_length_b 14.833909
_cell_length_c 11.489472
_cell_angle_alpha 25.546875
_cell_angle_beta 104.555025
_cell_angle_gamma 111.463351
_cell_volume 674.586253
_symmetry_space_group_name_H-M "P -1"
_symmetry_group_IT_number 2
_symmetry_cell_setting 'triclinic'
loop_
_space_group_symop_operation_xyz
x,y,z
-x,-y,-z
loop_
_atom_site_type_symbol
_atom_site_label
_atom_site_fract_x
_atom_site_fract_y
_atom_site_fract_z
Si Si1 0.289607 0.033253 0.085764
Si Si2 0.876481 0.088042 0.418231
Si Si3 0.666939 0.366471 0.287385
Si Si4 0.742616 0.416002 0.975084
Si Si5 0.386802 0.781731 0.062158
Si Si6 0.343944 0.196133 0.472900
Si Si7 0.121511 0.709337 0.226427
Si Si8 0.130111 0.192556 0.054480
O O1 0.317251 0.847845 0.393822
O O2 0.191186 0.893464 0.124263
O O3 0.450281 0.182694 0.904256
O O4 0.210798 0.178201 0.969159
O O5 0.724828 0.936232 0.504324
O O6 0.880727 0.331005 0.098382
O O7 0.873565 0.028715 0.620742
O O8 0.000000 0.000000 0.500000
O O9 0.685782 0.354797 0.166003
O O10 0.504145 0.361805 0.286788
O O11 0.780428 0.590844 0.103874
O O12 0.635776 0.304666 0.974912
O O13 0.762856 0.672568 0.667025
O O14 0.363598 0.021118 0.772642
O O15 0.252114 0.644614 0.271523
O O16 0.000000 0.500000 0.500000
O O17 0.030937 0.800198 0.008480
#
# Coordination Sequence:
#
# PCOD9022899 Si02
#       8
#     2   2   2   2   2   2   2   2
#     4  11  24  46  73  99 132 187 228 286 342 394
#     4  11  24  39  59  98 142 183 221 271 333 414
#     4  11  22  39  69 108 135 174 224 275 334 416
#     4  11  21  41  68 104 138 177 217 271 342 407
#     4  10  25  45  71 102 139 175 230 283 343 407
#     4  10  22  39  65 101 142 172 218 272 335 410
#     4  12  26  51  70  96 134 179 238 293 337 402
#     4  12  23  43  69  99 139 178 233 277 345 403
#
# _framework density 23.718240000000002
#
# number of rings (size 3 to 8) (size 9 to 14) (size 15 to 20)
#    0.000    1.000    3.750    3.375    1.750    2.000 
#    9.000    0.625    0.000    0.000    0.000    0.000 
#    0.000    0.000    0.000    0.000    0.000    0.000 
#
# Total GULP energy -89478.831306 kJ/mol
# GULP energy per Si atom -5592.426957 kJ/mol
# Density = 2.366426 g / cm^3
# Si number density = 23.718240 Si / 1000 Ang^3
#
#
#
# Elastic Constant Matrix: (Units=GPa)
#
#
# Indices 1 2 3 4 5 6 
#
# 1 118.4527 46.0734 6.7964 -13.1954 -20.4254 -2.7149
# 2 46.0734 126.4766 8.6858 -15.3664 -24.3506 3.8979
# 3 6.7964 8.6858 33.6140 -6.2176 -3.0237 -5.3788
# 4 -13.1954 -15.3664 -6.2176 21.2792 -0.9094 -1.7685
# 5 -20.4254 -24.3506 -3.0237 -0.9094 39.3201 -9.0787
# 6 -2.7149 3.8979 -5.3788 -1.7685 -9.0787 38.1016
#
#
#
# Elastic Compliance Matrix: (Units=1/GPa)
#
#
# Indices 1 2 3 4 5 6 
#
# 1 0.010886 -0.002463 0.000279 0.005466 0.004849 0.002476
# 2 -0.002463 0.010648 -0.000565 0.006252 0.005474 0.000250
# 3 0.000279 -0.000565 0.033054 0.010106 0.003994 0.006165
# 4 0.005466 0.006252 0.010106 0.058822 0.010319 0.006366
# 5 0.004849 0.005474 0.003994 0.010319 0.033946 0.008917
# 6 0.002476 0.000250 0.006165 0.006366 0.008917 0.029687
#
#
# Mechanical properties :
#
#
# Convention : Reuss Voigt Hill
#
# Bulk Modulus (GPa) = 20.37054 44.62825 32.49940
# Shear Modulus (GPa) = 25.13767 34.20601 29.67184
#
# Velocity S-wave (km/s) = 3.25906 3.80173 3.54080
# Velocity P-wave (km/s) = 4.77170 6.17476 5.51801
#
# Compressibility (1/GPa) = 0.04909049
#
# Stress axis : x y z
#
# Youngs Moduli (GPa) = 91.85957 93.91009 30.25339
#
# Poissons Ratio (x) = 0.23134 -0.00844
# Poissons Ratio (y) = 0.22629 0.01708
# Poissons Ratio (z) = -0.02563 0.05303
#
# Static dielectric constant tensor:
#      x y z
#    x 1.935730 -0.016250 -0.015440 
#    y -0.016250 1.900470 0.002460 
#    z -0.015440 0.002460 1.955570 
# 
# From -- ./inp_files/398234.got.cif
#   From: 2010.05.17/outbox.cif.g08.bks.cpg/sg2_200_cif.got.tgz:398234.got - 2010.06.03 11:33:40.
