data_PCOD9022949
_publ_section_title
;
Structure prediction by ZEFSAII (Michael W. Deem and Ramdas Pophale) SiO2 
 PCOD9022949
Probable space group: P -1
;
_chemical_formula_sum "Si O2"
_cell_formula_units_Z 16
_cell_length_a 9.603984
_cell_length_b 25.150794
_cell_length_c 17.925969
_cell_angle_alpha 15.286194
_cell_angle_beta 58.024429
_cell_angle_gamma 51.242718
_cell_volume 829.996424
_symmetry_space_group_name_H-M "P -1"
_symmetry_group_IT_number 2
_symmetry_cell_setting 'triclinic'
loop_
_space_group_symop_operation_xyz
x,y,z
-x,-y,-z
loop_
_atom_site_type_symbol
_atom_site_label
_atom_site_fract_x
_atom_site_fract_y
_atom_site_fract_z
Si Si1 0.089645 0.513356 0.691893
Si Si2 0.943074 0.606126 0.454417
Si Si3 0.493870 0.412643 0.763561
Si Si4 0.041341 0.068600 0.315146
Si Si5 0.299930 0.614454 0.110838
Si Si6 0.600521 0.070344 0.939446
Si Si7 0.530893 0.319604 0.301002
Si Si8 0.673946 0.948706 0.251066
O O1 0.280168 0.462395 0.747381
O O2 0.106143 0.520036 0.587729
O O3 0.898564 0.757439 0.437382
O O4 0.052626 0.302824 0.004406
O O5 0.802303 0.519935 0.643314
O O6 0.000000 0.500000 0.500000
O O7 0.825426 0.889487 0.103018
O O8 0.578223 0.358896 0.895430
O O9 0.475738 0.656282 0.414848
O O10 0.629826 0.188295 0.977865
O O11 0.244338 0.862745 0.506889
O O12 0.000000 0.000000 0.500000
O O13 0.869329 0.144535 0.202882
O O14 0.433160 0.462363 0.210663
O O15 0.500000 0.000000 0.000000
O O16 0.580342 0.011677 0.109764
O O17 0.427275 0.171579 0.514152
O O18 0.500000 0.500000 0.000000
#
# Coordination Sequence:
#
# PCOD9022949 Si02
#       8
#     2   2   2   2   2   2   2   2
#     4  10  23  41  62  96 135 170 222 273 324 391
#     4  10  22  39  65  92 133 174 229 272 312 388
#     4  12  25  39  66  94 138 181 207 277 340 381
#     4  11  21  42  73  98 124 167 223 274 330 396
#     4  11  24  43  62 103 130 170 226 269 324 406
#     4  11  22  40  62  91 133 176 231 262 318 395
#     4  12  21  42  77  95 125 175 219 279 334 388
#     4  11  23  42  61  97 136 172 224 274 324 393
#
# _framework density 19.277193
#
# number of rings (size 3 to 8) (size 9 to 14) (size 15 to 20)
#    0.000    1.000    7.500    0.375    1.750    7.000 
#    0.000    2.500    0.000    3.000    0.000    0.000 
#    0.000    0.000    0.000    0.000    0.000    0.000 
#
# Total GULP energy -89380.791492 kJ/mol
# GULP energy per Si atom -5586.299468 kJ/mol
# Density = 1.923332 g / cm^3
# Si number density = 19.277193 Si / 1000 Ang^3
#
#
#
# Elastic Constant Matrix: (Units=GPa)
#
#
# Indices 1 2 3 4 5 6 
#
# 1 127.2852 42.6607 50.2412 1.7680 26.7537 15.7594
# 2 42.6607 136.2615 68.1859 -8.7340 8.4052 4.0884
# 3 50.2412 68.1859 145.8774 -9.2356 12.1833 10.5522
# 4 1.7680 -8.7340 -9.2356 34.9677 -1.7073 4.7224
# 5 26.7537 8.4052 12.1833 -1.7073 38.2211 -6.7630
# 6 15.7594 4.0884 10.5522 4.7224 -6.7630 28.1095
#
#
#
# Elastic Compliance Matrix: (Units=1/GPa)
#
#
# Indices 1 2 3 4 5 6 
#
# 1 0.012174 -0.002114 -0.001974 -0.001053 -0.008841 -0.007727
# 2 -0.002114 0.010016 -0.004020 0.001426 0.000834 0.001198
# 3 -0.001974 -0.004020 0.009834 0.001988 -0.001246 -0.002634
# 4 -0.001053 0.001426 0.001988 0.030271 0.000186 -0.005404
# 5 -0.008841 0.000834 -0.001246 0.000186 0.034997 0.013692
# 6 -0.007727 0.001198 -0.002634 -0.005404 0.013692 0.044924
#
#
# Mechanical properties :
#
#
# Convention : Reuss Voigt Hill
#
# Bulk Modulus (GPa) = 63.25515 81.28887 72.27201
# Shear Modulus (GPa) = 30.54340 36.81543 33.67942
#
# Velocity S-wave (km/s) = 3.98481 4.37486 4.18438
# Velocity P-wave (km/s) = 7.35230 8.23281 7.80498
#
# Compressibility (1/GPa) = 0.01580899
#
# Stress axis : x y z
#
# Youngs Moduli (GPa) = 82.14460 99.83895 101.68415
#
# Poissons Ratio (x) = 0.21104 0.20072
# Poissons Ratio (y) = 0.17364 0.40875
# Poissons Ratio (z) = 0.16215 0.40133
#
# Static dielectric constant tensor:
#      x y z
#    x 1.703960 -0.017830 0.014040 
#    y -0.017830 1.665820 -0.009070 
#    z 0.014040 -0.009070 1.691760 
# 
# From -- ./inp_files/503723.got.cif
#   From: 2010.05.17/outbox.cif.g08.bks.cpg/sg2_252_cif.got.tgz:503723.got - 2010.06.03 11:33:40.
