data_PCOD9022378
_publ_section_title
;
Structure prediction by ZEFSAII (Michael W. Deem and Ramdas Pophale) SiO2 
 PCOD9022378
Probable space group: P -1
;
_chemical_formula_sum "Si O2"
_cell_formula_units_Z 16
_cell_length_a 8.430466
_cell_length_b 21.322562
_cell_length_c 10.091400
_cell_angle_alpha 134.094878
_cell_angle_beta 51.679822
_cell_angle_gamma 145.925055
_cell_volume 725.620394
_symmetry_space_group_name_H-M "P -1"
_symmetry_group_IT_number 2
_symmetry_cell_setting 'triclinic'
loop_
_space_group_symop_operation_xyz
x,y,z
-x,-y,-z
loop_
_atom_site_type_symbol
_atom_site_label
_atom_site_fract_x
_atom_site_fract_y
_atom_site_fract_z
Si Si1 0.661965 0.343385 0.797726
Si Si2 0.714140 0.977471 0.000769
Si Si3 0.243450 0.634586 0.519110
Si Si4 0.667143 0.477182 0.221970
Si Si5 0.296778 0.066531 0.516216
Si Si6 0.263472 0.835071 0.801993
Si Si7 0.128836 0.941181 0.683879
Si Si8 0.357352 0.330618 0.435667
O O1 0.655917 0.364105 0.675733
O O2 0.451415 0.196398 0.696738
O O3 0.992868 0.423077 0.777540
O O4 0.588718 0.399023 0.017114
O O5 0.883364 0.116733 0.072319
O O6 0.665273 0.971055 0.172934
O O7 0.426250 0.888496 0.935683
O O8 0.897989 0.949304 0.828997
O O9 0.126688 0.698234 0.663133
O O10 0.491160 0.694150 0.584763
O O11 0.000000 0.500000 0.500000
O O12 0.502202 0.383563 0.294339
O O13 0.604572 0.560892 0.366324
O O14 0.500469 0.097889 0.338281
O O15 0.000000 0.000000 0.500000
O O16 0.247578 0.982924 0.536322
O O17 0.968256 0.801506 0.593002
#
# Coordination Sequence:
#
# PCOD9022378 Si02
#       8
#     2   2   2   2   2   2   2   2
#     4  10  23  43  65  90 129 166 210 259 316 375
#     4  10  22  39  61  91 122 159 210 253 309 373
#     4  11  21  40  64  88 123 165 208 253 306 367
#     4  10  24  43  65  95 126 167 208 264 319 366
#     4  11  22  41  63  91 131 169 200 259 321 369
#     4  10  22  41  61  87 127 163 204 254 313 371
#     4  11  23  39  64  95 125 160 209 258 313 375
#     4  11  23  42  66  94 126 162 214 259 312 378
#
# _framework density 22.050096
#
# number of rings (size 3 to 8) (size 9 to 14) (size 15 to 20)
#    0.000    1.500    3.750    0.750    7.000    1.000 
#    0.000    1.250    0.000    0.000    0.000    0.000 
#    0.000    0.000    0.000    0.000    0.000    0.000 
#
# Total GULP energy -89387.124991 kJ/mol
# GULP energy per Si atom -5586.695312 kJ/mol
# Density = 2.199991 g / cm^3
# Si number density = 22.050096 Si / 1000 Ang^3
#
#
#
# Elastic Constant Matrix: (Units=GPa)
#
#
# Indices 1 2 3 4 5 6 
#
# 1 54.6503 19.2225 31.2222 7.7551 7.4733 -18.9584
# 2 19.2225 119.2221 63.6297 10.1777 5.6900 -11.7445
# 3 31.2222 63.6297 135.7468 23.2770 4.1260 -19.2568
# 4 7.7551 10.1777 23.2770 21.5557 -0.4296 4.2574
# 5 7.4733 5.6900 4.1260 -0.4296 37.6663 4.0893
# 6 -18.9584 -11.7445 -19.2568 4.2574 4.0893 29.4530
#
#
#
# Elastic Compliance Matrix: (Units=1/GPa)
#
#
# Indices 1 2 3 4 5 6 
#
# 1 0.029439 -0.000636 -0.000860 -0.013719 -0.008113 0.021243
# 2 -0.000636 0.011297 -0.004985 0.000061 -0.001141 0.000985
# 3 -0.000860 -0.004985 0.013484 -0.013603 -0.001628 0.008467
# 4 -0.013719 0.000061 -0.013603 0.071925 0.008197 -0.029235
# 5 -0.008113 -0.001141 -0.001628 0.008197 0.029914 -0.012080
# 6 0.021243 0.000985 0.008467 -0.029235 -0.012080 0.059458
#
#
# Mechanical properties :
#
#
# Convention : Reuss Voigt Hill
#
# Bulk Modulus (GPa) = 24.23811 59.75197 41.99504
# Shear Modulus (GPa) = 20.64124 30.77131 25.70627
#
# Velocity S-wave (km/s) = 3.06290 3.73972 3.41810
# Velocity P-wave (km/s) = 4.85022 6.76790 5.88766
#
# Compressibility (1/GPa) = 0.04125735
#
# Stress axis : x y z
#
# Youngs Moduli (GPa) = 33.96852 88.51775 74.16088
#
# Poissons Ratio (x) = 0.05634 0.06379
# Poissons Ratio (y) = 0.02162 0.36969
# Poissons Ratio (z) = 0.02922 0.44126
#
# Static dielectric constant tensor:
#      x y z
#    x 1.849520 0.043300 -0.035390 
#    y 0.043300 1.841750 0.024450 
#    z -0.035390 0.024450 1.781790 
# 
# From -- ./inp_files/224022.got.cif
#   From: 2010.05.17/outbox.cif.g08.bks.cpg/sg2_113_cif.got.tgz:224022.got - 2010.06.03 11:33:40.
