data_PCOD9022956
_publ_section_title
;
Structure prediction by ZEFSAII (Michael W. Deem and Ramdas Pophale) SiO2 
 PCOD9022956
Probable space group: P -1
;
_chemical_formula_sum "Si O2"
_cell_formula_units_Z 16
_cell_length_a 12.014046
_cell_length_b 11.892889
_cell_length_c 11.995469
_cell_angle_alpha 77.057525
_cell_angle_beta 117.209538
_cell_angle_gamma 49.763913
_cell_volume 749.488137
_symmetry_space_group_name_H-M "P -1"
_symmetry_group_IT_number 2
_symmetry_cell_setting 'triclinic'
loop_
_space_group_symop_operation_xyz
x,y,z
-x,-y,-z
loop_
_atom_site_type_symbol
_atom_site_label
_atom_site_fract_x
_atom_site_fract_y
_atom_site_fract_z
Si Si1 0.012719 0.406838 0.635740
Si Si2 0.234715 0.518874 0.669544
Si Si3 0.001789 0.859098 0.039317
Si Si4 0.636314 0.032700 0.658470
Si Si5 0.492516 0.617582 0.553728
Si Si6 0.185456 0.235919 0.421987
Si Si7 0.721965 0.022109 0.102230
Si Si8 0.080798 0.869110 0.458911
O O1 0.000000 0.500000 0.500000
O O2 0.796036 0.496106 0.470329
O O3 0.973756 0.518064 0.699786
O O4 0.245188 0.138186 0.815588
O O5 0.277729 0.618605 0.650577
O O6 0.974913 0.712992 0.576229
O O7 0.450009 0.279645 0.884352
O O8 0.278670 0.591486 0.214784
O O9 0.897853 0.905852 0.102384
O O10 0.829133 0.931674 0.856105
O O11 0.000000 0.000000 0.000000
O O12 0.484337 0.268639 0.500892
O O13 0.453169 0.078323 0.612523
O O14 0.768727 0.867948 0.648445
O O15 0.500000 0.500000 0.500000
O O16 0.225596 0.827070 0.443478
O O17 0.845455 0.995908 0.264594
O O18 0.000000 0.000000 0.500000
#
# Coordination Sequence:
#
# PCOD9022956 Si02
#       8
#     2   2   2   2   2   2   2   2
#     4   9  20  39  60  86 119 165 210 260 323 384
#     4  10  22  39  65  93 130 172 221 268 333 398
#     4  12  23  39  67  98 126 170 227 270 323 393
#     4  11  24  42  64  95 132 172 221 270 334 389
#     4  12  23  42  69  93 128 173 225 276 323 397
#     4  10  22  42  63  90 138 174 206 276 331 400
#     4  11  22  38  64  95 125 170 224 273 322 403
#     4  11  24  41  63  96 135 171 218 282 339 384
#
# _framework density 21.347904
#
# number of rings (size 3 to 8) (size 9 to 14) (size 15 to 20)
#    0.000    1.250    2.500    3.000    1.750    3.500 
#    0.000   13.125    0.000    0.000    0.000    0.000 
#    0.000    0.000    0.000    0.000    0.000    0.000 
#
# Total GULP energy -89146.809512 kJ/mol
# GULP energy per Si atom -5571.675594 kJ/mol
# Density = 2.129932 g / cm^3
# Si number density = 21.347904 Si / 1000 Ang^3
#
#
#
# Elastic Constant Matrix: (Units=GPa)
#
#
# Indices 1 2 3 4 5 6 
#
# 1 92.1134 28.9473 21.0062 0.0481 3.9291 -3.1480
# 2 28.9473 137.0353 36.8534 21.1383 0.0862 7.6696
# 3 21.0062 36.8534 128.5686 2.2019 -0.4956 20.7352
# 4 0.0481 21.1383 2.2019 31.9387 8.7041 1.5557
# 5 3.9291 0.0862 -0.4956 8.7041 33.4035 -7.9094
# 6 -3.1480 7.6696 20.7352 1.5557 -7.9094 35.0123
#
#
#
# Elastic Compliance Matrix: (Units=1/GPa)
#
#
# Indices 1 2 3 4 5 6 
#
# 1 0.012179 -0.002575 -0.001650 0.002093 -0.001472 0.002210
# 2 -0.002575 0.009445 -0.002113 -0.006600 0.001889 -0.000329
# 3 -0.001650 -0.002113 0.009545 0.001396 -0.001375 -0.005711
# 4 0.002093 -0.006600 0.001396 0.038778 -0.011125 -0.003429
# 5 -0.001472 0.001889 -0.001375 -0.011125 0.035039 0.008678
# 6 0.002210 -0.000329 -0.005711 -0.003429 0.008678 0.034327
#
#
# Mechanical properties :
#
#
# Convention : Reuss Voigt Hill
#
# Bulk Modulus (GPa) = 54.07369 59.03678 56.55524
# Shear Modulus (GPa) = 31.61515 38.13158 34.87336
#
# Velocity S-wave (km/s) = 3.85248 4.23093 4.04613
# Velocity P-wave (km/s) = 6.72113 7.18208 6.95543
#
# Compressibility (1/GPa) = 0.01849328
#
# Stress axis : x y z
#
# Youngs Moduli (GPa) = 82.11010 105.87696 104.76570
#
# Poissons Ratio (x) = 0.27259 0.17285
# Poissons Ratio (y) = 0.21140 0.22140
# Poissons Ratio (z) = 0.13547 0.22375
#
# Static dielectric constant tensor:
#      x y z
#    x 1.893170 0.076740 0.033760 
#    y 0.076740 1.766880 -0.008890 
#    z 0.033760 -0.008890 1.790300 
# 
# From -- ./inp_files/428223.got.cif
#   From: 2010.05.17/outbox.cif.g08.bks.cpg/sg2_215_cif.got.tgz:428223.got - 2010.06.03 11:33:40.
