data_PCOD9022173
_publ_section_title
;
Structure prediction by ZEFSAII (Michael W. Deem and Ramdas Pophale) SiO2 
 PCOD9022173
Probable space group: P -1
;
_chemical_formula_sum "Si O2"
_cell_formula_units_Z 14
_cell_length_a 17.126483
_cell_length_b 11.846144
_cell_length_c 13.996058
_cell_angle_alpha 29.421645
_cell_angle_beta 147.578647
_cell_angle_gamma 150.295972
_cell_volume 644.930756
_symmetry_space_group_name_H-M "P -1"
_symmetry_group_IT_number 2
_symmetry_cell_setting 'triclinic'
loop_
_space_group_symop_operation_xyz
x,y,z
-x,-y,-z
loop_
_atom_site_type_symbol
_atom_site_label
_atom_site_fract_x
_atom_site_fract_y
_atom_site_fract_z
Si Si1 0.775851 0.387265 0.931616
Si Si2 0.631581 0.196678 0.225423
Si Si3 0.812586 0.758855 0.968138
Si Si4 0.336757 0.165290 0.817592
Si Si5 0.851314 0.220929 0.939966
Si Si6 0.595391 0.651466 0.635689
Si Si7 0.410102 0.072646 0.270242
O O1 0.807967 0.381603 0.855491
O O2 0.636053 0.463751 0.751395
O O3 0.732323 0.089893 0.135682
O O4 0.950141 0.609237 0.994392
O O5 0.504891 0.189432 0.019625
O O6 0.622683 0.916781 0.419400
O O7 0.552731 0.209586 0.235934
O O8 0.801396 0.475272 0.180155
O O9 0.733546 0.758820 0.784259
O O10 0.678436 0.774715 0.889018
O O11 0.000000 0.000000 0.000000
O O12 0.207700 0.053759 0.857007
O O13 0.409008 0.453183 0.633598
O O14 0.743666 0.159319 0.779008
O O15 0.500000 0.000000 0.500000
#
# Coordination Sequence:
#
# PCOD9022173 Si02
#       7
#     2   2   2   2   2   2   2
#     4   9  17  35  61  86 123 157 196 253 301 353
#     4  10  22  39  58  91 119 158 203 245 303 361
#     4  11  24  40  62  88 123 157 199 257 303 355
#     4   8  18  35  58  85 115 157 197 243 294 358
#     4   8  18  35  61  88 115 161 203 241 307 345
#     4  11  20  35  59  91 119 155 202 245 303 361
#     4  11  20  41  63  88 120 163 204 245 292 370
#
# _framework density 21.707757999999998
#
# number of rings (size 3 to 8) (size 9 to 14) (size 15 to 20)
#    0.857    1.429    1.429    1.714    0.000    1.143 
#    0.000    1.429    0.000    7.714    0.000    0.000 
#    0.000    0.000    0.000    0.000    0.000    0.000 
#
# Total GULP energy -77997.084964 kJ/mol
# GULP energy per Si atom -5571.220355 kJ/mol
# Density = 2.165835 g / cm^3
# Si number density = 21.707758 Si / 1000 Ang^3
#
#
#
# Elastic Constant Matrix: (Units=GPa)
#
#
# Indices 1 2 3 4 5 6 
#
# 1 48.2684 0.4004 0.9895 4.6302 6.6646 -10.1291
# 2 0.4004 131.2793 40.3623 -17.3146 -20.8705 13.3659
# 3 0.9895 40.3623 82.4159 -16.7629 -7.9888 1.7722
# 4 4.6302 -17.3146 -16.7629 27.7481 -2.0284 -10.5316
# 5 6.6646 -20.8705 -7.9888 -2.0284 17.0319 -5.6659
# 6 -10.1291 13.3659 1.7722 -10.5316 -5.6659 29.3274
#
#
#
# Elastic Compliance Matrix: (Units=1/GPa)
#
#
# Indices 1 2 3 4 5 6 
#
# 1 0.024156 -0.002943 -0.001309 -0.005547 -0.012555 0.005346
# 2 -0.002943 0.011890 -0.002928 0.006880 0.014863 -0.000916
# 3 -0.001309 -0.002928 0.016428 0.010882 0.007683 0.005282
# 4 -0.005547 0.006880 0.010882 0.057873 0.029509 0.020774
# 5 -0.012555 0.014863 0.007683 0.029509 0.094718 0.017322
# 6 0.005346 -0.000916 0.005282 0.020774 0.017322 0.046849
#
#
# Mechanical properties :
#
#
# Convention : Reuss Voigt Hill
#
# Bulk Modulus (GPa) = 26.23675 38.38534 32.31104
# Shear Modulus (GPa) = 17.92252 29.50225 23.71238
#
# Velocity S-wave (km/s) = 2.87649 3.69055 3.30865
# Velocity P-wave (km/s) = 4.81091 5.99011 5.43260
#
# Compressibility (1/GPa) = 0.03811448
#
# Stress axis : x y z
#
# Youngs Moduli (GPa) = 41.39735 84.10365 60.87314
#
# Poissons Ratio (x) = 0.24752 0.07967
# Poissons Ratio (y) = 0.12183 0.17823
# Poissons Ratio (z) = 0.05418 0.24625
#
# Static dielectric constant tensor:
#      x y z
#    x 1.882740 -0.003500 -0.020740 
#    y -0.003500 1.825430 -0.049110 
#    z -0.020740 -0.049110 1.811900 
# 
# From -- ./inp_files/537916.got.cif
#   From: 2010.05.17/outbox.cif.g08.bks.cpg/sg2_269_cif.got.tgz:537916.got - 2010.06.03 11:33:40.
