data_PCOD9022665
_publ_section_title
;
Structure prediction by ZEFSAII (Michael W. Deem and Ramdas Pophale) SiO2 
 PCOD9022665
Probable space group: P -1
;
_chemical_formula_sum "Si O2"
_cell_formula_units_Z 14
_cell_length_a 11.093539
_cell_length_b 11.511349
_cell_length_c 12.939117
_cell_angle_alpha 35.434015
_cell_angle_beta 45.351401
_cell_angle_gamma 50.856810
_cell_volume 674.601455
_symmetry_space_group_name_H-M "P -1"
_symmetry_group_IT_number 2
_symmetry_cell_setting 'triclinic'
loop_
_space_group_symop_operation_xyz
x,y,z
-x,-y,-z
loop_
_atom_site_type_symbol
_atom_site_label
_atom_site_fract_x
_atom_site_fract_y
_atom_site_fract_z
Si Si1 0.688333 0.916027 0.048299
Si Si2 0.709270 0.971102 0.773589
Si Si3 0.127251 0.293131 0.712715
Si Si4 0.236663 0.043562 0.629784
Si Si5 0.255680 0.691413 0.023548
Si Si6 0.124723 0.770175 0.381353
Si Si7 0.378427 0.231708 0.225518
O O1 0.797186 0.804636 0.155248
O O2 0.488044 0.922017 0.183870
O O3 0.730961 0.835391 0.963905
O O4 0.736060 0.141817 0.838738
O O5 0.724171 0.845595 0.751362
O O6 0.829163 0.142860 0.597569
O O7 0.230594 0.185901 0.631723
O O8 0.132878 0.531954 0.539795
O O9 0.928427 0.259642 0.847151
O O10 0.374549 0.083093 0.432906
O O11 0.057503 0.117846 0.626700
O O12 0.244250 0.818212 0.831861
O O13 0.424521 0.752678 0.931634
O O14 0.293260 0.453019 0.152638
#
# Coordination Sequence:
#
# PCOD9022665 Si02
#       7
#     2   2   2   2   2   2   2
#     4   9  21  42  63  93 122 161 211 255 298 362
#     4   9  21  45  63  89 130 163 203 256 308 366
#     4  12  23  39  69  95 120 161 214 258 303 362
#     4  12  24  40  64  96 125 162 206 260 309 359
#     4  11  24  41  62  95 124 167 205 249 318 361
#     4  10  22  39  63  94 121 160 204 258 304 358
#     4  11  25  42  62  93 131 163 200 255 315 372
#
# _framework density 20.752994000000001
#
# number of rings (size 3 to 8) (size 9 to 14) (size 15 to 20)
#    0.857    0.571    2.857    2.143    2.000    2.286 
#    2.571    1.429    0.000    0.000    0.000    0.000 
#    0.000    0.000    0.000    0.000    0.000    0.000 
#
# Total GULP energy -78134.500824 kJ/mol
# GULP energy per Si atom -5581.035773 kJ/mol
# Density = 2.070576 g / cm^3
# Si number density = 20.752994 Si / 1000 Ang^3
#
#
#
# Elastic Constant Matrix: (Units=GPa)
#
#
# Indices 1 2 3 4 5 6 
#
# 1 110.3300 22.9189 20.3398 -1.4231 -3.1537 15.9557
# 2 22.9189 37.4727 5.4161 14.3983 -1.3103 15.2027
# 3 20.3398 5.4161 81.0913 -5.7228 4.4578 7.7246
# 4 -1.4231 14.3983 -5.7228 21.1441 -0.8715 5.3731
# 5 -3.1537 -1.3103 4.4578 -0.8715 22.9731 2.3177
# 6 15.9557 15.2027 7.7246 5.3731 2.3177 35.2694
#
#
#
# Elastic Compliance Matrix: (Units=1/GPa)
#
#
# Indices 1 2 3 4 5 6 
#
# 1 0.011621 -0.008386 -0.001759 0.006709 0.001956 -0.002408
# 2 -0.008386 0.049366 -0.002373 -0.031610 0.002166 -0.012292
# 3 -0.001759 -0.002373 0.013643 0.005550 -0.002628 -0.001842
# 4 0.006709 -0.031610 0.005550 0.071199 0.000897 -0.001531
# 5 0.001956 0.002166 -0.002628 0.000897 0.044902 -0.004330
# 6 -0.002408 -0.012292 -0.001842 -0.001531 -0.004330 0.035662
#
#
# Mechanical properties :
#
#
# Convention : Reuss Voigt Hill
#
# Bulk Modulus (GPa) = 20.16345 36.24927 28.20636
# Shear Modulus (GPa) = 18.65945 27.89195 23.27570
#
# Velocity S-wave (km/s) = 3.00179 3.67003 3.35260
# Velocity P-wave (km/s) = 4.66383 5.95515 5.34860
#
# Compressibility (1/GPa) = 0.04959468
#
# Stress axis : x y z
#
# Youngs Moduli (GPa) = 86.05370 20.25671 73.29679
#
# Poissons Ratio (x) = 0.16986 0.12896
# Poissons Ratio (y) = 0.72161 0.17392
# Poissons Ratio (z) = 0.15140 0.04807
#
# Static dielectric constant tensor:
#      x y z
#    x 1.770270 0.007020 -0.029290 
#    y 0.007020 1.760070 0.032370 
#    z -0.029290 0.032370 1.745700 
# 
# From -- ./inp_files/518544.got.cif
#   From: 2010.05.17/outbox.cif.g08.bks.cpg/sg2_260_cif.got.tgz:518544.got - 2010.06.03 11:33:40.
