data_PCOD9022950
_publ_section_title
;
Structure prediction by ZEFSAII (Michael W. Deem and Ramdas Pophale) SiO2 
 PCOD9022950
Probable space group: P -1
;
_chemical_formula_sum "Si O2"
_cell_formula_units_Z 16
_cell_length_a 12.039482
_cell_length_b 11.089816
_cell_length_c 8.035669
_cell_angle_alpha 52.278323
_cell_angle_beta 119.188603
_cell_angle_gamma 84.586277
_cell_volume 609.403264
_symmetry_space_group_name_H-M "P -1"
_symmetry_group_IT_number 2
_symmetry_cell_setting 'triclinic'
loop_
_space_group_symop_operation_xyz
x,y,z
-x,-y,-z
loop_
_atom_site_type_symbol
_atom_site_label
_atom_site_fract_x
_atom_site_fract_y
_atom_site_fract_z
Si Si1 0.311576 0.414626 0.176834
Si Si2 0.065951 0.607623 0.545334
Si Si3 0.078679 0.053964 0.377710
Si Si4 0.553521 0.830637 0.827796
Si Si5 0.295536 0.145795 0.581028
Si Si6 0.855574 0.192391 0.807517
Si Si7 0.736210 0.963845 0.004797
Si Si8 0.404188 0.656505 0.939011
O O1 0.435557 0.255233 0.271113
O O2 0.291462 0.329378 0.399785
O O3 0.162508 0.511216 0.863854
O O4 0.357515 0.558031 0.117627
O O5 0.168148 0.646101 0.465362
O O6 0.000000 0.500000 0.500000
O O7 0.915611 0.810278 0.300744
O O8 0.238220 0.853718 0.604452
O O9 0.137458 0.171335 0.397123
O O10 0.000000 0.000000 0.500000
O O11 0.941636 0.188337 0.039087
O O12 0.523940 0.707151 0.033423
O O13 0.403459 0.024378 0.608905
O O14 0.686353 0.864750 0.924063
O O15 0.345331 0.034830 0.885060
O O16 0.728072 0.146885 0.790880
O O17 0.000000 0.000000 0.000000
O O18 0.500000 0.500000 0.000000
#
# Coordination Sequence:
#
# PCOD9022950 Si02
#       8
#     2   2   2   2   2   2   2   2
#     4  11  22  43  65  94 124 164 215 265 319 375
#     4  11  22  41  64  94 126 163 212 264 318 371
#     4  11  21  41  65  96 129 165 216 265 317 383
#     4  10  22  43  65  87 127 172 215 255 307 398
#     4  11  24  40  65  94 129 165 208 263 321 380
#     4  10  22  39  65  93 121 169 213 258 313 382
#     4  11  22  42  62  95 126 164 207 258 320 377
#     4   9  21  41  64  89 129 169 214 264 317 379
#
# _framework density 26.255192999999998
#
# number of rings (size 3 to 8) (size 9 to 14) (size 15 to 20)
#    0.000    1.500    2.500    3.000    1.750    0.500 
#    9.000    0.625    0.000    0.000    0.000    0.000 
#    0.000    0.000    0.000    0.000    0.000    0.000 
#
# Total GULP energy -89221.836324 kJ/mol
# GULP energy per Si atom -5576.364770 kJ/mol
# Density = 2.619544 g / cm^3
# Si number density = 26.255193 Si / 1000 Ang^3
#
#
#
# Elastic Constant Matrix: (Units=GPa)
#
#
# Indices 1 2 3 4 5 6 
#
# 1 155.7794 37.8840 55.8460 -20.2230 -24.4833 38.9887
# 2 37.8840 62.0390 19.0413 -10.2392 -14.3791 28.5938
# 3 55.8460 19.0413 72.7307 -7.3610 1.1277 7.2921
# 4 -20.2230 -10.2392 -7.3610 30.5383 4.5590 -2.2652
# 5 -24.4833 -14.3791 1.1277 4.5590 49.1065 -21.2311
# 6 38.9887 28.5938 7.2921 -2.2652 -21.2311 60.2480
#
#
#
# Elastic Compliance Matrix: (Units=1/GPa)
#
#
# Indices 1 2 3 4 5 6 
#
# 1 0.011860 -0.001011 -0.007918 0.004760 0.003230 -0.004920
# 2 -0.001011 0.023487 -0.003959 0.005272 0.002042 -0.009096
# 3 -0.007918 -0.003959 0.020552 -0.000766 -0.004209 0.003003
# 4 0.004760 0.005272 -0.000766 0.037367 -0.001535 -0.004625
# 5 0.003230 0.002042 -0.004209 -0.001535 0.025582 0.006407
# 6 -0.004920 -0.009096 0.003003 -0.004625 0.006407 0.025819
#
#
# Mechanical properties :
#
#
# Convention : Reuss Voigt Hill
#
# Bulk Modulus (GPa) = 33.19515 57.34352 45.26934
# Shear Modulus (GPa) = 27.70337 39.83041 33.76689
#
# Velocity S-wave (km/s) = 3.25184 3.89916 3.59012
# Velocity P-wave (km/s) = 5.17398 6.49303 5.87067
#
# Compressibility (1/GPa) = 0.03012488
#
# Stress axis : x y z
#
# Youngs Moduli (GPa) = 84.31360 42.57691 48.65695
#
# Poissons Ratio (x) = 0.04302 0.38524
# Poissons Ratio (y) = 0.08520 0.19265
# Poissons Ratio (z) = 0.66756 0.16857
#
# Static dielectric constant tensor:
#      x y z
#    x 2.174250 -0.287530 -0.210140 
#    y -0.287530 5.854110 2.553070 
#    z -0.210140 2.553070 3.928160 
# 
# From -- ./inp_files/261712.got.cif
#   From: 2010.05.17/outbox.cif.g08.bks.cpg/sg2_131_cif.got.tgz:261712.got - 2010.06.03 11:33:40.
