data_PCOD9022948
_publ_section_title
;
Structure prediction by ZEFSAII (Michael W. Deem and Ramdas Pophale) SiO2 
 PCOD9022948
Probable space group: P -1
;
_chemical_formula_sum "Si O2"
_cell_formula_units_Z 16
_cell_length_a 9.205057
_cell_length_b 19.677926
_cell_length_c 22.866393
_cell_angle_alpha 161.495550
_cell_angle_beta 38.134373
_cell_angle_gamma 139.873248
_cell_volume 808.039298
_symmetry_space_group_name_H-M "P -1"
_symmetry_group_IT_number 2
_symmetry_cell_setting 'triclinic'
loop_
_space_group_symop_operation_xyz
x,y,z
-x,-y,-z
loop_
_atom_site_type_symbol
_atom_site_label
_atom_site_fract_x
_atom_site_fract_y
_atom_site_fract_z
Si Si1 0.220964 0.004009 0.605121
Si Si2 0.617899 0.186931 0.157137
Si Si3 0.956210 0.842705 0.440320
Si Si4 0.776927 0.574879 0.980071
Si Si5 0.368755 0.591447 0.550501
Si Si6 0.838163 0.760024 0.983019
Si Si7 0.874181 0.368705 0.573620
Si Si8 0.398001 0.810365 0.599940
O O1 0.139665 0.830629 0.539758
O O2 0.076244 0.946443 0.545373
O O3 0.500000 0.000000 0.500000
O O4 0.185555 0.238287 0.831861
O O5 0.560974 0.419713 0.339549
O O6 0.544832 0.224936 0.279198
O O7 0.892901 0.151880 0.044333
O O8 0.500000 0.000000 0.000000
O O9 0.677035 0.798498 0.501118
O O10 0.000000 0.000000 0.500000
O O11 0.078894 0.624711 0.213831
O O12 0.848081 0.671730 0.973352
O O13 0.500000 0.500000 0.000000
O O14 0.304062 0.698476 0.598134
O O15 0.138675 0.454407 0.539133
O O16 0.666048 0.944844 0.182607
O O17 0.773824 0.563163 0.799135
O O18 0.723857 0.302565 0.510166
#
# Coordination Sequence:
#
# PCOD9022948 Si02
#       8
#     2   2   2   2   2   2   2   2
#     4  12  24  44  74  97 130 178 219 270 335 403
#     4  10  22  39  65  92 131 176 229 266 331 392
#     4  12  27  43  68 104 136 166 222 284 333 390
#     4  12  23  43  72  96 127 172 223 265 331 405
#     4  10  24  40  64  99 137 176 226 285 323 388
#     4  11  23  41  67  96 131 182 223 266 332 403
#     4  11  23  43  69  95 136 181 226 267 336 402
#     4  12  25  42  66  99 144 171 222 285 333 382
#
# _framework density 19.801017999999999
#
# number of rings (size 3 to 8) (size 9 to 14) (size 15 to 20)
#    0.000    0.750    3.750    3.375    3.500    4.500 
#    0.000    0.000    0.000    0.000    0.000    0.000 
#    0.000    0.000    0.000    0.000    0.000    0.000 
#
# Total GULP energy -89451.087271 kJ/mol
# GULP energy per Si atom -5590.692954 kJ/mol
# Density = 1.975595 g / cm^3
# Si number density = 19.801018 Si / 1000 Ang^3
#
#
#
# Elastic Constant Matrix: (Units=GPa)
#
#
# Indices 1 2 3 4 5 6 
#
# 1 161.7567 49.6033 89.2530 4.9566 18.4903 -14.5923
# 2 49.6033 94.0415 38.7372 1.9753 -4.4942 -11.2599
# 3 89.2530 38.7372 203.2739 1.7276 9.4134 -0.5746
# 4 4.9566 1.9753 1.7276 23.9572 2.7900 -6.8388
# 5 18.4903 -4.4942 9.4134 2.7900 55.1439 -1.9619
# 6 -14.5923 -11.2599 -0.5746 -6.8388 -1.9619 46.3669
#
#
#
# Elastic Compliance Matrix: (Units=1/GPa)
#
#
# Indices 1 2 3 4 5 6 
#
# 1 0.009695 -0.003595 -0.003429 -0.000578 -0.002861 0.001929
# 2 -0.003595 0.013361 -0.001080 0.000055 0.002555 0.002216
# 3 -0.003429 -0.001080 0.006633 -0.000029 -0.000114 -0.001268
# 4 -0.000578 0.000055 -0.000029 0.043843 -0.001794 0.006222
# 5 -0.002861 0.002555 -0.000114 -0.001794 0.019422 0.000276
# 6 0.001929 0.002216 -0.001268 0.006222 0.000276 0.023626
#
#
# Mechanical properties :
#
#
# Convention : Reuss Voigt Hill
#
# Bulk Modulus (GPa) = 74.17976 90.47321 82.32648
# Shear Modulus (GPa) = 36.42121 43.85885 40.14003
#
# Velocity S-wave (km/s) = 4.29343 4.71146 4.50729
# Velocity P-wave (km/s) = 7.88175 8.68260 8.29185
#
# Compressibility (1/GPa) = 0.01348077
#
# Stress axis : x y z
#
# Youngs Moduli (GPa) = 103.14157 74.84435 150.76343
#
# Poissons Ratio (x) = 0.26907 0.51698
# Poissons Ratio (y) = 0.37079 0.16286
# Poissons Ratio (z) = 0.35368 0.08085
#
# Static dielectric constant tensor:
#      x y z
#    x 1.662600 0.000850 0.009670 
#    y 0.000850 1.727550 -0.030120 
#    z 0.009670 -0.030120 1.697430 
# 
# From -- ./inp_files/201770.got.cif
#   From: 2010.05.17/outbox.cif.g08.bks.cpg/sg2_101_cif.got.tgz:201770.got - 2010.06.03 11:33:40.
