data_PCOD9022508
_publ_section_title
;
Structure prediction by ZEFSAII (Michael W. Deem and Ramdas Pophale) SiO2 
 PCOD9022508
Probable space group: P -1
;
_chemical_formula_sum "Si O2"
_cell_formula_units_Z 12
_cell_length_a 23.950635
_cell_length_b 9.030238
_cell_length_c 10.900802
_cell_angle_alpha 42.269723
_cell_angle_beta 31.318513
_cell_angle_gamma 28.758686
_cell_volume 589.229856
_symmetry_space_group_name_H-M "P -1"
_symmetry_group_IT_number 2
_symmetry_cell_setting 'triclinic'
loop_
_space_group_symop_operation_xyz
x,y,z
-x,-y,-z
loop_
_atom_site_type_symbol
_atom_site_label
_atom_site_fract_x
_atom_site_fract_y
_atom_site_fract_z
Si Si1 0.041952 0.398382 0.125489
Si Si2 0.722822 0.609579 0.232217
Si Si3 0.580835 0.392897 0.544977
Si Si4 0.322086 0.674392 0.034521
Si Si5 0.429012 0.246383 0.309985
Si Si6 0.725058 0.743858 0.624637
O O1 0.895491 0.536452 0.390475
O O2 0.169967 0.027883 0.111172
O O3 0.117620 0.504027 0.980881
O O4 0.000000 0.500000 0.000000
O O5 0.701046 0.416968 0.315150
O O6 0.663489 0.640092 0.461460
O O7 0.602961 0.954671 0.189541
O O8 0.500000 0.500000 0.500000
O O9 0.660110 0.044069 0.634786
O O10 0.450228 0.613054 0.755548
O O11 0.383397 0.523187 0.146473
O O12 0.294742 0.471220 0.149329
O O13 0.371376 0.137448 0.392969
#
# Coordination Sequence:
#
# PCOD9022508 Si02
#       6
#     2   2   2   2   2   2
#     4  12  22  40  63  93 127 164 206 260 308 370
#     4  11  22  37  66  96 126 160 210 254 308 370
#     4  12  22  40  63  93 127 164 206 260 308 370
#     4  10  22  41  68  89 124 163 218 255 306 361
#     4   9  20  40  63  97 112 165 221 250 296 359
#     4  10  22  39  62  92 124 161 204 250 319 358
#
# _framework density 20.365568
#
# number of rings (size 3 to 8) (size 9 to 14) (size 15 to 20)
#    1.000    0.333    3.333    4.000    0.000    3.333 
#    0.000    0.000    0.000    6.000    0.000    0.000 
#    0.000    0.000    0.000    0.000    0.000    0.000 
#
# Total GULP energy -66983.338144 kJ/mol
# GULP energy per Si atom -5581.944845 kJ/mol
# Density = 2.031922 g / cm^3
# Si number density = 20.365568 Si / 1000 Ang^3
#
#
#
# Elastic Constant Matrix: (Units=GPa)
#
#
# Indices 1 2 3 4 5 6 
#
# 1 75.6397 21.0330 18.8153 -10.5063 -22.4273 -14.4966
# 2 21.0330 81.4938 16.0064 -6.4211 -3.4340 -6.9865
# 3 18.8153 16.0064 76.8505 1.5549 -23.7364 -13.2852
# 4 -10.5063 -6.4211 1.5549 36.5454 1.0535 -3.7609
# 5 -22.4273 -3.4340 -23.7364 1.0535 44.0774 -10.1060
# 6 -14.4966 -6.9865 -13.2852 -3.7609 -10.1060 34.3487
#
#
#
# Elastic Compliance Matrix: (Units=1/GPa)
#
#
# Indices 1 2 3 4 5 6 
#
# 1 0.021982 -0.003741 0.002632 0.006629 0.015554 0.014836
# 2 -0.003741 0.013766 -0.002827 0.001490 -0.002490 -0.000442
# 3 0.002632 -0.002827 0.019572 0.000286 0.014495 0.012402
# 4 0.006629 0.001490 0.000286 0.030196 0.004735 0.007910
# 5 0.015554 -0.002490 0.014495 0.004735 0.043851 0.025084
# 6 0.014836 -0.000442 0.012402 0.007910 0.025084 0.048328
#
#
# Mechanical properties :
#
#
# Convention : Reuss Voigt Hill
#
# Bulk Modulus (GPa) = 21.07544 38.41039 29.74291
# Shear Modulus (GPa) = 24.82832 34.86960 29.84896
#
# Velocity S-wave (km/s) = 3.49540 4.14234 3.83254
# Velocity P-wave (km/s) = 5.16347 6.46375 5.84985
#
# Compressibility (1/GPa) = 0.04744860
#
# Stress axis : x y z
#
# Youngs Moduli (GPa) = 45.49193 72.64180 51.09375
#
# Poissons Ratio (x) = 0.27173 -0.13448
# Poissons Ratio (y) = 0.17017 0.14444
# Poissons Ratio (z) = -0.11973 0.20535
#
# Static dielectric constant tensor:
#      x y z
#    x 1.745660 0.032480 -0.050060 
#    y 0.032480 1.725590 -0.064820 
#    z -0.050060 -0.064820 1.723950 
# 
# From -- ./inp_files/473757.got.cif
#   From: 2010.05.17/outbox.cif.g08.bks.cpg/sg2_237_cif.got.tgz:473757.got - 2010.06.03 11:33:40.
