data_PCOD9022041
_publ_section_title
;
Structure prediction by ZEFSAII (Michael W. Deem and Ramdas Pophale) SiO2 
 PCOD9022041
Probable space group: P -1
;
_chemical_formula_sum "Si O2"
_cell_formula_units_Z 14
_cell_length_a 11.089887
_cell_length_b 10.518950
_cell_length_c 5.397051
_cell_angle_alpha 100.154749
_cell_angle_beta 109.482769
_cell_angle_gamma 79.967842
_cell_volume 579.705702
_symmetry_space_group_name_H-M "P -1"
_symmetry_group_IT_number 2
_symmetry_cell_setting 'triclinic'
loop_
_space_group_symop_operation_xyz
x,y,z
-x,-y,-z
loop_
_atom_site_type_symbol
_atom_site_label
_atom_site_fract_x
_atom_site_fract_y
_atom_site_fract_z
Si Si1 0.506754 0.315975 0.792746
Si Si2 0.847303 0.023795 0.379685
Si Si3 0.703145 0.440639 0.288639
Si Si4 0.877274 0.417513 0.907601
Si Si5 0.467865 0.885555 0.616454
Si Si6 0.112855 0.878988 0.062150
Si Si7 0.657807 0.873622 0.116844
O O1 0.411795 0.442550 0.698539
O O2 0.576851 0.239748 0.584243
O O3 0.409497 0.218439 0.786209
O O4 0.611146 0.337791 0.080526
O O5 0.822730 0.119895 0.162765
O O6 0.806301 0.881382 0.249513
O O7 0.803003 0.075178 0.638575
O O8 0.000000 0.000000 0.500000
O O9 0.793375 0.423275 0.592110
O O10 0.789007 0.464278 0.107286
O O11 0.920955 0.263697 0.942754
O O12 0.000000 0.500000 0.000000
O O13 0.500000 0.000000 0.500000
O O14 0.388355 0.971348 0.805145
O O15 0.608652 0.836936 0.807554
O O16 0.000000 0.000000 0.000000
#
# Coordination Sequence:
#
# PCOD9022041 Si02
#       7
#     2   2   2   2   2   2   2
#     4  10  25  45  71 104 150 200 257 310 375 440
#     4  10  23  41  65 104 144 183 231 293 374 444
#     4  11  28  47  76 108 147 203 257 311 367 453
#     4  12  28  50  78 109 152 197 252 313 379 453
#     4   9  21  38  61 100 135 178 239 300 367 426
#     4  10  24  44  69 102 143 189 241 299 366 443
#     4  10  22  38  69 103 143 188 243 307 379 442
#
# _framework density 24.150183999999999
#
# number of rings (size 3 to 8) (size 9 to 14) (size 15 to 20)
#    0.000    1.714    0.000    1.286   10.000   10.286 
#    0.000    0.000    0.000    0.000    0.000    0.000 
#    0.000    0.000    0.000    0.000    0.000    0.000 
#
# Total GULP energy -77998.516360 kJ/mol
# GULP energy per Si atom -5571.322597 kJ/mol
# Density = 2.409522 g / cm^3
# Si number density = 24.150184 Si / 1000 Ang^3
#
#
#
# Elastic Constant Matrix: (Units=GPa)
#
#
# Indices 1 2 3 4 5 6 
#
# 1 93.4251 43.5872 33.7530 -8.9263 9.6485 1.1279
# 2 43.5872 116.9514 60.2865 4.2551 12.0569 -2.8104
# 3 33.7530 60.2865 204.6469 -14.2758 4.7631 5.0771
# 4 -8.9263 4.2551 -14.2758 36.0700 8.9191 -4.7533
# 5 9.6485 12.0569 4.7631 8.9191 37.7755 10.8614
# 6 1.1279 -2.8104 5.0771 -4.7533 10.8614 50.7786
#
#
#
# Elastic Compliance Matrix: (Units=1/GPa)
#
#
# Indices 1 2 3 4 5 6 
#
# 1 0.013867 -0.004726 -0.000508 0.004672 -0.003249 0.000614
# 2 -0.004726 0.012212 -0.003025 -0.003180 -0.001901 0.001192
# 3 -0.000508 -0.003025 0.006058 0.002600 -0.000142 -0.000488
# 4 0.004672 -0.003180 0.002600 0.033297 -0.009706 0.004653
# 5 -0.003249 -0.001901 -0.000142 -0.009706 0.032483 -0.007875
# 6 0.000614 0.001192 -0.000488 0.004653 -0.007875 0.021915
#
#
# Mechanical properties :
#
#
# Convention : Reuss Voigt Hill
#
# Bulk Modulus (GPa) = 64.03219 76.69744 70.36481
# Shear Modulus (GPa) = 35.32140 43.41792 39.36966
#
# Velocity S-wave (km/s) = 3.82851 4.24468 4.04196
# Velocity P-wave (km/s) = 6.79080 7.47332 7.14022
#
# Compressibility (1/GPa) = 0.01561714
#
# Stress axis : x y z
#
# Youngs Moduli (GPa) = 72.11321 81.88809 165.06453
#
# Poissons Ratio (x) = 0.38704 0.08393
# Poissons Ratio (y) = 0.34084 0.49934
# Poissons Ratio (z) = 0.03667 0.24772
#
# Static dielectric constant tensor:
#      x y z
#    x 3.632670 0.279920 0.558980 
#    y 0.279920 1.996040 0.038230 
#    z 0.558980 0.038230 2.093870 
# 
# From -- ./inp_files/72003.got.cif
#   From: 2010.05.17/outbox.cif.g08.bks.cpg/sg2_37_cif.got.tgz:72003.got - 2010.06.03 11:33:40.
