data_PCOD9022284
_publ_section_title
;
Structure prediction by ZEFSAII (Michael W. Deem and Ramdas Pophale) SiO2 
 PCOD9022284
Probable space group: P -1
;
_chemical_formula_sum "Si O2"
_cell_formula_units_Z 16
_cell_length_a 11.980182
_cell_length_b 24.600173
_cell_length_c 5.968557
_cell_angle_alpha 117.649136
_cell_angle_beta 69.155224
_cell_angle_gamma 152.281600
_cell_volume 718.258828
_symmetry_space_group_name_H-M "P -1"
_symmetry_group_IT_number 2
_symmetry_cell_setting 'triclinic'
loop_
_space_group_symop_operation_xyz
x,y,z
-x,-y,-z
loop_
_atom_site_type_symbol
_atom_site_label
_atom_site_fract_x
_atom_site_fract_y
_atom_site_fract_z
Si Si1 0.682995 0.343604 0.482885
Si Si2 0.468566 0.058714 0.664784
Si Si3 0.559860 0.694172 0.792564
Si Si4 0.055492 0.728187 0.990891
Si Si5 0.837994 0.521811 0.002378
Si Si6 0.828862 0.867954 0.310350
Si Si7 0.948674 0.813514 0.434317
Si Si8 0.789702 0.270006 0.499328
O O1 0.627801 0.346548 0.284707
O O2 0.422950 0.232135 0.576294
O O3 0.753686 0.305350 0.402902
O O4 0.848816 0.465853 0.734916
O O5 0.668362 0.162189 0.909894
O O6 0.558436 0.138154 0.537680
O O7 0.500000 0.000000 0.500000
O O8 0.180313 0.936627 0.656346
O O9 0.409641 0.592255 0.897002
O O10 0.703237 0.713710 0.559780
O O11 0.757817 0.825565 0.023175
O O12 0.867867 0.594682 0.966097
O O13 0.986386 0.762942 0.208235
O O14 0.070482 0.724271 0.706444
O O15 0.052050 0.625281 0.225849
O O16 0.936905 0.854650 0.313241
O O17 0.000000 0.000000 0.500000
#
# Coordination Sequence:
#
# PCOD9022284 Si02
#       8
#     2   2   2   2   2   2   2   2
#     4  10  22  39  60  91 122 159 206 249 304 362
#     4   9  21  39  59  89 123 155 198 244 298 366
#     4  10  23  41  62  87 124 164 198 253 304 348
#     4  10  23  39  62  94 121 160 207 246 304 366
#     4  10  22  41  60  89 124 158 207 251 302 366
#     4  10  22  39  61  90 121 158 204 249 299 362
#     4  10  22  40  61  90 124 159 204 248 299 369
#     4  11  22  38  65  91 123 161 196 257 310 350
#
# _framework density 22.276092999999999
#
# number of rings (size 3 to 8) (size 9 to 14) (size 15 to 20)
#    0.000    2.000    0.000    1.875    0.000   16.500 
#    0.000    8.750    0.000    0.000    0.000    0.000 
#    0.000    0.000    0.000    0.000    0.000    0.000 
#
# Total GULP energy -89353.183084 kJ/mol
# GULP energy per Si atom -5584.573943 kJ/mol
# Density = 2.222539 g / cm^3
# Si number density = 22.276093 Si / 1000 Ang^3
#
#
#
# Elastic Constant Matrix: (Units=GPa)
#
#
# Indices 1 2 3 4 5 6 
#
# 1 70.9081 31.3137 32.4732 8.6075 -13.0513 1.1883
# 2 31.3137 92.2520 22.4245 21.8640 -14.2444 -9.5302
# 3 32.4732 22.4245 113.5092 24.8184 -12.5122 -5.7124
# 4 8.6075 21.8640 24.8184 28.1015 -4.1765 -3.2660
# 5 -13.0513 -14.2444 -12.5122 -4.1765 27.5413 8.6279
# 6 1.1883 -9.5302 -5.7124 -3.2660 8.6279 27.3668
#
#
#
# Elastic Compliance Matrix: (Units=1/GPa)
#
#
# Indices 1 2 3 4 5 6 
#
# 1 0.019754 -0.005850 -0.004722 0.002975 0.006375 -0.005535
# 2 -0.005850 0.015977 0.001481 -0.011017 0.003313 0.003768
# 3 -0.004722 0.001481 0.012403 -0.010173 0.002179 0.001409
# 4 0.002975 -0.011017 -0.010173 0.052114 -0.001162 0.000497
# 5 0.006375 0.003313 0.002179 -0.001162 0.046030 -0.013319
# 6 -0.005535 0.003768 0.001409 0.000497 -0.013319 0.042645
#
#
# Mechanical properties :
#
#
# Convention : Reuss Voigt Hill
#
# Bulk Modulus (GPa) = 33.38641 49.89911 41.64276
# Shear Modulus (GPa) = 23.03187 29.29913 26.16550
#
# Velocity S-wave (km/s) = 3.21896 3.63060 3.43096
# Velocity P-wave (km/s) = 5.36989 6.32645 5.86769
#
# Compressibility (1/GPa) = 0.02995231
#
# Stress axis : x y z
#
# Youngs Moduli (GPa) = 50.62367 62.58851 80.62246
#
# Poissons Ratio (x) = 0.36614 0.38069
# Poissons Ratio (y) = 0.29614 -0.11938
# Poissons Ratio (z) = 0.23904 -0.09267
#
# Static dielectric constant tensor:
#      x y z
#    x 1.838660 0.017210 0.045030 
#    y 0.017210 1.830330 -0.011260 
#    z 0.045030 -0.011260 1.866810 
# 
# From -- ./inp_files/69717.got.cif
#   From: 2010.05.17/outbox.cif.g08.bks.cpg/sg2_35_cif.got.tgz:69717.got - 2010.06.03 11:33:40.
