data_PCOD9022591
_publ_section_title
;
Structure prediction by ZEFSAII (Michael W. Deem and Ramdas Pophale) SiO2 
 PCOD9022591
Probable space group: P -1
;
_chemical_formula_sum "Si O2"
_cell_formula_units_Z 16
_cell_length_a 8.627926
_cell_length_b 15.611874
_cell_length_c 6.461100
_cell_angle_alpha 81.913579
_cell_angle_beta 97.622216
_cell_angle_gamma 61.176983
_cell_volume 734.462867
_symmetry_space_group_name_H-M "P -1"
_symmetry_group_IT_number 2
_symmetry_cell_setting 'triclinic'
loop_
_space_group_symop_operation_xyz
x,y,z
-x,-y,-z
loop_
_atom_site_type_symbol
_atom_site_label
_atom_site_fract_x
_atom_site_fract_y
_atom_site_fract_z
Si Si1 0.240706 0.283886 0.730454
Si Si2 0.072519 0.571213 0.072571
Si Si3 0.920265 0.383684 0.379310
Si Si4 0.192624 0.912779 0.134380
Si Si5 0.493022 0.099444 0.548518
Si Si6 0.718176 0.268366 0.507312
Si Si7 0.546771 0.212932 0.138566
Si Si8 0.627530 0.547575 0.513397
O O1 0.344826 0.173246 0.672231
O O2 0.062279 0.339834 0.828471
O O3 0.126702 0.351156 0.486519
O O4 0.386388 0.279733 0.924208
O O5 0.259069 0.494490 0.243763
O O6 0.097309 0.624212 0.862709
O O7 0.000000 0.500000 0.000000
O O8 0.840482 0.319194 0.491029
O O9 0.779662 0.498765 0.380606
O O10 0.313040 0.939632 0.294027
O O11 0.180105 0.829740 0.299913
O O12 0.304756 0.869644 0.958402
O O13 0.000000 0.000000 0.000000
O O14 0.477777 0.166911 0.322174
O O15 0.500000 0.000000 0.500000
O O16 0.652445 0.256395 0.272903
O O17 0.519793 0.335719 0.558495
O O18 0.500000 0.500000 0.500000
#
# Coordination Sequence:
#
# PCOD9022591 Si02
#       8
#     2   2   2   2   2   2   2   2
#     4  10  22  40  60  90 124 159 207 250 302 366
#     4  11  23  38  61  91 128 167 205 252 304 366
#     4  10  23  39  60  92 128 166 206 250 304 367
#     4  10  24  42  63  92 120 154 206 259 314 371
#     4  10  23  41  62  88 121 159 204 258 312 369
#     4  10  22  40  62  88 123 163 205 257 307 366
#     4  10  22  39  63  88 117 159 202 251 312 365
#     4   9  21  39  59  89 124 161 208 250 299 365
#
# _framework density 21.784624999999998
#
# number of rings (size 3 to 8) (size 9 to 14) (size 15 to 20)
#    0.000    2.000    0.000    1.500    0.000   20.000 
#    0.000    0.000    0.000    0.000    0.000    0.000 
#    0.000    0.000    0.000    0.000    0.000    0.000 
#
# Total GULP energy -89107.066877 kJ/mol
# GULP energy per Si atom -5569.191680 kJ/mol
# Density = 2.173504 g / cm^3
# Si number density = 21.784625 Si / 1000 Ang^3
#
#
#
# Elastic Constant Matrix: (Units=GPa)
#
#
# Indices 1 2 3 4 5 6 
#
# 1 89.8194 58.6563 56.5834 -9.7198 18.3815 5.6545
# 2 58.6563 107.4799 58.8506 -13.9531 11.9108 -7.2875
# 3 56.5834 58.8506 146.9396 -8.0229 17.7421 -2.5874
# 4 -9.7198 -13.9531 -8.0229 39.3412 -7.7366 18.1792
# 5 18.3815 11.9108 17.7421 -7.7366 31.0332 -4.0775
# 6 5.6545 -7.2875 -2.5874 18.1792 -4.0775 30.2635
#
#
#
# Elastic Compliance Matrix: (Units=1/GPa)
#
#
# Indices 1 2 3 4 5 6 
#
# 1 0.022504 -0.009389 -0.003899 0.004905 -0.007691 -0.010781
# 2 -0.009389 0.016329 -0.003018 0.000837 0.001909 0.005183
# 3 -0.003899 -0.003018 0.009747 -0.001008 -0.002206 0.001144
# 4 0.004905 0.000837 -0.001008 0.038212 0.003823 -0.023240
# 5 -0.007691 0.001909 -0.002206 0.003823 0.038871 0.004649
# 6 -0.010781 0.005183 0.001144 -0.023240 0.004649 0.050990
#
#
# Mechanical properties :
#
#
# Convention : Reuss Voigt Hill
#
# Bulk Modulus (GPa) = 62.62210 76.93552 69.77881
# Shear Modulus (GPa) = 23.30040 31.47082 27.38561
#
# Velocity S-wave (km/s) = 3.27399 3.80496 3.54942
# Velocity P-wave (km/s) = 6.56509 7.39572 6.99275
#
# Compressibility (1/GPa) = 0.01596880
#
# Stress axis : x y z
#
# Youngs Moduli (GPa) = 44.43563 61.24127 102.59367
#
# Poissons Ratio (x) = 0.57497 0.40003
# Poissons Ratio (y) = 0.41719 0.30963
# Poissons Ratio (z) = 0.17326 0.18483
#
# Static dielectric constant tensor:
#      x y z
#    x 1.825520 0.026560 -0.015440 
#    y 0.026560 1.857520 0.013600 
#    z -0.015440 0.013600 1.838380 
# 
# From -- ./inp_files/47943.got.cif
#   From: 2010.05.17/outbox.cif.g08.bks.cpg/sg2_24_cif.got.tgz:47943.got - 2010.06.03 11:33:40.
