data_PCOD9022197
_publ_section_title
;
Structure prediction by ZEFSAII (Michael W. Deem and Ramdas Pophale) SiO2 
 PCOD9022197
Probable space group: P -1
;
_chemical_formula_sum "Si O2"
_cell_formula_units_Z 14
_cell_length_a 12.165346
_cell_length_b 17.251678
_cell_length_c 15.595314
_cell_angle_alpha 150.790946
_cell_angle_beta 154.970801
_cell_angle_gamma 42.222715
_cell_volume 655.362203
_symmetry_space_group_name_H-M "P -1"
_symmetry_group_IT_number 2
_symmetry_cell_setting 'triclinic'
loop_
_space_group_symop_operation_xyz
x,y,z
-x,-y,-z
loop_
_atom_site_type_symbol
_atom_site_label
_atom_site_fract_x
_atom_site_fract_y
_atom_site_fract_z
Si Si1 0.786749 0.121573 0.824951
Si Si2 0.826476 0.108533 0.172791
Si Si3 0.610052 0.192771 0.405534
Si Si4 0.002976 0.667954 0.329885
Si Si5 0.820638 0.620292 0.738294
Si Si6 0.011787 0.689406 0.681478
Si Si7 0.502977 0.604216 0.329393
O O1 0.500000 0.000000 0.500000
O O2 0.008773 0.018096 0.868520
O O3 0.883514 0.265749 0.962267
O O4 0.820919 0.205779 0.023024
O O5 0.949824 0.196515 0.431845
O O6 0.866905 0.242219 0.256489
O O7 0.525891 0.999345 0.869005
O O8 0.876279 0.248160 0.592075
O O9 0.383009 0.269875 0.271864
O O10 0.639673 0.276780 0.601718
O O11 0.161400 0.530804 0.336921
O O12 0.701278 0.559983 0.003453
O O13 0.696897 0.563946 0.502670
O O14 0.702855 0.696642 0.486741
O O15 0.000000 0.500000 0.500000
#
# Coordination Sequence:
#
# PCOD9022197 Si02
#       7
#     2   2   2   2   2   2   2
#     4  10  22  39  59  87 125 154 198 244 306 361
#     4  11  23  37  62  90 119 161 190 252 309 348
#     4   9  21  42  58  86 125 157 200 252 296 347
#     4  12  21  37  67  87 118 162 207 241 295 365
#     4   8  20  39  58  87 118 158 200 243 298 341
#     4  11  23  42  62  86 126 153 197 256 297 363
#     4   9  22  38  61  89 118 152 209 236 302 348
#
# _framework density 21.362231999999999
#
# number of rings (size 3 to 8) (size 9 to 14) (size 15 to 20)
#    0.857    1.143    1.429    3.429    4.000    0.571 
#    0.000    0.000    0.000    2.571    0.000    0.000 
#    0.000    0.000    0.000    0.000    0.000    0.000 
#
# Total GULP energy -78094.348671 kJ/mol
# GULP energy per Si atom -5578.167762 kJ/mol
# Density = 2.131361 g / cm^3
# Si number density = 21.362232 Si / 1000 Ang^3
#
#
#
# Elastic Constant Matrix: (Units=GPa)
#
#
# Indices 1 2 3 4 5 6 
#
# 1 76.5387 -1.9334 29.7166 16.1549 0.3838 7.3594
# 2 -1.9334 33.9874 -7.8903 18.4875 -0.5518 6.3393
# 3 29.7166 -7.8903 118.3142 17.5447 -8.2070 -8.5489
# 4 16.1549 18.4875 17.5447 26.0488 -4.6143 4.3877
# 5 0.3838 -0.5518 -8.2070 -4.6143 37.7792 9.6193
# 6 7.3594 6.3393 -8.5489 4.3877 9.6193 12.8991
#
#
#
# Elastic Compliance Matrix: (Units=1/GPa)
#
#
# Indices 1 2 3 4 5 6 
#
# 1 0.019011 0.011698 -0.002548 -0.015927 0.000932 -0.013562
# 2 0.011698 0.066511 0.009245 -0.058815 -0.001178 -0.012349
# 3 -0.002548 0.009245 0.012860 -0.016157 -0.002224 0.012588
# 4 -0.015927 -0.058815 -0.016157 0.106544 0.013686 -0.019164
# 5 0.000932 -0.001178 -0.002224 0.013686 0.036019 -0.032943
# 6 -0.013562 -0.012349 0.012588 -0.019164 -0.032943 0.130759
#
#
# Mechanical properties :
#
#
# Convention : Reuss Voigt Hill
#
# Bulk Modulus (GPa) = 7.39802 29.84736 18.62269
# Shear Modulus (GPa) = 13.15886 29.27523 21.21705
#
# Velocity S-wave (km/s) = 2.48460 3.70593 3.15493
# Velocity P-wave (km/s) = 3.42077 5.68457 4.69126
#
# Compressibility (1/GPa) = 0.13517124
#
# Stress axis : x y z
#
# Youngs Moduli (GPa) = 52.60066 15.03507 77.76160
#
# Poissons Ratio (x) = -0.17588 0.19817
# Poissons Ratio (y) = -0.61532 -0.71891
# Poissons Ratio (z) = 0.13405 -0.13900
#
# Static dielectric constant tensor:
#      x y z
#    x 1.798100 -0.016510 0.024190 
#    y -0.016510 1.834850 -0.009000 
#    z 0.024190 -0.009000 1.764800 
# 
# From -- ./inp_files/354012.got.cif
#   From: 2010.05.17/outbox.cif.g08.bks.cpg/sg2_178_cif.got.tgz:354012.got - 2010.06.03 11:33:40.
