data_PCOD9022510
_publ_section_title
;
Structure prediction by ZEFSAII (Michael W. Deem and Ramdas Pophale) SiO2 
 PCOD9022510
Probable space group: P -1
;
_chemical_formula_sum "Si O2"
_cell_formula_units_Z 14
_cell_length_a 11.154335
_cell_length_b 9.464126
_cell_length_c 17.793122
_cell_angle_alpha 66.184850
_cell_angle_beta 30.151299
_cell_angle_gamma 89.166703
_cell_volume 591.577046
_symmetry_space_group_name_H-M "P -1"
_symmetry_group_IT_number 2
_symmetry_cell_setting 'triclinic'
loop_
_space_group_symop_operation_xyz
x,y,z
-x,-y,-z
loop_
_atom_site_type_symbol
_atom_site_label
_atom_site_fract_x
_atom_site_fract_y
_atom_site_fract_z
Si Si1 0.584585 0.317572 0.772341
Si Si2 0.740284 0.336784 0.074385
Si Si3 0.445975 0.601768 0.568116
Si Si4 0.630951 0.997501 0.779126
Si Si5 0.204833 0.802292 0.646927
Si Si6 0.614756 0.700490 0.944670
Si Si7 0.633173 0.657208 0.610277
O O1 0.476545 0.410636 0.758884
O O2 0.000000 0.500000 0.500000
O O3 0.466301 0.088680 0.862671
O O4 0.498515 0.323508 0.903121
O O5 0.088678 0.406553 0.851162
O O6 0.869938 0.562001 0.919973
O O7 0.436856 0.102187 0.245542
O O8 0.622075 0.331269 0.221677
O O9 0.500000 0.500000 0.500000
O O10 0.391179 0.739111 0.525409
O O11 0.720956 0.728577 0.460105
O O12 0.477429 0.788601 0.958630
O O13 0.030928 0.187417 0.549872
O O14 0.029773 0.860807 0.686313
O O15 0.500000 0.000000 0.500000
O O16 0.500000 0.500000 0.000000
#
# Coordination Sequence:
#
# PCOD9022510 Si02
#       7
#     2   2   2   2   2   2   2
#     4  10  23  39  63  97 133 165 211 265 326 370
#     4  10  22  41  64  93 130 163 216 261 315 381
#     4  10  23  42  64  91 128 163 215 261 318 379
#     4  11  23  38  68 100 129 166 214 267 318 379
#     4  10  22  39  62  92 126 167 215 257 314 383
#     4  12  21  41  65  95 128 172 217 263 311 383
#     4  11  21  44  67  92 128 175 208 264 323 380
#
# _framework density 23.665555999999999
#
# number of rings (size 3 to 8) (size 9 to 14) (size 15 to 20)
#    0.857    0.571    2.857    2.143    0.000    8.000 
#    0.000    2.143    0.000    0.000    0.000    0.000 
#    0.000    0.000    0.000    0.000    0.000    0.000 
#
# Total GULP energy -77979.034218 kJ/mol
# GULP energy per Si atom -5569.931016 kJ/mol
# Density = 2.361169 g / cm^3
# Si number density = 23.665556 Si / 1000 Ang^3
#
#
#
# Elastic Constant Matrix: (Units=GPa)
#
#
# Indices 1 2 3 4 5 6 
#
# 1 79.1154 54.5321 22.5909 13.5231 -5.0773 4.7648
# 2 54.5321 214.4662 54.9081 26.1038 -1.2390 5.1450
# 3 22.5909 54.9081 46.6522 6.7654 -5.9836 3.7357
# 4 13.5231 26.1038 6.7654 43.9310 3.8568 -2.5379
# 5 -5.0773 -1.2390 -5.9836 3.8568 35.7562 -5.9156
# 6 4.7648 5.1450 3.7357 -2.5379 -5.9156 38.2543
#
#
#
# Elastic Compliance Matrix: (Units=1/GPa)
#
#
# Indices 1 2 3 4 5 6 
#
# 1 0.016353 -0.002744 -0.003937 -0.003016 0.001691 -0.001222
# 2 -0.002744 0.007524 -0.007298 -0.002419 -0.001138 -0.000294
# 3 -0.003937 -0.007298 0.032573 0.000082 0.004462 -0.001013
# 4 -0.003016 -0.002419 0.000082 0.025485 -0.002928 0.001931
# 5 0.001691 -0.001138 0.004462 -0.002928 0.029881 0.003933
# 6 -0.001222 -0.000294 -0.001013 0.001931 0.003933 0.027168
#
#
# Mechanical properties :
#
#
# Convention : Reuss Voigt Hill
#
# Bulk Modulus (GPa) = 35.09825 67.14398 51.12112
# Shear Modulus (GPa) = 28.33835 37.46850 32.90342
#
# Velocity S-wave (km/s) = 3.46417 3.98332 3.73279
# Velocity P-wave (km/s) = 5.55552 7.04198 6.34245
#
# Compressibility (1/GPa) = 0.02849145
#
# Stress axis : x y z
#
# Youngs Moduli (GPa) = 61.15112 132.91069 30.70017
#
# Poissons Ratio (x) = 0.36469 0.12087
# Poissons Ratio (y) = 0.16779 0.22406
# Poissons Ratio (z) = 0.24076 0.97001
#
# Static dielectric constant tensor:
#      x y z
#    x 1.991280 -0.085370 -0.018540 
#    y -0.085370 1.724950 -0.085850 
#    z -0.018540 -0.085850 1.987640 
# 
# From -- ./inp_files/565906.got.cif
#   From: 2010.05.17/outbox.cif.g08.bks.cpg/sg2_283_cif.got.tgz:565906.got - 2010.06.03 11:33:40.
