data_PCOD9022073
_publ_section_title
;
Structure prediction by ZEFSAII (Michael W. Deem and Ramdas Pophale) SiO2 
 PCOD9022073
Probable space group: P -1
;
_chemical_formula_sum "Si O2"
_cell_formula_units_Z 14
_cell_length_a 7.494924
_cell_length_b 16.312466
_cell_length_c 16.648862
_cell_angle_alpha 155.673524
_cell_angle_beta 44.475711
_cell_angle_gamma 136.416976
_cell_volume 567.717764
_symmetry_space_group_name_H-M "P -1"
_symmetry_group_IT_number 2
_symmetry_cell_setting 'triclinic'
loop_
_space_group_symop_operation_xyz
x,y,z
-x,-y,-z
loop_
_atom_site_type_symbol
_atom_site_label
_atom_site_fract_x
_atom_site_fract_y
_atom_site_fract_z
Si Si1 0.219391 0.159249 0.669738
Si Si2 0.000000 0.000000 0.000000
Si Si3 0.800033 0.263691 0.632130
Si Si4 0.558249 0.622419 0.363553
Si Si5 0.167174 0.690667 0.958952
Si Si6 0.997922 0.292176 0.418866
Si Si7 0.586485 0.271113 0.333691
Si Si8 0.500000 0.000000 0.000000
O O1 0.496850 0.267342 0.720518
O O2 0.257278 0.249502 0.649058
O O3 0.201722 0.918578 0.467948
O O4 0.981138 0.216158 0.842356
O O5 0.001643 0.867267 0.796969
O O6 0.241950 0.900826 0.872455
O O7 0.908633 0.207005 0.460799
O O8 0.970381 0.484665 0.803079
O O9 0.596812 0.393811 0.154199
O O10 0.259810 0.618480 0.438018
O O11 0.599444 0.733515 0.535464
O O12 0.276584 0.849170 0.995419
O O13 0.221015 0.506073 0.534149
O O14 0.427091 0.204439 0.244369
#
# Coordination Sequence:
#
# PCOD9022073 Si02
#       8
#     2   1   2   2   2   2   2   1
#     4  10  24  48  72 103 133 194 242 285 358 423
#     4  10  22  38  70  96 134 184 234 280 348 418
#     4  10  23  46  75 100 144 184 239 300 346 418
#     4  10  24  45  70 102 144 184 235 297 356 414
#     4  12  26  45  70 106 146 186 236 295 352 430
#     4  10  22  45  70 103 143 186 236 295 349 425
#     4  11  25  45  66 103 144 187 237 289 352 423
#     4  12  30  44  70 110 142 192 236 288 370 416
#
# _framework density 24.660143000000001
#
# number of rings (size 3 to 8) (size 9 to 14) (size 15 to 20)
#    0.000    1.429    1.429    2.571    8.000    1.143 
#    2.571    2.857    0.000    0.000    0.000    0.000 
#    0.000    0.000    0.000    0.000    0.000    0.000 
#
# Total GULP energy -77967.740762 kJ/mol
# GULP energy per Si atom -5569.124340 kJ/mol
# Density = 2.460402 g / cm^3
# Si number density = 24.660143 Si / 1000 Ang^3
#
#
#
# Elastic Constant Matrix: (Units=GPa)
#
#
# Indices 1 2 3 4 5 6 
#
# 1 -27.1096 4.7773 17.8025 61.6392 -18.5719 -16.6355
# 2 4.7773 167.2796 69.7121 2.0804 4.4215 -22.8587
# 3 17.8025 69.7121 137.7071 -17.2857 -17.7132 -2.5345
# 4 61.6392 2.0804 -17.2857 15.6267 12.2543 21.7735
# 5 -18.5719 4.4215 -17.7132 12.2543 48.9427 -4.1944
# 6 -16.6355 -22.8587 -2.5345 21.7735 -4.1944 20.6142
#
#
#
# Elastic Compliance Matrix: (Units=1/GPa)
#
#
# Indices 1 2 3 4 5 6 
#
# 1 0.003056 -0.003080 0.002204 0.012619 -0.002162 -0.014447
# 2 -0.003080 0.008789 -0.004327 -0.000029 -0.002994 0.006150
# 3 0.002204 -0.004327 0.009739 -0.000237 0.004759 -0.000603
# 4 0.012619 -0.000029 -0.000237 0.007364 0.003117 0.002979
# 5 -0.002162 -0.002994 0.004759 0.003117 0.020516 -0.003598
# 6 -0.014447 0.006150 -0.000603 0.002979 -0.003598 0.039718
#
#
# Mechanical properties :
#
#
# Convention : Reuss Voigt Hill
#
# Bulk Modulus (GPa) = 89.45694 51.38456 70.42075
# Shear Modulus (GPa) = 48.39711 29.40907 38.90309
#
# Velocity S-wave (km/s) = 4.43489 3.45711 3.97617
# Velocity P-wave (km/s) = 7.91069 6.06777 7.04971
#
# Compressibility (1/GPa) = 0.01117856
#
# Stress axis : x y z
#
# Youngs Moduli (GPa) = 327.23687 113.78000 102.68487
#
# Poissons Ratio (x) = 0.35041 -0.22632
# Poissons Ratio (y) = 1.00779 0.44428
# Poissons Ratio (z) = -0.72123 0.49229
#
# Static dielectric constant tensor:
#      x y z
#    x 1.673910 0.080170 -0.068380 
#    y 0.080170 1.922270 0.004040 
#    z -0.068380 0.004040 1.963240 
# 
# From -- ./inp_files/562122.got.cif
#   From: 2010.05.17/outbox.cif.g08.bks.cpg/sg2_282_cif.got.tgz:562122.got - 2010.06.03 11:33:40.
