data_PCOD9022337
_publ_section_title
;
Structure prediction by ZEFSAII (Michael W. Deem and Ramdas Pophale) SiO2 
 PCOD9022337
Probable space group: P -1
;
_chemical_formula_sum "Si O2"
_cell_formula_units_Z 16
_cell_length_a 9.823912
_cell_length_b 14.132018
_cell_length_c 15.604360
_cell_angle_alpha 37.047788
_cell_angle_beta 140.680022
_cell_angle_gamma 118.879366
_cell_volume 774.027057
_symmetry_space_group_name_H-M "P -1"
_symmetry_group_IT_number 2
_symmetry_cell_setting 'triclinic'
loop_
_space_group_symop_operation_xyz
x,y,z
-x,-y,-z
loop_
_atom_site_type_symbol
_atom_site_label
_atom_site_fract_x
_atom_site_fract_y
_atom_site_fract_z
Si Si1 0.024326 0.501078 0.408776
Si Si2 0.786913 0.435953 0.939022
Si Si3 0.967157 0.030215 0.330246
Si Si4 0.532681 0.394077 0.678538
Si Si5 0.268626 0.991491 0.934316
Si Si6 0.148874 0.113228 0.972243
Si Si7 0.620721 0.076664 0.273519
Si Si8 0.449092 0.474473 0.895287
O O1 0.283876 0.396933 0.585890
O O2 0.000000 0.500000 0.500000
O O3 0.975924 0.689904 0.212653
O O4 0.821493 0.445556 0.312574
O O5 0.648061 0.464696 0.760755
O O6 0.609669 0.516490 0.872389
O O7 0.888359 0.232826 0.144638
O O8 0.000000 0.500000 0.000000
O O9 0.798392 0.990075 0.346333
O O10 0.921726 0.968003 0.261223
O O11 0.224918 0.955634 0.543694
O O12 0.500000 0.500000 0.500000
O O13 0.684610 0.200524 0.877060
O O14 0.500000 0.000000 0.000000
O O15 0.204200 0.104343 0.904635
O O16 0.393735 0.031413 0.197921
O O17 0.000000 0.000000 0.000000
O O18 0.518055 0.274327 0.061020
O O19 0.500000 0.500000 0.000000
#
# Coordination Sequence:
#
# PCOD9022337 Si02
#       8
#     2   2   2   2   2   2   2   2
#     4  11  22  42  62  85 126 162 198 250 305 359
#     4  10  22  40  59  87 123 154 195 251 299 350
#     4   9  19  38  62  84 113 152 197 246 284 347
#     4  11  24  40  62  93 123 158 204 252 303 358
#     4  11  21  39  64  91 115 154 212 245 288 362
#     4  11  23  39  60  90 124 155 192 252 308 351
#     4   9  19  39  60  84 116 152 195 240 295 347
#     4  10  22  39  61  87 118 159 200 241 297 362
#
# _framework density 20.671111
#
# number of rings (size 3 to 8) (size 9 to 14) (size 15 to 20)
#    0.000    1.750    2.500    1.500    1.750    4.000 
#    2.250    0.625    0.000    0.000    0.000    0.000 
#    0.000    0.000    0.000    0.000    0.000    0.000 
#
# Total GULP energy -89383.513830 kJ/mol
# GULP energy per Si atom -5586.469614 kJ/mol
# Density = 2.062406 g / cm^3
# Si number density = 20.671111 Si / 1000 Ang^3
#
#
#
# Elastic Constant Matrix: (Units=GPa)
#
#
# Indices 1 2 3 4 5 6 
#
# 1 75.3822 25.7343 20.8963 16.8083 0.6615 16.5594
# 2 25.7343 68.7257 32.8071 27.5894 8.5829 16.3002
# 3 20.8963 32.8071 112.6858 35.7374 0.2454 10.8378
# 4 16.8083 27.5894 35.7374 47.3361 3.1324 4.9782
# 5 0.6615 8.5829 0.2454 3.1324 33.5568 4.2835
# 6 16.5594 16.3002 10.8378 4.9782 4.2835 37.9120
#
#
#
# Elastic Compliance Matrix: (Units=1/GPa)
#
#
# Indices 1 2 3 4 5 6 
#
# 1 0.016454 -0.003717 -0.000585 -0.002787 0.001559 -0.005232
# 2 -0.003717 0.022668 -0.002438 -0.009174 -0.004116 -0.005756
# 3 -0.000585 -0.002438 0.012212 -0.007542 0.001423 -0.001357
# 4 -0.002787 -0.009174 -0.007542 0.032896 -0.001012 0.003112
# 5 0.001559 -0.004116 0.001423 -0.001012 0.031253 -0.002716
# 6 -0.005232 -0.005756 -0.001357 0.003112 -0.002716 0.031423
#
#
# Mechanical properties :
#
#
# Convention : Reuss Voigt Hill
#
# Bulk Modulus (GPa) = 26.41781 46.18545 36.30163
# Shear Modulus (GPa) = 28.90102 35.58473 32.24288
#
# Velocity S-wave (km/s) = 3.74322 4.15356 3.95372
# Velocity P-wave (km/s) = 5.61160 6.73753 6.20018
#
# Compressibility (1/GPa) = 0.03785326
#
# Stress axis : x y z
#
# Youngs Moduli (GPa) = 60.77608 44.11469 81.88611
#
# Poissons Ratio (x) = 0.16395 0.04794
# Poissons Ratio (y) = 0.22588 0.19968
# Poissons Ratio (z) = 0.03558 0.10757
#
# Static dielectric constant tensor:
#      x y z
#    x 1.719830 0.011230 0.002910 
#    y 0.011230 1.738020 -0.004050 
#    z 0.002910 -0.004050 1.739990 
# 
# From -- ./inp_files/208628.got.cif
#   From: 2010.05.17/outbox.cif.g08.bks.cpg/sg2_105_cif.got.tgz:208628.got - 2010.06.03 11:33:40.
