data_PCOD9022317
_publ_section_title
;
Structure prediction by ZEFSAII (Michael W. Deem and Ramdas Pophale) SiO2 
 PCOD9022317
Probable space group: P -1
;
_chemical_formula_sum "Si O2"
_cell_formula_units_Z 16
_cell_length_a 20.403075
_cell_length_b 10.764784
_cell_length_c 6.426173
_cell_angle_alpha 96.029455
_cell_angle_beta 82.369664
_cell_angle_gamma 147.403958
_cell_volume 753.550458
_symmetry_space_group_name_H-M "P -1"
_symmetry_group_IT_number 2
_symmetry_cell_setting 'triclinic'
loop_
_space_group_symop_operation_xyz
x,y,z
-x,-y,-z
loop_
_atom_site_type_symbol
_atom_site_label
_atom_site_fract_x
_atom_site_fract_y
_atom_site_fract_z
Si Si1 0.496728 0.351913 0.555023
Si Si2 0.737315 0.169501 0.540970
Si Si3 0.846146 0.176102 0.838159
Si Si4 0.888744 0.480699 0.151797
Si Si5 0.320702 0.496602 0.800720
Si Si6 0.300699 0.289747 0.151178
Si Si7 0.144687 0.232107 0.454411
Si Si8 0.255018 0.597976 0.136062
O O1 0.500000 0.500000 0.500000
O O2 0.572917 0.384604 0.371165
O O3 0.568000 0.468438 0.764389
O O4 0.364178 0.079859 0.562356
O O5 0.828656 0.225482 0.641829
O O6 0.808035 0.359433 0.370188
O O7 0.687455 0.192230 0.731994
O O8 0.969125 0.290124 0.812521
O O9 0.728896 0.902978 0.871733
O O10 0.860918 0.299770 0.036438
O O11 0.846224 0.507810 0.996960
O O12 0.209266 0.353312 0.670274
O O13 0.287083 0.329958 0.939730
O O14 0.342877 0.650209 0.969175
O O15 0.202415 0.196454 0.331665
O O16 0.190655 0.407647 0.299942
O O17 0.000000 0.000000 0.500000
#
# Coordination Sequence:
#
# PCOD9022317 Si02
#       8
#     2   2   2   2   2   2   2   2
#     4  11  24  44  64  95 127 168 218 264 315 372
#     4  11  23  42  67  91 130 171 214 266 313 372
#     4  10  22  39  60  98 130 165 212 256 323 383
#     4  10  23  39  64  95 132 168 209 263 315 384
#     4  10  24  43  62  93 131 162 213 263 314 379
#     4  10  23  39  65  96 127 168 208 259 324 375
#     4  10  23  40  65  95 129 167 207 261 316 379
#     4  10  23  42  63  96 127 167 217 252 326 377
#
# _framework density 21.232818000000002
#
# number of rings (size 3 to 8) (size 9 to 14) (size 15 to 20)
#    0.000    1.750    1.250    1.125    7.000    4.000 
#    0.000    8.750    0.000    0.000    0.000    0.000 
#    0.000    0.000    0.000    0.000    0.000    0.000 
#
# Total GULP energy -89377.013985 kJ/mol
# GULP energy per Si atom -5586.063374 kJ/mol
# Density = 2.118449 g / cm^3
# Si number density = 21.232818 Si / 1000 Ang^3
#
#
#
# Elastic Constant Matrix: (Units=GPa)
#
#
# Indices 1 2 3 4 5 6 
#
# 1 75.8448 18.1708 26.9894 12.1573 13.3721 -8.4812
# 2 18.1708 55.3479 31.2585 25.1034 -3.0281 1.4413
# 3 26.9894 31.2585 99.0452 11.6713 23.7405 -1.1074
# 4 12.1573 25.1034 11.6713 18.8239 -2.6797 -3.7631
# 5 13.3721 -3.0281 23.7405 -2.6797 32.9309 -2.1105
# 6 -8.4812 1.4413 -1.1074 -3.7631 -2.1105 29.4815
#
#
#
# Elastic Compliance Matrix: (Units=1/GPa)
#
#
# Indices 1 2 3 4 5 6 
#
# 1 0.016906 -0.001103 -0.001717 -0.008605 -0.006216 0.003309
# 2 -0.001103 0.057430 -0.011517 -0.070049 0.007565 -0.011957
# 3 -0.001717 -0.011517 0.016498 0.004639 -0.011850 0.000432
# 4 -0.008605 -0.070049 0.004639 0.154592 0.007661 0.021404
# 5 -0.006216 0.007565 -0.011850 0.007661 0.042845 0.001442
# 6 0.003309 -0.011957 0.000432 0.021404 0.001442 0.038308
#
#
# Mechanical properties :
#
#
# Convention : Reuss Voigt Hill
#
# Bulk Modulus (GPa) = 16.08792 42.56391 29.32592
# Shear Modulus (GPa) = 13.29882 26.50187 19.90034
#
# Velocity S-wave (km/s) = 2.50538 3.53676 3.06477
# Velocity P-wave (km/s) = 3.99532 6.06366 5.13472
#
# Compressibility (1/GPa) = 0.06215843
#
# Stress axis : x y z
#
# Youngs Moduli (GPa) = 59.15134 17.41236 60.61468
#
# Poissons Ratio (x) = 0.01921 0.10410
# Poissons Ratio (y) = 0.06527 0.69809
# Poissons Ratio (z) = 0.10159 0.20053
#
# Static dielectric constant tensor:
#      x y z
#    x 1.789150 0.003480 -0.035880 
#    y 0.003480 1.725360 0.016930 
#    z -0.035880 0.016930 1.763630 
# 
# From -- ./inp_files/70902.got.cif
#   From: 2010.05.17/outbox.cif.g08.bks.cpg/sg2_36_cif.got.tgz:70902.got - 2010.06.03 11:33:40.
