data_PCOD9022142
_publ_section_title
;
Structure prediction by ZEFSAII (Michael W. Deem and Ramdas Pophale) SiO2 
 PCOD9022142
Probable space group: P -1
;
_chemical_formula_sum "Si O2"
_cell_formula_units_Z 16
_cell_length_a 10.871377
_cell_length_b 9.666639
_cell_length_c 8.720343
_cell_angle_alpha 44.693545
_cell_angle_beta 77.553747
_cell_angle_gamma 87.178673
_cell_volume 622.126236
_symmetry_space_group_name_H-M "P -1"
_symmetry_group_IT_number 2
_symmetry_cell_setting 'triclinic'
loop_
_space_group_symop_operation_xyz
x,y,z
-x,-y,-z
loop_
_atom_site_type_symbol
_atom_site_label
_atom_site_fract_x
_atom_site_fract_y
_atom_site_fract_z
Si Si1 0.795768 0.591941 0.517178
Si Si2 0.056015 0.213310 0.430929
Si Si3 0.522690 0.466974 0.840925
Si Si4 0.738713 0.520888 0.242154
Si Si5 0.211334 0.997219 0.196691
Si Si6 0.136509 0.795685 0.739613
Si Si7 0.481790 0.002887 0.184748
Si Si8 0.244555 0.980524 0.855048
O O1 0.896263 0.596608 0.625833
O O2 0.660702 0.543038 0.676340
O O3 0.782362 0.496650 0.426419
O O4 0.826119 0.828662 0.286516
O O5 0.007370 0.266740 0.234204
O O6 0.148574 0.043545 0.516932
O O7 0.925737 0.102022 0.630460
O O8 0.413651 0.525516 0.710876
O O9 0.500000 0.500000 0.000000
O O10 0.507368 0.232283 0.031725
O O11 0.795716 0.369904 0.233359
O O12 0.770596 0.760652 0.010179
O O13 0.332227 0.937990 0.305822
O O14 0.228133 0.914305 0.086434
O O15 0.185749 0.811823 0.887138
O O16 0.605546 0.933796 0.281697
O O17 0.500000 0.000000 0.000000
#
# Coordination Sequence:
#
# PCOD9022142 Si02
#       8
#     2   2   2   2   2   2   2   2
#     4  10  23  42  61  85 122 160 196 240 296 361
#     4  10  23  42  59  83 122 164 199 240 296 357
#     4  11  23  40  63  92 122 150 192 251 305 349
#     4  10  22  39  62  89 116 154 200 248 296 347
#     4   9  20  39  62  87 120 160 199 240 294 357
#     4  10  22  39  57  86 120 156 201 247 294 345
#     4   9  19  37  62  91 119 153 196 244 295 349
#     4   9  19  38  63  90 119 157 201 246 294 350
#
# _framework density 25.718253000000001
#
# number of rings (size 3 to 8) (size 9 to 14) (size 15 to 20)
#    0.000    2.250    0.000    1.875    0.000   14.500 
#    0.000    6.250    0.000    0.000    0.000    0.000 
#    0.000    0.000    0.000    0.000    0.000    0.000 
#
# Total GULP energy -89217.762020 kJ/mol
# GULP energy per Si atom -5576.110126 kJ/mol
# Density = 2.565972 g / cm^3
# Si number density = 25.718253 Si / 1000 Ang^3
#
#
#
# Elastic Constant Matrix: (Units=GPa)
#
#
# Indices 1 2 3 4 5 6 
#
# 1 121.8978 28.3653 36.0971 10.9174 -14.0211 16.8284
# 2 28.3653 184.7681 46.4068 22.7068 -1.1790 20.6910
# 3 36.0971 46.4068 71.4837 -6.7189 -17.1760 15.0908
# 4 10.9174 22.7068 -6.7189 25.0764 -5.4480 5.6769
# 5 -14.0211 -1.1790 -17.1760 -5.4480 35.9650 3.7026
# 6 16.8284 20.6910 15.0908 5.6769 3.7026 46.1841
#
#
#
# Elastic Compliance Matrix: (Units=1/GPa)
#
#
# Indices 1 2 3 4 5 6 
#
# 1 0.010682 0.000922 -0.006234 -0.006748 0.000346 -0.001466
# 2 0.000922 0.008861 -0.008746 -0.012047 -0.005400 0.000466
# 3 -0.006234 -0.008746 0.030800 0.024330 0.016521 -0.008189
# 4 -0.006748 -0.012047 0.024330 0.066766 0.019725 -0.009882
# 5 0.000346 -0.005400 0.016521 0.019725 0.039536 -0.008699
# 6 -0.001466 0.000466 -0.008189 -0.009882 -0.008699 0.026566
#
#
# Mechanical properties :
#
#
# Convention : Reuss Voigt Hill
#
# Bulk Modulus (GPa) = 44.99136 66.65424 55.82280
# Shear Modulus (GPa) = 22.85837 39.26380 31.06108
#
# Velocity S-wave (km/s) = 2.98451 3.91153 3.47903
# Velocity P-wave (km/s) = 5.42294 6.80980 6.15556
#
# Compressibility (1/GPa) = 0.02222649
#
# Stress axis : x y z
#
# Youngs Moduli (GPa) = 93.61760 112.84894 32.46707
#
# Poissons Ratio (x) = -0.10399 0.20239
# Poissons Ratio (y) = -0.08627 0.28397
# Poissons Ratio (z) = 0.58358 0.98702
#
# Static dielectric constant tensor:
#      x y z
#    x 2.407070 0.001750 0.175160 
#    y 0.001750 2.040470 0.031680 
#    z 0.175160 0.031680 2.171210 
# 
# From -- ./inp_files/242021.got.cif
#   From: 2010.05.17/outbox.cif.g08.bks.cpg/sg2_122_cif.got.tgz:242021.got - 2010.06.03 11:33:40.
