data_PCOD9022496
_publ_section_title
;
Structure prediction by ZEFSAII (Michael W. Deem and Ramdas Pophale) SiO2 
 PCOD9022496
Probable space group: P -1
;
_chemical_formula_sum "Si O2"
_cell_formula_units_Z 16
_cell_length_a 10.518022
_cell_length_b 11.119915
_cell_length_c 14.874172
_cell_angle_alpha 83.486679
_cell_angle_beta 80.527580
_cell_angle_gamma 26.176616
_cell_volume 754.625859
_symmetry_space_group_name_H-M "P -1"
_symmetry_group_IT_number 2
_symmetry_cell_setting 'triclinic'
loop_
_space_group_symop_operation_xyz
x,y,z
-x,-y,-z
loop_
_atom_site_type_symbol
_atom_site_label
_atom_site_fract_x
_atom_site_fract_y
_atom_site_fract_z
Si Si1 0.314032 0.775039 0.015530
Si Si2 0.741559 0.219816 0.776937
Si Si3 0.481151 0.849118 0.858297
Si Si4 0.601416 0.261180 0.278398
Si Si5 0.321023 0.390079 0.727114
Si Si6 0.458688 0.392257 0.491400
Si Si7 0.842788 0.894057 0.609816
Si Si8 0.911549 0.590391 0.106691
O O1 0.294945 0.812209 0.120277
O O2 0.500000 0.500000 0.000000
O O3 0.430143 0.788653 0.944001
O O4 0.000000 0.000000 0.000000
O O5 0.603838 0.469347 0.771044
O O6 0.561813 0.291746 0.721892
O O7 0.077650 0.951769 0.738045
O O8 0.400064 0.858168 0.771410
O O9 0.810526 0.614508 0.846714
O O10 0.290261 0.123489 0.884737
O O11 0.500912 0.332766 0.386105
O O12 0.034426 0.697042 0.693941
O O13 0.239526 0.396837 0.829932
O O14 0.512596 0.134290 0.665013
O O15 0.500000 0.500000 0.500000
O O16 0.132062 0.622590 0.536099
O O17 0.709939 0.113184 0.542992
O O18 0.000000 0.500000 0.000000
#
# Coordination Sequence:
#
# PCOD9022496 Si02
#       8
#     2   2   2   2   2   2   2   2
#     4  12  22  40  60  92 136 175 212 260 322 406
#     4  12  22  38  62  96 133 174 220 266 332 407
#     4  12  25  44  68  97 137 178 226 274 339 396
#     4  12  24  40  66 101 137 173 215 275 349 407
#     4  11  23  42  67  94 128 175 230 274 327 388
#     4  11  21  38  63  98 137 172 216 274 343 408
#     4  10  22  39  62  91 127 170 216 273 326 393
#     4  12  27  47  70  97 133 179 232 283 322 386
#
# _framework density 21.202559999999998
#
# number of rings (size 3 to 8) (size 9 to 14) (size 15 to 20)
#    0.000    0.500    2.500    7.500    0.000    2.000 
#    0.000    0.000    0.000   15.000    0.000    0.000 
#    0.000    0.000    0.000    0.000    0.000    0.000 
#
# Total GULP energy -89136.892186 kJ/mol
# GULP energy per Si atom -5571.055762 kJ/mol
# Density = 2.115430 g / cm^3
# Si number density = 21.202560 Si / 1000 Ang^3
#
#
#
# Elastic Constant Matrix: (Units=GPa)
#
#
# Indices 1 2 3 4 5 6 
#
# 1 51.1872 16.9318 45.6675 11.3441 7.2727 -1.8481
# 2 16.9318 162.4311 42.0192 -2.5145 -1.3641 -0.8413
# 3 45.6675 42.0192 172.9260 17.6096 1.0009 18.5534
# 4 11.3441 -2.5145 17.6096 45.3968 0.8996 0.5314
# 5 7.2727 -1.3641 1.0009 0.8996 21.3181 8.6718
# 6 -1.8481 -0.8413 18.5534 0.5314 8.6718 32.9536
#
#
#
# Elastic Compliance Matrix: (Units=1/GPa)
#
#
# Indices 1 2 3 4 5 6 
#
# 1 0.030772 -0.001163 -0.008419 -0.004327 -0.014156 0.010231
# 2 -0.001163 0.006703 -0.001539 0.001239 0.000513 0.000817
# 3 -0.008419 -0.001539 0.009274 -0.001601 0.005294 -0.007100
# 4 -0.004327 0.001239 -0.001601 0.023786 0.000562 0.000159
# 5 -0.014156 0.000513 0.005294 0.000562 0.059389 -0.019399
# 6 0.010231 0.000817 -0.007100 0.000159 -0.019399 0.040040
#
#
# Mechanical properties :
#
#
# Convention : Reuss Voigt Hill
#
# Bulk Modulus (GPa) = 40.80183 66.19793 53.49988
# Shear Modulus (GPa) = 24.95326 38.72876 31.84101
#
# Velocity S-wave (km/s) = 3.43432 4.27852 3.87945
# Velocity P-wave (km/s) = 5.91706 7.46305 6.73457
#
# Compressibility (1/GPa) = 0.02450871
#
# Stress axis : x y z
#
# Youngs Moduli (GPa) = 32.49759 149.17808 107.82611
#
# Poissons Ratio (x) = 0.17343 0.90778
# Poissons Ratio (y) = 0.03778 0.16591
# Poissons Ratio (z) = 0.27360 0.22953
#
# Static dielectric constant tensor:
#      x y z
#    x 1.791900 0.045230 0.029170 
#    y 0.045230 1.788360 0.047560 
#    z 0.029170 0.047560 1.820480 
# 
# From -- ./inp_files/519723.got.cif
#   From: 2010.05.17/outbox.cif.g08.bks.cpg/sg2_260_cif.got.tgz:519723.got - 2010.06.03 11:33:40.
