data_PCOD9022381
_publ_section_title
;
Structure prediction by ZEFSAII (Michael W. Deem and Ramdas Pophale) SiO2 
 PCOD9022381
Probable space group: P -1
;
_chemical_formula_sum "Si O2"
_cell_formula_units_Z 14
_cell_length_a 23.651329
_cell_length_b 25.506619
_cell_length_c 5.524563
_cell_angle_alpha 65.450670
_cell_angle_beta 64.790390
_cell_angle_gamma 10.771626
_cell_volume 563.467543
_symmetry_space_group_name_H-M "P -1"
_symmetry_group_IT_number 2
_symmetry_cell_setting 'triclinic'
loop_
_space_group_symop_operation_xyz
x,y,z
-x,-y,-z
loop_
_atom_site_type_symbol
_atom_site_label
_atom_site_fract_x
_atom_site_fract_y
_atom_site_fract_z
Si Si1 0.736036 0.953942 0.266421
Si Si2 0.086618 0.489863 0.375929
Si Si3 0.150434 0.301643 0.092198
Si Si4 0.273466 0.748784 0.671682
Si Si5 0.830313 0.377278 0.588350
Si Si6 0.079185 0.834641 0.256144
Si Si7 0.643634 0.592253 0.014912
O O1 0.443773 0.177648 0.359988
O O2 0.890639 0.829292 0.482067
O O3 0.611701 0.128755 0.069003
O O4 0.024780 0.678025 0.106657
O O5 0.000000 0.500000 0.500000
O O6 0.927579 0.656813 0.589518
O O7 0.980258 0.609054 0.081321
O O8 0.000000 0.500000 0.000000
O O9 0.500000 0.000000 0.000000
O O10 0.632997 0.423572 0.584303
O O11 0.206508 0.753033 0.946223
O O12 0.000000 0.000000 0.500000
O O13 0.203928 0.870319 0.716792
O O14 0.965815 0.191362 0.667097
O O15 0.650514 0.555744 0.331127
O O16 0.645822 0.550295 0.848413
#
# Coordination Sequence:
#
# PCOD9022381 Si02
#       7
#     2   2   2   2   2   2   2
#     4  10  26  44  68  97 134 170 225 276 332 397
#     4  10  23  42  67  95 129 169 213 268 336 395
#     4  10  22  39  61  91 123 159 207 252 317 390
#     4  10  22  40  62  97 129 169 213 269 324 383
#     4  10  26  44  69  97 133 178 224 273 330 390
#     4  10  23  38  64  93 130 167 220 264 324 387
#     4  10  26  41  68  93 133 168 228 269 332 389
#
# _framework density 24.846153000000001
#
# number of rings (size 3 to 8) (size 9 to 14) (size 15 to 20)
#    0.857    1.143    0.000    0.857    8.000    5.714 
#    2.571    0.000    0.000    0.000    0.000    0.000 
#    0.000    0.000    0.000    0.000    0.000    0.000 
#
# Total GULP energy -78203.755080 kJ/mol
# GULP energy per Si atom -5585.982506 kJ/mol
# Density = 2.478960 g / cm^3
# Si number density = 24.846153 Si / 1000 Ang^3
#
#
#
# Elastic Constant Matrix: (Units=GPa)
#
#
# Indices 1 2 3 4 5 6 
#
# 1 104.2284 -2.9969 41.8912 -4.0149 9.5060 -6.1510
# 2 -2.9969 106.2543 15.8015 -5.8834 12.3237 2.3067
# 3 41.8912 15.8015 134.1013 -15.5152 36.5828 -7.7923
# 4 -4.0149 -5.8834 -15.5152 35.0119 -3.3492 -7.2481
# 5 9.5060 12.3237 36.5828 -3.3492 43.7750 -4.5654
# 6 -6.1510 2.3067 -7.7923 -7.2481 -4.5654 45.2072
#
#
#
# Elastic Compliance Matrix: (Units=1/GPa)
#
#
# Indices 1 2 3 4 5 6 
#
# 1 0.011087 0.000777 -0.003639 0.000024 0.000511 0.000897
# 2 0.000777 0.009881 -0.000666 0.001109 -0.002369 -0.000575
# 3 -0.003639 -0.000666 0.011435 0.004037 -0.008130 0.001336
# 4 0.000024 0.001109 0.004037 0.031644 -0.000681 0.005647
# 5 0.000511 -0.002369 -0.008130 -0.000681 0.030324 0.001742
# 6 0.000897 -0.000575 0.001336 0.005647 0.001742 0.023583
#
#
# Mechanical properties :
#
#
# Convention : Reuss Voigt Hill
#
# Bulk Modulus (GPa) = 39.45425 50.44174 44.94799
# Shear Modulus (GPa) = 37.46465 44.12469 40.79467
#
# Velocity S-wave (km/s) = 3.88734 4.21873 4.05642
# Velocity P-wave (km/s) = 6.00520 6.63898 6.33002
#
# Compressibility (1/GPa) = 0.02534581
#
# Stress axis : x y z
#
# Youngs Moduli (GPa) = 90.19909 101.20492 87.45092
#
# Poissons Ratio (x) = -0.07859 0.31825
# Poissons Ratio (y) = -0.07004 0.05821
# Poissons Ratio (z) = 0.32825 0.06737
#
# Static dielectric constant tensor:
#      x y z
#    x 2.043610 -0.031620 0.022260 
#    y -0.031620 1.960110 0.009350 
#    z 0.022260 0.009350 2.024920 
# 
# From -- ./inp_files/127830.got.cif
#   From: 2010.05.17/outbox.cif.g08.bks.cpg/sg2_64_cif.got.tgz:127830.got - 2010.06.03 11:33:40.
