data_PCOD9022465
_publ_section_title
;
Structure prediction by ZEFSAII (Michael W. Deem and Ramdas Pophale) SiO2 
 PCOD9022465
Probable space group: P -1
;
_chemical_formula_sum "Si O2"
_cell_formula_units_Z 14
_cell_length_a 9.606245
_cell_length_b 11.337977
_cell_length_c 16.709095
_cell_angle_alpha 136.811399
_cell_angle_beta 138.148925
_cell_angle_gamma 76.753210
_cell_volume 603.438497
_symmetry_space_group_name_H-M "P -1"
_symmetry_group_IT_number 2
_symmetry_cell_setting 'triclinic'
loop_
_space_group_symop_operation_xyz
x,y,z
-x,-y,-z
loop_
_atom_site_type_symbol
_atom_site_label
_atom_site_fract_x
_atom_site_fract_y
_atom_site_fract_z
Si Si1 0.458609 0.778074 0.844492
Si Si2 0.061334 0.699107 0.176700
Si Si3 0.575683 0.902037 0.600472
Si Si4 0.260146 0.268725 0.834688
Si Si5 0.995222 0.488648 0.360013
Si Si6 0.988708 0.903879 0.860278
Si Si7 0.274139 0.940198 0.602065
O O1 0.234901 0.630572 0.602925
O O2 0.295071 0.610274 0.769188
O O3 0.500000 0.000000 0.000000
O O4 0.758267 0.887432 0.988416
O O5 0.252457 0.726121 0.343072
O O6 0.787439 0.647196 0.065153
O O7 0.240435 0.934541 0.315909
O O8 0.000000 0.500000 0.000000
O O9 0.694324 0.797092 0.638853
O O10 0.564128 0.041697 0.733757
O O11 0.939595 0.095996 0.572290
O O12 0.330841 0.107351 0.780116
O O13 0.500000 0.500000 0.000000
O O14 0.979307 0.284721 0.219001
O O15 0.105021 0.681956 0.436609
O O16 0.000000 0.000000 0.000000
#
# Coordination Sequence:
#
# PCOD9022465 Si02
#       7
#     2   2   2   2   2   2   2
#     4   9  21  40  59  86 121 163 210 254 309 373
#     4  10  22  41  65  90 121 163 204 257 319 369
#     4  10  23  41  60  89 127 158 206 260 306 377
#     4  10  22  39  62  89 117 156 206 255 310 371
#     4  10  22  41  63  88 125 166 212 263 312 378
#     4  11  24  40  63  95 128 169 213 259 322 381
#     4  10  22  40  60  86 120 158 203 257 310 366
#
# _framework density 23.200375000000001
#
# number of rings (size 3 to 8) (size 9 to 14) (size 15 to 20)
#    0.000    2.000    0.000    1.714    0.000   14.857 
#    0.000    0.000    0.000    0.000    0.000    0.000 
#    0.000    0.000    0.000    0.000    0.000    0.000 
#
# Total GULP energy -78145.289753 kJ/mol
# GULP energy per Si atom -5581.806411 kJ/mol
# Density = 2.314757 g / cm^3
# Si number density = 23.200375 Si / 1000 Ang^3
#
#
#
# Elastic Constant Matrix: (Units=GPa)
#
#
# Indices 1 2 3 4 5 6 
#
# 1 190.7760 39.1540 30.6394 6.6611 8.7299 -15.9418
# 2 39.1540 78.0141 7.6590 -2.6066 -0.6682 -6.6333
# 3 30.6394 7.6590 46.8966 -3.9584 -6.7724 -11.0198
# 4 6.6611 -2.6066 -3.9584 33.8084 2.2946 2.5509
# 5 8.7299 -0.6682 -6.7724 2.2946 44.7026 4.8013
# 6 -15.9418 -6.6333 -11.0198 2.5509 4.8013 35.1415
#
#
#
# Elastic Compliance Matrix: (Units=1/GPa)
#
#
# Indices 1 2 3 4 5 6 
#
# 1 0.006804 -0.002960 -0.004033 -0.002029 -0.002061 0.001692
# 2 -0.002960 0.014457 0.000077 0.001575 0.000595 0.001215
# 3 -0.004033 0.000077 0.026103 0.003164 0.003980 0.005597
# 4 -0.002029 0.001575 0.003164 0.030638 -0.000481 -0.001789
# 5 -0.002061 0.000595 0.003980 -0.000481 0.023708 -0.002779
# 6 0.001692 0.001215 0.005597 -0.001789 -0.002779 0.031718
#
#
# Mechanical properties :
#
#
# Convention : Reuss Voigt Hill
#
# Bulk Modulus (GPa) = 29.82266 52.28794 41.05530
# Shear Modulus (GPa) = 31.55847 38.61278 35.08562
#
# Velocity S-wave (km/s) = 3.69217 4.08403 3.89303
# Velocity P-wave (km/s) = 5.57301 6.69519 6.15971
#
# Compressibility (1/GPa) = 0.03353155
#
# Stress axis : x y z
#
# Youngs Moduli (GPa) = 146.98219 69.16917 38.31012
#
# Poissons Ratio (x) = 0.20476 0.15450
# Poissons Ratio (y) = 0.43510 -0.00296
# Poissons Ratio (z) = 0.59277 -0.00534
#
# Static dielectric constant tensor:
#      x y z
#    x 1.894110 0.206440 -0.018930 
#    y 0.206440 1.492750 -0.071570 
#    z -0.018930 -0.071570 1.910500 
# 
# From -- ./inp_files/71589.got.cif
#   From: 2010.05.17/outbox.cif.g08.bks.cpg/sg2_36_cif.got.tgz:71589.got - 2010.06.03 11:33:40.
