data_PCOD9022310
_publ_section_title
;
Structure prediction by ZEFSAII (Michael W. Deem and Ramdas Pophale) SiO2 
 PCOD9022310
Probable space group: P -1
;
_chemical_formula_sum "Si O2"
_cell_formula_units_Z 14
_cell_length_a 11.368963
_cell_length_b 14.549230
_cell_length_c 7.817374
_cell_angle_alpha 100.127016
_cell_angle_beta 115.029247
_cell_angle_gamma 131.517123
_cell_volume 649.251175
_symmetry_space_group_name_H-M "P -1"
_symmetry_group_IT_number 2
_symmetry_cell_setting 'triclinic'
loop_
_space_group_symop_operation_xyz
x,y,z
-x,-y,-z
loop_
_atom_site_type_symbol
_atom_site_label
_atom_site_fract_x
_atom_site_fract_y
_atom_site_fract_z
Si Si1 0.317056 0.501728 0.980233
Si Si2 0.574621 0.648486 0.544348
Si Si3 0.787695 0.762187 0.184975
Si Si4 0.229316 0.654078 0.015874
Si Si5 0.961173 0.050002 0.239128
Si Si6 0.276078 0.640704 0.434057
Si Si7 0.500260 0.888952 0.946110
O O1 0.467014 0.599880 0.274946
O O2 0.509277 0.605514 0.983972
O O3 0.169629 0.321002 0.852262
O O4 0.183890 0.518886 0.892862
O O5 0.500000 0.500000 0.500000
O O6 0.454762 0.661745 0.576089
O O7 0.847792 0.820369 0.745030
O O8 0.911496 0.854897 0.471020
O O9 0.876824 0.893118 0.153851
O O10 0.425484 0.805244 0.058451
O O11 0.983656 0.555235 0.793542
O O12 0.295837 0.696112 0.271422
O O13 0.747314 0.993200 0.080374
O O14 0.326373 0.744723 0.648245
O O15 0.500000 0.000000 0.000000
#
# Coordination Sequence:
#
# PCOD9022310 Si02
#       7
#     2   2   2   2   2   2   2
#     4   9  18  36  64  92 117 170 220 258 329 383
#     4  10  23  40  62  91 133 173 216 272 328 389
#     4   9  18  35  63  92 121 164 213 271 320 385
#     4  10  22  47  69  91 134 174 224 272 317 401
#     4  10  22  39  60  95 135 165 220 271 326 393
#     4  10  25  45  67  96 130 177 224 268 326 391
#     4  12  27  42  67 101 133 177 218 272 335 388
#
# _framework density 21.563303000000001
#
# number of rings (size 3 to 8) (size 9 to 14) (size 15 to 20)
#    0.000    2.000    1.429    0.429    8.000    2.286 
#    0.000    0.000    0.000    0.000    0.000    0.000 
#    0.000    0.000    0.000    0.000    0.000    0.000 
#
# Total GULP energy -78158.694081 kJ/mol
# GULP energy per Si atom -5582.763863 kJ/mol
# Density = 2.151422 g / cm^3
# Si number density = 21.563303 Si / 1000 Ang^3
#
#
#
# Elastic Constant Matrix: (Units=GPa)
#
#
# Indices 1 2 3 4 5 6 
#
# 1 69.2649 38.6900 13.9283 4.4297 1.9732 -13.8388
# 2 38.6900 71.3867 15.1038 16.8215 2.8614 -13.8366
# 3 13.9283 15.1038 70.8622 -5.8102 3.8886 4.8846
# 4 4.4297 16.8215 -5.8102 26.6638 3.6905 -6.9821
# 5 1.9732 2.8614 3.8886 3.6905 45.9239 6.2252
# 6 -13.8388 -13.8366 4.8846 -6.9821 6.2252 31.6279
#
#
#
# Elastic Compliance Matrix: (Units=1/GPa)
#
#
# Indices 1 2 3 4 5 6 
#
# 1 0.022260 -0.011579 -0.001857 0.005048 -0.001343 0.006340
# 2 -0.011579 0.025239 -0.004498 -0.014034 -0.000052 0.003582
# 3 -0.001857 -0.004498 0.016228 0.005818 -0.000965 -0.003813
# 4 0.005048 -0.014034 0.005818 0.049271 -0.004741 0.006981
# 5 -0.001343 -0.000052 -0.000965 -0.004741 0.023120 -0.006058
# 6 0.006340 0.003582 -0.003813 0.006981 -0.006058 0.039281
#
#
# Mechanical properties :
#
#
# Convention : Reuss Voigt Hill
#
# Bulk Modulus (GPa) = 35.89409 38.55091 37.22250
# Shear Modulus (GPa) = 22.67018 30.42923 26.54971
#
# Velocity S-wave (km/s) = 3.24594 3.76061 3.51272
# Velocity P-wave (km/s) = 5.54349 6.06408 5.80962
#
# Compressibility (1/GPa) = 0.02785974
#
# Stress axis : x y z
#
# Youngs Moduli (GPa) = 44.92274 39.62177 61.62013
#
# Poissons Ratio (x) = 0.45876 0.11443
# Poissons Ratio (y) = 0.52014 0.27719
# Poissons Ratio (z) = 0.08342 0.17823
#
# Static dielectric constant tensor:
#      x y z
#    x 1.843490 0.025980 -0.000140 
#    y 0.025980 1.781950 0.005660 
#    z -0.000140 0.005660 1.794750 
# 
# From -- ./inp_files/270505.got.cif
#   From: 2010.05.17/outbox.cif.g08.bks.cpg/sg2_136_cif.got.tgz:270505.got - 2010.06.03 11:33:40.
