data_PCOD9022030
_publ_section_title
;
Structure prediction by ZEFSAII (Michael W. Deem and Ramdas Pophale) SiO2 
 PCOD9022030
Probable space group: P -1
;
_chemical_formula_sum "Si O2"
_cell_formula_units_Z 16
_cell_length_a 9.140144
_cell_length_b 9.153044
_cell_length_c 16.035048
_cell_angle_alpha 116.426484
_cell_angle_beta 130.824298
_cell_angle_gamma 96.617313
_cell_volume 727.651119
_symmetry_space_group_name_H-M "P -1"
_symmetry_group_IT_number 2
_symmetry_cell_setting 'triclinic'
loop_
_space_group_symop_operation_xyz
x,y,z
-x,-y,-z
loop_
_atom_site_type_symbol
_atom_site_label
_atom_site_fract_x
_atom_site_fract_y
_atom_site_fract_z
Si Si1 0.682051 0.252207 0.391231
Si Si2 0.106390 0.032585 0.286290
Si Si3 0.238613 0.240098 0.644570
Si Si4 0.749389 0.360472 0.927428
Si Si5 0.884867 0.628350 0.203405
Si Si6 0.830398 0.023799 0.887783
Si Si7 0.387145 0.805511 0.467008
Si Si8 0.029200 0.286611 0.412922
O O1 0.648865 0.149245 0.441103
O O2 0.873885 0.493702 0.528722
O O3 0.777848 0.181739 0.339389
O O4 0.426203 0.196195 0.260009
O O5 0.394230 0.209687 0.450243
O O6 0.991024 0.146702 0.287267
O O7 0.073048 0.935974 0.160266
O O8 0.998147 0.854127 0.267739
O O9 0.500676 0.283128 0.765044
O O10 0.217565 0.367489 0.743475
O O11 0.203553 0.305240 0.556623
O O12 0.000000 0.000000 0.500000
O O13 0.767705 0.181681 0.919835
O O14 0.737561 0.471995 0.033359
O O15 0.000000 0.500000 0.000000
O O16 0.118704 0.626801 0.295609
O O17 0.000000 0.000000 0.000000
O O18 0.500000 0.000000 0.500000
#
# Coordination Sequence:
#
# PCOD9022030 Si02
#       8
#     2   2   2   2   2   2   2   2
#     4  10  23  43  65  98 141 182 243 292 350 429
#     4  10  22  38  68  99 137 178 239 295 346 423
#     4  12  25  43  75 103 140 189 239 292 354 422
#     4  12  28  44  71 103 144 184 239 299 354 423
#     4  11  22  41  67 103 141 174 234 292 357 409
#     4  11  26  47  66  94 142 193 231 288 363 432
#     4   9  20  37  65  97 131 179 229 293 345 417
#     4  11  23  40  70 104 137 180 238 302 354 416
#
# _framework density 21.988558000000001
#
# number of rings (size 3 to 8) (size 9 to 14) (size 15 to 20)
#    0.000    1.250    3.750    1.125    5.250    3.000 
#    0.000    0.625    0.000    0.000    0.000    0.000 
#    0.000    0.000    0.000    0.000    0.000    0.000 
#
# Total GULP energy -89146.429014 kJ/mol
# GULP energy per Si atom -5571.651813 kJ/mol
# Density = 2.193851 g / cm^3
# Si number density = 21.988558 Si / 1000 Ang^3
#
#
#
# Elastic Constant Matrix: (Units=GPa)
#
#
# Indices 1 2 3 4 5 6 
#
# 1 106.5033 34.7246 18.5433 6.0323 -14.3548 3.6077
# 2 34.7246 52.3682 12.3678 -5.2992 10.8020 0.9709
# 3 18.5433 12.3678 75.5913 -16.4534 8.8874 2.5466
# 4 6.0323 -5.2992 -16.4534 26.8961 -13.5582 0.8790
# 5 -14.3548 10.8020 8.8874 -13.5582 32.9340 8.5054
# 6 3.6077 0.9709 2.5466 0.8790 8.5054 23.4465
#
#
#
# Elastic Compliance Matrix: (Units=1/GPa)
#
#
# Indices 1 2 3 4 5 6 
#
# 1 0.016219 -0.012671 -0.003561 -0.001436 0.013230 -0.006330
# 2 -0.012671 0.031011 -0.000193 -0.000256 -0.017574 0.007071
# 3 -0.003561 -0.000193 0.016561 0.010177 -0.001488 -0.001085
# 4 -0.001436 -0.000256 0.010177 0.055293 0.022328 -0.011046
# 5 0.013230 -0.017574 -0.001488 0.022328 0.057375 -0.022796
# 6 -0.006330 0.007071 -0.001085 -0.011046 -0.022796 0.052133
#
#
# Mechanical properties :
#
#
# Convention : Reuss Voigt Hill
#
# Bulk Modulus (GPa) = 32.31903 40.63713 36.47808
# Shear Modulus (GPa) = 18.39888 27.91046 23.15467
#
# Velocity S-wave (km/s) = 2.89580 3.56661 3.24857
# Velocity P-wave (km/s) = 5.09027 5.95669 5.54044
#
# Compressibility (1/GPa) = 0.03094152
#
# Stress axis : x y z
#
# Youngs Moduli (GPa) = 61.65444 32.24661 60.38406
#
# Poissons Ratio (x) = 0.40859 0.21500
# Poissons Ratio (y) = 0.78122 0.01168
# Poissons Ratio (z) = 0.21952 0.00624
#
# Static dielectric constant tensor:
#      x y z
#    x 1.873220 0.028790 0.004900 
#    y 0.028790 1.854540 -0.045850 
#    z 0.004900 -0.045850 1.907850 
# 
# From -- ./inp_files/495519.got.cif
#   From: 2010.05.17/outbox.cif.g08.bks.cpg/sg2_248_cif.got.tgz:495519.got - 2010.06.03 11:33:40.
