data_PCOD9022231
_publ_section_title
;
Structure prediction by ZEFSAII (Michael W. Deem and Ramdas Pophale) SiO2 
 PCOD9022231
Probable space group: P -1
;
_chemical_formula_sum "Si O2"
_cell_formula_units_Z 16
_cell_length_a 14.115045
_cell_length_b 5.103323
_cell_length_c 10.519651
_cell_angle_alpha 90.250575
_cell_angle_beta 76.219979
_cell_angle_gamma 87.697178
_cell_volume 735.287866
_symmetry_space_group_name_H-M "P -1"
_symmetry_group_IT_number 2
_symmetry_cell_setting 'triclinic'
loop_
_space_group_symop_operation_xyz
x,y,z
-x,-y,-z
loop_
_atom_site_type_symbol
_atom_site_label
_atom_site_fract_x
_atom_site_fract_y
_atom_site_fract_z
Si Si1 0.293509 0.322411 0.694775
Si Si2 0.046417 0.419991 0.677219
Si Si3 0.832558 0.177576 0.201877
Si Si4 0.838551 0.615184 0.743996
Si Si5 0.933043 0.324831 0.934341
Si Si6 0.883846 0.971049 0.540863
Si Si7 0.713109 0.393829 0.573916
Si Si8 0.504939 0.248919 0.589408
O O1 0.089647 0.677067 0.729662
O O2 0.246268 0.575636 0.781600
O O3 0.299941 0.417770 0.544882
O O4 0.404849 0.257861 0.701094
O O5 0.117567 0.273663 0.556891
O O6 0.941160 0.494738 0.650811
O O7 0.225976 0.074538 0.737438
O O8 0.881076 0.136033 0.046972
O O9 0.989058 0.771438 0.198526
O O10 0.854740 0.510561 0.880474
O O11 0.850927 0.913480 0.696799
O O12 0.746161 0.529998 0.693968
O O13 0.000000 0.500000 0.000000
O O14 0.802998 0.184298 0.520594
O O15 0.000000 0.000000 0.500000
O O16 0.610292 0.255629 0.622189
O O17 0.500000 0.500000 0.500000
O O18 0.500000 0.000000 0.500000
#
# Coordination Sequence:
#
# PCOD9022231 Si02
#       8
#     2   2   2   2   2   2   2   2
#     4  11  25  41  68  96 125 168 216 275 321 378
#     4   9  21  38  62  93 131 170 211 258 309 386
#     4  11  23  43  67  92 129 170 222 261 313 372
#     4  10  22  39  59  95 129 177 207 261 320 382
#     4   8  19  43  61  91 126 180 222 261 305 375
#     4  12  23  36  61  98 139 164 208 253 327 396
#     4  11  25  40  65  97 134 170 203 269 334 393
#     4  10  23  42  63  96 130 161 212 267 330 388
#
# _framework density 21.760183999999999
#
# number of rings (size 3 to 8) (size 9 to 14) (size 15 to 20)
#    0.750    1.000    1.250    2.625   10.500    0.000 
#    4.500    3.125    0.000    1.500    0.000    0.000 
#    0.000    0.000    0.000    0.000    0.000    0.000 
#
# Total GULP energy -89149.941058 kJ/mol
# GULP energy per Si atom -5571.871316 kJ/mol
# Density = 2.171066 g / cm^3
# Si number density = 21.760184 Si / 1000 Ang^3
#
#
#
# Elastic Constant Matrix: (Units=GPa)
#
#
# Indices 1 2 3 4 5 6 
#
# 1 188.3907 32.4337 33.4638 -15.3067 4.9843 13.1428
# 2 32.4337 112.9978 27.8038 -18.9622 -3.0893 10.1553
# 3 33.4638 27.8038 92.3241 -32.4214 6.7220 9.3689
# 4 -15.3067 -18.9622 -32.4214 34.1617 -0.9446 -5.3063
# 5 4.9843 -3.0893 6.7220 -0.9446 24.9685 -0.6024
# 6 13.1428 10.1553 9.3689 -5.3063 -0.6024 32.5929
#
#
#
# Elastic Compliance Matrix: (Units=1/GPa)
#
#
# Indices 1 2 3 4 5 6 
#
# 1 0.005930 -0.001171 -0.001436 0.000374 -0.000966 -0.001571
# 2 -0.001171 0.010353 -0.001355 0.003723 0.001979 -0.001721
# 3 -0.001436 -0.001355 0.017405 0.014750 -0.004049 -0.001675
# 4 0.000374 0.003723 0.014750 0.045745 -0.001809 0.001863
# 5 -0.000966 0.001979 -0.004049 -0.001809 0.041544 0.001410
# 6 -0.001571 -0.001721 -0.001675 0.001863 0.001410 0.032662
#
#
# Mechanical properties :
#
#
# Convention : Reuss Voigt Hill
#
# Bulk Modulus (GPa) = 38.81569 64.56836 51.69202
# Shear Modulus (GPa) = 29.38566 38.34538 33.86552
#
# Velocity S-wave (km/s) = 3.67881 4.20239 3.94929
# Velocity P-wave (km/s) = 5.99346 7.29958 6.67853
#
# Compressibility (1/GPa) = 0.02576278
#
# Stress axis : x y z
#
# Youngs Moduli (GPa) = 168.62479 96.59055 57.45611
#
# Poissons Ratio (x) = 0.11315 0.08250
# Poissons Ratio (y) = 0.19754 0.07787
# Poissons Ratio (z) = 0.24211 0.13091
#
# Static dielectric constant tensor:
#      x y z
#    x 1.869630 0.025380 0.023360 
#    y 0.025380 2.027320 -0.056140 
#    z 0.023360 -0.056140 1.886940 
# 
# From -- ./inp_files/410544.got.cif
#   From: 2010.05.17/outbox.cif.g08.bks.cpg/sg2_206_cif.got.tgz:410544.got - 2010.06.03 11:33:40.
