data_PCOD9022895
_publ_section_title
;
Structure prediction by ZEFSAII (Michael W. Deem and Ramdas Pophale) SiO2 
 PCOD9022895
Probable space group: P -1
;
_chemical_formula_sum "Si O2"
_cell_formula_units_Z 12
_cell_length_a 18.720300
_cell_length_b 4.825141
_cell_length_c 5.138112
_cell_angle_alpha 88.873707
_cell_angle_beta 75.216674
_cell_angle_gamma 81.664765
_cell_volume 443.939385
_symmetry_space_group_name_H-M "P -1"
_symmetry_group_IT_number 2
_symmetry_cell_setting 'triclinic'
loop_
_space_group_symop_operation_xyz
x,y,z
-x,-y,-z
loop_
_atom_site_type_symbol
_atom_site_label
_atom_site_fract_x
_atom_site_fract_y
_atom_site_fract_z
Si Si1 0.151736 0.841723 0.202941
Si Si2 0.561953 0.745827 0.184031
Si Si3 0.950285 0.589561 0.795361
Si Si4 0.409485 0.654296 0.335469
Si Si5 0.746537 0.426598 0.517914
Si Si6 0.718656 0.828267 0.042791
O O1 0.120826 0.573338 0.127662
O O2 0.176079 0.768497 0.481575
O O3 0.084479 0.089234 0.214251
O O4 0.226574 0.938982 0.014504
O O5 0.473088 0.857644 0.268713
O O6 0.575951 0.542949 0.423075
O O7 0.628863 0.932728 0.126622
O O8 0.576098 0.546730 0.923840
O O9 0.000000 0.500000 0.500000
O O10 0.000000 0.500000 0.000000
O O11 0.321399 0.758539 0.418405
O O12 0.738024 0.625960 0.274708
O O13 0.734343 0.636282 0.774052
#
# Coordination Sequence:
#
# PCOD9022895 Si02
#       6
#     2   2   2   2   2   2
#     4  12  26  50  77 106 144 178 230 282 349 414
#     4   8  14  28  52  85 129 177 226 275 325 385
#     4  12  30  52  78 106 139 180 223 280 350 428
#     4   8  14  28  52  85 129 177 226 275 325 385
#     4  10  22  39  65 101 138 183 230 281 340 396
#     4  10  22  39  65 101 138 183 230 281 340 396
#
# _framework density 27.030714
#
# number of rings (size 3 to 8) (size 9 to 14) (size 15 to 20)
#    0.000    2.000    1.667    1.000    2.333    4.000 
#    0.000    0.833    0.000    0.000    0.000   23.333 
#    0.000    0.000    0.000    0.000    0.000    0.000 
#
# Total GULP energy -67306.654543 kJ/mol
# GULP energy per Si atom -5608.887879 kJ/mol
# Density = 2.696919 g / cm^3
# Si number density = 27.030714 Si / 1000 Ang^3
#
#
#
# Elastic Constant Matrix: (Units=GPa)
#
#
# Indices 1 2 3 4 5 6 
#
# 1 195.4140 9.9978 47.9413 -6.8648 11.1100 10.7135
# 2 9.9978 86.6679 31.7041 -11.8536 12.5413 -8.5256
# 3 47.9413 31.7041 192.1440 -2.9009 22.7724 4.9713
# 4 -6.8648 -11.8536 -2.9009 33.8721 0.1816 -1.7954
# 5 11.1100 12.5413 22.7724 0.1816 58.6985 -14.5583
# 6 10.7135 -8.5256 4.9713 -1.7954 -14.5583 50.5356
#
#
#
# Elastic Compliance Matrix: (Units=1/GPa)
#
#
# Indices 1 2 3 4 5 6 
#
# 1 0.005576 -0.000065 -0.001228 0.000939 -0.000890 -0.001295
# 2 -0.000065 0.013341 -0.001990 0.004609 -0.001540 0.002180
# 3 -0.001228 -0.001990 0.006105 -0.000479 -0.002026 -0.001277
# 4 0.000939 0.004609 -0.000479 0.031370 -0.000691 0.001541
# 5 -0.000890 -0.001540 -0.002026 -0.000691 0.019759 0.005796
# 6 -0.001295 0.002180 -0.001277 0.001541 0.005796 0.022280
#
#
# Mechanical properties :
#
#
# Convention : Reuss Voigt Hill
#
# Bulk Modulus (GPa) = 54.17348 72.61247 63.39297
# Shear Modulus (GPa) = 44.98463 54.26008 49.62236
#
# Velocity S-wave (km/s) = 4.08389 4.48521 4.28924
# Velocity P-wave (km/s) = 6.50558 7.33103 6.93060
#
# Compressibility (1/GPa) = 0.01845922
#
# Stress axis : x y z
#
# Youngs Moduli (GPa) = 179.32832 74.95556 163.80191
#
# Poissons Ratio (x) = 0.00484 0.20108
# Poissons Ratio (y) = 0.01157 0.32589
# Poissons Ratio (z) = 0.22014 0.14913
#
# Static dielectric constant tensor:
#      x y z
#    x 2.145520 -0.016510 -0.022170 
#    y -0.016510 2.053820 0.033330 
#    z -0.022170 0.033330 2.147580 
# 
# From -- ./inp_files/10258.got.cif
#   From: 2010.05.17/outbox.cif.g08.bks.cpg/sg2_6_cif.got.tgz:10258.got - 2010.06.03 11:33:40.
