data_PCOD9022293
_publ_section_title
;
Structure prediction by ZEFSAII (Michael W. Deem and Ramdas Pophale) SiO2 
 PCOD9022293
Probable space group: P -1
;
_chemical_formula_sum "Si O2"
_cell_formula_units_Z 16
_cell_length_a 12.731268
_cell_length_b 20.925530
_cell_length_c 8.918263
_cell_angle_alpha 139.079220
_cell_angle_beta 65.508839
_cell_angle_gamma 145.412000
_cell_volume 733.067409
_symmetry_space_group_name_H-M "P -1"
_symmetry_group_IT_number 2
_symmetry_cell_setting 'triclinic'
loop_
_space_group_symop_operation_xyz
x,y,z
-x,-y,-z
loop_
_atom_site_type_symbol
_atom_site_label
_atom_site_fract_x
_atom_site_fract_y
_atom_site_fract_z
Si Si1 0.325028 0.436207 0.395693
Si Si2 0.233511 0.768573 0.108780
Si Si3 0.290629 0.921101 0.652148
Si Si4 0.885511 0.011716 0.016544
Si Si5 0.822438 0.726771 0.122893
Si Si6 0.712280 0.864438 0.535805
Si Si7 0.231652 0.500415 0.076633
Si Si8 0.166438 0.499050 0.763439
O O1 0.500000 0.500000 0.500000
O O2 0.318278 0.542676 0.642740
O O3 0.322694 0.418236 0.187765
O O4 0.090281 0.221869 0.204691
O O5 0.275266 0.875970 0.408392
O O6 0.464416 0.929183 0.166855
O O7 0.204466 0.640131 0.968391
O O8 0.991201 0.619541 0.923538
O O9 0.092366 0.718701 0.492134
O O10 0.243563 0.002722 0.832199
O O11 0.740990 0.878546 0.722221
O O12 0.000000 0.000000 0.000000
O O13 0.752589 0.786278 0.304910
O O14 0.777633 0.621384 0.098547
O O15 0.085935 0.923108 0.271784
O O16 0.462261 0.712753 0.373099
O O17 0.216147 0.507532 0.921300
#
# Coordination Sequence:
#
# PCOD9022293 Si02
#       8
#     2   2   2   2   2   2   2   2
#     4  10  22  39  60  92 121 161 204 256 305 366
#     4  10  22  39  64  92 120 169 209 253 305 362
#     4   9  20  39  58  89 125 152 212 254 296 361
#     4  10  23  37  62  92 120 161 201 257 314 362
#     4  10  23  40  58  89 129 163 203 248 317 367
#     4  10  23  40  58  88 130 162 202 252 313 371
#     4  11  22  37  64  88 119 166 205 256 305 360
#     4  10  22  39  63  92 123 160 214 252 304 359
#
# _framework density 21.826094999999999
#
# number of rings (size 3 to 8) (size 9 to 14) (size 15 to 20)
#    0.000    2.000    0.000    2.625    8.750    4.000 
#    0.000    2.500    0.000    6.750    0.000    0.000 
#    0.000    0.000    0.000    0.000    0.000    0.000 
#
# Total GULP energy -89357.378361 kJ/mol
# GULP energy per Si atom -5584.836148 kJ/mol
# Density = 2.177642 g / cm^3
# Si number density = 21.826095 Si / 1000 Ang^3
#
#
#
# Elastic Constant Matrix: (Units=GPa)
#
#
# Indices 1 2 3 4 5 6 
#
# 1 55.7882 33.7664 46.9854 0.6501 2.3666 19.8506
# 2 33.7664 61.5942 49.7025 14.7950 2.2561 20.5241
# 3 46.9854 49.7025 112.7358 9.5431 8.2729 18.3231
# 4 0.6501 14.7950 9.5431 35.1684 16.9356 -0.7008
# 5 2.3666 2.2561 8.2729 16.9356 36.9104 10.1195
# 6 19.8506 20.5241 18.3231 -0.7008 10.1195 43.5213
#
#
#
# Elastic Compliance Matrix: (Units=1/GPa)
#
#
# Indices 1 2 3 4 5 6 
#
# 1 0.034382 -0.011149 -0.008887 0.006768 -0.000891 -0.006367
# 2 -0.011149 0.038536 -0.009597 -0.019937 0.013059 -0.012405
# 3 -0.008887 -0.009597 0.016537 0.001714 -0.004045 0.002585
# 4 0.006768 -0.019937 0.001714 0.048651 -0.025282 0.012255
# 5 -0.000891 0.013059 -0.004045 -0.025282 0.042809 -0.014410
# 6 -0.006367 -0.012405 0.002585 0.012255 -0.014410 0.034190
#
#
# Mechanical properties :
#
#
# Convention : Reuss Voigt Hill
#
# Bulk Modulus (GPa) = 33.12574 54.55853 43.84213
# Shear Modulus (GPa) = 17.57877 29.76427 23.67152
#
# Velocity S-wave (km/s) = 2.84104 3.69684 3.29683
# Velocity P-wave (km/s) = 5.09628 6.57825 5.88411
#
# Compressibility (1/GPa) = 0.03018801
#
# Stress axis : x y z
#
# Youngs Moduli (GPa) = 29.08501 25.94996 60.47046
#
# Poissons Ratio (x) = 0.28931 0.53740
# Poissons Ratio (y) = 0.32427 0.58036
# Poissons Ratio (z) = 0.25848 0.24905
#
# Static dielectric constant tensor:
#      x y z
#    x 1.844970 0.058400 0.044400 
#    y 0.058400 1.850290 0.025500 
#    z 0.044400 0.025500 1.830960 
# 
# From -- ./inp_files/283366.got.cif
#   From: 2010.05.17/outbox.cif.g08.bks.cpg/sg2_142_cif.got.tgz:283366.got - 2010.06.03 11:33:40.
