data_PCOD9022262
_publ_section_title
;
Structure prediction by ZEFSAII (Michael W. Deem and Ramdas Pophale) SiO2 
 PCOD9022262
Probable space group: P -1
;
_chemical_formula_sum "Si O2"
_cell_formula_units_Z 16
_cell_length_a 15.695315
_cell_length_b 8.700261
_cell_length_c 11.427222
_cell_angle_alpha 144.252313
_cell_angle_beta 125.684582
_cell_angle_gamma 65.363552
_cell_volume 735.180820
_symmetry_space_group_name_H-M "P -1"
_symmetry_group_IT_number 2
_symmetry_cell_setting 'triclinic'
loop_
_space_group_symop_operation_xyz
x,y,z
-x,-y,-z
loop_
_atom_site_type_symbol
_atom_site_label
_atom_site_fract_x
_atom_site_fract_y
_atom_site_fract_z
Si Si1 0.762959 0.557805 0.915254
Si Si2 0.063952 0.770377 0.676557
Si Si3 0.121472 0.934000 0.573553
Si Si4 0.378717 0.282682 0.543067
Si Si5 0.744759 0.877912 0.878105
Si Si6 0.922866 0.239292 0.813572
Si Si7 0.416441 0.899350 0.527358
Si Si8 0.542694 0.102399 0.971857
O O1 0.787901 0.671212 0.874374
O O2 0.840839 0.357111 0.904930
O O3 0.650726 0.387813 0.709548
O O4 0.791293 0.821310 0.175926
O O5 0.109369 0.755936 0.570918
O O6 0.000000 0.500000 0.500000
O O7 0.985934 0.001627 0.755855
O O8 0.164388 0.874660 0.901028
O O9 0.145221 0.839850 0.405977
O O10 0.000000 0.000000 0.500000
O O11 0.287403 0.246887 0.350129
O O12 0.473505 0.152156 0.475635
O O13 0.358472 0.108126 0.535406
O O14 0.418069 0.585262 0.793774
O O15 0.642321 0.965302 0.917616
O O16 0.000000 0.500000 0.000000
O O17 0.448484 0.021759 0.754526
O O18 0.500000 0.000000 0.000000
#
# Coordination Sequence:
#
# PCOD9022262 Si02
#       8
#     2   2   2   2   2   2   2   2
#     4  11  21  37  62  89 116 156 214 244 301 367
#     4  10  22  40  60  91 126 159 204 258 304 357
#     4   9  19  36  59  80 116 157 196 250 292 348
#     4  10  22  41  60  84 128 155 194 256 309 364
#     4  10  22  39  60  89 121 158 203 254 304 362
#     4  11  20  40  62  83 120 166 202 248 299 365
#     4  10  23  39  60  91 119 160 199 248 309 372
#     4  11  22  39  63  90 121 158 201 254 305 369
#
# _framework density 21.763352000000001
#
# number of rings (size 3 to 8) (size 9 to 14) (size 15 to 20)
#    0.000    1.750    3.750    1.875    0.000   10.000 
#    0.000    0.625    0.000    0.000    0.000    0.000 
#    0.000    0.000    0.000    0.000    0.000    0.000 
#
# Total GULP energy -89236.599320 kJ/mol
# GULP energy per Si atom -5577.287458 kJ/mol
# Density = 2.171382 g / cm^3
# Si number density = 21.763352 Si / 1000 Ang^3
#
#
#
# Elastic Constant Matrix: (Units=GPa)
#
#
# Indices 1 2 3 4 5 6 
#
# 1 36.0672 23.2686 31.5917 0.5280 10.2780 8.3014
# 2 23.2686 90.4347 76.2596 5.4041 4.3322 6.4339
# 3 31.5917 76.2596 187.0317 -16.7857 31.7586 28.7824
# 4 0.5280 5.4041 -16.7857 42.4425 0.8614 3.5942
# 5 10.2780 4.3322 31.7586 0.8614 37.4537 7.0772
# 6 8.3014 6.4339 28.7824 3.5942 7.0772 28.1991
#
#
#
# Elastic Compliance Matrix: (Units=1/GPa)
#
#
# Indices 1 2 3 4 5 6 
#
# 1 0.037282 -0.008508 -0.000354 0.001220 -0.007670 -0.006903
# 2 -0.008508 0.021646 -0.010469 -0.007564 0.007496 0.007334
# 3 -0.000354 -0.010469 0.013295 0.007608 -0.008255 -0.009975
# 4 0.001220 -0.007564 0.007608 0.028361 -0.004903 -0.008783
# 5 -0.007670 0.007496 -0.008255 -0.004903 0.034891 0.000842
# 6 -0.006903 0.007334 -0.009975 -0.008783 0.000842 0.046910
#
#
# Mechanical properties :
#
#
# Convention : Reuss Voigt Hill
#
# Bulk Modulus (GPa) = 29.79764 63.97481 46.88623
# Shear Modulus (GPa) = 21.52991 33.77996 27.65494
#
# Velocity S-wave (km/s) = 3.14868 3.94401 3.56857
# Velocity P-wave (km/s) = 5.19041 7.08518 6.21048
#
# Compressibility (1/GPa) = 0.03355970
#
# Stress axis : x y z
#
# Youngs Moduli (GPa) = 26.82261 46.19733 75.21801
#
# Poissons Ratio (x) = 0.39307 0.02662
# Poissons Ratio (y) = 0.22822 0.78748
# Poissons Ratio (z) = 0.00949 0.48365
#
# Static dielectric constant tensor:
#      x y z
#    x 1.887600 -0.048260 -0.016870 
#    y -0.048260 1.837410 -0.015700 
#    z -0.016870 -0.015700 1.853030 
# 
# From -- ./inp_files/462634.got.cif
#   From: 2010.05.17/outbox.cif.g08.bks.cpg/sg2_232_cif.got.tgz:462634.got - 2010.06.03 11:33:40.
