data_PCOD9022029
_publ_section_title
;
Structure prediction by ZEFSAII (Michael W. Deem and Ramdas Pophale) SiO2 
 PCOD9022029
Probable space group: P -1
;
_chemical_formula_sum "Si O2"
_cell_formula_units_Z 15
_cell_length_a 11.876974
_cell_length_b 5.113206
_cell_length_c 10.582812
_cell_angle_alpha 71.427942
_cell_angle_beta 103.536515
_cell_angle_gamma 115.523976
_cell_volume 546.229107
_symmetry_space_group_name_H-M "P -1"
_symmetry_group_IT_number 2
_symmetry_cell_setting 'triclinic'
loop_
_space_group_symop_operation_xyz
x,y,z
-x,-y,-z
loop_
_atom_site_type_symbol
_atom_site_label
_atom_site_fract_x
_atom_site_fract_y
_atom_site_fract_z
Si Si1 0.500000 0.500000 0.000000
Si Si2 0.966552 0.713783 0.627416
Si Si3 0.292909 0.867305 0.947158
Si Si4 0.316915 0.502346 0.426231
Si Si5 0.573890 0.974681 0.371834
Si Si6 0.062618 0.928801 0.900648
Si Si7 0.803363 0.441276 0.284190
Si Si8 0.574906 0.434278 0.811675
O O1 0.486267 0.366015 0.167357
O O2 0.386742 0.184640 0.971208
O O3 0.065231 0.567534 0.638970
O O4 0.822322 0.515177 0.591289
O O5 0.984321 0.786805 0.773333
O O6 0.000000 0.000000 0.500000
O O7 0.368771 0.651268 0.031843
O O8 0.243329 0.797925 0.803917
O O9 0.156690 0.770370 0.995336
O O10 0.434204 0.821574 0.422566
O O11 0.353363 0.243852 0.536857
O O12 0.323627 0.429645 0.288177
O O13 0.525839 0.848361 0.237672
O O14 0.682592 0.307171 0.363035
O O15 0.161183 0.241049 0.820185
O O16 0.000000 0.000000 0.000000
#
# Coordination Sequence:
#
# PCOD9022029 Si02
#       8
#     1   2   2   2   2   2   2   2
#     4  12  22  36  66 102 136 172 232 276 356 424
#     4  11  24  44  74 100 139 191 235 294 355 424
#     4  11  24  39  65  99 140 180 224 290 348 419
#     4   9  20  40  70  97 134 175 233 282 351 413
#     4   9  19  40  70  95 132 178 218 293 349 405
#     4  11  29  44  69 103 141 187 242 292 346 430
#     4  11  23  45  67  98 141 182 236 287 355 416
#     4  10  22  38  68  98 137 179 222 286 356 417
#
# _framework density 27.461003000000002
#
# number of rings (size 3 to 8) (size 9 to 14) (size 15 to 20)
#    0.800    0.800    2.667    1.200    7.467    1.600 
#    0.000    0.000    0.000    2.400    0.000    0.000 
#    0.000    0.000    0.000    0.000    0.000    0.000 
#
# Total GULP energy -83564.501169 kJ/mol
# GULP energy per Si atom -5570.966745 kJ/mol
# Density = 2.739850 g / cm^3
# Si number density = 27.461003 Si / 1000 Ang^3
#
#
#
# Elastic Constant Matrix: (Units=GPa)
#
#
# Indices 1 2 3 4 5 6 
#
# 1 156.6879 47.6635 56.2401 26.7823 13.5015 35.3007
# 2 47.6635 132.7606 46.3845 17.6965 0.6661 26.8867
# 3 56.2401 46.3845 109.7328 15.9252 2.6805 17.9853
# 4 26.7823 17.6965 15.9252 39.7145 8.9318 7.4971
# 5 13.5015 0.6661 2.6805 8.9318 52.7521 7.1145
# 6 35.3007 26.8867 17.9853 7.4971 7.1145 36.1668
#
#
#
# Elastic Compliance Matrix: (Units=1/GPa)
#
#
# Indices 1 2 3 4 5 6 
#
# 1 0.009923 -0.000593 -0.003175 -0.003695 -0.000837 -0.006736
# 2 -0.000593 0.010093 -0.002794 -0.002258 0.001265 -0.005316
# 3 -0.003175 -0.002794 0.012244 -0.001520 0.000579 -0.000712
# 4 -0.003695 -0.002258 -0.001520 0.030100 -0.004128 0.000614
# 5 -0.000837 0.001265 0.000579 -0.004128 0.020303 -0.003550
# 6 -0.006736 -0.005316 -0.000712 0.000614 -0.003550 0.039101
#
#
# Mechanical properties :
#
#
# Convention : Reuss Voigt Hill
#
# Bulk Modulus (GPa) = 52.25513 77.75083 65.00298
# Shear Modulus (GPa) = 35.39429 42.31956 38.85692
#
# Velocity S-wave (km/s) = 3.59401 3.92992 3.76571
# Velocity P-wave (km/s) = 6.02434 6.99764 6.52915
#
# Compressibility (1/GPa) = 0.01913688
#
# Stress axis : x y z
#
# Youngs Moduli (GPa) = 100.77599 99.08206 81.67017
#
# Poissons Ratio (x) = 0.05871 0.25927
# Poissons Ratio (y) = 0.05972 0.22822
# Poissons Ratio (z) = 0.31992 0.27688
#
# Static dielectric constant tensor:
#      x y z
#    x 1.913820 0.144540 -0.263330 
#    y 0.144540 2.043890 -0.061300 
#    z -0.263330 -0.061300 2.485680 
# 
# From -- ./inp_files/409922.got.cif
#   From: 2010.05.17/outbox.cif.g08.bks.cpg/sg2_205_cif.got.tgz:409922.got - 2010.06.03 11:33:40.
