data_PCOD9022636
_publ_section_title
;
Structure prediction by ZEFSAII (Michael W. Deem and Ramdas Pophale) SiO2 
 PCOD9022636
Probable space group: P -1
;
_chemical_formula_sum "Si O2"
_cell_formula_units_Z 16
_cell_length_a 11.356807
_cell_length_b 6.539226
_cell_length_c 11.560685
_cell_angle_alpha 105.184898
_cell_angle_beta 106.361008
_cell_angle_gamma 86.349203
_cell_volume 794.975512
_symmetry_space_group_name_H-M "P -1"
_symmetry_group_IT_number 2
_symmetry_cell_setting 'triclinic'
loop_
_space_group_symop_operation_xyz
x,y,z
-x,-y,-z
loop_
_atom_site_type_symbol
_atom_site_label
_atom_site_fract_x
_atom_site_fract_y
_atom_site_fract_z
Si Si1 0.149070 0.759878 0.476502
Si Si2 0.648941 0.042243 0.809110
Si Si3 0.399648 0.485803 0.070637
Si Si4 0.645435 0.971911 0.538238
Si Si5 0.088756 0.135818 0.693777
Si Si6 0.237921 0.430728 0.606499
Si Si7 0.748894 0.909275 0.057734
Si Si8 0.579306 0.198956 0.210739
O O1 0.149110 0.527007 0.497879
O O2 0.050052 0.791581 0.352447
O O3 0.281031 0.838405 0.477392
O O4 0.111022 0.927688 0.590303
O O5 0.688875 0.971612 0.683274
O O6 0.504221 0.969567 0.767831
O O7 0.645305 0.293510 0.862334
O O8 0.735144 0.959281 0.925293
O O9 0.472127 0.355376 0.166603
O O10 0.500000 0.500000 0.000000
O O11 0.291948 0.334156 0.974987
O O12 0.681710 0.754223 0.454011
O O13 0.500000 0.000000 0.500000
O O14 0.170903 0.320778 0.681037
O O15 0.131760 0.075756 0.825792
O O16 0.318349 0.639169 0.690018
O O17 0.646379 0.061701 0.110232
#
# Coordination Sequence:
#
# PCOD9022636 Si02
#       8
#     2   2   2   2   2   2   2   2
#     4  10  22  42  63  88 122 158 203 256 297 358
#     4  11  23  37  55  87 130 163 198 244 300 363
#     4  11  18  32  53  82 123 158 193 241 299 351
#     4  11  25  41  61  90 126 164 202 241 298 371
#     4  10  22  39  63  93 119 151 208 260 302 349
#     4  11  22  38  66  89 119 161 199 252 312 354
#     4  11  21  34  57  91 119 154 198 250 305 356
#     4  11  20  32  56  91 121 152 198 247 301 357
#
# _framework density 20.126405999999999
#
# number of rings (size 3 to 8) (size 9 to 14) (size 15 to 20)
#    0.000    1.250    3.750    3.375    1.750    4.000 
#    0.000    0.625    0.000    1.500    0.000    0.000 
#    0.000    0.000    0.000    0.000    0.000    0.000 
#
# Total GULP energy -89217.846805 kJ/mol
# GULP energy per Si atom -5576.115425 kJ/mol
# Density = 2.008060 g / cm^3
# Si number density = 20.126406 Si / 1000 Ang^3
#
#
#
# Elastic Constant Matrix: (Units=GPa)
#
#
# Indices 1 2 3 4 5 6 
#
# 1 56.0054 21.3187 17.1546 -3.4390 9.7803 -6.9900
# 2 21.3187 93.7959 25.0868 -0.1353 5.8890 -0.9706
# 3 17.1546 25.0868 84.4620 -6.0463 7.8757 4.7111
# 4 -3.4390 -0.1353 -6.0463 36.2850 -3.5660 9.7889
# 5 9.7803 5.8890 7.8757 -3.5660 27.6498 -9.7246
# 6 -6.9900 -0.9706 4.7111 9.7889 -9.7246 14.8274
#
#
#
# Elastic Compliance Matrix: (Units=1/GPa)
#
#
# Indices 1 2 3 4 5 6 
#
# 1 0.022154 -0.003730 -0.003939 -0.001807 -0.002218 0.011190
# 2 -0.003730 0.012327 -0.002938 -0.000917 -0.000495 0.000263
# 3 -0.003939 -0.002938 0.015419 0.005610 -0.007013 -0.015252
# 4 -0.001807 -0.000917 0.005610 0.036016 -0.007057 -0.031101
# 5 -0.002218 -0.000495 -0.007013 -0.007057 0.052237 0.040069
# 6 0.011190 0.000263 -0.015252 -0.031101 0.040069 0.124393
#
#
# Mechanical properties :
#
#
# Convention : Reuss Voigt Hill
#
# Bulk Modulus (GPa) = 34.85791 40.15371 37.50581
# Shear Modulus (GPa) = 17.04609 27.13263 22.08936
#
# Velocity S-wave (km/s) = 2.91340 3.67565 3.31650
# Velocity P-wave (km/s) = 5.35484 6.16506 5.77418
#
# Compressibility (1/GPa) = 0.02868790
#
# Stress axis : x y z
#
# Youngs Moduli (GPa) = 45.13762 81.11976 64.85694
#
# Poissons Ratio (x) = 0.30254 0.25545
# Poissons Ratio (y) = 0.16834 0.19055
# Poissons Ratio (z) = 0.17778 0.23834
#
# Static dielectric constant tensor:
#      x y z
#    x 1.677730 -0.071220 0.088110 
#    y -0.071220 1.479520 0.026270 
#    z 0.088110 0.026270 1.753720 
# 
# From -- ./inp_files/77236.got.cif
#   From: 2010.05.17/outbox.cif.g08.bks.cpg/sg2_39_cif.got.tgz:77236.got - 2010.06.03 11:33:40.
