data_PCOD9022099
_publ_section_title
;
Structure prediction by ZEFSAII (Michael W. Deem and Ramdas Pophale) SiO2 
 PCOD9022099
Probable space group: P -1
;
_chemical_formula_sum "Si O2"
_cell_formula_units_Z 15
_cell_length_a 21.073639
_cell_length_b 5.120884
_cell_length_c 9.539913
_cell_angle_alpha 106.483979
_cell_angle_beta 35.240397
_cell_angle_gamma 96.395158
_cell_volume 555.976903
_symmetry_space_group_name_H-M "P -1"
_symmetry_group_IT_number 2
_symmetry_cell_setting 'triclinic'
loop_
_space_group_symop_operation_xyz
x,y,z
-x,-y,-z
loop_
_atom_site_type_symbol
_atom_site_label
_atom_site_fract_x
_atom_site_fract_y
_atom_site_fract_z
Si Si1 0.731831 0.317771 0.074367
Si Si2 0.919662 0.798819 0.156801
Si Si3 0.480117 0.844775 0.654594
Si Si4 0.450114 0.284617 0.215737
Si Si5 0.000000 0.500000 0.500000
Si Si6 0.852439 0.810518 0.586450
Si Si7 0.647841 0.607378 0.870104
Si Si8 0.825342 0.855272 0.037332
O O1 0.753173 0.150780 0.158087
O O2 0.602699 0.359695 0.265096
O O3 0.778829 0.594753 0.018709
O O4 0.799518 0.086856 0.810514
O O5 0.856775 0.886486 0.428421
O O6 0.837692 0.815146 0.174281
O O7 0.000000 0.500000 0.000000
O O8 0.000000 0.000000 0.000000
O O9 0.580377 0.746903 0.572118
O O10 0.500000 0.000000 0.500000
O O11 0.405013 0.088030 0.923925
O O12 0.554860 0.437269 0.057030
O O13 0.354572 0.425404 0.299827
O O14 0.500000 0.000000 0.000000
O O15 0.034851 0.338717 0.562046
O O16 0.054322 0.208414 0.267780
O O17 0.773412 0.579009 0.694992
#
# Coordination Sequence:
#
# PCOD9022099 Si02
#       8
#     2   2   2   2   1   2   2   2
#     4  10  25  43  68  99 133 179 228 269 337 410
#     4  12  26  46  66 100 136 178 227 286 342 397
#     4  10  22  39  63  96 131 171 212 278 337 394
#     4   9  19  39  64  91 129 167 221 270 330 400
#     4  10  22  38  72  94 132 174 222 274 340 388
#     4  10  23  43  71  99 133 184 229 282 340 409
#     4   9  20  42  64  96 124 177 224 271 328 407
#     4  11  24  44  65  98 137 174 227 278 335 406
#
# _framework density 26.979538999999999
#
# number of rings (size 3 to 8) (size 9 to 14) (size 15 to 20)
#    0.000    1.867    1.333    0.800    7.467    2.667 
#   12.000    0.000    0.000    0.000    0.000    0.000 
#    0.000    0.000    0.000    0.000    0.000    0.000 
#
# Total GULP energy -83730.715257 kJ/mol
# GULP energy per Si atom -5582.047684 kJ/mol
# Density = 2.691813 g / cm^3
# Si number density = 26.979539 Si / 1000 Ang^3
#
#
#
# Elastic Constant Matrix: (Units=GPa)
#
#
# Indices 1 2 3 4 5 6 
#
# 1 171.1801 39.7079 59.5015 -20.8679 60.5180 -19.4157
# 2 39.7079 103.6784 -16.1600 -20.7449 -7.1143 10.8129
# 3 59.5015 -16.1600 49.1642 0.8655 28.4856 -4.1984
# 4 -20.8679 -20.7449 0.8655 35.0052 -4.2116 -2.1536
# 5 60.5180 -7.1143 28.4856 -4.2116 61.0030 -7.2077
# 6 -19.4157 10.8129 -4.1984 -2.1536 -7.2077 53.9330
#
#
#
# Elastic Compliance Matrix: (Units=1/GPa)
#
#
# Indices 1 2 3 4 5 6 
#
# 1 0.023685 -0.013554 -0.025760 0.005801 -0.011714 0.007905
# 2 -0.013554 0.019502 0.018371 0.003431 0.006630 -0.006336
# 3 -0.025760 0.018371 0.057209 -0.006488 -0.000508 -0.008830
# 4 0.005801 0.003431 -0.006488 0.034400 0.000323 0.002312
# 5 -0.011714 0.006630 -0.000508 0.000323 0.028843 -0.001718
# 6 0.007905 -0.006336 -0.008830 0.002312 -0.001718 0.021833
#
#
# Mechanical properties :
#
#
# Convention : Reuss Voigt Hill
#
# Bulk Modulus (GPa) = 17.09121 54.45794 35.77458
# Shear Modulus (GPa) = 20.25425 46.05312 33.15369
#
# Velocity S-wave (km/s) = 2.74291 4.13603 3.50929
# Velocity P-wave (km/s) = 4.04723 6.56031 5.45058
#
# Compressibility (1/GPa) = 0.05850959
#
# Stress axis : x y z
#
# Youngs Moduli (GPa) = 42.22080 51.27721 17.47975
#
# Poissons Ratio (x) = 0.69500 0.45028
# Poissons Ratio (y) = 0.57225 -0.32111
# Poissons Ratio (z) = 1.08761 -0.94200
#
# Static dielectric constant tensor:
#      x y z
#    x 1.678960 0.088720 0.196190 
#    y 0.088720 2.095950 -0.098900 
#    z 0.196190 -0.098900 2.120740 
# 
# From -- ./inp_files/339833.got.cif
#   From: 2010.05.17/outbox.cif.g08.bks.cpg/sg2_170_cif.got.tgz:339833.got - 2010.06.03 11:33:40.
