data_PCOD9022690
_publ_section_title
;
Structure prediction by ZEFSAII (Michael W. Deem and Ramdas Pophale) SiO2 
 PCOD9022690
Probable space group: P -1
;
_chemical_formula_sum "Si O2"
_cell_formula_units_Z 16
_cell_length_a 14.265091
_cell_length_b 10.076963
_cell_length_c 4.997181
_cell_angle_alpha 105.083168
_cell_angle_beta 58.265321
_cell_angle_gamma 109.535165
_cell_volume 572.577784
_symmetry_space_group_name_H-M "P -1"
_symmetry_group_IT_number 2
_symmetry_cell_setting 'triclinic'
loop_
_space_group_symop_operation_xyz
x,y,z
-x,-y,-z
loop_
_atom_site_type_symbol
_atom_site_label
_atom_site_fract_x
_atom_site_fract_y
_atom_site_fract_z
Si Si1 0.765789 0.409303 0.342828
Si Si2 0.844232 0.086588 0.662435
Si Si3 0.959699 0.865313 0.183265
Si Si4 0.344569 0.897526 0.418641
Si Si5 0.974877 0.365368 0.271467
Si Si6 0.670484 0.508526 0.033732
Si Si7 0.571564 0.694992 0.634725
Si Si8 0.582115 0.871453 0.212387
O O1 0.699849 0.258854 0.484037
O O2 0.895528 0.409489 0.189087
O O3 0.732989 0.421524 0.093188
O O4 0.727467 0.517417 0.663781
O O5 0.926581 0.132620 0.816556
O O6 0.715250 0.080002 0.755401
O O7 0.903879 0.222723 0.454290
O O8 0.864744 0.927569 0.507486
O O9 0.926957 0.706408 0.029471
O O10 0.000000 0.000000 0.000000
O O11 0.479942 0.922290 0.247118
O O12 0.319394 0.010627 0.730709
O O13 0.000000 0.500000 0.500000
O O14 0.663775 0.642090 0.293243
O O15 0.537860 0.425512 0.171879
O O16 0.528115 0.783717 0.512685
O O17 0.615257 0.774961 0.882716
#
# Coordination Sequence:
#
# PCOD9022690 Si02
#       8
#     2   2   2   2   2   2   2   2
#     4  11  23  41  65  93 124 166 222 259 324 391
#     4   9  20  42  66  92 125 172 215 267 330 402
#     4   9  19  41  67  90 122 165 215 265 334 398
#     4  10  22  39  63  95 129 168 213 270 318 383
#     4  10  23  40  63  95 126 165 209 279 333 392
#     4  11  22  41  64  91 125 178 215 259 320 387
#     4  11  22  41  63  88 136 171 218 264 318 376
#     4  11  23  40  61  98 132 171 216 269 315 374
#
# _framework density 27.943802999999999
#
# number of rings (size 3 to 8) (size 9 to 14) (size 15 to 20)
#    0.000    1.750    2.500    0.750    3.500    5.500 
#   11.250    1.250    0.000    0.000    0.000    0.000 
#    0.000    0.000    0.000    0.000    0.000    0.000 
#
# Total GULP energy -89434.254705 kJ/mol
# GULP energy per Si atom -5589.640919 kJ/mol
# Density = 2.788020 g / cm^3
# Si number density = 27.943803 Si / 1000 Ang^3
#
#
#
# Elastic Constant Matrix: (Units=GPa)
#
#
# Indices 1 2 3 4 5 6 
#
# 1 149.8138 29.1869 20.5372 -10.9391 -3.9226 -16.5867
# 2 29.1869 67.8751 39.6531 25.8775 -4.0787 -18.1253
# 3 20.5372 39.6531 147.4427 34.0815 7.7989 -4.8013
# 4 -10.9391 25.8775 34.0815 67.1783 -17.4219 3.7829
# 5 -3.9226 -4.0787 7.7989 -17.4219 42.4716 -15.3475
# 6 -16.5867 -18.1253 -4.8013 3.7829 -15.3475 34.6607
#
#
#
# Elastic Compliance Matrix: (Units=1/GPa)
#
#
# Indices 1 2 3 4 5 6 
#
# 1 0.008206 -0.003251 -0.001258 0.003939 0.003427 0.003140
# 2 -0.003251 0.025865 -0.004523 -0.007695 0.005072 0.014429
# 3 -0.001258 -0.004523 0.009359 -0.004400 -0.005362 -0.003565
# 4 0.003939 -0.007695 -0.004400 0.023273 0.009605 -0.001036
# 5 0.003427 0.005072 -0.005362 0.009605 0.035926 0.018409
# 6 0.003140 0.014429 -0.003565 -0.001036 0.018409 0.045670
#
#
# Mechanical properties :
#
#
# Convention : Reuss Voigt Hill
#
# Bulk Modulus (GPa) = 39.42321 60.43178 49.92749
# Shear Modulus (GPa) = 28.60149 47.24574 37.92361
#
# Velocity S-wave (km/s) = 3.20275 4.11632 3.68793
# Velocity P-wave (km/s) = 5.27403 6.65322 6.00336
#
# Compressibility (1/GPa) = 0.02536577
#
# Stress axis : x y z
#
# Youngs Moduli (GPa) = 121.86631 38.66274 106.85285
#
# Poissons Ratio (x) = 0.12567 0.13444
# Poissons Ratio (y) = 0.39613 0.48329
# Poissons Ratio (z) = 0.15333 0.17487
#
# Static dielectric constant tensor:
#      x y z
#    x 2.194990 0.044150 -0.200330 
#    y 0.044150 2.289140 0.017520 
#    z -0.200330 0.017520 2.517250 
# 
# From -- ./inp_files/95467.got.cif
#   From: 2010.05.17/outbox.cif.g08.bks.cpg/sg2_48_cif.got.tgz:95467.got - 2010.06.03 11:33:40.
