data_PCOD9022972
_publ_section_title
;
Structure prediction by ZEFSAII (Michael W. Deem and Ramdas Pophale) SiO2 
 PCOD9022972
Probable space group: P -1
;
_chemical_formula_sum "Si O2"
_cell_formula_units_Z 14
_cell_length_a 14.947822
_cell_length_b 9.203561
_cell_length_c 9.299332
_cell_angle_alpha 44.488325
_cell_angle_beta 128.949392
_cell_angle_gamma 99.349973
_cell_volume 593.499655
_symmetry_space_group_name_H-M "P -1"
_symmetry_group_IT_number 2
_symmetry_cell_setting 'triclinic'
loop_
_space_group_symop_operation_xyz
x,y,z
-x,-y,-z
loop_
_atom_site_type_symbol
_atom_site_label
_atom_site_fract_x
_atom_site_fract_y
_atom_site_fract_z
Si Si1 0.003093 0.315617 0.254220
Si Si2 0.946644 0.762592 0.325890
Si Si3 0.541104 0.776403 0.348680
Si Si4 0.557281 0.415427 0.845575
Si Si5 0.841664 0.098297 0.510527
Si Si6 0.747356 0.763648 0.748779
Si Si7 0.654065 0.048274 0.721953
O O1 0.086554 0.253807 0.528445
O O2 0.062357 0.065388 0.407727
O O3 0.000000 0.500000 0.000000
O O4 0.852425 0.476573 0.053358
O O5 0.000000 0.500000 0.500000
O O6 0.069532 0.807028 0.396392
O O7 0.806470 0.966335 0.971351
O O8 0.594210 0.518036 0.668635
O O9 0.500984 0.741292 0.174242
O O10 0.659636 0.823684 0.473298
O O11 0.415551 0.958995 0.194286
O O12 0.436967 0.666943 0.615955
O O13 0.688908 0.281301 0.172263
O O14 0.826292 0.905643 0.725830
O O15 0.659225 0.867956 0.730326
#
# Coordination Sequence:
#
# PCOD9022972 Si02
#       7
#     2   2   2   2   2   2   2
#     4  10  23  42  64  96 131 169 215 270 324 380
#     4  12  24  42  70  97 129 172 223 268 329 394
#     4   9  20  38  66  90 125 167 225 260 330 378
#     4   9  21  40  64  93 121 172 223 265 325 386
#     4  11  25  41  66  95 132 176 219 265 332 390
#     4  11  22  40  62  98 135 169 214 276 322 387
#     4  10  22  39  65  94 130 171 212 275 325 379
#
# _framework density 23.588892000000001
#
# number of rings (size 3 to 8) (size 9 to 14) (size 15 to 20)
#    0.857    0.857    1.429    2.571    2.000    1.714 
#    0.000    0.000    0.000    0.000    0.000    0.000 
#    0.000    0.000    0.000    0.000    0.000    0.000 
#
# Total GULP energy -78043.171533 kJ/mol
# GULP energy per Si atom -5574.512252 kJ/mol
# Density = 2.353520 g / cm^3
# Si number density = 23.588892 Si / 1000 Ang^3
#
#
#
# Elastic Constant Matrix: (Units=GPa)
#
#
# Indices 1 2 3 4 5 6 
#
# 1 48.7966 20.6137 12.7386 -2.0956 9.4926 6.9378
# 2 20.6137 137.8174 52.8999 -11.8102 29.1010 7.8239
# 3 12.7386 52.8999 166.2350 -1.6010 35.0351 1.5848
# 4 -2.0956 -11.8102 -1.6010 34.8703 -6.4221 12.9731
# 5 9.4926 29.1010 35.0351 -6.4221 34.5973 2.0520
# 6 6.9378 7.8239 1.5848 12.9731 2.0520 41.2485
#
#
#
# Elastic Compliance Matrix: (Units=1/GPa)
#
#
# Indices 1 2 3 4 5 6 
#
# 1 0.022780 -0.002230 -0.000206 0.001264 -0.003717 -0.003613
# 2 -0.002230 0.009720 -0.001805 0.002908 -0.005074 -0.002061
# 3 -0.000206 -0.001805 0.008052 -0.001922 -0.006996 0.001020
# 4 0.001264 0.002908 -0.001922 0.035347 0.006435 -0.012127
# 5 -0.003717 -0.005074 -0.006996 0.006435 0.042607 -0.002287
# 6 -0.003613 -0.002061 0.001020 -0.012127 -0.002287 0.029131
#
#
# Mechanical properties :
#
#
# Convention : Reuss Voigt Hill
#
# Bulk Modulus (GPa) = 31.18176 58.37261 44.77718
# Shear Modulus (GPa) = 29.97436 39.91634 34.94535
#
# Velocity S-wave (km/s) = 3.56855 4.11806 3.85311
# Velocity P-wave (km/s) = 5.49790 6.88554 6.23048
#
# Compressibility (1/GPa) = 0.03207003
#
# Stress axis : x y z
#
# Youngs Moduli (GPa) = 43.89786 102.88058 124.19076
#
# Poissons Ratio (x) = 0.22941 0.02559
# Poissons Ratio (y) = 0.09789 0.22419
# Poissons Ratio (z) = 0.00904 0.18572
#
# Static dielectric constant tensor:
#      x y z
#    x 1.976790 0.030490 -0.037000 
#    y 0.030490 1.913900 0.019570 
#    z -0.037000 0.019570 1.883390 
# 
# From -- ./inp_files/469240.got.cif
#   From: 2010.05.17/outbox.cif.g08.bks.cpg/sg2_235_cif.got.tgz:469240.got - 2010.06.03 11:33:40.
