data_PCOD9022307
_publ_section_title
;
Structure prediction by ZEFSAII (Michael W. Deem and Ramdas Pophale) SiO2 
 PCOD9022307
Probable space group: P -1
;
_chemical_formula_sum "Si O2"
_cell_formula_units_Z 12
_cell_length_a 13.657273
_cell_length_b 8.201978
_cell_length_c 8.272500
_cell_angle_alpha 56.704571
_cell_angle_beta 59.355113
_cell_angle_gamma 97.648115
_cell_volume 545.584309
_symmetry_space_group_name_H-M "P -1"
_symmetry_group_IT_number 2
_symmetry_cell_setting 'triclinic'
loop_
_space_group_symop_operation_xyz
x,y,z
-x,-y,-z
loop_
_atom_site_type_symbol
_atom_site_label
_atom_site_fract_x
_atom_site_fract_y
_atom_site_fract_z
Si Si1 0.776325 0.851702 0.711857
Si Si2 0.476787 0.197079 0.857489
Si Si3 0.693565 0.689919 0.537871
Si Si4 0.488349 0.782888 0.544770
Si Si5 0.090416 0.796218 0.876832
Si Si6 0.162702 0.429013 0.974872
O O1 0.728038 0.664151 0.706046
O O2 0.864183 0.799130 0.783184
O O3 0.853645 0.098194 0.410801
O O4 0.646592 0.821546 0.928764
O O5 0.623667 0.451462 0.624805
O O6 0.438265 0.164880 0.718780
O O7 0.500000 0.000000 0.000000
O O8 0.565672 0.715512 0.637539
O O9 0.825040 0.955568 0.230066
O O10 0.500000 0.000000 0.500000
O O11 0.328622 0.588768 0.745016
O O12 0.925925 0.661343 0.067003
O O13 0.125151 0.605113 0.987896
#
# Coordination Sequence:
#
# PCOD9022307 Si02
#       6
#     2   2   2   2   2   2
#     4  10  22  40  64  93 125 161 208 252 315 359
#     4  12  24  37  62  94 128 161 210 264 306 364
#     4  10  22  39  60  95 123 158 210 254 306 372
#     4  12  23  39  63  92 120 165 209 256 315 364
#     4   9  22  38  63  97 124 166 207 246 312 376
#     4  11  20  38  67  90 129 169 200 252 311 373
#
# _framework density 21.994767
#
# number of rings (size 3 to 8) (size 9 to 14) (size 15 to 20)
#    1.000    0.333    3.333    3.500    2.333    0.000 
#    0.000    0.833    0.000    2.000    0.000    0.000 
#    0.000    0.000    0.000    0.000    0.000    0.000 
#
# Total GULP energy -66841.442483 kJ/mol
# GULP energy per Si atom -5570.120207 kJ/mol
# Density = 2.194471 g / cm^3
# Si number density = 21.994767 Si / 1000 Ang^3
#
#
#
# Elastic Constant Matrix: (Units=GPa)
#
#
# Indices 1 2 3 4 5 6 
#
# 1 108.2005 -2.0715 1.7549 -14.6688 -3.0521 -10.9401
# 2 -2.0715 84.0428 15.0112 -27.2071 -0.7054 -0.9623
# 3 1.7549 15.0112 56.5406 -19.1971 -12.7817 -7.2772
# 4 -14.6688 -27.2071 -19.1971 41.5237 4.6376 6.0572
# 5 -3.0521 -0.7054 -12.7817 4.6376 33.2904 -17.3436
# 6 -10.9401 -0.9623 -7.2772 6.0572 -17.3436 26.2021
#
#
#
# Elastic Compliance Matrix: (Units=1/GPa)
#
#
# Indices 1 2 3 4 5 6 
#
# 1 0.010818 0.001182 0.003261 0.004164 0.006158 0.008579
# 2 0.001182 0.015786 -0.002190 0.011010 -0.004602 -0.005126
# 3 0.003261 -0.002190 0.028211 0.007239 0.021297 0.021540
# 4 0.004164 0.011010 0.007239 0.038182 -0.006654 -0.009077
# 5 0.006158 -0.004602 0.021297 -0.006654 0.068295 0.055061
# 6 0.008579 -0.005126 0.021540 -0.009077 0.055061 0.086085
#
#
# Mechanical properties :
#
#
# Convention : Reuss Voigt Hill
#
# Bulk Modulus (GPa) = 16.85741 30.90810 23.88276
# Shear Modulus (GPa) = 19.03714 35.80920 27.42317
#
# Velocity S-wave (km/s) = 2.94518 4.03932 3.53484
# Velocity P-wave (km/s) = 4.38707 5.98647 5.24806
#
# Compressibility (1/GPa) = 0.05932108
#
# Stress axis : x y z
#
# Youngs Moduli (GPa) = 92.44250 63.34723 35.44686
#
# Poissons Ratio (x) = -0.07489 -0.11558
# Poissons Ratio (y) = -0.10929 0.07762
# Poissons Ratio (z) = -0.30141 0.13871
#
# Static dielectric constant tensor:
#      x y z
#    x 4.327970 3.711140 0.703470 
#    y 3.711140 7.148040 1.015090 
#    z 0.703470 1.015090 2.133880 
# 
# From -- ./inp_files/170210.got.cif
#   From: 2010.05.17/outbox.cif.g08.bks.cpg/sg2_86_cif.got.tgz:170210.got - 2010.06.03 11:33:40.
