data_PCOD9022349
_publ_section_title
;
Structure prediction by ZEFSAII (Michael W. Deem and Ramdas Pophale) SiO2 
 PCOD9022349
Probable space group: P -1
;
_chemical_formula_sum "Si O2"
_cell_formula_units_Z 12
_cell_length_a 5.339473
_cell_length_b 5.881888
_cell_length_c 18.178529
_cell_angle_alpha 80.939830
_cell_angle_beta 97.228748
_cell_angle_gamma 122.579443
_cell_volume 474.501454
_symmetry_space_group_name_H-M "P -1"
_symmetry_group_IT_number 2
_symmetry_cell_setting 'triclinic'
loop_
_space_group_symop_operation_xyz
x,y,z
-x,-y,-z
loop_
_atom_site_type_symbol
_atom_site_label
_atom_site_fract_x
_atom_site_fract_y
_atom_site_fract_z
Si Si1 0.540714 0.863310 0.079203
Si Si2 0.622996 0.344294 0.556226
Si Si3 0.762207 0.237250 0.411212
Si Si4 0.831754 0.303808 0.791102
Si Si5 0.159875 0.274169 0.142248
Si Si6 0.574187 0.498532 0.274337
O O1 0.889396 0.017764 0.105155
O O2 0.350699 0.889720 0.137135
O O3 0.388278 0.535186 0.086738
O O4 0.500000 0.000000 0.000000
O O5 0.500000 0.500000 0.500000
O O6 0.749780 0.245431 0.499383
O O7 0.896372 0.555179 0.604470
O O8 0.365111 0.071929 0.597201
O O9 0.585219 0.349212 0.355323
O O10 0.002507 0.596559 0.824760
O O11 0.574899 0.322120 0.738027
O O12 0.087931 0.313121 0.752183
O O13 0.367315 0.275146 0.215831
#
# Coordination Sequence:
#
# PCOD9022349 Si02
#       6
#     2   2   2   2   2   2
#     4   9  17  37  60  85 119 160 196 248 306 351
#     4  10  22  40  61  90 122 154 209 253 301 376
#     4  10  22  39  61  88 121 161 203 253 310 366
#     4   8  21  37  59  86 123 150 209 251 290 373
#     4   8  20  34  57  86 119 150 204 249 290 367
#     4   9  20  42  58  92 117 168 196 255 307 358
#
# _framework density 25.289698999999999
#
# number of rings (size 3 to 8) (size 9 to 14) (size 15 to 20)
#    2.000    0.667    0.000    1.000    2.333    2.667 
#    9.000    4.167    0.000    0.000    0.000    0.000 
#    0.000    0.000    0.000    0.000    0.000    0.000 
#
# Total GULP energy -66846.266581 kJ/mol
# GULP energy per Si atom -5570.522215 kJ/mol
# Density = 2.523214 g / cm^3
# Si number density = 25.289699 Si / 1000 Ang^3
#
#
#
# Elastic Constant Matrix: (Units=GPa)
#
#
# Indices 1 2 3 4 5 6 
#
# 1 80.0603 55.8345 33.1922 -0.1518 6.9394 36.8370
# 2 55.8345 181.6803 52.1158 -16.3262 14.2624 42.1853
# 3 33.1922 52.1158 140.8524 -10.0621 18.1029 18.2917
# 4 -0.1518 -16.3262 -10.0621 25.2426 4.5698 3.4814
# 5 6.9394 14.2624 18.1029 4.5698 38.7675 6.1456
# 6 36.8370 42.1853 18.2917 3.4814 6.1456 32.6225
#
#
#
# Elastic Compliance Matrix: (Units=1/GPa)
#
#
# Indices 1 2 3 4 5 6 
#
# 1 0.027192 -0.000871 -0.002276 0.002514 0.000772 -0.028717
# 2 -0.000871 0.009506 -0.001066 0.007613 -0.001973 -0.011153
# 3 -0.002276 -0.001066 0.008846 0.003579 -0.003641 -0.000707
# 4 0.002514 0.007613 0.003579 0.049964 -0.007873 -0.018540
# 5 0.000772 -0.001973 -0.003641 -0.007873 0.029158 -0.000931
# 6 -0.028717 -0.011153 -0.000707 -0.018540 -0.000931 0.080053
#
#
# Mechanical properties :
#
#
# Convention : Reuss Voigt Hill
#
# Bulk Modulus (GPa) = 26.94080 76.09755 51.51918
# Shear Modulus (GPa) = 22.17110 36.75656 29.46383
#
# Velocity S-wave (km/s) = 2.96410 3.81651 3.41699
# Velocity P-wave (km/s) = 4.73186 7.04107 5.99863
#
# Compressibility (1/GPa) = 0.03711842
#
# Stress axis : x y z
#
# Youngs Moduli (GPa) = 36.77498 105.19363 113.04522
#
# Poissons Ratio (x) = 0.09159 0.25730
# Poissons Ratio (y) = 0.03202 0.12055
# Poissons Ratio (z) = 0.08370 0.11218
#
# Static dielectric constant tensor:
#      x y z
#    x 2.148260 -0.162490 0.006050 
#    y -0.162490 2.124240 -0.037450 
#    z 0.006050 -0.037450 2.012580 
# 
# From -- ./inp_files/120849.got.cif
#   From: 2010.05.17/outbox.cif.g08.bks.cpg/sg2_61_cif.got.tgz:120849.got - 2010.06.03 11:33:40.
