data_PCOD9022070
_publ_section_title
;
Structure prediction by ZEFSAII (Michael W. Deem and Ramdas Pophale) SiO2 
 PCOD9022070
Probable space group: P -1
;
_chemical_formula_sum "Si O2"
_cell_formula_units_Z 14
_cell_length_a 9.413472
_cell_length_b 21.851483
_cell_length_c 9.225925
_cell_angle_alpha 126.990953
_cell_angle_beta 52.482041
_cell_angle_gamma 155.118479
_cell_volume 626.392705
_symmetry_space_group_name_H-M "P -1"
_symmetry_group_IT_number 2
_symmetry_cell_setting 'triclinic'
loop_
_space_group_symop_operation_xyz
x,y,z
-x,-y,-z
loop_
_atom_site_type_symbol
_atom_site_label
_atom_site_fract_x
_atom_site_fract_y
_atom_site_fract_z
Si Si1 0.672110 0.128138 0.988514
Si Si2 0.317626 0.402306 0.117289
Si Si3 0.287173 0.224207 0.374188
Si Si4 0.251380 0.850227 0.360843
Si Si5 0.586279 0.358892 0.058978
Si Si6 0.633471 0.866457 0.302715
Si Si7 0.685837 0.269783 0.380124
O O1 0.625397 0.112255 0.825983
O O2 0.563784 0.168367 0.182982
O O3 0.056179 0.253231 0.979502
O O4 0.500000 0.000000 0.000000
O O5 0.076898 0.380516 0.309765
O O6 0.500000 0.500000 0.000000
O O7 0.509153 0.417112 0.131847
O O8 0.583837 0.312708 0.432701
O O9 0.115999 0.243781 0.543644
O O10 0.444083 0.289054 0.208700
O O11 0.971482 0.044963 0.324948
O O12 0.312783 0.793932 0.323999
O O13 0.500000 0.000000 0.500000
O O14 0.385006 0.223481 0.889243
O O15 0.000000 0.500000 0.000000
O O16 0.534120 0.822952 0.471036
#
# Coordination Sequence:
#
# PCOD9022070 Si02
#       7
#     2   2   2   2   2   2   2
#     4  10  22  38  70  95 132 167 220 269 330 381
#     4  10  25  45  67  90 135 174 223 265 331 386
#     4  11  23  41  69 100 135 167 219 269 330 392
#     4  10  22  39  65 101 137 166 212 266 331 382
#     4  12  27  45  66  97 131 178 223 271 328 390
#     4  11  24  42  69  99 136 169 219 273 329 388
#     4  10  23  40  68 100 133 166 219 265 331 385
#
# _framework density 22.350196
#
# number of rings (size 3 to 8) (size 9 to 14) (size 15 to 20)
#    0.857    0.571    0.000    5.143   10.000    0.000 
#    2.571    2.857    0.000    0.000    0.000    0.000 
#    0.000    0.000    0.000    0.000    0.000    0.000 
#
# Total GULP energy -77998.581092 kJ/mol
# GULP energy per Si atom -5571.327221 kJ/mol
# Density = 2.229933 g / cm^3
# Si number density = 22.350196 Si / 1000 Ang^3
#
#
#
# Elastic Constant Matrix: (Units=GPa)
#
#
# Indices 1 2 3 4 5 6 
#
# 1 206.9324 27.2366 56.7968 -30.4297 -4.3012 3.4204
# 2 27.2366 81.2216 18.8767 -33.0171 5.3151 -4.7537
# 3 56.7968 18.8767 142.7092 -31.8774 35.0697 -14.0925
# 4 -30.4297 -33.0171 -31.8774 37.8651 -6.8994 8.4287
# 5 -4.3012 5.3151 35.0697 -6.8994 49.3570 -2.6700
# 6 3.4204 -4.7537 -14.0925 8.4287 -2.6700 19.0842
#
#
#
# Elastic Compliance Matrix: (Units=1/GPa)
#
#
# Indices 1 2 3 4 5 6 
#
# 1 0.006362 -0.000282 -0.002735 0.004119 0.002852 -0.004650
# 2 -0.000282 0.019453 0.001653 0.018454 -0.000831 -0.002150
# 3 -0.002735 0.001653 0.011739 0.006495 -0.007544 0.005647
# 4 0.004119 0.018454 0.006495 0.054832 0.000584 -0.015480
# 5 0.002852 -0.000831 -0.007544 0.000584 0.025882 -0.002926
# 6 -0.004650 -0.002150 0.005647 -0.015480 -0.002926 0.063295
#
#
# Mechanical properties :
#
#
# Convention : Reuss Voigt Hill
#
# Bulk Modulus (GPa) = 28.71325 70.74261 49.72793
# Shear Modulus (GPa) = 25.52328 43.12479 34.32403
#
# Velocity S-wave (km/s) = 3.38297 4.39738 3.92310
# Velocity P-wave (km/s) = 5.30417 7.58308 6.54360
#
# Compressibility (1/GPa) = 0.03482713
#
# Stress axis : x y z
#
# Youngs Moduli (GPa) = 157.17985 51.40652 85.18371
#
# Poissons Ratio (x) = 0.01450 0.23295
# Poissons Ratio (y) = 0.04435 -0.14083
# Poissons Ratio (z) = 0.42984 -0.08499
#
# Static dielectric constant tensor:
#      x y z
#    x 1.783130 0.053870 -0.067090 
#    y 0.053870 1.861070 0.029780 
#    z -0.067090 0.029780 1.778470 
# 
# From -- ./inp_files/222255.got.cif
#   From: 2010.05.17/outbox.cif.g08.bks.cpg/sg2_112_cif.got.tgz:222255.got - 2010.06.03 11:33:40.
