data_PCOD9022597
_publ_section_title
;
Structure prediction by ZEFSAII (Michael W. Deem and Ramdas Pophale) SiO2 
 PCOD9022597
Probable space group: P -1
;
_chemical_formula_sum "Si O2"
_cell_formula_units_Z 12
_cell_length_a 14.585608
_cell_length_b 9.782584
_cell_length_c 11.998393
_cell_angle_alpha 61.114895
_cell_angle_beta 31.514115
_cell_angle_gamma 42.753767
_cell_volume 556.024928
_symmetry_space_group_name_H-M "P -1"
_symmetry_group_IT_number 2
_symmetry_cell_setting 'triclinic'
loop_
_space_group_symop_operation_xyz
x,y,z
-x,-y,-z
loop_
_atom_site_type_symbol
_atom_site_label
_atom_site_fract_x
_atom_site_fract_y
_atom_site_fract_z
Si Si1 0.247899 0.679876 0.127770
Si Si2 0.209819 0.428212 0.086976
Si Si3 0.525827 0.197785 0.633686
Si Si4 0.165395 0.244546 0.395101
Si Si5 0.756463 0.762611 0.284095
Si Si6 0.994392 0.079242 0.098112
O O1 0.221032 0.574956 0.094468
O O2 0.032081 0.771133 0.402450
O O3 0.202572 0.873794 0.042682
O O4 0.500000 0.500000 0.000000
O O5 0.279742 0.237220 0.166483
O O6 0.930391 0.580618 0.270791
O O7 0.395142 0.329131 0.831168
O O8 0.328680 0.299709 0.699776
O O9 0.737427 0.183826 0.378134
O O10 0.646541 0.950618 0.634395
O O11 0.000000 0.500000 0.500000
O O12 0.500000 0.000000 0.500000
O O13 0.933195 0.787792 0.043448
O O14 0.000000 0.000000 0.000000
#
# Coordination Sequence:
#
# PCOD9022597 Si02
#       6
#     2   2   2   2   2   2
#     4  10  22  39  63  89 119 166 210 254 305 373
#     4  11  23  41  61  96 126 159 208 264 317 361
#     4  11  24  42  63  93 132 159 204 270 314 357
#     4   9  20  40  63  86 119 164 211 246 303 380
#     4  12  23  40  68  89 124 172 210 251 311 378
#     4  11  22  43  62  91 123 164 219 250 298 386
#
# _framework density 21.581766999999999
#
# number of rings (size 3 to 8) (size 9 to 14) (size 15 to 20)
#    0.000    1.333    3.333    3.000    7.000    0.667 
#    3.000    1.667    0.000    0.000    0.000    0.000 
#    0.000    0.000    0.000    0.000    0.000    0.000 
#
# Total GULP energy -66980.442976 kJ/mol
# GULP energy per Si atom -5581.703581 kJ/mol
# Density = 2.153265 g / cm^3
# Si number density = 21.581767 Si / 1000 Ang^3
#
#
#
# Elastic Constant Matrix: (Units=GPa)
#
#
# Indices 1 2 3 4 5 6 
#
# 1 71.9296 0.5808 34.9819 6.6305 -7.4418 -16.9324
# 2 0.5808 79.3027 11.1682 -0.3684 -8.5581 -13.4257
# 3 34.9819 11.1682 116.4460 -4.9451 20.8112 -0.2545
# 4 6.6305 -0.3684 -4.9451 35.2477 -5.0414 -2.5518
# 5 -7.4418 -8.5581 20.8112 -5.0414 37.8298 9.4467
# 6 -16.9324 -13.4257 -0.2545 -2.5518 9.4467 27.7289
#
#
#
# Elastic Compliance Matrix: (Units=1/GPa)
#
#
# Indices 1 2 3 4 5 6 
#
# 1 0.021695 0.003741 -0.008053 -0.003407 0.005931 0.012651
# 2 0.003741 0.014827 -0.003209 0.000140 0.003842 0.008138
# 3 -0.008053 -0.003209 0.012871 0.001856 -0.008306 -0.003353
# 4 -0.003407 0.000140 0.001856 0.029598 0.002298 -0.000055
# 5 0.005931 0.003842 -0.008306 0.002298 0.034913 -0.006277
# 6 0.012651 0.008138 -0.003353 -0.000055 -0.006277 0.049831
#
#
# Mechanical properties :
#
#
# Convention : Reuss Voigt Hill
#
# Bulk Modulus (GPa) = 29.11129 40.12667 34.61898
# Shear Modulus (GPa) = 26.28426 34.89110 30.58768
#
# Velocity S-wave (km/s) = 3.49362 4.02517 3.76878
# Velocity P-wave (km/s) = 5.45820 6.34318 5.91726
#
# Compressibility (1/GPa) = 0.03435093
#
# Stress axis : x y z
#
# Youngs Moduli (GPa) = 46.09444 67.44245 77.69583
#
# Poissons Ratio (x) = -0.25232 0.62570
# Poissons Ratio (y) = -0.17245 0.24932
# Poissons Ratio (z) = 0.37121 0.21642
#
# Static dielectric constant tensor:
#      x y z
#    x 1.797890 -0.026140 0.037970 
#    y -0.026140 1.913890 0.043110 
#    z 0.037970 0.043110 1.828870 
# 
# From -- ./inp_files/149852.got.cif
#   From: 2010.05.17/outbox.cif.g08.bks.cpg/sg2_75_cif.got.tgz:149852.got - 2010.06.03 11:33:40.
