data_PCOD9022490
_publ_section_title
;
Structure prediction by ZEFSAII (Michael W. Deem and Ramdas Pophale) SiO2 
 PCOD9022490
Probable space group: P -1
;
_chemical_formula_sum "Si O2"
_cell_formula_units_Z 16
_cell_length_a 15.580914
_cell_length_b 6.853125
_cell_length_c 9.809769
_cell_angle_alpha 113.830452
_cell_angle_beta 63.259663
_cell_angle_gamma 110.782069
_cell_volume 836.281469
_symmetry_space_group_name_H-M "P -1"
_symmetry_group_IT_number 2
_symmetry_cell_setting 'triclinic'
loop_
_space_group_symop_operation_xyz
x,y,z
-x,-y,-z
loop_
_atom_site_type_symbol
_atom_site_label
_atom_site_fract_x
_atom_site_fract_y
_atom_site_fract_z
Si Si1 0.915958 0.424893 0.429812
Si Si2 0.390698 0.384634 0.885052
Si Si3 0.252752 0.964295 0.445913
Si Si4 0.912115 0.363192 0.112429
Si Si5 0.214245 0.265132 0.333197
Si Si6 0.238118 0.352130 0.772709
Si Si7 0.607953 0.358282 0.765821
Si Si8 0.190272 0.122174 0.010323
O O1 0.835314 0.228376 0.495326
O O2 0.946819 0.354596 0.240941
O O3 0.864649 0.629594 0.502512
O O4 0.000000 0.500000 0.500000
O O5 0.341173 0.453627 0.802997
O O6 0.498630 0.339925 0.782743
O O7 0.392398 0.562901 0.053733
O O8 0.310373 0.166560 0.925937
O O9 0.348093 0.857179 0.342621
O O10 0.230710 0.051579 0.337788
O O11 0.256818 0.165494 0.603755
O O12 0.818824 0.479885 0.206030
O O13 0.000000 0.500000 0.000000
O O14 0.870528 0.121256 0.019174
O O15 0.316068 0.444175 0.305562
O O16 0.175893 0.226825 0.195072
O O17 0.171096 0.243455 0.919106
#
# Coordination Sequence:
#
# PCOD9022490 Si02
#       8
#     2   2   2   2   2   2   2   2
#     4  11  25  41  60  88 122 156 197 257 301 356
#     4   8  18  41  62  88 125 157 197 250 292 356
#     4  11  22  40  62  86 129 158 194 251 303 353
#     4  12  26  40  63  89 116 158 208 245 300 362
#     4  10  22  39  62  91 121 158 203 241 301 362
#     4  10  22  42  59  84 123 159 193 250 299 349
#     4   9  19  38  63  93 121 157 203 244 293 354
#     4   9  22  41  60  85 120 161 192 248 298 348
#
# _framework density 19.132314000000001
#
# number of rings (size 3 to 8) (size 9 to 14) (size 15 to 20)
#    0.750    1.250    2.500    0.000    5.250    2.500 
#    2.250    2.500    0.000    0.000    0.000    0.000 
#    0.000    0.000    0.000    0.000    0.000    0.000 
#
# Total GULP energy -89155.130793 kJ/mol
# GULP energy per Si atom -5572.195675 kJ/mol
# Density = 1.908877 g / cm^3
# Si number density = 19.132314 Si / 1000 Ang^3
#
#
#
# Elastic Constant Matrix: (Units=GPa)
#
#
# Indices 1 2 3 4 5 6 
#
# 1 76.1892 -6.4503 1.5456 3.8189 7.3035 7.1792
# 2 -6.4503 32.2950 -14.6153 -2.8346 2.4003 -0.3092
# 3 1.5456 -14.6153 43.2525 -2.8772 6.1223 2.8971
# 4 3.8189 -2.8346 -2.8772 17.9327 -1.6874 5.5539
# 5 7.3035 2.4003 6.1223 -1.6874 24.9195 1.1906
# 6 7.1792 -0.3092 2.8971 5.5539 1.1906 27.8677
#
#
#
# Elastic Compliance Matrix: (Units=1/GPa)
#
#
# Indices 1 2 3 4 5 6 
#
# 1 0.014268 0.003739 0.001553 -0.001648 -0.004879 -0.003259
# 2 0.003739 0.039900 0.015255 0.008266 -0.007964 -0.003413
# 3 0.001553 0.015255 0.030242 0.007516 -0.008630 -0.004504
# 4 -0.001648 0.008266 0.007516 0.062882 0.002715 -0.012913
# 5 -0.004879 -0.007964 -0.008630 0.002715 0.044649 -0.000383
# 6 -0.003259 -0.003413 -0.004504 -0.012913 -0.000383 0.039744
#
#
# Mechanical properties :
#
#
# Convention : Reuss Voigt Hill
#
# Bulk Modulus (GPa) = 7.96792 12.52187 10.24490
# Shear Modulus (GPa) = 21.51227 25.56107 23.53667
#
# Velocity S-wave (km/s) = 3.35684 3.65912 3.51123
# Velocity P-wave (km/s) = 4.38157 4.94078 4.66955
#
# Compressibility (1/GPa) = 0.12550323
#
# Stress axis : x y z
#
# Youngs Moduli (GPa) = 70.08854 25.06284 33.06616
#
# Poissons Ratio (x) = -0.09372 -0.05135
# Poissons Ratio (y) = -0.26208 -0.50441
# Poissons Ratio (z) = -0.10884 -0.38232
#
# Static dielectric constant tensor:
#      x y z
#    x 1.660940 -0.008360 0.007570 
#    y -0.008360 1.637950 -0.008530 
#    z 0.007570 -0.008530 1.679820 
# 
# From -- ./inp_files/289000.got.cif
#   From: 2010.05.17/outbox.cif.g08.bks.cpg/sg2_145_cif.got.tgz:289000.got - 2010.06.03 11:33:40.
