data_PCOD9022467
_publ_section_title
;
Structure prediction by ZEFSAII (Michael W. Deem and Ramdas Pophale) SiO2 
 PCOD9022467
Probable space group: P -1
;
_chemical_formula_sum "Si O2"
_cell_formula_units_Z 14
_cell_length_a 6.838950
_cell_length_b 7.098885
_cell_length_c 14.332028
_cell_angle_alpha 73.881294
_cell_angle_beta 93.918465
_cell_angle_gamma 120.185931
_cell_volume 575.677094
_symmetry_space_group_name_H-M "P -1"
_symmetry_group_IT_number 2
_symmetry_cell_setting 'triclinic'
loop_
_space_group_symop_operation_xyz
x,y,z
-x,-y,-z
loop_
_atom_site_type_symbol
_atom_site_label
_atom_site_fract_x
_atom_site_fract_y
_atom_site_fract_z
Si Si1 0.052782 0.774058 0.785459
Si Si2 0.419285 0.002890 0.241291
Si Si3 0.308814 0.715611 0.089482
Si Si4 0.685594 0.519266 0.429450
Si Si5 0.806991 0.173202 0.558091
Si Si6 0.807763 0.971756 0.068577
Si Si7 0.674688 0.716266 0.673970
O O1 0.894577 0.536334 0.865607
O O2 0.911223 0.727784 0.691349
O O3 0.096068 0.976181 0.830950
O O4 0.310445 0.849508 0.761852
O O5 0.338436 0.868407 0.161165
O O6 0.309079 0.824506 0.347346
O O7 0.343392 0.184064 0.240729
O O8 0.559562 0.746939 0.081204
O O9 0.251394 0.832017 0.987201
O O10 0.500000 0.500000 0.500000
O O11 0.755906 0.324461 0.466957
O O12 0.558028 0.503588 0.330765
O O13 0.929202 0.735669 0.427112
O O14 0.699427 0.906007 0.574250
O O15 0.000000 0.000000 0.000000
#
# Coordination Sequence:
#
# PCOD9022467 Si02
#       7
#     2   2   2   2   2   2   2
#     4  11  23  38  63  93 116 159 199 240 298 349
#     4   9  23  39  60  86 124 153 196 248 294 343
#     4  10  22  39  62  89 119 157 201 241 288 350
#     4  11  24  40  64  87 115 160 201 242 298 355
#     4   9  24  42  59  86 120 154 200 242 299 349
#     4  10  22  41  61  86 125 158 193 244 291 346
#     4  10  24  38  60  88 120 154 194 244 300 349
#
# _framework density 24.319188
#
# number of rings (size 3 to 8) (size 9 to 14) (size 15 to 20)
#    0.857    1.143    0.000    1.714    6.000    4.571 
#    0.000    0.000    0.000    0.000    0.000    0.000 
#    0.000    0.000    0.000    0.000    0.000    0.000 
#
# Total GULP energy -78082.647453 kJ/mol
# GULP energy per Si atom -5577.331961 kJ/mol
# Density = 2.426384 g / cm^3
# Si number density = 24.319188 Si / 1000 Ang^3
#
#
#
# Elastic Constant Matrix: (Units=GPa)
#
#
# Indices 1 2 3 4 5 6 
#
# 1 98.4014 47.4115 16.3992 12.0264 -8.9455 47.8065
# 2 47.4115 110.1977 16.1172 11.6748 0.9940 46.7592
# 3 16.3992 16.1172 40.4965 15.5526 1.8042 10.1711
# 4 12.0264 11.6748 15.5526 39.4715 13.7894 10.1130
# 5 -8.9455 0.9940 1.8042 13.7894 35.7625 -0.3057
# 6 47.8065 46.7592 10.1711 10.1130 -0.3057 49.9617
#
#
#
# Elastic Compliance Matrix: (Units=1/GPa)
#
#
# Indices 1 2 3 4 5 6 
#
# 1 0.020495 -0.000572 -0.002888 -0.002464 0.006085 -0.017952
# 2 -0.000572 0.015337 -0.002615 0.000323 -0.000676 -0.013344
# 3 -0.002888 -0.002615 0.030964 -0.011681 0.002303 0.001286
# 4 -0.002464 0.000323 -0.011681 0.036266 -0.014045 -0.002994
# 5 0.006085 -0.000676 0.002303 -0.014045 0.034780 -0.002603
# 6 -0.017952 -0.013344 0.001286 -0.002994 -0.002603 0.050010
#
#
# Mechanical properties :
#
#
# Convention : Reuss Voigt Hill
#
# Bulk Modulus (GPa) = 18.29939 45.43905 31.86922
# Shear Modulus (GPa) = 22.91281 36.31698 29.61489
#
# Velocity S-wave (km/s) = 3.07281 3.86858 3.49343
# Velocity P-wave (km/s) = 4.48671 6.21929 5.42264
#
# Compressibility (1/GPa) = 0.05464664
#
# Stress axis : x y z
#
# Youngs Moduli (GPa) = 48.79191 65.20140 32.29512
#
# Poissons Ratio (x) = 0.03729 0.09327
# Poissons Ratio (y) = 0.02791 0.08445
# Poissons Ratio (z) = 0.14092 0.17050
#
# Static dielectric constant tensor:
#      x y z
#    x 1.975100 -0.004470 -0.007250 
#    y -0.004470 1.940900 -0.021050 
#    z -0.007250 -0.021050 1.973950 
# 
# From -- ./inp_files/547168.got.cif
#   From: 2010.05.17/outbox.cif.g08.bks.cpg/sg2_274_cif.got.tgz:547168.got - 2010.06.03 11:33:40.
