data_PCOD9022193
_publ_section_title
;
Structure prediction by ZEFSAII (Michael W. Deem and Ramdas Pophale) SiO2 
 PCOD9022193
Probable space group: P -1
;
_chemical_formula_sum "Si O2"
_cell_formula_units_Z 16
_cell_length_a 24.964842
_cell_length_b 6.501949
_cell_length_c 5.925222
_cell_angle_alpha 133.213820
_cell_angle_beta 91.699026
_cell_angle_gamma 82.142512
_cell_volume 691.639383
_symmetry_space_group_name_H-M "P -1"
_symmetry_group_IT_number 2
_symmetry_cell_setting 'triclinic'
loop_
_space_group_symop_operation_xyz
x,y,z
-x,-y,-z
loop_
_atom_site_type_symbol
_atom_site_label
_atom_site_fract_x
_atom_site_fract_y
_atom_site_fract_z
Si Si1 0.564153 0.232815 0.335861
Si Si2 0.185699 0.684494 0.434541
Si Si3 0.899563 0.152128 0.800191
Si Si4 0.549589 0.850291 0.653642
Si Si5 0.803960 0.927737 0.887439
Si Si6 0.971415 0.561334 0.293419
Si Si7 0.716648 0.219956 0.793691
Si Si8 0.645437 0.808568 0.276706
O O1 0.567527 0.565462 0.595640
O O2 0.512308 0.178925 0.437584
O O3 0.619019 0.021289 0.238009
O O4 0.548390 0.138458 0.013053
O O5 0.196527 0.407081 0.384516
O O6 0.236695 0.672115 0.266611
O O7 0.129783 0.682713 0.293438
O O8 0.182797 0.979182 0.790227
O O9 0.851446 0.016128 0.807759
O O10 0.945557 0.893171 0.541422
O O11 0.924618 0.363273 0.126043
O O12 0.596004 0.830056 0.460997
O O13 0.746597 0.112297 0.948230
O O14 0.000000 0.500000 0.500000
O O15 0.000000 0.500000 0.000000
O O16 0.695437 0.946448 0.482034
O O17 0.666884 0.477846 0.987326
#
# Coordination Sequence:
#
# PCOD9022193 Si02
#       8
#     2   2   2   2   2   2   2   2
#     4  10  22  39  59  86 117 160 211 255 316 397
#     4  11  24  44  71  93 130 176 222 279 330 398
#     4  11  26  46  72 104 137 184 241 270 344 408
#     4  10  22  39  59  86 117 160 211 255 316 397
#     4  11  24  44  71  93 130 176 222 279 330 398
#     4  12  28  47  74 110 157 190 236 298 351 416
#     4  11  26  40  59 100 123 160 218 266 328 410
#     4  12  23  39  62  86 129 160 204 266 336 388
#
# _framework density 23.133444000000001
#
# number of rings (size 3 to 8) (size 9 to 14) (size 15 to 20)
#    0.000    1.000    0.000    5.625    5.250   10.000 
#    0.000    5.000    0.000    0.000    0.000    0.000 
#    0.000    0.000    0.000    0.000    0.000    0.000 
#
# Total GULP energy -89432.143609 kJ/mol
# GULP energy per Si atom -5589.508976 kJ/mol
# Density = 2.308079 g / cm^3
# Si number density = 23.133444 Si / 1000 Ang^3
#
#
#
# Elastic Constant Matrix: (Units=GPa)
#
#
# Indices 1 2 3 4 5 6 
#
# 1 66.3585 28.2539 2.9756 -6.8769 4.9481 -14.7254
# 2 28.2539 69.8031 6.0501 7.1189 -4.4105 -13.4832
# 3 2.9756 6.0501 70.1230 12.8369 -1.3894 -10.2827
# 4 -6.8769 7.1189 12.8369 33.4754 -1.2876 3.1188
# 5 4.9481 -4.4105 -1.3894 -1.2876 46.5804 3.5182
# 6 -14.7254 -13.4832 -10.2827 3.1188 3.5182 37.7052
#
#
#
# Elastic Compliance Matrix: (Units=1/GPa)
#
#
# Indices 1 2 3 4 5 6 
#
# 1 0.020389 -0.008048 -0.000549 0.005545 -0.003151 0.004770
# 2 -0.008048 0.019111 0.000477 -0.006201 0.002195 0.004129
# 3 -0.000549 0.000477 0.016232 -0.006899 0.000023 0.004951
# 4 0.005545 -0.006201 -0.006899 0.035428 -0.000036 -0.004860
# 5 -0.003151 0.002195 0.000023 -0.000036 0.022200 -0.002508
# 6 0.004770 0.004129 0.004951 -0.004860 -0.002508 0.031847
#
#
# Mechanical properties :
#
#
# Convention : Reuss Voigt Hill
#
# Bulk Modulus (GPa) = 25.32184 31.20485 28.26335
# Shear Modulus (GPa) = 28.63480 34.81920 31.72700
#
# Velocity S-wave (km/s) = 3.52207 3.88383 3.70736
# Velocity P-wave (km/s) = 5.24497 5.79918 5.52902
#
# Compressibility (1/GPa) = 0.03949160
#
# Stress axis : x y z
#
# Youngs Moduli (GPa) = 49.04518 52.32571 61.60549
#
# Poissons Ratio (x) = 0.42114 0.03381
# Poissons Ratio (y) = 0.39474 -0.02937
# Poissons Ratio (z) = 0.02692 -0.02494
#
# Static dielectric constant tensor:
#      x y z
#    x 1.860510 -0.021710 0.000880 
#    y -0.021710 1.910580 -0.070760 
#    z 0.000880 -0.070760 1.818560 
# 
# From -- ./inp_files/11285.got.cif
#   From: 2010.05.17/outbox.cif.g08.bks.cpg/sg2_6_cif.got.tgz:11285.got - 2010.06.03 11:33:40.
