data_PCOD9022792
_publ_section_title
;
Structure prediction by ZEFSAII (Michael W. Deem and Ramdas Pophale) SiO2 
 PCOD9022792
Probable space group: P -1
;
_chemical_formula_sum "Si O2"
_cell_formula_units_Z 16
_cell_length_a 7.739769
_cell_length_b 9.247988
_cell_length_c 11.993320
_cell_angle_alpha 62.652860
_cell_angle_beta 94.277465
_cell_angle_gamma 92.199505
_cell_volume 760.376552
_symmetry_space_group_name_H-M "P -1"
_symmetry_group_IT_number 2
_symmetry_cell_setting 'triclinic'
loop_
_space_group_symop_operation_xyz
x,y,z
-x,-y,-z
loop_
_atom_site_type_symbol
_atom_site_label
_atom_site_fract_x
_atom_site_fract_y
_atom_site_fract_z
Si Si1 0.839202 0.630101 0.673518
Si Si2 0.278390 0.079760 0.171018
Si Si3 0.828379 0.602504 0.943891
Si Si4 0.373157 0.696967 0.913948
Si Si5 0.297020 0.022434 0.451591
Si Si6 0.225229 0.691578 0.671141
Si Si7 0.404659 0.837244 0.102084
Si Si8 0.490006 0.537636 0.353309
O O1 0.797139 0.628775 0.802921
O O2 0.777071 0.807755 0.565537
O O3 0.712223 0.497571 0.664834
O O4 0.042405 0.600624 0.681211
O O5 0.145809 0.216179 0.073477
O O6 0.454873 0.191938 0.135208
O O7 0.267113 0.026775 0.316489
O O8 0.273911 0.922372 0.150257
O O9 0.669415 0.498449 0.023078
O O10 0.000000 0.500000 0.000000
O O11 0.259706 0.739468 0.784562
O O12 0.330670 0.742921 0.024143
O O13 0.500000 0.000000 0.500000
O O14 0.205818 0.862847 0.549064
O O15 0.384256 0.588661 0.662481
O O16 0.516271 0.713135 0.229910
O O17 0.500000 0.000000 0.000000
O O18 0.500000 0.500000 0.500000
#
# Coordination Sequence:
#
# PCOD9022792 Si02
#       8
#     2   2   2   2   2   2   2   2
#     4  11  24  40  67 102 130 174 233 281 335 405
#     4  10  22  39  64  91 132 179 222 275 343 401
#     4  11  21  38  65  94 132 166 225 280 326 400
#     4  11  21  37  67  95 125 169 228 272 336 395
#     4  11  20  40  65  97 134 174 227 284 336 399
#     4  12  24  40  71  99 131 177 228 287 339 404
#     4  10  24  39  64  98 135 176 228 281 342 410
#     4  12  26  45  70  94 137 186 230 279 346 416
#
# _framework density 21.042207999999999
#
# number of rings (size 3 to 8) (size 9 to 14) (size 15 to 20)
#    0.000    1.000    5.000    2.250    3.500    0.500 
#    0.000    0.625    5.500    0.000    0.000    0.000 
#    0.000    0.000    0.000    0.000    0.000    0.000 
#
# Total GULP energy -89069.378268 kJ/mol
# GULP energy per Si atom -5566.836142 kJ/mol
# Density = 2.099432 g / cm^3
# Si number density = 21.042208 Si / 1000 Ang^3
#
#
#
# Elastic Constant Matrix: (Units=GPa)
#
#
# Indices 1 2 3 4 5 6 
#
# 1 66.8849 -17.5706 10.0499 3.8908 5.4166 5.3672
# 2 -17.5706 58.9390 44.6466 -7.2669 7.0844 -8.7640
# 3 10.0499 44.6466 143.1169 -13.7439 -5.7134 -4.9961
# 4 3.8908 -7.2669 -13.7439 41.3602 4.1790 2.4959
# 5 5.4166 7.0844 -5.7134 4.1790 29.1138 -9.2278
# 6 5.3672 -8.7640 -4.9961 2.4959 -9.2278 23.7311
#
#
#
# Elastic Compliance Matrix: (Units=1/GPa)
#
#
# Indices 1 2 3 4 5 6 
#
# 1 0.019382 0.009734 -0.004970 -0.000603 -0.008469 -0.005065
# 2 0.009734 0.029229 -0.009964 0.001827 -0.010429 0.002248
# 3 -0.004970 -0.009964 0.010899 0.001638 0.005835 0.001835
# 4 -0.000603 0.001827 0.001638 0.025791 -0.004797 -0.003422
# 5 -0.008469 -0.010429 0.005835 -0.004797 0.045886 0.017640
# 6 -0.005065 0.002248 0.001835 -0.003422 0.017640 0.051720
#
#
# Mechanical properties :
#
#
# Convention : Reuss Voigt Hill
#
# Bulk Modulus (GPa) = 20.36299 38.13250 29.24774
# Shear Modulus (GPa) = 23.84592 34.29536 29.07064
#
# Velocity S-wave (km/s) = 3.37002 4.04150 3.72094
# Velocity P-wave (km/s) = 4.98407 6.31978 5.69124
#
# Compressibility (1/GPa) = 0.04910871
#
# Stress axis : x y z
#
# Youngs Moduli (GPa) = 51.59349 34.21210 91.75064
#
# Poissons Ratio (x) = -0.33301 0.45604
# Poissons Ratio (y) = -0.50219 0.91423
# Poissons Ratio (z) = 0.25644 0.34090
#
# Static dielectric constant tensor:
#      x y z
#    x 1.874870 -0.064330 0.018380 
#    y -0.064330 1.812120 -0.056670 
#    z 0.018380 -0.056670 1.847030 
# 
# From -- ./inp_files/378022.got.cif
#   From: 2010.05.17/outbox.cif.g08.bks.cpg/sg2_190_cif.got.tgz:378022.got - 2010.06.03 11:33:40.
