data_PCOD9022983
_publ_section_title
;
Structure prediction by ZEFSAII (Michael W. Deem and Ramdas Pophale) SiO2 
 PCOD9022983
Probable space group: P -1
;
_chemical_formula_sum "Si O2"
_cell_formula_units_Z 16
_cell_length_a 24.220569
_cell_length_b 5.228240
_cell_length_c 6.758737
_cell_angle_alpha 106.201793
_cell_angle_beta 75.189355
_cell_angle_gamma 112.142173
_cell_volume 750.291838
_symmetry_space_group_name_H-M "P -1"
_symmetry_group_IT_number 2
_symmetry_cell_setting 'triclinic'
loop_
_space_group_symop_operation_xyz
x,y,z
-x,-y,-z
loop_
_atom_site_type_symbol
_atom_site_label
_atom_site_fract_x
_atom_site_fract_y
_atom_site_fract_z
Si Si1 0.351996 0.379544 0.353144
Si Si2 0.736235 0.927365 0.950468
Si Si3 0.944524 0.710870 0.667762
Si Si4 0.121053 0.834701 0.121515
Si Si5 0.424910 0.761772 0.064487
Si Si6 0.322723 0.615747 0.838130
Si Si7 0.957150 0.373613 0.200711
Si Si8 0.483652 0.336457 0.276205
O O1 0.298073 0.142555 0.244331
O O2 0.371323 0.642217 0.243405
O O3 0.335438 0.473579 0.597379
O O4 0.415614 0.321413 0.288740
O O5 0.807849 0.026272 0.885008
O O6 0.712137 0.645257 0.043814
O O7 0.715503 0.176545 0.115273
O O8 0.903905 0.446481 0.781516
O O9 0.952032 0.595045 0.418547
O O10 0.009051 0.806923 0.745077
O O11 0.914235 0.951110 0.739275
O O12 0.105123 0.774450 0.889269
O O13 0.474299 0.002926 0.197672
O O14 0.387319 0.799321 0.915155
O O15 0.459989 0.554696 0.903056
O O16 0.000000 0.500000 0.000000
O O17 0.500000 0.500000 0.500000
#
# Coordination Sequence:
#
# PCOD9022983 Si02
#       8
#     2   2   2   2   2   2   2   2
#     4  11  24  40  63  86 127 159 205 256 316 371
#     4  11  26  43  64  91 125 165 213 259 303 367
#     4  10  22  39  65  95 128 168 207 255 311 362
#     4  11  23  41  63  92 127 167 214 256 304 365
#     4  10  23  39  60  90 121 154 202 254 312 381
#     4  11  24  43  65  89 121 165 207 255 316 366
#     4   9  21  39  64  96 133 165 206 257 310 363
#     4  11  21  39  62  91 119 157 199 255 316 376
#
# _framework density 21.325036000000001
#
# number of rings (size 3 to 8) (size 9 to 14) (size 15 to 20)
#    0.000    1.500    2.500    1.500    1.750    9.000 
#    0.000    0.000    0.000    0.000    0.000    0.000 
#    0.000    0.000    0.000    0.000    0.000    0.000 
#
# Total GULP energy -89216.968462 kJ/mol
# GULP energy per Si atom -5576.060529 kJ/mol
# Density = 2.127650 g / cm^3
# Si number density = 21.325036 Si / 1000 Ang^3
#
#
#
# Elastic Constant Matrix: (Units=GPa)
#
#
# Indices 1 2 3 4 5 6 
#
# 1 130.3586 24.0880 33.3476 6.1767 11.9286 18.2841
# 2 24.0880 75.4563 20.4531 1.2723 -0.8679 5.4832
# 3 33.3476 20.4531 124.1655 15.4476 16.7837 21.3043
# 4 6.1767 1.2723 15.4476 21.6034 1.3679 -5.2703
# 5 11.9286 -0.8679 16.7837 1.3679 23.5287 11.5616
# 6 18.2841 5.4832 21.3043 -5.2703 11.5616 30.4172
#
#
#
# Elastic Compliance Matrix: (Units=1/GPa)
#
#
# Indices 1 2 3 4 5 6 
#
# 1 0.009229 -0.002410 -0.000698 -0.002948 -0.001937 -0.004399
# 2 -0.002410 0.014724 -0.002256 0.000983 0.003750 -0.000880
# 3 -0.000698 -0.002256 0.011602 -0.009563 -0.003748 -0.007532
# 4 -0.002948 0.000983 -0.009563 0.059248 -0.005179 0.020527
# 5 -0.001937 0.003750 -0.003748 -0.005179 0.055959 -0.019054
# 6 -0.004399 -0.000880 -0.007532 0.020527 -0.019054 0.051753
#
#
# Mechanical properties :
#
#
# Convention : Reuss Voigt Hill
#
# Bulk Modulus (GPa) = 40.28102 53.97310 47.12706
# Shear Modulus (GPa) = 22.57143 31.91599 27.24371
#
# Velocity S-wave (km/s) = 3.25691 3.87285 3.57815
# Velocity P-wave (km/s) = 5.75094 6.73523 6.26245
#
# Compressibility (1/GPa) = 0.02482559
#
# Stress axis : x y z
#
# Youngs Moduli (GPa) = 108.35464 67.91585 86.19399
#
# Poissons Ratio (x) = 0.16366 0.06020
# Poissons Ratio (y) = 0.26111 0.19448
# Poissons Ratio (z) = 0.07568 0.15324
#
# Static dielectric constant tensor:
#      x y z
#    x 1.828630 -0.009280 0.020680 
#    y -0.009280 1.918800 -0.029720 
#    z 0.020680 -0.029720 1.745040 
# 
# From -- ./inp_files/12933.got.cif
#   From: 2010.05.17/outbox.cif.g08.bks.cpg/sg2_7_cif.got.tgz:12933.got - 2010.06.03 11:33:40.
