data_PCOD9022481
_publ_section_title
;
Structure prediction by ZEFSAII (Michael W. Deem and Ramdas Pophale) SiO2 
 PCOD9022481
Probable space group: P -1
;
_chemical_formula_sum "Si O2"
_cell_formula_units_Z 16
_cell_length_a 19.363712
_cell_length_b 7.870451
_cell_length_c 6.519538
_cell_angle_alpha 68.353075
_cell_angle_beta 118.386380
_cell_angle_gamma 122.347750
_cell_volume 729.651467
_symmetry_space_group_name_H-M "P -1"
_symmetry_group_IT_number 2
_symmetry_cell_setting 'triclinic'
loop_
_space_group_symop_operation_xyz
x,y,z
-x,-y,-z
loop_
_atom_site_type_symbol
_atom_site_label
_atom_site_fract_x
_atom_site_fract_y
_atom_site_fract_z
Si Si1 0.609002 0.297522 0.498649
Si Si2 0.254183 0.827598 0.432379
Si Si3 0.254583 0.176337 0.039601
Si Si4 0.447362 0.019095 0.111322
Si Si5 0.835294 0.118165 0.337163
Si Si6 0.899104 0.871751 0.847231
Si Si7 0.398456 0.364841 0.867201
Si Si8 0.903744 0.450965 0.955586
O O1 0.681930 0.271918 0.478744
O O2 0.517803 0.160425 0.316682
O O3 0.624297 0.529609 0.404400
O O4 0.606419 0.197817 0.759296
O O5 0.229691 0.840374 0.623855
O O6 0.165442 0.699522 0.237503
O O7 0.293098 0.051503 0.287626
O O8 0.176443 0.183524 0.060158
O O9 0.336973 0.363087 0.971308
O O10 0.209137 0.042100 0.835184
O O11 0.391832 0.141550 0.924005
O O12 0.500000 0.000000 0.000000
O O13 0.890066 0.331022 0.204435
O O14 0.881656 0.014246 0.593006
O O15 0.890928 0.655349 0.855604
O O16 0.000000 0.000000 0.000000
O O17 0.500000 0.500000 0.000000
O O18 0.000000 0.500000 0.000000
#
# Coordination Sequence:
#
# PCOD9022481 Si02
#       8
#     2   2   2   2   2   2   2   2
#     4  10  22  39  62  90 124 165 209 265 320 374
#     4  10  22  41  65  94 128 164 220 261 317 391
#     4  10  22  43  65  94 134 165 218 268 318 387
#     4  10  22  41  63  89 125 167 211 266 316 380
#     4  10  24  42  66  94 128 174 204 270 326 371
#     4  11  25  44  68  98 128 169 216 265 321 390
#     4  10  22  41  61  92 131 165 211 269 315 380
#     4  11  25  43  65  96 132 166 213 266 319 392
#
# _framework density 21.928277000000001
#
# number of rings (size 3 to 8) (size 9 to 14) (size 15 to 20)
#    0.000    1.750    1.250    2.250    5.250    4.500 
#    2.250    0.000    0.000    0.000    0.000    0.000 
#    0.000    0.000    0.000    0.000    0.000    0.000 
#
# Total GULP energy -89364.211730 kJ/mol
# GULP energy per Si atom -5585.263233 kJ/mol
# Density = 2.187837 g / cm^3
# Si number density = 21.928277 Si / 1000 Ang^3
#
#
#
# Elastic Constant Matrix: (Units=GPa)
#
#
# Indices 1 2 3 4 5 6 
#
# 1 137.4106 35.9952 60.9118 -25.3066 0.0469 -7.6443
# 2 35.9952 64.6412 45.4708 -21.3888 -1.3434 1.6155
# 3 60.9118 45.4708 108.3581 -42.7564 -11.7999 -10.5317
# 4 -25.3066 -21.3888 -42.7564 38.8378 -1.3870 2.7783
# 5 0.0469 -1.3434 -11.7999 -1.3870 35.5104 -3.2526
# 6 -7.6443 1.6155 -10.5317 2.7783 -3.2526 39.8188
#
#
#
# Elastic Compliance Matrix: (Units=1/GPa)
#
#
# Indices 1 2 3 4 5 6 
#
# 1 0.010038 -0.002260 -0.004896 -0.000198 -0.001679 0.000600
# 2 -0.002260 0.023347 -0.008046 0.002730 -0.002035 -0.003866
# 3 -0.004896 -0.008046 0.024445 0.019237 0.009057 0.005249
# 4 -0.000198 0.002730 0.019237 0.048446 0.008595 0.002261
# 5 -0.001679 -0.002035 0.009057 0.008595 0.031812 0.004155
# 6 0.000600 -0.003866 0.005249 0.002261 0.004155 0.026956
#
#
# Mechanical properties :
#
#
# Convention : Reuss Voigt Hill
#
# Bulk Modulus (GPa) = 36.46629 66.12949 51.29789
# Shear Modulus (GPa) = 24.43901 34.03554 29.23728
#
# Velocity S-wave (km/s) = 3.34203 3.94398 3.65542
# Velocity P-wave (km/s) = 5.61766 7.13881 6.42342
#
# Compressibility (1/GPa) = 0.02742259
#
# Stress axis : x y z
#
# Youngs Moduli (GPa) = 99.62497 42.83292 40.90820
#
# Poissons Ratio (x) = 0.09682 0.20030
# Poissons Ratio (y) = 0.22519 0.32917
# Poissons Ratio (z) = 0.48780 0.34465
#
# Static dielectric constant tensor:
#      x y z
#    x 1.780490 0.011560 0.006050 
#    y 0.011560 1.828610 -0.038550 
#    z 0.006050 -0.038550 1.814840 
# 
# From -- ./inp_files/46506.got.cif
#   From: 2010.05.17/outbox.cif.g08.bks.cpg/sg2_24_cif.got.tgz:46506.got - 2010.06.03 11:33:40.
