data_PCOD9022229
_publ_section_title
;
Structure prediction by ZEFSAII (Michael W. Deem and Ramdas Pophale) SiO2 
 PCOD9022229
Probable space group: P -1
;
_chemical_formula_sum "Si O2"
_cell_formula_units_Z 14
_cell_length_a 14.844388
_cell_length_b 7.130348
_cell_length_c 4.803749
_cell_angle_alpha 71.746297
_cell_angle_beta 86.080435
_cell_angle_gamma 93.765530
_cell_volume 479.701219
_symmetry_space_group_name_H-M "P -1"
_symmetry_group_IT_number 2
_symmetry_cell_setting 'triclinic'
loop_
_space_group_symop_operation_xyz
x,y,z
-x,-y,-z
loop_
_atom_site_type_symbol
_atom_site_label
_atom_site_fract_x
_atom_site_fract_y
_atom_site_fract_z
Si Si1 0.582152 0.942912 0.305448
Si Si2 0.698021 0.309183 0.302166
Si Si3 0.068885 0.288826 0.394527
Si Si4 0.333050 0.312194 0.129121
Si Si5 0.548646 0.369121 0.769728
Si Si6 0.802751 0.010184 0.732114
Si Si7 0.944110 0.261219 0.940296
O O1 0.643841 0.797042 0.531774
O O2 0.528979 0.819475 0.122308
O O3 0.500000 0.000000 0.500000
O O4 0.638784 0.157647 0.177151
O O5 0.636763 0.330559 0.580075
O O6 0.778004 0.187637 0.456276
O O7 0.729321 0.521773 0.064335
O O8 0.034286 0.265839 0.726357
O O9 0.087375 0.519969 0.203515
O O10 0.850573 0.842227 0.632857
O O11 0.980642 0.221065 0.256174
O O12 0.416154 0.485453 0.055084
O O13 0.289493 0.112806 0.079638
O O14 0.500000 0.500000 0.500000
O O15 0.868138 0.102824 0.912126
#
# Coordination Sequence:
#
# PCOD9022229 Si02
#       7
#     2   2   2   2   2   2   2
#     4   8  17  36  60  86 122 168 229 284 331 408
#     4  10  22  40  60  94 134 179 225 284 359 411
#     4  10  23  46  75 106 139 190 243 292 353 426
#     4  10  22  39  59  94 132 178 220 281 358 411
#     4   9  19  38  62  88 128 171 230 288 333 412
#     4  11  24  43  66 101 142 177 230 293 350 432
#     4  10  23  46  75 106 140 189 243 291 354 429
#
# _framework density 29.184837000000002
#
# number of rings (size 3 to 8) (size 9 to 14) (size 15 to 20)
#    0.000    2.286    0.000    0.857    2.000    9.143 
#    5.143   10.000    0.000    0.000    0.000    0.000 
#    0.000    0.000    0.000    0.000    0.000    0.000 
#
# Total GULP energy -78303.800655 kJ/mol
# GULP energy per Si atom -5593.128618 kJ/mol
# Density = 2.911841 g / cm^3
# Si number density = 29.184837 Si / 1000 Ang^3
#
#
#
# Elastic Constant Matrix: (Units=GPa)
#
#
# Indices 1 2 3 4 5 6 
#
# 1 91.5736 24.7055 17.2596 -5.6199 -2.9414 -12.3343
# 2 24.7055 181.4995 54.9986 -27.3101 22.7950 0.5892
# 3 17.2596 54.9986 138.6400 -19.3056 5.4905 -11.5614
# 4 -5.6199 -27.3101 -19.3056 62.4379 -4.8608 4.0342
# 5 -2.9414 22.7950 5.4905 -4.8608 22.0066 -5.5612
# 6 -12.3343 0.5892 -11.5614 4.0342 -5.5612 51.8038
#
#
#
# Elastic Compliance Matrix: (Units=1/GPa)
#
#
# Indices 1 2 3 4 5 6 
#
# 1 0.012198 -0.002069 -0.000589 0.000171 0.004791 0.003297
# 2 -0.002069 0.007826 -0.002433 0.002009 -0.007869 -0.002126
# 3 -0.000589 -0.002433 0.008567 0.001500 0.001090 0.001800
# 4 0.000171 0.002009 0.001500 0.017526 0.001215 -0.000882
# 5 0.004791 -0.007869 0.001090 0.001215 0.056099 0.007401
# 6 0.003297 -0.002126 0.001800 -0.000882 0.007401 0.021378
#
#
# Mechanical properties :
#
#
# Convention : Reuss Voigt Hill
#
# Bulk Modulus (GPa) = 54.31748 67.29338 60.80543
# Shear Modulus (GPa) = 35.73695 48.23293 41.98494
#
# Velocity S-wave (km/s) = 3.50309 4.06972 3.79699
# Velocity P-wave (km/s) = 5.91727 6.72244 6.33266
#
# Compressibility (1/GPa) = 0.01841028
#
# Stress axis : x y z
#
# Youngs Moduli (GPa) = 81.98226 127.77882 116.72420
#
# Poissons Ratio (x) = 0.26432 0.06874
# Poissons Ratio (y) = 0.16959 0.28398
# Poissons Ratio (z) = 0.04828 0.31087
#
# Static dielectric constant tensor:
#      x y z
#    x 2.882810 -0.417520 -0.614660 
#    y -0.417520 2.479670 0.476050 
#    z -0.614660 0.476050 4.651660 
# 
# From -- ./inp_files/103660.got.cif
#   From: 2010.05.17/outbox.cif.g08.bks.cpg/sg2_52_cif.got.tgz:103660.got - 2010.06.03 11:33:40.
