data_PCOD9022033
_publ_section_title
;
Structure prediction by ZEFSAII (Michael W. Deem and Ramdas Pophale) SiO2 
 PCOD9022033
Probable space group: P -1
;
_chemical_formula_sum "Si O2"
_cell_formula_units_Z 12
_cell_length_a 13.193428
_cell_length_b 5.480455
_cell_length_c 9.620256
_cell_angle_alpha 90.489766
_cell_angle_beta 133.833666
_cell_angle_gamma 85.484757
_cell_volume 499.194371
_symmetry_space_group_name_H-M "P -1"
_symmetry_group_IT_number 2
_symmetry_cell_setting 'triclinic'
loop_
_space_group_symop_operation_xyz
x,y,z
-x,-y,-z
loop_
_atom_site_type_symbol
_atom_site_label
_atom_site_fract_x
_atom_site_fract_y
_atom_site_fract_z
Si Si1 0.194881 0.785730 0.412328
Si Si2 0.352852 0.001683 0.048015
Si Si3 0.896961 0.611241 0.209159
Si Si4 0.401677 0.708476 0.828106
Si Si5 0.585414 0.237448 0.615370
Si Si6 0.931083 0.810624 0.533052
O O1 0.296659 0.620711 0.613297
O O2 0.270998 0.780855 0.338301
O O3 0.036889 0.712359 0.277046
O O4 0.183708 0.054050 0.474111
O O5 0.496418 0.123564 0.155613
O O6 0.376038 0.797711 0.187008
O O7 0.236750 0.225913 0.978147
O O8 0.320696 0.871403 0.872104
O O9 0.875945 0.644428 0.357556
O O10 0.946551 0.323002 0.253230
O O11 0.500000 0.500000 0.000000
O O12 0.500000 0.500000 0.500000
O O13 0.500000 0.000000 0.500000
O O14 0.000000 0.000000 0.500000
#
# Coordination Sequence:
#
# PCOD9022033 Si02
#       6
#     2   2   2   2   2   2
#     4  11  23  42  69  97 139 182 232 280 360 415
#     4  11  25  43  66 103 135 178 239 289 347 419
#     4  10  22  38  69 100 135 176 231 292 352 409
#     4  11  24  39  68 100 135 178 233 289 345 416
#     4  12  28  51  72 101 145 194 233 292 360 426
#     4   9  20  38  62  98 136 174 216 281 352 411
#
# _framework density 24.038734999999999
#
# number of rings (size 3 to 8) (size 9 to 14) (size 15 to 20)
#    0.000    1.333    3.333    1.000    9.333    0.667 
#    0.000    0.833    0.000    0.000    0.000    0.000 
#    0.000    0.000    0.000    0.000    0.000    0.000 
#
# Total GULP energy -67058.412228 kJ/mol
# GULP energy per Si atom -5588.201019 kJ/mol
# Density = 2.398402 g / cm^3
# Si number density = 24.038735 Si / 1000 Ang^3
#
#
#
# Elastic Constant Matrix: (Units=GPa)
#
#
# Indices 1 2 3 4 5 6 
#
# 1 192.8173 35.5338 51.7351 -18.1426 -10.7696 7.6192
# 2 35.5338 75.0285 22.9750 -36.8125 -1.3621 -0.8700
# 3 51.7351 22.9750 107.2126 -43.0678 -2.0589 1.6487
# 4 -18.1426 -36.8125 -43.0678 44.9320 -1.9174 8.6853
# 5 -10.7696 -1.3621 -2.0589 -1.9174 42.7812 -8.1828
# 6 7.6192 -0.8700 1.6487 8.6853 -8.1828 37.9016
#
#
#
# Elastic Compliance Matrix: (Units=1/GPa)
#
#
# Indices 1 2 3 4 5 6 
#
# 1 0.006705 -0.004180 -0.004216 -0.004723 0.001154 0.000071
# 2 -0.004180 0.027248 0.008133 0.029525 0.000468 -0.005553
# 3 -0.004216 0.008133 0.019725 0.024938 0.000214 -0.005492
# 4 -0.004723 0.029525 0.024938 0.071506 0.001174 -0.015590
# 5 0.001154 0.000468 0.000214 0.001174 0.024666 0.004826
# 6 0.000071 -0.005553 -0.005492 -0.015590 0.004826 0.031096
#
#
# Mechanical properties :
#
#
# Convention : Reuss Voigt Hill
#
# Bulk Modulus (GPa) = 18.81401 66.17180 42.49291
# Shear Modulus (GPa) = 25.10177 42.77727 33.93952
#
# Velocity S-wave (km/s) = 3.23495 4.22301 3.76156
# Velocity P-wave (km/s) = 4.66869 7.16696 6.04822
#
# Compressibility (1/GPa) = 0.05315188
#
# Stress axis : x y z
#
# Youngs Moduli (GPa) = 149.14282 36.70004 50.69657
#
# Poissons Ratio (x) = 0.15340 0.21372
# Poissons Ratio (y) = 0.62340 -0.41229
# Poissons Ratio (z) = 0.62875 -0.29846
#
# Static dielectric constant tensor:
#      x y z
#    x 1.885190 -0.012570 0.076310 
#    y -0.012570 2.080670 0.034450 
#    z 0.076310 0.034450 2.001760 
# 
# From -- ./inp_files/117179.got.cif
#   From: 2010.05.17/outbox.cif.g08.bks.cpg/sg2_59_cif.got.tgz:117179.got - 2010.06.03 11:33:40.
