data_PCOD9022620
_publ_section_title
;
Structure prediction by ZEFSAII (Michael W. Deem and Ramdas Pophale) SiO2 
 PCOD9022620
Probable space group: P -1
;
_chemical_formula_sum "Si O2"
_cell_formula_units_Z 12
_cell_length_a 7.766875
_cell_length_b 9.072023
_cell_length_c 9.025273
_cell_angle_alpha 78.471779
_cell_angle_beta 133.333127
_cell_angle_gamma 107.954847
_cell_volume 439.972151
_symmetry_space_group_name_H-M "P -1"
_symmetry_group_IT_number 2
_symmetry_cell_setting 'triclinic'
loop_
_space_group_symop_operation_xyz
x,y,z
-x,-y,-z
loop_
_atom_site_type_symbol
_atom_site_label
_atom_site_fract_x
_atom_site_fract_y
_atom_site_fract_z
Si Si1 0.650135 0.558383 0.854356
Si Si2 0.997816 0.048021 0.657651
Si Si3 0.533230 0.856687 0.450535
Si Si4 0.860376 0.455680 0.705368
Si Si5 0.801267 0.302079 0.338159
Si Si6 0.480751 0.803181 0.086008
O O1 0.759095 0.551657 0.754114
O O2 0.445429 0.645500 0.769875
O O3 0.529683 0.377052 0.853568
O O4 0.903050 0.600944 0.087256
O O5 0.887052 0.199023 0.535329
O O6 0.268670 0.108959 0.861005
O O7 0.821860 0.893412 0.649405
O O8 0.000000 0.000000 0.500000
O O9 0.364575 0.690711 0.419410
O O10 0.478759 0.871616 0.238194
O O11 0.500000 0.000000 0.500000
O O12 0.967746 0.563247 0.608144
O O13 0.723342 0.207308 0.157187
#
# Coordination Sequence:
#
# PCOD9022620 Si02
#       6
#     2   2   2   2   2   2
#     4   9  19  37  67 102 129 165 223 276 325 382
#     4  10  24  44  62  96 135 174 214 272 334 390
#     4  10  22  39  63  91 137 175 207 268 335 386
#     4   9  19  40  66  97 133 170 218 276 322 387
#     4  11  22  41  75  96 124 178 225 267 330 391
#     4   9  20  42  66  93 130 171 216 273 326 387
#
# _framework density 27.274452
#
# number of rings (size 3 to 8) (size 9 to 14) (size 15 to 20)
#    0.000    2.333    0.000    3.000    4.667    3.333 
#    6.000    5.000    0.000    0.000    0.000    0.000 
#    0.000    0.000    0.000    0.000    0.000    0.000 
#
# Total GULP energy -67001.629188 kJ/mol
# GULP energy per Si atom -5583.469099 kJ/mol
# Density = 2.721237 g / cm^3
# Si number density = 27.274452 Si / 1000 Ang^3
#
#
#
# Elastic Constant Matrix: (Units=GPa)
#
#
# Indices 1 2 3 4 5 6 
#
# 1 150.4178 73.1915 56.0634 14.6708 19.4053 10.1303
# 2 73.1915 152.7605 62.1905 19.5940 19.4823 26.4676
# 3 56.0634 62.1905 124.5081 27.6635 9.4655 8.2917
# 4 14.6708 19.5940 27.6635 54.3132 2.9256 16.6547
# 5 19.4053 19.4823 9.4655 2.9256 55.1886 16.8695
# 6 10.1303 26.4676 8.2917 16.6547 16.8695 67.0177
#
#
#
# Elastic Compliance Matrix: (Units=1/GPa)
#
#
# Indices 1 2 3 4 5 6 
#
# 1 0.009410 -0.003389 -0.002399 -0.000225 -0.001919 0.000751
# 2 -0.003389 0.010113 -0.003226 -0.000181 -0.000961 -0.002796
# 3 -0.002399 -0.003226 0.011654 -0.004534 -0.000195 0.001371
# 4 -0.000225 -0.000181 -0.004534 0.022379 0.001333 -0.005231
# 5 -0.001919 -0.000961 -0.000195 0.001333 0.020568 -0.004815
# 6 0.000751 -0.002796 0.001371 -0.005231 -0.004815 0.018254
#
#
# Mechanical properties :
#
#
# Convention : Reuss Voigt Hill
#
# Bulk Modulus (GPa) = 76.04537 90.06412 83.05474
# Shear Modulus (GPa) = 43.55793 51.05331 47.30562
#
# Velocity S-wave (km/s) = 4.00061 4.33117 4.16917
# Velocity P-wave (km/s) = 7.02011 7.62267 7.32759
#
# Compressibility (1/GPa) = 0.01315005
#
# Stress axis : x y z
#
# Youngs Moduli (GPa) = 106.27063 98.87851 85.80689
#
# Poissons Ratio (x) = 0.33507 0.20583
# Poissons Ratio (y) = 0.36011 0.27684
# Poissons Ratio (z) = 0.25492 0.31901
#
# Static dielectric constant tensor:
#      x y z
#    x -1.589920 -1.920270 -1.608330 
#    y -1.920270 1.341410 -0.860400 
#    z -1.608330 -0.860400 1.447310 
# 
# From -- ./inp_files/382149.got.cif
#   From: 2010.05.17/outbox.cif.g08.bks.cpg/sg2_192_cif.got.tgz:382149.got - 2010.06.03 11:33:40.
