data_PCOD9022013
_publ_section_title
;
Structure prediction by ZEFSAII (Michael W. Deem and Ramdas Pophale) SiO2 
 PCOD9022013
Probable space group: P -1
;
_chemical_formula_sum "Si O2"
_cell_formula_units_Z 14
_cell_length_a 7.109344
_cell_length_b 26.012300
_cell_length_c 5.118675
_cell_angle_alpha 66.771905
_cell_angle_beta 66.771202
_cell_angle_gamma 35.976799
_cell_volume 506.023713
_symmetry_space_group_name_H-M "P -1"
_symmetry_group_IT_number 2
_symmetry_cell_setting 'triclinic'
loop_
_space_group_symop_operation_xyz
x,y,z
-x,-y,-z
loop_
_atom_site_type_symbol
_atom_site_label
_atom_site_fract_x
_atom_site_fract_y
_atom_site_fract_z
Si Si1 0.132895 0.573083 0.463700
Si Si2 0.476480 0.941597 0.715538
Si Si3 0.532492 0.648116 0.702866
Si Si4 0.982074 0.335241 0.164660
Si Si5 0.038066 0.793852 0.038325
Si Si6 0.379333 0.900454 0.347313
Si Si7 0.367139 0.800041 0.207516
O O1 0.500000 0.500000 0.500000
O O2 0.114678 0.595828 0.128451
O O3 0.919836 0.562610 0.651995
O O4 0.967488 0.651395 0.602546
O O5 0.306292 0.940101 0.591055
O O6 0.845781 0.845542 0.770797
O O7 0.500000 0.000000 0.500000
O O8 0.320875 0.960972 0.041380
O O9 0.371799 0.693375 0.984166
O O10 0.463531 0.719839 0.437034
O O11 0.317431 0.643836 0.717947
O O12 0.321129 0.242972 0.037286
O O13 0.102433 0.837847 0.064656
O O14 0.776626 0.813717 0.302101
O O15 0.270745 0.865415 0.347822
#
# Coordination Sequence:
#
# PCOD9022013 Si02
#       7
#     2   2   2   2   2   2   2
#     4  11  26  44  66  98 136 176 220 267 325 399
#     4  10  22  43  66  94 136 178 218 273 337 399
#     4  11  24  40  69  96 134 172 221 275 334 388
#     4  11  24  42  69  95 133 174 219 271 333 386
#     4  10  22  38  68  95 132 169 224 276 333 385
#     4  10  23  40  68  93 132 174 219 276 338 390
#     4  11  23  40  67 102 133 169 230 280 335 397
#
# _framework density 27.666685999999999
#
# number of rings (size 3 to 8) (size 9 to 14) (size 15 to 20)
#    0.857    0.571    2.857    1.714    4.000    3.429 
#    0.000    1.429    0.000    0.000    0.000    0.000 
#    0.000    0.000    0.000    0.000    0.000    0.000 
#
# Total GULP energy -78413.137706 kJ/mol
# GULP energy per Si atom -5600.938408 kJ/mol
# Density = 2.760372 g / cm^3
# Si number density = 27.666686 Si / 1000 Ang^3
#
#
#
# Elastic Constant Matrix: (Units=GPa)
#
#
# Indices 1 2 3 4 5 6 
#
# 1 206.8487 10.1568 44.2808 18.3614 8.3764 -14.4614
# 2 10.1568 42.0663 18.4075 17.5406 -0.2449 -11.0127
# 3 44.2808 18.4075 124.5650 13.8052 5.2152 -5.0277
# 4 18.3614 17.5406 13.8052 36.5997 -1.8706 -1.4658
# 5 8.3764 -0.2449 5.2152 -1.8706 63.2307 14.4055
# 6 -14.4614 -11.0127 -5.0277 -1.4658 14.4055 36.3945
#
#
#
# Elastic Compliance Matrix: (Units=1/GPa)
#
#
# Indices 1 2 3 4 5 6 
#
# 1 0.005631 0.001255 -0.001716 -0.002735 -0.001316 0.002791
# 2 0.001255 0.034159 -0.003228 -0.015487 -0.002694 0.010831
# 3 -0.001716 -0.003228 0.009253 -0.001118 -0.000532 -0.000215
# 4 -0.002735 -0.015487 -0.001118 0.036456 0.002736 -0.005542
# 5 -0.001316 -0.002694 -0.000532 0.002736 0.018026 -0.008436
# 6 0.002791 0.010831 -0.000215 -0.005542 -0.008436 0.034950
#
#
# Mechanical properties :
#
#
# Convention : Reuss Voigt Hill
#
# Bulk Modulus (GPa) = 24.00134 57.68557 40.84345
# Shear Modulus (GPa) = 31.30057 47.28730 39.29394
#
# Velocity S-wave (km/s) = 3.36720 4.13871 3.77272
# Velocity P-wave (km/s) = 4.87969 6.61317 5.81143
#
# Compressibility (1/GPa) = 0.04166435
#
# Stress axis : x y z
#
# Youngs Moduli (GPa) = 177.57324 29.27492 108.07807
#
# Poissons Ratio (x) = -0.03673 0.18551
# Poissons Ratio (y) = -0.22280 0.34882
# Poissons Ratio (z) = 0.30480 0.09449
#
# Static dielectric constant tensor:
#      x y z
#    x 2.139230 -0.078260 -0.006370 
#    y -0.078260 2.344620 0.022730 
#    z -0.006370 0.022730 2.127880 
# 
# From -- ./inp_files/14479.got.cif
#   From: 2010.05.17/outbox.cif.g08.bks.cpg/sg2_8_cif.got.tgz:14479.got - 2010.06.03 11:33:40.
