data_PCOD9022531
_publ_section_title
;
Structure prediction by ZEFSAII (Michael W. Deem and Ramdas Pophale) SiO2 
 PCOD9022531
Probable space group: P -1
;
_chemical_formula_sum "Si O2"
_cell_formula_units_Z 16
_cell_length_a 6.430179
_cell_length_b 11.156410
_cell_length_c 11.077682
_cell_angle_alpha 117.495905
_cell_angle_beta 80.855221
_cell_angle_gamma 86.348096
_cell_volume 687.385852
_symmetry_space_group_name_H-M "P -1"
_symmetry_group_IT_number 2
_symmetry_cell_setting 'triclinic'
loop_
_space_group_symop_operation_xyz
x,y,z
-x,-y,-z
loop_
_atom_site_type_symbol
_atom_site_label
_atom_site_fract_x
_atom_site_fract_y
_atom_site_fract_z
Si Si1 0.134883 0.373257 0.278049
Si Si2 0.387139 0.104568 0.200758
Si Si3 0.549032 0.825385 0.505452
Si Si4 0.292115 0.459410 0.559652
Si Si5 0.282210 0.478155 0.073852
Si Si6 0.796172 0.108676 0.027591
Si Si7 0.842252 0.978134 0.395722
Si Si8 0.995397 0.730653 0.097705
O O1 0.221505 0.212835 0.191076
O O2 0.183461 0.403192 0.426441
O O3 0.266529 0.449869 0.205414
O O4 0.884428 0.427669 0.312320
O O5 0.360692 0.120904 0.353327
O O6 0.343318 0.959244 0.091076
O O7 0.623947 0.134929 0.162793
O O8 0.625367 0.664655 0.417115
O O9 0.662214 0.892433 0.419047
O O10 0.295357 0.875414 0.555763
O O11 0.500000 0.500000 0.500000
O O12 0.123576 0.617857 0.121790
O O13 0.500000 0.500000 0.000000
O O14 0.199610 0.344237 0.962286
O O15 0.870621 0.238362 0.017713
O O16 0.000000 0.000000 0.000000
O O17 0.945860 0.880151 0.234020
O O18 0.000000 0.000000 0.500000
#
# Coordination Sequence:
#
# PCOD9022531 Si02
#       8
#     2   2   2   2   2   2   2   2
#     4  10  22  41  63  92 126 168 218 265 326 393
#     4  10  22  39  62  94 129 168 216 269 331 392
#     4  10  23  40  60  91 122 160 213 263 324 391
#     4  10  23  40  64  93 126 165 213 273 327 386
#     4  11  25  43  65  91 131 175 217 271 325 390
#     4  11  22  38  63  93 130 171 216 272 327 393
#     4  11  24  42  66  92 127 168 211 271 331 392
#     4  11  25  41  62  95 126 168 223 265 324 395
#
# _framework density 23.276592000000001
#
# number of rings (size 3 to 8) (size 9 to 14) (size 15 to 20)
#    0.000    1.500    0.000    3.750    0.000   17.000 
#    0.000    0.000    0.000    0.000    0.000    0.000 
#    0.000    0.000    0.000    0.000    0.000    0.000 
#
# Total GULP energy -89384.104126 kJ/mol
# GULP energy per Si atom -5586.506508 kJ/mol
# Density = 2.322361 g / cm^3
# Si number density = 23.276592 Si / 1000 Ang^3
#
#
#
# Elastic Constant Matrix: (Units=GPa)
#
#
# Indices 1 2 3 4 5 6 
#
# 1 82.8102 31.9864 16.9886 18.1109 -17.0479 -1.8564
# 2 31.9864 76.8629 9.5388 -3.0806 -10.1139 -7.1751
# 3 16.9886 9.5388 79.5994 0.6802 -16.6853 -1.2327
# 4 18.1109 -3.0806 0.6802 33.9857 1.0005 -7.1658
# 5 -17.0479 -10.1139 -16.6853 1.0005 35.7148 -5.7688
# 6 -1.8564 -7.1751 -1.2327 -7.1658 -5.7688 47.4027
#
#
#
# Elastic Compliance Matrix: (Units=1/GPa)
#
#
# Indices 1 2 3 4 5 6 
#
# 1 0.019039 -0.007461 -0.001788 -0.011260 0.006234 -0.001374
# 2 -0.007461 0.016895 -0.000109 0.006177 0.001546 0.003384
# 3 -0.001788 -0.000109 0.014208 0.000719 0.005913 0.001111
# 4 -0.011260 0.006177 0.000719 0.037279 -0.003408 0.005734
# 5 0.006234 0.001546 0.005913 -0.003408 0.034977 0.004373
# 6 -0.001374 0.003384 0.001111 0.005734 0.004373 0.022982
#
#
# Mechanical properties :
#
#
# Convention : Reuss Voigt Hill
#
# Bulk Modulus (GPa) = 31.81817 39.58889 35.70353
# Shear Modulus (GPa) = 28.64155 35.47123 32.05639
#
# Velocity S-wave (km/s) = 3.51164 3.90795 3.71508
# Velocity P-wave (km/s) = 5.49012 6.11619 5.81159
#
# Compressibility (1/GPa) = 0.03142859
#
# Stress axis : x y z
#
# Youngs Moduli (GPa) = 52.52278 59.18784 70.38290
#
# Poissons Ratio (x) = 0.44158 0.12583
# Poissons Ratio (y) = 0.39185 0.00765
# Poissons Ratio (z) = 0.09390 0.00643
#
# Static dielectric constant tensor:
#      x y z
#    x 1.938390 -0.017590 -0.020320 
#    y -0.017590 1.867320 0.050400 
#    z -0.020320 0.050400 1.922040 
# 
# From -- ./inp_files/364947.got.cif
#   From: 2010.05.17/outbox.cif.g08.bks.cpg/sg2_183_cif.got.tgz:364947.got - 2010.06.03 11:33:40.
