data_PCOD9022331
_publ_section_title
;
Structure prediction by ZEFSAII (Michael W. Deem and Ramdas Pophale) SiO2 
 PCOD9022331
Probable space group: P -1
;
_chemical_formula_sum "Si O2"
_cell_formula_units_Z 16
_cell_length_a 4.831709
_cell_length_b 30.272579
_cell_length_c 5.625139
_cell_angle_alpha 72.344393
_cell_angle_beta 81.975910
_cell_angle_gamma 122.004046
_cell_volume 617.234843
_symmetry_space_group_name_H-M "P -1"
_symmetry_group_IT_number 2
_symmetry_cell_setting 'triclinic'
loop_
_space_group_symop_operation_xyz
x,y,z
-x,-y,-z
loop_
_atom_site_type_symbol
_atom_site_label
_atom_site_fract_x
_atom_site_fract_y
_atom_site_fract_z
Si Si1 0.885116 0.040527 0.265750
Si Si2 0.416925 0.772957 0.382801
Si Si3 0.777338 0.568012 0.394582
Si Si4 0.490806 0.627691 0.464395
Si Si5 0.752949 0.739754 0.017527
Si Si6 0.152066 0.660297 0.833372
Si Si7 0.875921 0.934848 0.312607
Si Si8 0.871807 0.167958 0.549325
O O1 0.096874 0.084316 0.391557
O O2 0.500000 0.000000 0.500000
O O3 0.004420 0.999935 0.254207
O O4 0.924806 0.064520 0.950853
O O5 0.595539 0.762894 0.168006
O O6 0.132764 0.708002 0.628728
O O7 0.247479 0.804950 0.289721
O O8 0.752040 0.814622 0.451841
O O9 0.500000 0.500000 0.500000
O O10 0.648753 0.593629 0.557480
O O11 0.158294 0.587563 0.392094
O O12 0.824647 0.604902 0.095834
O O13 0.778871 0.692584 0.218730
O O14 0.317938 0.638420 0.680320
O O15 0.448049 0.699661 0.929341
O O16 0.072782 0.793879 0.749758
O O17 0.466688 0.896915 0.351401
#
# Coordination Sequence:
#
# PCOD9022331 Si02
#       8
#     2   2   2   2   2   2   2   2
#     4  10  22  44  67  91 130 174 221 267 331 391
#     4  10  23  40  61  90 125 162 205 255 321 381
#     4  11  23  38  59  88 119 155 204 255 305 364
#     4  10  22  39  61  85 118 161 200 248 310 373
#     4   9  21  40  63  87 123 160 204 252 315 379
#     4   9  21  40  61  86 119 163 202 250 310 378
#     4  10  24  40  65  98 126 171 223 271 326 395
#     4  11  24  39  62  95 126 159 209 263 316 376
#
# _framework density 25.922062
#
# number of rings (size 3 to 8) (size 9 to 14) (size 15 to 20)
#    0.000    2.000    0.000    1.500    3.500   15.000 
#    0.000    0.000    0.000    0.000    0.000    0.000 
#    0.000    0.000    0.000    0.000    0.000    0.000 
#
# Total GULP energy -89449.786952 kJ/mol
# GULP energy per Si atom -5590.611684 kJ/mol
# Density = 2.586306 g / cm^3
# Si number density = 25.922062 Si / 1000 Ang^3
#
#
#
# Elastic Constant Matrix: (Units=GPa)
#
#
# Indices 1 2 3 4 5 6 
#
# 1 120.1760 19.2037 21.2121 0.8663 -10.2122 9.7638
# 2 19.2037 102.8531 58.5898 -7.3002 -1.7733 9.3837
# 3 21.2121 58.5898 133.0639 15.1882 -6.2664 16.8698
# 4 0.8663 -7.3002 15.1882 41.7363 4.8643 -5.2291
# 5 -10.2122 -1.7733 -6.2664 4.8643 29.4037 0.0308
# 6 9.7638 9.3837 16.8698 -5.2291 0.0308 37.9808
#
#
#
# Elastic Compliance Matrix: (Units=1/GPa)
#
#
# Indices 1 2 3 4 5 6 
#
# 1 0.009026 -0.001308 -0.000365 -0.000893 0.003128 -0.001961
# 2 -0.001308 0.014109 -0.006767 0.005254 -0.001915 0.000581
# 3 -0.000365 -0.006767 0.012002 -0.006463 0.003097 -0.004457
# 4 -0.000893 0.005254 -0.006463 0.028684 -0.006122 0.005757
# 5 0.003128 -0.001915 0.003097 -0.006122 0.036656 -0.002579
# 6 -0.001961 0.000581 -0.004457 0.005757 -0.002579 0.029464
#
#
# Mechanical properties :
#
#
# Convention : Reuss Voigt Hill
#
# Bulk Modulus (GPa) = 54.77680 61.56713 58.17196
# Shear Modulus (GPa) = 32.69986 38.96333 35.83159
#
# Velocity S-wave (km/s) = 3.55557 3.88118 3.72194
# Velocity P-wave (km/s) = 6.16712 6.62474 6.40002
#
# Compressibility (1/GPa) = 0.01825591
#
# Stress axis : x y z
#
# Youngs Moduli (GPa) = 110.78960 70.87898 83.32144
#
# Poissons Ratio (x) = 0.09270 0.03043
# Poissons Ratio (y) = 0.14490 0.56385
# Poissons Ratio (z) = 0.04046 0.47965
#
# Static dielectric constant tensor:
#      x y z
#    x 2.131680 0.008550 0.098580 
#    y 0.008550 2.013650 0.055450 
#    z 0.098580 0.055450 2.161310 
# 
# From -- ./inp_files/12441.got.cif
#   From: 2010.05.17/outbox.cif.g08.bks.cpg/sg2_7_cif.got.tgz:12441.got - 2010.06.03 11:33:40.
