data_PCOD9022379
_publ_section_title
;
Structure prediction by ZEFSAII (Michael W. Deem and Ramdas Pophale) SiO2 
 PCOD9022379
Probable space group: P -1
;
_chemical_formula_sum "Si O2"
_cell_formula_units_Z 14
_cell_length_a 10.736652
_cell_length_b 7.085360
_cell_length_c 9.806607
_cell_angle_alpha 89.355576
_cell_angle_beta 54.191452
_cell_angle_gamma 87.296049
_cell_volume 604.206698
_symmetry_space_group_name_H-M "P -1"
_symmetry_group_IT_number 2
_symmetry_cell_setting 'triclinic'
loop_
_space_group_symop_operation_xyz
x,y,z
-x,-y,-z
loop_
_atom_site_type_symbol
_atom_site_label
_atom_site_fract_x
_atom_site_fract_y
_atom_site_fract_z
Si Si1 0.178196 0.965522 0.919048
Si Si2 0.662331 0.703579 0.336149
Si Si3 0.179411 0.294316 0.280258
Si Si4 0.180686 0.872227 0.234991
Si Si5 0.572996 0.322817 0.281871
Si Si6 0.504034 0.224891 0.014845
Si Si7 0.079797 0.426196 0.622233
O O1 0.280137 0.129271 0.793966
O O2 0.257042 0.774494 0.808187
O O3 0.192321 0.945950 0.071905
O O4 0.000000 0.000000 0.000000
O O5 0.582091 0.544115 0.302209
O O6 0.542873 0.760086 0.533098
O O7 0.812506 0.613543 0.318212
O O8 0.334402 0.313603 0.092187
O O9 0.180754 0.409460 0.420275
O O10 0.026323 0.381383 0.304467
O O11 0.169680 0.070099 0.321267
O O12 0.038643 0.739540 0.324309
O O13 0.336937 0.744627 0.165165
O O14 0.524743 0.276398 0.159817
O O15 0.500000 0.000000 0.000000
#
# Coordination Sequence:
#
# PCOD9022379 Si02
#       7
#     2   2   2   2   2   2   2
#     4  11  23  40  62  94 125 163 205 259 320 373
#     4  11  23  41  66  93 129 167 208 260 315 377
#     4  10  22  40  62  87 122 164 213 253 305 371
#     4  10  22  39  61  91 122 161 207 257 315 364
#     4  10  23  42  64  94 126 167 214 256 313 377
#     4   9  19  41  65  86 126 164 206 256 305 373
#     4  11  22  38  63  92 123 162 206 259 311 368
#
# _framework density 23.170878999999999
#
# number of rings (size 3 to 8) (size 9 to 14) (size 15 to 20)
#    0.000    1.714    2.857    0.857    2.000    3.429 
#    0.000    5.714    0.000    0.000    0.000    0.000 
#    0.000    0.000    0.000    0.000    0.000    0.000 
#
# Total GULP energy -78213.964619 kJ/mol
# GULP energy per Si atom -5586.711758 kJ/mol
# Density = 2.311814 g / cm^3
# Si number density = 23.170879 Si / 1000 Ang^3
#
#
#
# Elastic Constant Matrix: (Units=GPa)
#
#
# Indices 1 2 3 4 5 6 
#
# 1 49.0194 -0.6555 22.0040 14.8911 -20.0219 7.2752
# 2 -0.6555 74.8318 32.2318 5.8811 2.2224 10.2122
# 3 22.0040 32.2318 101.9154 12.4332 -23.7365 2.5832
# 4 14.8911 5.8811 12.4332 41.3513 -9.0135 -7.4219
# 5 -20.0219 2.2224 -23.7365 -9.0135 42.6776 7.3574
# 6 7.2752 10.2122 2.5832 -7.4219 7.3574 30.7671
#
#
#
# Elastic Compliance Matrix: (Units=1/GPa)
#
#
# Indices 1 2 3 4 5 6 
#
# 1 0.033275 0.004395 -0.003668 -0.011239 0.013549 -0.014970
# 2 0.004395 0.017378 -0.006270 -0.003807 -0.001974 -0.006727
# 3 -0.003668 -0.006270 0.014134 -0.000643 0.006314 0.000097
# 4 -0.011239 -0.003807 -0.000643 0.030853 -0.000922 0.011638
# 5 0.013549 -0.001974 0.006314 -0.000922 0.035229 -0.011725
# 6 -0.014970 -0.006727 0.000097 0.011638 -0.011725 0.043878
#
#
# Mechanical properties :
#
#
# Convention : Reuss Voigt Hill
#
# Bulk Modulus (GPa) = 18.62144 36.99190 27.80667
# Shear Modulus (GPa) = 24.54184 34.43830 29.49007
#
# Velocity S-wave (km/s) = 3.25802 3.85941 3.57139
# Velocity P-wave (km/s) = 4.71242 5.98828 5.38825
#
# Compressibility (1/GPa) = 0.05370153
#
# Stress axis : x y z
#
# Youngs Moduli (GPa) = 30.05217 57.54296 70.75372
#
# Poissons Ratio (x) = -0.25292 0.25954
# Poissons Ratio (y) = -0.13209 0.44362
# Poissons Ratio (z) = 0.11024 0.36079
#
# Static dielectric constant tensor:
#      x y z
#    x 1.926650 0.015270 -0.069180 
#    y 0.015270 1.910190 -0.003940 
#    z -0.069180 -0.003940 1.884770 
# 
# From -- ./inp_files/70418.got.cif
#   From: 2010.05.17/outbox.cif.g08.bks.cpg/sg2_36_cif.got.tgz:70418.got - 2010.06.03 11:33:40.
