data_PCOD9022108
_publ_section_title
;
Structure prediction by ZEFSAII (Michael W. Deem and Ramdas Pophale) SiO2 
 PCOD9022108
Probable space group: P -1
;
_chemical_formula_sum "Si O2"
_cell_formula_units_Z 12
_cell_length_a 5.012402
_cell_length_b 9.566859
_cell_length_c 14.202306
_cell_angle_alpha 48.545841
_cell_angle_beta 70.441595
_cell_angle_gamma 68.493423
_cell_volume 470.735532
_symmetry_space_group_name_H-M "P -1"
_symmetry_group_IT_number 2
_symmetry_cell_setting 'triclinic'
loop_
_space_group_symop_operation_xyz
x,y,z
-x,-y,-z
loop_
_atom_site_type_symbol
_atom_site_label
_atom_site_fract_x
_atom_site_fract_y
_atom_site_fract_z
Si Si1 0.784148 0.482329 0.411193
Si Si2 0.859855 0.406400 0.220992
Si Si3 0.212466 0.725927 0.021946
Si Si4 0.049811 0.177467 0.652424
Si Si5 0.740407 0.097495 0.882013
Si Si6 0.480835 0.206179 0.221576
O O1 0.500000 0.500000 0.500000
O O2 0.995319 0.293132 0.510790
O O3 0.745427 0.461587 0.314631
O O4 0.896930 0.669699 0.344014
O O5 0.005991 0.579334 0.090494
O O6 0.141998 0.232213 0.269772
O O7 0.624172 0.343694 0.210439
O O8 0.277976 0.723485 0.126176
O O9 0.474752 0.719980 0.922289
O O10 0.032303 0.939611 0.930906
O O11 0.755868 0.126888 0.754871
O O12 0.318872 0.001591 0.693615
O O13 0.500000 0.000000 0.000000
#
# Coordination Sequence:
#
# PCOD9022108 Si02
#       6
#     2   2   2   2   2   2
#     4  11  27  45  77  98 141 193 245 300 339 429
#     4  12  27  47  71 107 144 193 232 296 358 429
#     4  10  23  41  65 108 140 188 233 290 357 426
#     4  10  25  48  68 107 138 189 247 291 355 421
#     4  10  22  38  75 102 142 182 237 301 350 422
#     4  11  28  45  73 104 149 186 234 296 365 423
#
# _framework density 25.492021999999999
#
# number of rings (size 3 to 8) (size 9 to 14) (size 15 to 20)
#    0.000    1.333    1.667    1.000   16.333    1.333 
#    0.000    0.000    0.000    0.000    0.000    0.000 
#    0.000    0.000    0.000    0.000    0.000    0.000 
#
# Total GULP energy -67174.417093 kJ/mol
# GULP energy per Si atom -5597.868091 kJ/mol
# Density = 2.543400 g / cm^3
# Si number density = 25.492022 Si / 1000 Ang^3
#
#
#
# Elastic Constant Matrix: (Units=GPa)
#
#
# Indices 1 2 3 4 5 6 
#
# 1 65.5029 13.3867 4.8984 12.1364 0.9325 -3.5335
# 2 13.3867 101.7182 39.7910 1.3181 15.9137 -14.5573
# 3 4.8984 39.7910 71.9972 5.6551 10.3038 -2.2312
# 4 12.1364 1.3181 5.6551 52.9206 -9.6333 2.5564
# 5 0.9325 15.9137 10.3038 -9.6333 38.2208 1.3301
# 6 -3.5335 -14.5573 -2.2312 2.5564 1.3301 40.2907
#
#
#
# Elastic Compliance Matrix: (Units=1/GPa)
#
#
# Indices 1 2 3 4 5 6 
#
# 1 0.016444 -0.002034 0.000447 -0.003945 -0.000704 0.001006
# 2 -0.002034 0.014130 -0.006919 -0.000131 -0.004164 0.004689
# 3 0.000447 -0.006919 0.018192 -0.002282 -0.002567 -0.001224
# 4 -0.003945 -0.000131 -0.002282 0.021277 0.006201 -0.002074
# 5 -0.000704 -0.004164 -0.002567 0.006201 0.030278 -0.003101
# 6 0.001006 0.004689 -0.001224 -0.002074 -0.003101 0.026768
#
#
# Mechanical properties :
#
#
# Convention : Reuss Voigt Hill
#
# Bulk Modulus (GPa) = 31.49252 39.48560 35.48906
# Shear Modulus (GPa) = 32.32375 38.36256 35.34315
#
# Velocity S-wave (km/s) = 3.56475 3.88349 3.72753
# Velocity P-wave (km/s) = 5.41516 5.96923 5.69893
#
# Compressibility (1/GPa) = 0.03175357
#
# Stress axis : x y z
#
# Youngs Moduli (GPa) = 60.81277 70.77243 54.96983
#
# Poissons Ratio (x) = 0.14394 -0.02458
# Poissons Ratio (y) = 0.12368 0.38035
# Poissons Ratio (z) = -0.02719 0.48969
#
# Static dielectric constant tensor:
#      x y z
#    x 2.107550 -0.000580 -0.031810 
#    y -0.000580 2.030040 -0.051290 
#    z -0.031810 -0.051290 2.084700 
# 
# From -- ./inp_files/23037.got.cif
#   From: 2010.05.17/outbox.cif.g08.bks.cpg/sg2_12_cif.got.tgz:23037.got - 2010.06.03 11:33:40.
