data_PCOD9022964
_publ_section_title
;
Structure prediction by ZEFSAII (Michael W. Deem and Ramdas Pophale) SiO2 
 PCOD9022964
Probable space group: P -1
;
_chemical_formula_sum "Si O2"
_cell_formula_units_Z 14
_cell_length_a 25.827938
_cell_length_b 14.247420
_cell_length_c 13.435901
_cell_angle_alpha 28.016090
_cell_angle_beta 21.212572
_cell_angle_gamma 19.927994
_cell_volume 608.921430
_symmetry_space_group_name_H-M "P -1"
_symmetry_group_IT_number 2
_symmetry_cell_setting 'triclinic'
loop_
_space_group_symop_operation_xyz
x,y,z
-x,-y,-z
loop_
_atom_site_type_symbol
_atom_site_label
_atom_site_fract_x
_atom_site_fract_y
_atom_site_fract_z
Si Si1 0.766703 0.613099 0.217469
Si Si2 0.539633 0.407536 0.162024
Si Si3 0.791620 0.862709 0.131200
Si Si4 0.682802 0.303744 0.218227
Si Si5 0.044468 0.615569 0.397877
Si Si6 0.411513 0.177209 0.290931
Si Si7 0.621118 0.086717 0.721417
O O1 0.665045 0.514967 0.539174
O O2 0.791299 0.757568 0.123505
O O3 0.601945 0.869523 0.200784
O O4 0.982010 0.351419 0.037251
O O5 0.647330 0.254238 0.218115
O O6 0.683563 0.180027 0.033017
O O7 0.526789 0.656119 0.952645
O O8 0.662469 0.853003 0.446539
O O9 0.669356 0.150403 0.470510
O O10 0.510267 0.630994 0.245657
O O11 0.878419 0.250484 0.911717
O O12 0.224141 0.367275 0.376205
O O13 0.000000 0.500000 0.500000
O O14 0.835399 0.844897 0.612210
O O15 0.500000 0.000000 0.000000
#
# Coordination Sequence:
#
# PCOD9022964 Si02
#       7
#     2   2   2   2   2   2   2
#     4  10  23  43  64  94 130 160 210 257 322 377
#     4  10  22  39  65  94 127 162 209 258 315 372
#     4  10  23  42  66  94 124 168 204 260 320 381
#     4  10  24  41  61  92 124 167 213 265 310 371
#     4  11  23  40  63  89 127 167 212 257 314 365
#     4  10  23  40  63  93 126 165 210 259 311 377
#     4  11  23  41  63  88 123 167 215 263 312 365
#
# _framework density 22.991472999999999
#
# number of rings (size 3 to 8) (size 9 to 14) (size 15 to 20)
#    0.000    1.714    1.429    2.143    4.000    9.143 
#    0.000    2.857    0.000    0.000    0.000    0.000 
#    0.000    0.000    0.000    0.000    0.000    0.000 
#
# Total GULP energy -78309.032717 kJ/mol
# GULP energy per Si atom -5593.502337 kJ/mol
# Density = 2.293914 g / cm^3
# Si number density = 22.991473 Si / 1000 Ang^3
#
#
#
# Elastic Constant Matrix: (Units=GPa)
#
#
# Indices 1 2 3 4 5 6 
#
# 1 61.5917 -7.0323 3.9828 0.1111 -11.3928 -3.7680
# 2 -7.0323 97.3202 58.1357 17.2030 -17.5741 -11.4931
# 3 3.9828 58.1357 135.7618 15.5039 -16.9241 0.2883
# 4 0.1111 17.2030 15.5039 46.9795 0.6699 -6.8385
# 5 -11.3928 -17.5741 -16.9241 0.6699 35.9788 0.0296
# 6 -3.7680 -11.4931 0.2883 -6.8385 0.0296 37.9038
#
#
#
# Elastic Compliance Matrix: (Units=1/GPa)
#
#
# Indices 1 2 3 4 5 6 
#
# 1 0.018223 0.003763 -0.001190 -0.000718 0.007060 0.002827
# 2 0.003763 0.016458 -0.005964 -0.003464 0.006486 0.004780
# 3 -0.001190 -0.005964 0.010340 -0.001582 0.001605 -0.002292
# 4 -0.000718 -0.003464 -0.001582 0.023581 -0.003105 0.003147
# 5 0.007060 0.006486 0.001605 -0.003105 0.034009 0.002069
# 6 0.002827 0.004780 -0.002292 0.003147 0.002069 0.028697
#
#
# Mechanical properties :
#
#
# Convention : Reuss Voigt Hill
#
# Bulk Modulus (GPa) = 26.15129 44.98288 35.56709
# Shear Modulus (GPa) = 33.14877 40.14491 36.64684
#
# Velocity S-wave (km/s) = 3.80120 4.18314 3.99674
# Velocity P-wave (km/s) = 5.53756 6.55279 6.06645
#
# Compressibility (1/GPa) = 0.03823903
#
# Stress axis : x y z
#
# Youngs Moduli (GPa) = 54.87682 60.76083 96.70854
#
# Poissons Ratio (x) = -0.22865 0.11509
# Poissons Ratio (y) = -0.20651 0.57677
# Poissons Ratio (z) = 0.06530 0.36238
#
# Static dielectric constant tensor:
#      x y z
#    x 1.911170 -0.034320 0.010310 
#    y -0.034320 1.916160 0.002780 
#    z 0.010310 0.002780 1.839170 
# 
# From -- ./inp_files/544107.got.cif
#   From: 2010.05.17/outbox.cif.g08.bks.cpg/sg2_273_cif.got.tgz:544107.got - 2010.06.03 11:33:40.
