data_PCOD9022521
_publ_section_title
;
Structure prediction by ZEFSAII (Michael W. Deem and Ramdas Pophale) SiO2 
 PCOD9022521
Probable space group: P -1
;
_chemical_formula_sum "Si O2"
_cell_formula_units_Z 12
_cell_length_a 9.715973
_cell_length_b 6.444979
_cell_length_c 14.308559
_cell_angle_alpha 56.229947
_cell_angle_beta 125.119797
_cell_angle_gamma 131.250406
_cell_volume 527.808841
_symmetry_space_group_name_H-M "P -1"
_symmetry_group_IT_number 2
_symmetry_cell_setting 'triclinic'
loop_
_space_group_symop_operation_xyz
x,y,z
-x,-y,-z
loop_
_atom_site_type_symbol
_atom_site_label
_atom_site_fract_x
_atom_site_fract_y
_atom_site_fract_z
Si Si1 0.833266 0.166587 0.910353
Si Si2 0.412406 0.922717 0.773364
Si Si3 0.779872 0.238661 0.075330
Si Si4 0.778873 0.849309 0.483779
Si Si5 0.394909 0.381455 0.140572
Si Si6 0.539854 0.734172 0.592003
O O1 0.811145 0.100678 0.029230
O O2 0.637201 0.170280 0.802508
O O3 0.804343 0.898960 0.903999
O O4 0.017888 0.476137 0.892803
O O5 0.438879 0.642439 0.847129
O O6 0.305663 0.950366 0.635891
O O7 0.301098 0.933300 0.818352
O O8 0.631903 0.350552 0.959470
O O9 0.726721 0.801451 0.584529
O O10 0.644845 0.545836 0.454914
O O11 0.000000 0.000000 0.500000
O O12 0.427567 0.328404 0.273358
O O13 0.500000 0.000000 0.500000
#
# Coordination Sequence:
#
# PCOD9022521 Si02
#       6
#     2   2   2   2   2   2
#     4   9  22  36  59  89 125 165 211 243 326 373
#     4  10  22  40  60  92 126 162 208 264 316 377
#     4  11  20  39  62  89 130 164 203 263 311 389
#     4  11  26  45  68  97 127 172 223 270 328 383
#     4  10  22  39  62  93 125 166 210 259 321 378
#     4  11  23  47  69  90 133 173 215 275 324 381
#
# _framework density 22.735503000000001
#
# number of rings (size 3 to 8) (size 9 to 14) (size 15 to 20)
#    1.000    0.667    1.667    2.500    0.000    7.333 
#    3.000    0.000    0.000    0.000    0.000    0.000 
#    0.000    0.000    0.000    0.000    0.000    0.000 
#
# Total GULP energy -67021.712472 kJ/mol
# GULP energy per Si atom -5585.142706 kJ/mol
# Density = 2.268376 g / cm^3
# Si number density = 22.735503 Si / 1000 Ang^3
#
#
#
# Elastic Constant Matrix: (Units=GPa)
#
#
# Indices 1 2 3 4 5 6 
#
# 1 101.7915 26.4075 15.0731 3.6864 -15.3968 16.9344
# 2 26.4075 79.4462 6.5636 6.7110 -5.7689 -4.3377
# 3 15.0731 6.5636 83.0299 2.7070 -21.3567 -5.4031
# 4 3.6864 6.7110 2.7070 31.4112 -9.6130 0.9343
# 5 -15.3968 -5.7689 -21.3567 -9.6130 33.8666 0.0593
# 6 16.9344 -4.3377 -5.4031 0.9343 0.0593 39.5037
#
#
#
# Elastic Compliance Matrix: (Units=1/GPa)
#
#
# Indices 1 2 3 4 5 6 
#
# 1 0.012792 -0.004243 -0.001229 0.001116 0.004646 -0.006151
# 2 -0.004243 0.014407 -0.000147 -0.002781 -0.000363 0.003447
# 3 -0.001229 -0.000147 0.014747 0.001640 0.009177 0.002475
# 4 0.001116 -0.002781 0.001640 0.035622 0.011181 -0.001419
# 5 0.004646 -0.000363 0.009177 0.011181 0.040541 -0.001102
# 6 -0.006151 0.003447 0.002475 -0.001419 -0.001102 0.028703
#
#
# Mechanical properties :
#
#
# Convention : Reuss Voigt Hill
#
# Bulk Modulus (GPa) = 32.56520 40.03956 36.30238
# Shear Modulus (GPa) = 29.71157 35.37118 32.54137
#
# Velocity S-wave (km/s) = 3.61894 3.94860 3.78736
# Velocity P-wave (km/s) = 5.64065 6.19983 5.92684
#
# Compressibility (1/GPa) = 0.03070762
#
# Stress axis : x y z
#
# Youngs Moduli (GPa) = 78.17132 69.41304 67.81258
#
# Poissons Ratio (x) = 0.29455 0.08331
# Poissons Ratio (y) = 0.33171 0.00996
# Poissons Ratio (z) = 0.09604 0.01020
#
# Static dielectric constant tensor:
#      x y z
#    x 1.902620 -0.055710 0.021790 
#    y -0.055710 1.918690 -0.003780 
#    z 0.021790 -0.003780 1.811640 
# 
# From -- ./inp_files/372095.got.cif
#   From: 2010.05.17/outbox.cif.g08.bks.cpg/sg2_187_cif.got.tgz:372095.got - 2010.06.03 11:33:40.
