data_PCOD9022015
_publ_section_title
;
Structure prediction by ZEFSAII (Michael W. Deem and Ramdas Pophale) SiO2 
 PCOD9022015
Probable space group: P -1
;
_chemical_formula_sum "Si O2"
_cell_formula_units_Z 15
_cell_length_a 7.785296
_cell_length_b 12.639494
_cell_length_c 9.590100
_cell_angle_alpha 92.820560
_cell_angle_beta 129.895322
_cell_angle_gamma 113.984062
_cell_volume 593.334400
_symmetry_space_group_name_H-M "P -1"
_symmetry_group_IT_number 2
_symmetry_cell_setting 'triclinic'
loop_
_space_group_symop_operation_xyz
x,y,z
-x,-y,-z
loop_
_atom_site_type_symbol
_atom_site_label
_atom_site_fract_x
_atom_site_fract_y
_atom_site_fract_z
Si Si1 0.500000 0.500000 0.500000
Si Si2 0.962480 0.363337 0.312458
Si Si3 0.509971 0.075502 0.147816
Si Si4 0.089864 0.307897 0.817166
Si Si5 0.610657 0.893221 0.329912
Si Si6 0.751641 0.378596 0.784253
Si Si7 0.639436 0.475174 0.232627
Si Si8 0.966862 0.947916 0.241067
O O1 0.158447 0.377603 0.293874
O O2 0.544948 0.407196 0.616380
O O3 0.221373 0.485880 0.541991
O O4 0.776285 0.223289 0.280341
O O5 0.755988 0.406930 0.201430
O O6 0.529709 0.994561 0.275001
O O7 0.228249 0.064502 0.985223
O O8 0.500000 0.000000 0.000000
O O9 0.266607 0.390045 0.780172
O O10 0.977878 0.160912 0.752130
O O11 0.866001 0.337001 0.715922
O O12 0.317746 0.379273 0.060461
O O13 0.375818 0.744012 0.189924
O O14 0.794593 0.914361 0.293102
O O15 0.759661 0.919469 0.558704
O O16 0.000000 0.500000 0.000000
#
# Coordination Sequence:
#
# PCOD9022015 Si02
#       8
#     1   2   2   2   2   2   2   2
#     4  12  28  42  66 102 138 172 212 286 342 396
#     4  11  22  43  65 102 130 172 225 276 338 395
#     4  10  22  40  69  94 129 177 224 271 320 400
#     4  11  22  42  65  99 131 182 222 274 338 396
#     4  10  25  43  67  99 132 177 224 277 330 398
#     4  12  29  45  66 100 142 175 218 284 347 400
#     4  10  22  38  68  95 133 170 223 277 326 407
#     4  10  22  42  70  96 129 175 232 272 320 404
#
# _framework density 25.280850999999998
#
# number of rings (size 3 to 8) (size 9 to 14) (size 15 to 20)
#    0.000    1.333    2.667    1.600   14.933    0.533 
#    0.000    0.667    0.000    0.000    0.000    0.000 
#    0.000    0.000    0.000    0.000    0.000    0.000 
#
# Total GULP energy -83568.601762 kJ/mol
# GULP energy per Si atom -5571.240117 kJ/mol
# Density = 2.522331 g / cm^3
# Si number density = 25.280851 Si / 1000 Ang^3
#
#
#
# Elastic Constant Matrix: (Units=GPa)
#
#
# Indices 1 2 3 4 5 6 
#
# 1 29.7413 23.0512 19.8054 -11.6407 11.7232 -16.0108
# 2 23.0512 140.4010 34.4916 2.7136 23.6435 -3.6226
# 3 19.8054 34.4916 118.2806 3.6901 19.0267 1.6403
# 4 -11.6407 2.7136 3.6901 41.6902 -2.6852 9.3185
# 5 11.7232 23.6435 19.0267 -2.6852 27.1211 -3.4287
# 6 -16.0108 -3.6226 1.6403 9.3185 -3.4287 35.2273
#
#
#
# Elastic Compliance Matrix: (Units=1/GPa)
#
#
# Indices 1 2 3 4 5 6 
#
# 1 0.069033 -0.006605 -0.008228 0.013716 -0.013649 0.026123
# 2 -0.006605 0.009240 -0.000652 -0.002294 -0.005213 -0.001922
# 3 -0.008228 -0.000652 0.010842 -0.002585 -0.004249 -0.004041
# 4 0.013716 -0.002294 -0.002585 0.028537 0.000536 -0.001378
# 5 -0.013649 -0.005213 -0.004249 0.000536 0.050121 -0.001805
# 6 0.026123 -0.001922 -0.004041 -0.001378 -0.001805 0.040439
#
#
# Mechanical properties :
#
#
# Convention : Reuss Voigt Hill
#
# Bulk Modulus (GPa) = 17.19813 49.23548 33.21681
# Shear Modulus (GPa) = 19.33764 34.87937 27.10851
#
# Velocity S-wave (km/s) = 2.76871 3.71843 3.27814
# Velocity P-wave (km/s) = 4.12778 6.16062 5.24366
#
# Compressibility (1/GPa) = 0.05814586
#
# Stress axis : x y z
#
# Youngs Moduli (GPa) = 14.48584 108.23042 92.23151
#
# Poissons Ratio (x) = 0.71489 0.75884
# Poissons Ratio (y) = 0.09568 0.06009
# Poissons Ratio (z) = 0.11918 0.07052
#
# Static dielectric constant tensor:
#      x y z
#    x 1.889920 0.131440 -0.012460 
#    y 0.131440 1.985850 -0.032900 
#    z -0.012460 -0.032900 2.097350 
# 
# From -- ./inp_files/257787.got.cif
#   From: 2010.05.17/outbox.cif.g08.bks.cpg/sg2_129_cif.got.tgz:257787.got - 2010.06.03 11:33:40.
