data_PCOD9022128
_publ_section_title
;
Structure prediction by ZEFSAII (Michael W. Deem and Ramdas Pophale) SiO2 
 PCOD9022128
Probable space group: P -1
;
_chemical_formula_sum "Si O2"
_cell_formula_units_Z 14
_cell_length_a 15.357244
_cell_length_b 15.478710
_cell_length_c 8.615140
_cell_angle_alpha 145.513367
_cell_angle_beta 134.181199
_cell_angle_gamma 26.847889
_cell_volume 517.718427
_symmetry_space_group_name_H-M "P -1"
_symmetry_group_IT_number 2
_symmetry_cell_setting 'triclinic'
loop_
_space_group_symop_operation_xyz
x,y,z
-x,-y,-z
loop_
_atom_site_type_symbol
_atom_site_label
_atom_site_fract_x
_atom_site_fract_y
_atom_site_fract_z
Si Si1 0.724358 0.212191 0.514652
Si Si2 0.216116 0.520779 0.571867
Si Si3 0.272383 0.306215 0.014776
Si Si4 0.916601 0.194664 0.459108
Si Si5 0.342738 0.992271 0.058535
Si Si6 0.938028 0.551899 0.307140
Si Si7 0.590751 0.666100 0.153164
O O1 0.844126 0.127902 0.378202
O O2 0.594072 0.204966 0.276017
O O3 0.635290 0.457141 0.822932
O O4 0.856485 0.023630 0.540962
O O5 0.277101 0.332802 0.241641
O O6 0.149863 0.727356 0.686235
O O7 0.029663 0.625537 0.578514
O O8 0.378091 0.392593 0.711947
O O9 0.180554 0.559658 0.223071
O O10 0.482436 0.064090 0.847734
O O11 0.124527 0.345452 0.796007
O O12 0.391778 0.905479 0.170328
O O13 0.126947 0.257463 0.138015
O O14 0.750896 0.643786 0.279652
#
# Coordination Sequence:
#
# PCOD9022128 Si02
#       7
#     2   2   2   2   2   2   2
#     4  11  18  38  61  82 113 148 195 230 273 342
#     4  10  22  39  56  85 123 145 182 240 285 331
#     4   9  20  38  56  89 107 142 198 227 280 327
#     4   9  19  37  60  85 111 145 195 230 280 330
#     4  11  21  37  62  84 107 154 195 232 274 330
#     4  11  20  40  63  81 111 155 193 228 278 335
#     4  11  23  37  58  87 116 151 187 228 286 341
#
# _framework density 27.041725
#
# number of rings (size 3 to 8) (size 9 to 14) (size 15 to 20)
#    0.857    0.857    4.286    2.143    0.000    1.714 
#    0.000    7.143    0.000    0.000    0.000    0.000 
#    0.000    0.000    0.000    0.000    0.000    0.000 
#
# Total GULP energy -77999.073390 kJ/mol
# GULP energy per Si atom -5571.362385 kJ/mol
# Density = 2.698018 g / cm^3
# Si number density = 27.041725 Si / 1000 Ang^3
#
#
#
# Elastic Constant Matrix: (Units=GPa)
#
#
# Indices 1 2 3 4 5 6 
#
# 1 46.1696 38.0655 29.7860 -6.7410 -7.1470 17.3631
# 2 38.0655 210.1799 55.6597 -36.3838 -10.2335 24.4575
# 3 29.7860 55.6597 69.1513 -36.5876 -25.7126 14.2870
# 4 -6.7410 -36.3838 -36.5876 55.3724 14.0009 -6.1294
# 5 -7.1470 -10.2335 -25.7126 14.0009 35.7776 -9.4007
# 6 17.3631 24.4575 14.2870 -6.1294 -9.4007 48.1146
#
#
#
# Elastic Compliance Matrix: (Units=1/GPa)
#
#
# Indices 1 2 3 4 5 6 
#
# 1 0.037220 -0.002513 -0.019328 -0.009394 -0.005796 -0.008744
# 2 -0.002513 0.006629 -0.003818 0.001996 -0.002544 -0.001572
# 3 -0.019328 -0.003818 0.042097 0.018494 0.018701 0.002425
# 4 -0.009394 0.001996 0.018494 0.030468 0.000278 0.000819
# 5 -0.005796 -0.002544 0.018701 0.000278 0.040938 0.005865
# 6 -0.008744 -0.001572 0.002425 0.000819 0.005865 0.025268
#
#
# Mechanical properties :
#
#
# Convention : Reuss Voigt Hill
#
# Bulk Modulus (GPa) = 28.87839 63.61367 46.24603
# Shear Modulus (GPa) = 20.36824 41.31887 30.84356
#
# Velocity S-wave (km/s) = 2.74745 3.91316 3.38093
# Velocity P-wave (km/s) = 4.55709 6.63268 5.69032
#
# Compressibility (1/GPa) = 0.03462797
#
# Stress axis : x y z
#
# Youngs Moduli (GPa) = 26.86703 150.86091 23.75473
#
# Poissons Ratio (x) = 0.37917 0.45912
# Poissons Ratio (y) = 0.06753 0.09069
# Poissons Ratio (z) = 0.51928 0.57596
#
# Static dielectric constant tensor:
#      x y z
#    x 2.255520 -0.019670 -0.035600 
#    y -0.019670 2.100080 -0.034590 
#    z -0.035600 -0.034590 2.265940 
# 
# From -- ./inp_files/348948.got.cif
#   From: 2010.05.17/outbox.cif.g08.bks.cpg/sg2_175_cif.got.tgz:348948.got - 2010.06.03 11:33:40.
