data_PCOD9022627
_publ_section_title
;
Structure prediction by ZEFSAII (Michael W. Deem and Ramdas Pophale) SiO2 
 PCOD9022627
Probable space group: P -1
;
_chemical_formula_sum "Si O2"
_cell_formula_units_Z 16
_cell_length_a 10.707933
_cell_length_b 18.134144
_cell_length_c 6.422268
_cell_angle_alpha 45.511919
_cell_angle_beta 118.154334
_cell_angle_gamma 126.044612
_cell_volume 715.500692
_symmetry_space_group_name_H-M "P -1"
_symmetry_group_IT_number 2
_symmetry_cell_setting 'triclinic'
loop_
_space_group_symop_operation_xyz
x,y,z
-x,-y,-z
loop_
_atom_site_type_symbol
_atom_site_label
_atom_site_fract_x
_atom_site_fract_y
_atom_site_fract_z
Si Si1 0.905438 0.040119 0.622412
Si Si2 0.205490 0.866000 0.019391
Si Si3 0.343766 0.577856 0.085270
Si Si4 0.321415 0.389623 0.781137
Si Si5 0.358099 0.736442 0.139907
Si Si6 0.606351 0.973097 0.806337
Si Si7 0.170974 0.511830 0.681465
Si Si8 0.058094 0.180373 0.812442
O O1 0.762413 0.998628 0.752680
O O2 0.847707 0.055421 0.322355
O O3 0.964691 0.941897 0.875932
O O4 0.025698 0.157629 0.586878
O O5 0.246090 0.793004 0.023438
O O6 0.071231 0.792090 0.220837
O O7 0.347663 0.942439 0.127699
O O8 0.334137 0.484727 0.433046
O O9 0.507489 0.602669 0.049412
O O10 0.344194 0.686134 0.996296
O O11 0.198629 0.527614 0.917260
O O12 0.221072 0.412573 0.839936
O O13 0.224086 0.270965 0.828523
O O14 0.524242 0.842662 0.072136
O O15 0.304110 0.626641 0.461620
O O16 0.500000 0.000000 0.500000
O O17 0.000000 0.500000 0.500000
#
# Coordination Sequence:
#
# PCOD9022627 Si02
#       8
#     2   2   2   2   2   2   2   2
#     4  10  22  40  61  91 129 167 209 256 311 383
#     4  11  23  39  61  93 131 166 210 254 317 381
#     4  10  24  44  67  92 128 165 218 268 317 381
#     4  10  22  44  67  93 124 170 215 266 320 375
#     4  11  24  38  64  94 124 171 207 259 319 373
#     4  11  23  39  60  91 126 166 207 256 308 374
#     4  11  25  43  65  99 128 164 216 266 326 381
#     4  10  22  39  63  92 125 166 213 258 316 376
#
# _framework density 22.361962999999999
#
# number of rings (size 3 to 8) (size 9 to 14) (size 15 to 20)
#    0.000    1.500    1.250    2.625    1.750    6.000 
#    0.000    0.000    0.000    0.000    0.000    0.000 
#    0.000    0.000    0.000    0.000    0.000    0.000 
#
# Total GULP energy -89290.786423 kJ/mol
# GULP energy per Si atom -5580.674151 kJ/mol
# Density = 2.231107 g / cm^3
# Si number density = 22.361963 Si / 1000 Ang^3
#
#
#
# Elastic Constant Matrix: (Units=GPa)
#
#
# Indices 1 2 3 4 5 6 
#
# 1 96.0765 31.2437 12.9132 18.7602 11.1647 -24.5934
# 2 31.2437 113.4862 34.6006 16.1511 18.5558 -8.2005
# 3 12.9132 34.6006 60.1876 23.1733 14.0206 2.2228
# 4 18.7602 16.1511 23.1733 28.8671 17.3097 -0.0402
# 5 11.1647 18.5558 14.0206 17.3097 17.7637 -1.0353
# 6 -24.5934 -8.2005 2.2228 -0.0402 -1.0353 35.1661
#
#
#
# Elastic Compliance Matrix: (Units=1/GPa)
#
#
# Indices 1 2 3 4 5 6 
#
# 1 0.015783 -0.003175 0.001891 -0.013208 0.005377 0.010321
# 2 -0.003175 0.013016 -0.006933 0.009609 -0.015445 0.000809
# 3 0.001891 -0.006933 0.027830 -0.024265 0.007625 -0.001857
# 4 -0.013208 0.009609 -0.024265 0.113441 -0.093598 -0.008088
# 5 0.005377 -0.015445 0.007625 -0.093598 0.154477 0.004117
# 6 0.010321 0.000809 -0.001857 -0.008088 0.004117 0.036073
#
#
# Mechanical properties :
#
#
# Convention : Reuss Voigt Hill
#
# Bulk Modulus (GPa) = 24.87963 47.47393 36.17678
# Shear Modulus (GPa) = 12.80566 29.09221 20.94894
#
# Velocity S-wave (km/s) = 2.39561 3.61081 3.06406
# Velocity P-wave (km/s) = 4.33613 6.21770 5.36012
#
# Compressibility (1/GPa) = 0.04019352
#
# Stress axis : x y z
#
# Youngs Moduli (GPa) = 63.35920 76.82898 35.93303
#
# Poissons Ratio (x) = 0.24395 -0.06795
# Poissons Ratio (y) = 0.20118 0.24913
# Poissons Ratio (z) = -0.11981 0.53266
#
# Static dielectric constant tensor:
#      x y z
#    x 1.879480 -0.024460 -0.007570 
#    y -0.024460 1.861410 -0.010380 
#    z -0.007570 -0.010380 1.833150 
# 
# From -- ./inp_files/78672.got.cif
#   From: 2010.05.17/outbox.cif.g08.bks.cpg/sg2_40_cif.got.tgz:78672.got - 2010.06.03 11:33:40.
