data_PCOD9022718
_publ_section_title
;
Structure prediction by ZEFSAII (Michael W. Deem and Ramdas Pophale) SiO2 
 PCOD9022718
Probable space group: P -1
;
_chemical_formula_sum "Si O2"
_cell_formula_units_Z 14
_cell_length_a 16.879534
_cell_length_b 9.551210
_cell_length_c 8.955390
_cell_angle_alpha 138.124617
_cell_angle_beta 132.143559
_cell_angle_gamma 40.739516
_cell_volume 609.759823
_symmetry_space_group_name_H-M "P -1"
_symmetry_group_IT_number 2
_symmetry_cell_setting 'triclinic'
loop_
_space_group_symop_operation_xyz
x,y,z
-x,-y,-z
loop_
_atom_site_type_symbol
_atom_site_label
_atom_site_fract_x
_atom_site_fract_y
_atom_site_fract_z
Si Si1 0.119829 0.975262 0.942283
Si Si2 0.706915 0.880287 0.595299
Si Si3 0.716641 0.283204 0.804429
Si Si4 0.903537 0.434605 0.898900
Si Si5 0.613424 0.272549 0.377948
Si Si6 0.285819 0.252528 0.835756
Si Si7 0.282243 0.540426 0.572148
O O1 0.196993 0.744059 0.747838
O O2 0.151176 0.849715 0.046139
O O3 0.986934 0.159152 0.850422
O O4 0.184688 0.138541 0.176167
O O5 0.752540 0.766704 0.397324
O O6 0.651967 0.730235 0.484178
O O7 0.641110 0.170740 0.701597
O O8 0.726702 0.214160 0.589784
O O9 0.657544 0.572416 0.968706
O O10 0.805320 0.459724 0.670372
O O11 0.827290 0.611923 0.082253
O O12 0.000000 0.500000 0.000000
O O13 0.500000 0.500000 0.500000
O O14 0.634761 0.363343 0.321273
O O15 0.619800 0.016286 0.191359
#
# Coordination Sequence:
#
# PCOD9022718 Si02
#       7
#     2   2   2   2   2   2   2
#     4  10  22  39  63  97 137 174 210 252 325 394
#     4   9  20  41  65  90 136 170 218 258 321 380
#     4   9  20  44  62  94 130 168 219 262 315 396
#     4  12  23  39  64 103 136 179 213 258 327 386
#     4  11  26  45  69  96 125 173 223 277 339 376
#     4  11  22  44  68  92 139 169 220 272 315 400
#     4  12  22  43  65  96 139 168 219 281 307 387
#
# _framework density 22.959861
#
# number of rings (size 3 to 8) (size 9 to 14) (size 15 to 20)
#    0.857    0.571    4.286    1.286    0.000    1.714 
#    0.000    3.571    0.000    0.000    0.000    0.000 
#    0.000    0.000    0.000    0.000    0.000    0.000 
#
# Total GULP energy -77972.773382 kJ/mol
# GULP energy per Si atom -5569.483813 kJ/mol
# Density = 2.290760 g / cm^3
# Si number density = 22.959861 Si / 1000 Ang^3
#
#
#
# Elastic Constant Matrix: (Units=GPa)
#
#
# Indices 1 2 3 4 5 6 
#
# 1 83.7434 64.2494 17.1767 23.6398 7.0221 34.6383
# 2 64.2494 138.8606 38.3097 41.0741 1.8335 33.3928
# 3 17.1767 38.3097 79.7327 24.4726 13.5701 19.3898
# 4 23.6398 41.0741 24.4726 52.7987 10.4990 8.6765
# 5 7.0221 1.8335 13.5701 10.4990 19.1109 5.3294
# 6 34.6383 33.3928 19.3898 8.6765 5.3294 40.2557
#
#
#
# Elastic Compliance Matrix: (Units=1/GPa)
#
#
# Indices 1 2 3 4 5 6 
#
# 1 0.024929 -0.007877 0.004085 -0.003361 -0.005142 -0.015479
# 2 -0.007877 0.014788 -0.003905 -0.007478 0.009255 -0.003222
# 3 0.004085 -0.003905 0.018136 -0.004120 -0.009838 -0.006821
# 4 -0.003361 -0.007478 -0.004120 0.029753 -0.013258 0.006423
# 5 -0.005142 0.009255 -0.009838 -0.013258 0.068931 -0.004782
# 6 -0.015479 -0.003222 -0.006821 0.006423 -0.004782 0.043367
#
#
# Mechanical properties :
#
#
# Convention : Reuss Voigt Hill
#
# Bulk Modulus (GPa) = 23.55157 60.20094 41.87626
# Shear Modulus (GPa) = 21.79121 34.60645 28.19883
#
# Velocity S-wave (km/s) = 3.08409 3.88655 3.50834
# Velocity P-wave (km/s) = 4.79188 6.81303 5.88980
#
# Compressibility (1/GPa) = 0.04246001
#
# Stress axis : x y z
#
# Youngs Moduli (GPa) = 40.11361 67.62260 55.13948
#
# Poissons Ratio (x) = 0.53268 -0.22526
# Poissons Ratio (y) = 0.31598 0.21530
# Poissons Ratio (z) = -0.16388 0.26404
#
# Static dielectric constant tensor:
#      x y z
#    x 1.871230 0.029200 0.076580 
#    y 0.029200 1.921890 -0.005580 
#    z 0.076580 -0.005580 1.891280 
# 
# From -- ./inp_files/328214.got.cif
#   From: 2010.05.17/outbox.cif.g08.bks.cpg/sg2_165_cif.got.tgz:328214.got - 2010.06.03 11:33:40.
