data_PCOD9022308
_publ_section_title
;
Structure prediction by ZEFSAII (Michael W. Deem and Ramdas Pophale) SiO2 
 PCOD9022308
Probable space group: P -1
;
_chemical_formula_sum "Si O2"
_cell_formula_units_Z 16
_cell_length_a 17.279659
_cell_length_b 12.642825
_cell_length_c 5.330615
_cell_angle_alpha 74.353185
_cell_angle_beta 78.982081
_cell_angle_gamma 126.764510
_cell_volume 799.047629
_symmetry_space_group_name_H-M "P -1"
_symmetry_group_IT_number 2
_symmetry_cell_setting 'triclinic'
loop_
_space_group_symop_operation_xyz
x,y,z
-x,-y,-z
loop_
_atom_site_type_symbol
_atom_site_label
_atom_site_fract_x
_atom_site_fract_y
_atom_site_fract_z
Si Si1 0.845702 0.552046 0.010867
Si Si2 0.376815 0.852535 0.098915
Si Si3 0.877721 0.914027 0.690556
Si Si4 0.901383 0.149547 0.277182
Si Si5 0.571044 0.560730 0.665097
Si Si6 0.210095 0.148851 0.708808
Si Si7 0.287639 0.525261 0.352132
Si Si8 0.243878 0.774666 0.733925
O O1 0.781500 0.527270 0.316003
O O2 0.829921 0.405476 0.085296
O O3 0.790172 0.546200 0.797875
O O4 0.971592 0.704433 0.868145
O O5 0.360936 0.706015 0.174588
O O6 0.307072 0.824274 0.400308
O O7 0.326176 0.853886 0.871231
O O8 0.500000 0.000000 0.000000
O O9 0.813619 0.809258 0.558496
O O10 0.866540 0.036048 0.601347
O O11 0.829379 0.828353 0.034074
O O12 0.000000 0.000000 0.500000
O O13 0.831982 0.191631 0.256813
O O14 0.866597 0.031129 0.155620
O O15 0.500000 0.500000 0.500000
O O16 0.661632 0.743500 0.455793
O O17 0.636720 0.509053 0.659864
O O18 0.500000 0.500000 0.000000
#
# Coordination Sequence:
#
# PCOD9022308 Si02
#       8
#     2   2   2   2   2   2   2   2
#     4  10  22  39  63  90 126 162 196 244 307 378
#     4  10  22  41  65  88 119 160 205 253 300 355
#     4  10  23  39  60  91 125 162 204 244 304 360
#     4  10  25  36  67  90 129 160 199 245 315 354
#     4  12  26  43  65  88 123 162 208 263 309 350
#     4  10  25  39  59  90 122 154 214 244 300 360
#     4  10  24  41  62  90 121 161 206 246 308 368
#     4  10  22  39  60  95 124 154 203 253 298 366
#
# _framework density 20.023838000000001
#
# number of rings (size 3 to 8) (size 9 to 14) (size 15 to 20)
#    0.750    1.000    0.000    2.625    7.000    2.000 
#    0.000    3.750    0.000    0.000    0.000    0.000 
#    0.000    0.000    0.000    0.000    0.000    0.000 
#
# Total GULP energy -89199.016720 kJ/mol
# GULP energy per Si atom -5574.938545 kJ/mol
# Density = 1.997826 g / cm^3
# Si number density = 20.023838 Si / 1000 Ang^3
#
#
#
# Elastic Constant Matrix: (Units=GPa)
#
#
# Indices 1 2 3 4 5 6 
#
# 1 144.5602 38.8193 60.2466 5.2871 31.0882 7.2328
# 2 38.8193 305.6279 -57.0888 8.6212 -58.6291 9.6446
# 3 60.2466 -57.0888 207.7093 28.0270 55.7440 33.8139
# 4 5.2871 8.6212 28.0270 40.1021 1.5373 4.3042
# 5 31.0882 -58.6291 55.7440 1.5373 46.2693 1.6300
# 6 7.2328 9.6446 33.8139 4.3042 1.6300 45.0351
#
#
#
# Elastic Compliance Matrix: (Units=1/GPa)
#
#
# Indices 1 2 3 4 5 6 
#
# 1 0.010577 -0.003546 -0.001660 0.000836 -0.009649 0.000576
# 2 -0.003546 0.005613 0.000568 -0.001343 0.008900 -0.001253
# 3 -0.001660 0.000568 0.009833 -0.005727 -0.009598 -0.006344
# 4 0.000836 -0.001343 -0.005727 0.028810 0.003624 0.001569
# 5 -0.009649 0.008900 -0.009598 0.003624 0.050651 0.004671
# 6 0.000576 -0.001253 -0.006344 0.001569 0.004671 0.026825
#
#
# Mechanical properties :
#
#
# Convention : Reuss Voigt Hill
#
# Bulk Modulus (GPa) = 59.70861 82.42798 71.06829
# Shear Modulus (GPa) = 33.97492 67.34266 50.65879
#
# Velocity S-wave (km/s) = 4.12360 5.80554 5.03529
# Velocity P-wave (km/s) = 7.24952 9.28403 8.32913
#
# Compressibility (1/GPa) = 0.01674800
#
# Stress axis : x y z
#
# Youngs Moduli (GPa) = 94.54435 178.15470 101.69485
#
# Poissons Ratio (x) = 0.63176 0.16878
# Poissons Ratio (y) = 0.33527 -0.05777
# Poissons Ratio (z) = 0.15691 -0.10121
#
# Static dielectric constant tensor:
#      x y z
#    x 1.625930 -0.045590 0.036610 
#    y -0.045590 1.718620 -0.011180 
#    z 0.036610 -0.011180 1.738290 
# 
# From -- ./inp_files/94768.got.cif
#   From: 2010.05.17/outbox.cif.g08.bks.cpg/sg2_48_cif.got.tgz:94768.got - 2010.06.03 11:33:40.
