data_PCOD9022888
_publ_section_title
;
Structure prediction by ZEFSAII (Michael W. Deem and Ramdas Pophale) SiO2 
 PCOD9022888
Probable space group: P -1
;
_chemical_formula_sum "Si O2"
_cell_formula_units_Z 16
_cell_length_a 7.052924
_cell_length_b 9.092573
_cell_length_c 11.611099
_cell_angle_alpha 85.633279
_cell_angle_beta 77.487540
_cell_angle_gamma 71.089435
_cell_volume 687.675974
_symmetry_space_group_name_H-M "P -1"
_symmetry_group_IT_number 2
_symmetry_cell_setting 'triclinic'
loop_
_space_group_symop_operation_xyz
x,y,z
-x,-y,-z
loop_
_atom_site_type_symbol
_atom_site_label
_atom_site_fract_x
_atom_site_fract_y
_atom_site_fract_z
Si Si1 0.425836 0.211532 0.549156
Si Si2 0.106400 0.586919 0.825018
Si Si3 0.067283 0.913127 0.198657
Si Si4 0.532417 0.027409 0.791322
Si Si5 0.867275 0.747647 0.060795
Si Si6 0.998664 0.161058 0.545941
Si Si7 0.647223 0.194648 0.278653
Si Si8 0.867529 0.458019 0.420784
O O1 0.505237 0.115564 0.662851
O O2 0.857433 0.295750 0.477211
O O3 0.564625 0.192255 0.418838
O O4 0.332777 0.395290 0.579361
O O5 0.154388 0.413289 0.877395
O O6 0.299188 0.650282 0.772207
O O7 0.014034 0.579714 0.712213
O O8 0.953717 0.703456 0.925216
O O9 0.261502 0.971759 0.174120
O O10 0.090501 0.810353 0.316322
O O11 0.861700 0.056251 0.240692
O O12 0.970254 0.186557 0.896846
O O13 0.346488 0.123489 0.891211
O O14 0.508820 0.859710 0.777963
O O15 0.228986 0.165549 0.531755
O O16 0.000000 0.000000 0.500000
O O17 0.000000 0.500000 0.500000
#
# Coordination Sequence:
#
# PCOD9022888 Si02
#       8
#     2   2   2   2   2   2   2   2
#     4  11  22  42  62  98 143 179 221 278 344 412
#     4  11  23  45  71  95 135 182 222 292 342 402
#     4  11  24  42  68 101 136 183 226 282 341 405
#     4  11  23  43  70  99 136 183 232 277 340 409
#     4  10  23  49  71  92 133 180 237 280 345 401
#     4  11  21  37  66 101 138 175 222 277 340 409
#     4  11  25  41  66 103 140 178 229 277 350 406
#     4  10  22  39  65 100 133 173 220 273 341 402
#
# _framework density 23.266774000000002
#
# number of rings (size 3 to 8) (size 9 to 14) (size 15 to 20)
#    0.000    1.250    3.750    2.625    3.500    4.500 
#    0.000    8.750    0.000    0.000    0.000    0.000 
#    0.000    0.000    0.000    0.000    0.000    0.000 
#
# Total GULP energy -89476.818980 kJ/mol
# GULP energy per Si atom -5592.301186 kJ/mol
# Density = 2.321382 g / cm^3
# Si number density = 23.266774 Si / 1000 Ang^3
#
#
#
# Elastic Constant Matrix: (Units=GPa)
#
#
# Indices 1 2 3 4 5 6 
#
# 1 145.7603 44.9210 36.3456 16.5095 -10.9936 35.0866
# 2 44.9210 131.8744 44.5865 7.4592 7.3269 24.8186
# 3 36.3456 44.5865 133.8682 37.4714 2.7631 14.2865
# 4 16.5095 7.4592 37.4714 47.7382 3.7468 1.6010
# 5 -10.9936 7.3269 2.7631 3.7468 14.3123 -5.5221
# 6 35.0866 24.8186 14.2865 1.6010 -5.5221 33.7427
#
#
#
# Elastic Compliance Matrix: (Units=1/GPa)
#
#
# Indices 1 2 3 4 5 6 
#
# 1 0.010391 -0.002107 -0.000570 -0.003108 0.007005 -0.007719
# 2 -0.002107 0.010833 -0.002778 0.002183 -0.009622 -0.006278
# 3 -0.000570 -0.002778 0.010926 -0.007920 0.000347 -0.001557
# 4 -0.003108 0.002183 -0.007920 0.028497 -0.008578 0.002223
# 5 0.007005 -0.009622 0.000347 -0.008578 0.087927 0.014442
# 6 -0.007719 -0.006278 -0.001557 0.002223 0.014442 0.045198
#
#
# Mechanical properties :
#
#
# Convention : Reuss Voigt Hill
#
# Bulk Modulus (GPa) = 47.08496 73.68989 60.38743
# Shear Modulus (GPa) = 23.61145 38.20197 30.90671
#
# Velocity S-wave (km/s) = 3.18907 4.05645 3.64862
# Velocity P-wave (km/s) = 5.81732 7.32667 6.61518
#
# Compressibility (1/GPa) = 0.02123820
#
# Stress axis : x y z
#
# Youngs Moduli (GPa) = 96.24022 92.31202 91.52450
#
# Poissons Ratio (x) = 0.19453 0.05218
# Poissons Ratio (y) = 0.20281 0.25427
# Poissons Ratio (z) = 0.05487 0.25646
#
# Static dielectric constant tensor:
#      x y z
#    x 1.925840 0.049910 -0.028660 
#    y 0.049910 1.951560 -0.037430 
#    z -0.028660 -0.037430 1.919350 
# 
# From -- ./inp_files/381925.got.cif
#   From: 2010.05.17/outbox.cif.g08.bks.cpg/sg2_191_cif.got.tgz:381925.got - 2010.06.03 11:33:40.
