data_PCOD9022875
_publ_section_title
;
Structure prediction by ZEFSAII (Michael W. Deem and Ramdas Pophale) SiO2 
 PCOD9022875
Probable space group: P -1
;
_chemical_formula_sum "Si O2"
_cell_formula_units_Z 14
_cell_length_a 11.699638
_cell_length_b 12.472863
_cell_length_c 6.742757
_cell_angle_alpha 131.363546
_cell_angle_beta 124.158937
_cell_angle_gamma 67.183080
_cell_volume 610.866848
_symmetry_space_group_name_H-M "P -1"
_symmetry_group_IT_number 2
_symmetry_cell_setting 'triclinic'
loop_
_space_group_symop_operation_xyz
x,y,z
-x,-y,-z
loop_
_atom_site_type_symbol
_atom_site_label
_atom_site_fract_x
_atom_site_fract_y
_atom_site_fract_z
Si Si1 0.206532 0.882335 0.775195
Si Si2 0.370573 0.325952 0.078126
Si Si3 0.412474 0.108063 0.184348
Si Si4 0.001243 0.540455 0.776798
Si Si5 0.413942 0.776481 0.169365
Si Si6 0.065948 0.263375 0.729778
Si Si7 0.693865 0.363927 0.723978
O O1 0.281945 0.776669 0.558618
O O2 0.041708 0.863122 0.560043
O O3 0.274921 0.836149 0.997271
O O4 0.263078 0.039516 0.982169
O O5 0.484784 0.281872 0.974020
O O6 0.221589 0.258318 0.791420
O O7 0.406200 0.256683 0.240627
O O8 0.360289 0.497139 0.277300
O O9 0.495257 0.116785 0.480351
O O10 0.500000 0.000000 0.000000
O O11 0.982146 0.393758 0.697625
O O12 0.000000 0.500000 0.500000
O O13 0.153442 0.591643 0.021583
O O14 0.913099 0.669982 0.947532
O O15 0.375295 0.664054 0.165273
#
# Coordination Sequence:
#
# PCOD9022875 Si02
#       7
#     2   2   2   2   2   2   2
#     4  11  23  43  69  91 126 169 216 251 310 379
#     4  11  25  41  64  96 135 158 207 261 323 369
#     4  12  25  45  64  89 126 172 213 261 313 371
#     4   9  17  35  62  89 129 166 203 246 313 376
#     4  12  23  40  69  92 124 169 214 256 312 379
#     4   9  21  39  60  94 127 162 202 262 309 366
#     4  10  22  39  64  99 125 163 208 264 309 366
#
# _framework density 22.918251999999999
#
# number of rings (size 3 to 8) (size 9 to 14) (size 15 to 20)
#    0.000    1.429    2.857    2.571    0.000    6.286 
#    0.000    0.714    0.000    0.000    0.000    0.000 
#    0.000    0.000    0.000    0.000    0.000    0.000 
#
# Total GULP energy -78136.745578 kJ/mol
# GULP energy per Si atom -5581.196113 kJ/mol
# Density = 2.286609 g / cm^3
# Si number density = 22.918252 Si / 1000 Ang^3
#
#
#
# Elastic Constant Matrix: (Units=GPa)
#
#
# Indices 1 2 3 4 5 6 
#
# 1 97.5007 17.2875 10.6637 -9.7492 16.3261 20.1581
# 2 17.2875 116.0249 13.3504 -12.0495 -11.5494 27.8963
# 3 10.6637 13.3504 88.3162 -15.4145 -13.8919 16.1230
# 4 -9.7492 -12.0495 -15.4145 26.4295 9.3437 4.6091
# 5 16.3261 -11.5494 -13.8919 9.3437 31.0223 4.6565
# 6 20.1581 27.8963 16.1230 4.6091 4.6565 36.4038
#
#
#
# Elastic Compliance Matrix: (Units=1/GPa)
#
#
# Indices 1 2 3 4 5 6 
#
# 1 0.014537 -0.000154 -0.000026 0.010042 -0.009548 -0.007970
# 2 -0.000154 0.012643 0.002525 0.007373 0.005554 -0.012365
# 3 -0.000026 0.002525 0.015722 0.009869 0.006671 -0.010987
# 4 0.010042 0.007373 0.009869 0.058860 -0.012634 -0.021418
# 5 -0.009548 0.005554 0.006671 -0.012634 0.047072 -0.006345
# 6 -0.007970 -0.012365 -0.010987 -0.021418 -0.006345 0.049748
#
#
# Mechanical properties :
#
#
# Convention : Reuss Voigt Hill
#
# Bulk Modulus (GPa) = 21.01185 42.71609 31.86397
# Shear Modulus (GPa) = 23.83731 36.14050 29.98890
#
# Velocity S-wave (km/s) = 3.22856 3.97537 3.62127
# Velocity P-wave (km/s) = 4.80481 6.30478 5.60520
#
# Compressibility (1/GPa) = 0.04759219
#
# Stress axis : x y z
#
# Youngs Moduli (GPa) = 68.78879 79.09639 63.60571
#
# Poissons Ratio (x) = 0.01220 0.00165
# Poissons Ratio (y) = 0.01061 -0.16063
# Poissons Ratio (z) = 0.00179 -0.19975
#
# Static dielectric constant tensor:
#      x y z
#    x 1.939850 0.050890 -0.008180 
#    y 0.050890 2.005030 -0.043130 
#    z -0.008180 -0.043130 1.943260 
# 
# From -- ./inp_files/72470.got.cif
#   From: 2010.05.17/outbox.cif.g08.bks.cpg/sg2_37_cif.got.tgz:72470.got - 2010.06.03 11:33:40.
