data_PCOD9022058
_publ_section_title
;
Structure prediction by ZEFSAII (Michael W. Deem and Ramdas Pophale) SiO2 
 PCOD9022058
Probable space group: P -1
;
_chemical_formula_sum "Si O2"
_cell_formula_units_Z 16
_cell_length_a 24.623119
_cell_length_b 10.251485
_cell_length_c 5.523917
_cell_angle_alpha 123.688069
_cell_angle_beta 121.304282
_cell_angle_gamma 31.921132
_cell_volume 609.678725
_symmetry_space_group_name_H-M "P -1"
_symmetry_group_IT_number 2
_symmetry_cell_setting 'triclinic'
loop_
_space_group_symop_operation_xyz
x,y,z
-x,-y,-z
loop_
_atom_site_type_symbol
_atom_site_label
_atom_site_fract_x
_atom_site_fract_y
_atom_site_fract_z
Si Si1 0.690632 0.027491 0.492595
Si Si2 0.379875 0.689033 0.880836
Si Si3 0.067488 0.200945 0.837131
Si Si4 0.862993 0.494754 0.184292
Si Si5 0.380846 0.189184 0.888363
Si Si6 0.870671 0.357111 0.563587
Si Si7 0.921849 0.798135 0.638685
Si Si8 0.301284 0.491440 0.515746
O O1 0.649761 0.206958 0.356519
O O2 0.810544 0.754510 0.429699
O O3 0.635969 0.964256 0.284338
O O4 0.675502 0.117505 0.821236
O O5 0.353247 0.559041 0.717662
O O6 0.500000 0.500000 0.000000
O O7 0.983893 0.219881 0.666774
O O8 0.131399 0.092800 0.628671
O O9 0.131419 0.069999 0.096586
O O10 0.000000 0.500000 0.000000
O O11 0.837255 0.430366 0.281791
O O12 0.986826 0.247025 0.200479
O O13 0.825067 0.552043 0.879666
O O14 0.349149 0.301925 0.658417
O O15 0.325425 0.378223 0.187176
O O16 0.500000 0.000000 0.000000
O O17 0.822196 0.290748 0.488050
O O18 0.000000 0.500000 0.500000
#
# Coordination Sequence:
#
# PCOD9022058 Si02
#       8
#     2   2   2   2   2   2   2   2
#     4  12  22  39  58  80 107 144 185 233 279 329
#     4  12  26  41  55  76 111 148 190 231 281 337
#     4   8  14  23  40  67 104 133 158 199 261 312
#     4  10  18  31  52  78 108 135 172 226 272 319
#     4  12  23  38  60  81 103 139 186 232 288 333
#     4  10  17  31  50  77 106 135 169 223 273 312
#     4   8  14  24  41  69 106 135 158 201 266 316
#     4  12  22  39  56  80 108 144 181 232 276 332
#
# _framework density 26.243333
#
# number of rings (size 3 to 8) (size 9 to 14) (size 15 to 20)
#    0.000    1.500    2.500    4.500    0.000    0.000 
#    0.000    0.000    0.000    0.000    0.000    0.000 
#    0.000   96.000    0.000    0.000    0.000    0.000 
#
# Total GULP energy -89262.548437 kJ/mol
# GULP energy per Si atom -5578.909277 kJ/mol
# Density = 2.618360 g / cm^3
# Si number density = 26.243333 Si / 1000 Ang^3
#
#
#
# Elastic Constant Matrix: (Units=GPa)
#
#
# Indices 1 2 3 4 5 6 
#
# 1 162.3131 47.5202 68.9508 -12.2276 4.2792 13.0987
# 2 47.5202 56.2392 21.5552 -20.5151 -19.6966 12.8008
# 3 68.9508 21.5552 185.9500 -30.9189 -36.1632 22.4606
# 4 -12.2276 -20.5151 -30.9189 32.4271 21.7303 -3.8433
# 5 4.2792 -19.6966 -36.1632 21.7303 78.6774 -9.4183
# 6 13.0987 12.8008 22.4606 -3.8433 -9.4183 54.8439
#
#
#
# Elastic Compliance Matrix: (Units=1/GPa)
#
#
# Indices 1 2 3 4 5 6 
#
# 1 0.010815 -0.010461 -0.004304 -0.003858 -0.004041 0.000657
# 2 -0.010461 0.034569 0.004587 0.017801 0.005792 -0.005207
# 3 -0.004304 0.004587 0.008511 0.007056 0.003045 -0.002511
# 4 -0.003858 0.017801 0.007056 0.051456 -0.006742 -0.003675
# 5 -0.004041 0.005792 0.003045 -0.006742 0.017755 0.000943
# 6 0.000657 -0.005207 -0.002511 -0.003675 0.000943 0.020224
#
#
# Mechanical properties :
#
#
# Convention : Reuss Voigt Hill
#
# Bulk Modulus (GPa) = 29.81682 75.61718 52.71700
# Shear Modulus (GPa) = 28.59338 50.95475 39.77406
#
# Velocity S-wave (km/s) = 3.30441 4.41117 3.89728
# Velocity P-wave (km/s) = 5.09364 7.40412 6.35477
#
# Compressibility (1/GPa) = 0.03353812
#
# Stress axis : x y z
#
# Youngs Moduli (GPa) = 92.46509 28.92747 117.49781
#
# Poissons Ratio (x) = 0.30260 0.50576
# Poissons Ratio (y) = 0.96725 -0.53893
# Poissons Ratio (z) = 0.39801 -0.13268
#
# Static dielectric constant tensor:
#      x y z
#    x 2.192590 0.048040 0.080640 
#    y 0.048040 2.084750 0.120460 
#    z 0.080640 0.120460 2.051590 
# 
# From -- ./inp_files/54816.got.cif
#   From: 2010.05.17/outbox.cif.g08.bks.cpg/sg2_28_cif.got.tgz:54816.got - 2010.06.03 11:33:40.
