data_PCOD9022395
_publ_section_title
;
Structure prediction by ZEFSAII (Michael W. Deem and Ramdas Pophale) SiO2 
 PCOD9022395
Probable space group: P -1
;
_chemical_formula_sum "Si O2"
_cell_formula_units_Z 10
_cell_length_a 10.397735
_cell_length_b 13.683319
_cell_length_c 14.340291
_cell_angle_alpha 21.978641
_cell_angle_beta 30.785421
_cell_angle_gamma 34.321781
_cell_volume 386.249323
_symmetry_space_group_name_H-M "P -1"
_symmetry_group_IT_number 2
_symmetry_cell_setting 'triclinic'
loop_
_space_group_symop_operation_xyz
x,y,z
-x,-y,-z
loop_
_atom_site_type_symbol
_atom_site_label
_atom_site_fract_x
_atom_site_fract_y
_atom_site_fract_z
Si Si1 0.752163 0.881477 0.384922
Si Si2 0.112592 0.847395 0.700957
Si Si3 0.691179 0.735094 0.908766
Si Si4 0.914689 0.656513 0.283330
Si Si5 0.693185 0.963788 0.997848
O O1 0.759736 0.748836 0.392282
O O2 0.909148 0.623306 0.566974
O O3 0.500000 0.000000 0.500000
O O4 0.901915 0.126797 0.048688
O O5 0.909184 0.785540 0.803381
O O6 0.274136 0.058598 0.374899
O O7 0.258058 0.563875 0.889095
O O8 0.953274 0.968210 0.779871
O O9 0.420218 0.810715 0.059160
O O10 0.722499 0.694987 0.279065
O O11 0.500000 0.000000 0.000000
#
# Coordination Sequence:
#
# PCOD9022395 Si02
#       5
#     2   2   2   2   2
#     4  10  22  44  68  89 120 160 208 269 313 347
#     4   9  19  34  52  76 111 156 202 235 277 348
#     4   9  19  35  52  76 112 157 200 235 280 346
#     4  10  23  40  64  97 121 156 214 253 304 381
#     4  10  22  39  61  92 132 167 197 248 310 372
#
# _framework density 25.890014000000001
#
# number of rings (size 3 to 8) (size 9 to 14) (size 15 to 20)
#    0.000    2.400    0.000    0.600    0.000    8.000 
#    0.000   13.000    0.000    0.000    0.000    0.000 
#    0.000    0.000    0.000    0.000    0.000    0.000 
#
# Total GULP energy -55883.146530 kJ/mol
# GULP energy per Si atom -5588.314653 kJ/mol
# Density = 2.583109 g / cm^3
# Si number density = 25.890014 Si / 1000 Ang^3
#
#
#
# Elastic Constant Matrix: (Units=GPa)
#
#
# Indices 1 2 3 4 5 6 
#
# 1 108.3118 64.2547 64.2019 -9.9428 38.1656 -1.2387
# 2 64.2547 294.5991 142.5630 0.3005 19.4302 3.0344
# 3 64.2019 142.5630 189.8880 -21.5225 16.9808 2.4619
# 4 -9.9428 0.3005 -21.5225 48.7226 -7.5537 14.9918
# 5 38.1656 19.4302 16.9808 -7.5537 40.5166 -4.0073
# 6 -1.2387 3.0344 2.4619 14.9918 -4.0073 41.5787
#
#
#
# Elastic Compliance Matrix: (Units=1/GPa)
#
#
# Indices 1 2 3 4 5 6 
#
# 1 0.016948 -0.000927 -0.003803 -0.000246 -0.014018 -0.000465
# 2 -0.000927 0.005626 -0.004138 -0.002306 -0.000462 0.000594
# 3 -0.003803 -0.004138 0.010018 0.004560 0.002035 -0.001853
# 4 -0.000246 -0.002306 0.004560 0.025820 0.003340 -0.009097
# 5 -0.014018 -0.000462 0.002035 0.003340 0.038071 0.001960
# 6 -0.000465 0.000594 -0.001853 -0.009097 0.001960 0.027572
#
#
# Mechanical properties :
#
#
# Convention : Reuss Voigt Hill
#
# Bulk Modulus (GPa) = 67.31075 126.09312 96.70193
# Shear Modulus (GPa) = 34.07333 47.61555 40.84444
#
# Velocity S-wave (km/s) = 3.63172 4.29318 3.97623
# Velocity P-wave (km/s) = 6.60613 8.56646 7.64936
#
# Compressibility (1/GPa) = 0.01485647
#
# Stress axis : x y z
#
# Youngs Moduli (GPa) = 59.00348 177.75196 99.82324
#
# Poissons Ratio (x) = 0.16473 0.37960
# Poissons Ratio (y) = 0.05468 0.41309
# Poissons Ratio (z) = 0.22437 0.73557
#
# Static dielectric constant tensor:
#      x y z
#    x 2.293670 -0.083490 0.002670 
#    y -0.083490 1.972710 0.003590 
#    z 0.002670 0.003590 1.944750 
# 
# From -- ./inp_files/4782.got.cif
#   From: 2010.05.17/outbox.cif.g08.bks.cpg/sg2_3_cif.got.tgz:4782.got - 2010.06.03 11:33:40.
