data_PCOD9022380
_publ_section_title
;
Structure prediction by ZEFSAII (Michael W. Deem and Ramdas Pophale) SiO2 
 PCOD9022380
Probable space group: P -1
;
_chemical_formula_sum "Si O2"
_cell_formula_units_Z 16
_cell_length_a 15.410882
_cell_length_b 13.619657
_cell_length_c 7.513023
_cell_angle_alpha 40.736195
_cell_angle_beta 40.187689
_cell_angle_gamma 39.879396
_cell_volume 593.764807
_symmetry_space_group_name_H-M "P -1"
_symmetry_group_IT_number 2
_symmetry_cell_setting 'triclinic'
loop_
_space_group_symop_operation_xyz
x,y,z
-x,-y,-z
loop_
_atom_site_type_symbol
_atom_site_label
_atom_site_fract_x
_atom_site_fract_y
_atom_site_fract_z
Si Si1 0.689794 0.004115 0.882509
Si Si2 0.404362 0.406332 0.334300
Si Si3 0.590493 0.055223 0.588298
Si Si4 0.936493 0.676714 0.563724
Si Si5 0.889455 0.295534 0.446859
Si Si6 0.767322 0.575893 0.718263
Si Si7 0.324367 0.633228 0.628052
Si Si8 0.150070 0.032587 0.969224
O O1 0.695611 0.959633 0.723392
O O2 0.683982 0.186697 0.637617
O O3 0.814398 0.911537 0.969211
O O4 0.529741 0.012562 0.172092
O O5 0.495501 0.249718 0.533581
O O6 0.253555 0.556248 0.435797
O O7 0.362035 0.315109 0.364674
O O8 0.500000 0.500000 0.000000
O O9 0.692081 0.054169 0.265438
O O10 0.789143 0.665587 0.735376
O O11 0.971009 0.692361 0.694216
O O12 0.076359 0.502172 0.524109
O O13 0.945805 0.818617 0.223119
O O14 0.823945 0.344196 0.285838
O O15 0.907528 0.108331 0.718190
O O16 0.717838 0.430452 0.038742
O O17 0.500000 0.500000 0.500000
#
# Coordination Sequence:
#
# PCOD9022380 Si02
#       8
#     2   2   2   2   2   2   2   2
#     4  10  24  39  56  98 127 158 215 252 328 379
#     4  11  19  37  63  91 122 161 207 261 320 370
#     4  11  22  38  63  92 129 168 199 267 321 375
#     4  10  23  43  61  88 123 171 218 245 304 389
#     4  10  22  39  61  91 122 163 211 252 314 377
#     4  10  23  40  65  89 123 168 208 260 314 370
#     4  11  23  39  64  95 126 156 205 272 320 375
#     4  11  22  40  64  88 128 168 211 260 305 380
#
# _framework density 26.946697
#
# number of rings (size 3 to 8) (size 9 to 14) (size 15 to 20)
#    0.000    1.500    1.250    3.750    5.250    0.500 
#    2.250    1.250    0.000    0.000    0.000    0.000 
#    0.000    0.000    0.000    0.000    0.000    0.000 
#
# Total GULP energy -89368.962994 kJ/mol
# GULP energy per Si atom -5585.560187 kJ/mol
# Density = 2.688536 g / cm^3
# Si number density = 26.946697 Si / 1000 Ang^3
#
#
#
# Elastic Constant Matrix: (Units=GPa)
#
#
# Indices 1 2 3 4 5 6 
#
# 1 183.2849 22.6932 1.3445 -10.9497 2.7508 -15.7301
# 2 22.6932 77.0825 3.7042 -11.3587 -8.2284 -22.0263
# 3 1.3445 3.7042 59.8159 -17.5770 -0.4221 5.8033
# 4 -10.9497 -11.3587 -17.5770 25.3932 -4.9786 -2.8021
# 5 2.7508 -8.2284 -0.4221 -4.9786 36.6121 -2.7869
# 6 -15.7301 -22.0263 5.8033 -2.8021 -2.7869 43.7146
#
#
#
# Elastic Compliance Matrix: (Units=1/GPa)
#
#
# Indices 1 2 3 4 5 6 
#
# 1 0.005874 -0.000868 0.000539 0.002687 -0.000130 0.001769
# 2 -0.000868 0.018296 0.001206 0.010995 0.006437 0.009861
# 3 0.000539 0.001206 0.021442 0.016028 0.002592 -0.000852
# 4 0.002687 0.010995 0.016028 0.059744 0.011257 0.008926
# 5 -0.000130 0.006437 0.002592 0.011257 0.030752 0.005534
# 6 0.001769 0.009861 -0.000852 0.008926 0.005534 0.029519
#
#
# Mechanical properties :
#
#
# Convention : Reuss Voigt Hill
#
# Bulk Modulus (GPa) = 21.11210 41.74078 31.42644
# Shear Modulus (GPa) = 27.83026 40.64008 34.23517
#
# Velocity S-wave (km/s) = 3.21719 3.88772 3.56824
# Velocity P-wave (km/s) = 4.65319 5.97296 5.35390
#
# Compressibility (1/GPa) = 0.04736620
#
# Stress axis : x y z
#
# Youngs Moduli (GPa) = 170.24864 54.65753 46.63740
#
# Poissons Ratio (x) = 0.04742 -0.02513
# Poissons Ratio (y) = 0.14770 -0.05624
# Poissons Ratio (z) = -0.09174 -0.06592
#
# Static dielectric constant tensor:
#      x y z
#    x 2.299990 0.102950 0.000880 
#    y 0.102950 2.142820 -0.004280 
#    z 0.000880 -0.004280 1.991440 
# 
# From -- ./inp_files/269422.got.cif
#   From: 2010.05.17/outbox.cif.g08.bks.cpg/sg2_135_cif.got.tgz:269422.got - 2010.06.03 11:33:40.
