data_PCOD9022790
_publ_section_title
;
Structure prediction by ZEFSAII (Michael W. Deem and Ramdas Pophale) SiO2 
 PCOD9022790
Probable space group: P -1
;
_chemical_formula_sum "Si O2"
_cell_formula_units_Z 16
_cell_length_a 9.003357
_cell_length_b 11.642094
_cell_length_c 18.547848
_cell_angle_alpha 41.712668
_cell_angle_beta 51.096870
_cell_angle_gamma 82.677134
_cell_volume 757.022386
_symmetry_space_group_name_H-M "P -1"
_symmetry_group_IT_number 2
_symmetry_cell_setting 'triclinic'
loop_
_space_group_symop_operation_xyz
x,y,z
-x,-y,-z
loop_
_atom_site_type_symbol
_atom_site_label
_atom_site_fract_x
_atom_site_fract_y
_atom_site_fract_z
Si Si1 0.770146 0.990512 0.740768
Si Si2 0.788876 0.317390 0.010941
Si Si3 0.046789 0.119190 0.005908
Si Si4 0.100294 0.855175 0.674017
Si Si5 0.523841 0.988433 0.381779
Si Si6 0.244974 0.953511 0.110371
Si Si7 0.476785 0.286440 0.597214
Si Si8 0.095920 0.564151 0.521843
O O1 0.791880 0.018295 0.807932
O O2 0.919727 0.244471 0.541491
O O3 0.469801 0.819773 0.892960
O O4 0.911613 0.903820 0.712007
O O5 0.992809 0.291109 0.936298
O O6 0.678279 0.190330 0.181374
O O7 0.934001 0.582826 0.848787
O O8 0.817382 0.926734 0.218172
O O9 0.265955 0.140781 0.968158
O O10 0.000000 0.000000 0.000000
O O11 0.298030 0.964391 0.496445
O O12 0.282393 0.957089 0.641013
O O13 0.410455 0.752935 0.485155
O O14 0.033877 0.677265 0.285830
O O15 0.500000 0.000000 0.000000
O O16 0.500000 0.500000 0.500000
O O17 0.603387 0.286221 0.630675
O O18 0.000000 0.500000 0.500000
#
# Coordination Sequence:
#
# PCOD9022790 Si02
#       8
#     2   2   2   2   2   2   2   2
#     4  11  22  44  64  93 130 173 218 270 331 391
#     4  11  23  44  67  94 130 172 228 275 324 395
#     4  11  23  39  65  96 130 167 215 272 326 400
#     4  11  25  44  67  92 135 177 223 276 329 389
#     4  10  24  44  64  97 130 168 231 272 324 406
#     4  11  24  41  61 100 136 168 214 268 331 398
#     4  11  21  40  68  91 125 170 212 269 332 382
#     4  10  22  39  64  91 130 169 203 269 324 391
#
# _framework density 21.135438000000001
#
# number of rings (size 3 to 8) (size 9 to 14) (size 15 to 20)
#    0.000    1.250    3.750    3.000    5.250    1.500 
#    6.750    0.000    0.000    0.000    0.000    0.000 
#    0.000    0.000    0.000    0.000    0.000    0.000 
#
# Total GULP energy -89144.572389 kJ/mol
# GULP energy per Si atom -5571.535774 kJ/mol
# Density = 2.108733 g / cm^3
# Si number density = 21.135438 Si / 1000 Ang^3
#
#
#
# Elastic Constant Matrix: (Units=GPa)
#
#
# Indices 1 2 3 4 5 6 
#
# 1 104.3537 59.8058 10.9619 4.2310 -15.4275 -18.2860
# 2 59.8058 160.7090 36.8625 -4.6111 1.2521 -36.6691
# 3 10.9619 36.8625 52.0087 -1.0371 -0.7125 -10.8307
# 4 4.2310 -4.6111 -1.0371 40.0201 0.0864 2.1330
# 5 -15.4275 1.2521 -0.7125 0.0864 29.8417 2.7346
# 6 -18.2860 -36.6691 -10.8307 2.1330 2.7346 47.3397
#
#
#
# Elastic Compliance Matrix: (Units=1/GPa)
#
#
# Indices 1 2 3 4 5 6 
#
# 1 0.013854 -0.005252 0.001113 -0.002121 0.007304 0.001211
# 2 -0.005252 0.010659 -0.005400 0.001377 -0.003767 0.005148
# 3 0.001113 -0.005400 0.023141 -0.000222 0.001219 0.001481
# 4 -0.002121 0.001377 -0.000222 0.025414 -0.001153 -0.000882
# 5 0.007304 -0.003767 0.001219 -0.001153 0.037655 -0.001941
# 6 0.001211 0.005148 0.001481 -0.000882 -0.001941 0.026070
#
#
# Mechanical properties :
#
#
# Convention : Reuss Voigt Hill
#
# Bulk Modulus (GPa) = 34.99551 59.14798 47.07174
# Shear Modulus (GPa) = 30.23025 37.40304 33.81665
#
# Velocity S-wave (km/s) = 3.78605 4.21132 4.00434
# Velocity P-wave (km/s) = 5.97544 7.18978 6.61056
#
# Compressibility (1/GPa) = 0.02857510
#
# Stress axis : x y z
#
# Youngs Moduli (GPa) = 72.18051 93.81715 43.21314
#
# Poissons Ratio (x) = 0.49275 -0.04808
# Poissons Ratio (y) = 0.37911 0.23335
# Poissons Ratio (z) = -0.08031 0.50661
#
# Static dielectric constant tensor:
#      x y z
#    x 1.977040 -0.206390 0.218950 
#    y -0.206390 1.972480 -0.196620 
#    z 0.218950 -0.196620 1.984560 
# 
# From -- ./inp_files/589456.got.cif
#   From: 2010.05.17/outbox.cif.g08.bks.cpg/sg2_295_cif.got.tgz:589456.got - 2010.06.03 11:33:40.
