data_PCOD9022719
_publ_section_title
;
Structure prediction by ZEFSAII (Michael W. Deem and Ramdas Pophale) SiO2 
 PCOD9022719
Probable space group: P -1
;
_chemical_formula_sum "Si O2"
_cell_formula_units_Z 14
_cell_length_a 17.274085
_cell_length_b 12.479405
_cell_length_c 8.947699
_cell_angle_alpha 51.667672
_cell_angle_beta 111.363413
_cell_angle_gamma 151.854607
_cell_volume 620.761554
_symmetry_space_group_name_H-M "P -1"
_symmetry_group_IT_number 2
_symmetry_cell_setting 'triclinic'
loop_
_space_group_symop_operation_xyz
x,y,z
-x,-y,-z
loop_
_atom_site_type_symbol
_atom_site_label
_atom_site_fract_x
_atom_site_fract_y
_atom_site_fract_z
Si Si1 0.645818 0.706459 0.788487
Si Si2 0.775743 0.356055 0.173768
Si Si3 0.753123 0.031258 0.329311
Si Si4 0.624548 0.880063 0.036131
Si Si5 0.395845 0.838879 0.227635
Si Si6 0.951427 0.273650 0.712581
Si Si7 0.938570 0.753863 0.668832
O O1 0.579569 0.473405 0.856403
O O2 0.616576 0.784147 0.580999
O O3 0.851975 0.038506 0.716405
O O4 0.500000 0.500000 0.000000
O O5 0.847333 0.313418 0.199853
O O6 0.863304 0.510325 0.263418
O O7 0.550078 0.012860 0.300958
O O8 0.841402 0.565868 0.919480
O O9 0.897055 0.116935 0.344709
O O10 0.649153 0.899450 0.213623
O O11 0.653560 0.079142 0.840048
O O12 0.791252 0.045234 0.927007
O O13 0.209030 0.481637 0.366935
O O14 0.500000 0.000000 0.000000
O O15 0.000000 0.500000 0.500000
O O16 0.000000 0.000000 0.500000
#
# Coordination Sequence:
#
# PCOD9022719 Si02
#       7
#     2   2   2   2   2   2   2
#     4  10  25  40  63  99 134 170 224 278 329 394
#     4  11  22  42  67  97 136 176 223 262 342 397
#     4  12  21  40  77  95 128 176 230 273 335 391
#     4  11  22  42  68 101 130 172 231 275 330 395
#     4  10  22  39  63  97 145 161 214 289 334 384
#     4  11  22  43  67  94 136 180 226 270 328 408
#     4  11  24  39  65 107 136 164 218 287 337 384
#
# _framework density 22.552942000000002
#
# number of rings (size 3 to 8) (size 9 to 14) (size 15 to 20)
#    0.000    1.143    5.714    1.714    4.000    1.143 
#    0.000    1.429    0.000    0.000    0.000    0.000 
#    0.000    0.000    0.000    0.000    0.000    0.000 
#
# Total GULP energy -78228.152478 kJ/mol
# GULP energy per Si atom -5587.725177 kJ/mol
# Density = 2.250161 g / cm^3
# Si number density = 22.552942 Si / 1000 Ang^3
#
#
#
# Elastic Constant Matrix: (Units=GPa)
#
#
# Indices 1 2 3 4 5 6 
#
# 1 64.0147 39.0461 17.3061 -11.3191 22.0802 9.2253
# 2 39.0461 237.4491 51.4379 -17.5051 26.1382 -6.8461
# 3 17.3061 51.4379 117.5771 -5.7755 18.3524 -9.1784
# 4 -11.3191 -17.5051 -5.7755 41.6178 -16.1056 8.2737
# 5 22.0802 26.1382 18.3524 -16.1056 38.6024 -3.7475
# 6 9.2253 -6.8461 -9.1784 8.2737 -3.7475 33.2035
#
#
#
# Elastic Compliance Matrix: (Units=1/GPa)
#
#
# Indices 1 2 3 4 5 6 
#
# 1 0.022860 -0.002382 -0.001240 0.002740 -0.010611 -0.009066
# 2 -0.002382 0.005144 -0.001641 0.000729 -0.000941 0.000981
# 3 -0.001240 -0.001641 0.010066 -0.001462 -0.003306 0.002780
# 4 0.002740 0.000729 -0.001462 0.030461 0.010624 -0.007406
# 5 -0.010611 -0.000941 -0.003306 0.010624 0.038965 0.003590
# 6 -0.009066 0.000981 0.002780 -0.007406 0.003590 0.035858
#
#
# Mechanical properties :
#
#
# Convention : Reuss Voigt Hill
#
# Bulk Modulus (GPa) = 36.30224 70.51346 53.40785
# Shear Modulus (GPa) = 30.66348 43.43481 37.04914
#
# Velocity S-wave (km/s) = 3.69131 4.39327 4.05750
# Velocity P-wave (km/s) = 5.85654 7.55434 6.75896
#
# Compressibility (1/GPa) = 0.02754651
#
# Stress axis : x y z
#
# Youngs Moduli (GPa) = 43.74420 194.39532 99.33983
#
# Poissons Ratio (x) = 0.46305 0.12314
# Poissons Ratio (y) = 0.10420 0.16297
# Poissons Ratio (z) = 0.05423 0.31891
#
# Static dielectric constant tensor:
#      x y z
#    x 1.878540 0.013800 -0.058320 
#    y 0.013800 1.866330 -0.034240 
#    z -0.058320 -0.034240 1.863270 
# 
# From -- ./inp_files/183072.got.cif
#   From: 2010.05.17/outbox.cif.g08.bks.cpg/sg2_92_cif.got.tgz:183072.got - 2010.06.03 11:33:40.
