data_PCOD9022355
_publ_section_title
;
Structure prediction by ZEFSAII (Michael W. Deem and Ramdas Pophale) SiO2 
 PCOD9022355
Probable space group: P -1
;
_chemical_formula_sum "Si O2"
_cell_formula_units_Z 16
_cell_length_a 8.903346
_cell_length_b 12.332887
_cell_length_c 15.182131
_cell_angle_alpha 105.336510
_cell_angle_beta 92.340928
_cell_angle_gamma 31.583203
_cell_volume 783.842669
_symmetry_space_group_name_H-M "P -1"
_symmetry_group_IT_number 2
_symmetry_cell_setting 'triclinic'
loop_
_space_group_symop_operation_xyz
x,y,z
-x,-y,-z
loop_
_atom_site_type_symbol
_atom_site_label
_atom_site_fract_x
_atom_site_fract_y
_atom_site_fract_z
Si Si1 0.232219 0.313452 0.539424
Si Si2 0.157738 0.241889 0.126807
Si Si3 0.461232 0.411333 0.925460
Si Si4 0.863954 0.828875 0.392979
Si Si5 0.137285 0.763863 0.559917
Si Si6 0.169927 0.805354 0.289824
Si Si7 0.658759 0.724568 0.999245
Si Si8 0.775854 0.452612 0.331405
O O1 0.073081 0.340985 0.616263
O O2 0.361581 0.344888 0.586569
O O3 0.000000 0.500000 0.500000
O O4 0.497453 0.074498 0.443286
O O5 0.277451 0.283689 0.102528
O O6 0.875837 0.383073 0.086181
O O7 0.014125 0.337627 0.239654
O O8 0.439249 0.970495 0.075748
O O9 0.714681 0.244185 0.817014
O O10 0.500000 0.500000 0.000000
O O11 0.493004 0.289432 0.970475
O O12 0.986702 0.820760 0.477859
O O13 0.988139 0.808264 0.304613
O O14 0.500000 0.500000 0.500000
O O15 0.059351 0.733709 0.633696
O O16 0.031769 0.958509 0.625792
O O17 0.486809 0.583869 0.305057
O O18 0.000000 0.500000 0.000000
#
# Coordination Sequence:
#
# PCOD9022355 Si02
#       8
#     2   2   2   2   2   2   2   2
#     4  11  23  39  55  82 123 159 189 237 295 337
#     4   9  20  37  63  88 110 149 202 238 287 357
#     4  10  22  39  61  89 121 150 188 249 305 345
#     4  11  23  38  57  86 121 158 195 238 289 348
#     4  12  21  35  64  87 118 157 199 241 287 342
#     4  11  23  39  60  89 116 153 207 240 283 358
#     4   9  18  39  61  83 114 149 192 239 293 345
#     4  11  21  37  60  87 114 154 199 242 285 345
#
# _framework density 20.412258000000001
#
# number of rings (size 3 to 8) (size 9 to 14) (size 15 to 20)
#    0.000    1.500    3.750    1.875    0.000    1.500 
#    0.000    3.750    0.000    0.000    0.000    0.000 
#    0.000    0.000    0.000    0.000    0.000    0.000 
#
# Total GULP energy -89180.139320 kJ/mol
# GULP energy per Si atom -5573.758707 kJ/mol
# Density = 2.036580 g / cm^3
# Si number density = 20.412258 Si / 1000 Ang^3
#
#
#
# Elastic Constant Matrix: (Units=GPa)
#
#
# Indices 1 2 3 4 5 6 
#
# 1 82.4812 16.5372 23.8926 -15.2272 -33.6609 24.5751
# 2 16.5372 90.3433 25.5998 3.7741 -17.8805 14.8387
# 3 23.8926 25.5998 77.0053 -9.2670 -34.9855 5.0835
# 4 -15.2272 3.7741 -9.2670 25.0053 7.0264 -12.0106
# 5 -33.6609 -17.8805 -34.9855 7.0264 42.6692 -10.6067
# 6 24.5751 14.8387 5.0835 -12.0106 -10.6067 32.4601
#
#
#
# Elastic Compliance Matrix: (Units=1/GPa)
#
#
# Indices 1 2 3 4 5 6 
#
# 1 0.021677 0.000091 0.001224 0.004621 0.014878 -0.010074
# 2 0.000091 0.014399 -0.004491 -0.008329 0.001687 -0.008478
# 3 0.001224 -0.004491 0.022854 0.007866 0.018112 0.006376
# 4 0.004621 -0.008329 0.007866 0.056217 0.002491 0.020692
# 5 0.014878 0.001687 0.018112 0.002491 0.050994 0.002713
# 6 -0.010074 -0.008478 0.006376 0.020692 0.002713 0.049854
#
#
# Mechanical properties :
#
#
# Convention : Reuss Voigt Hill
#
# Bulk Modulus (GPa) = 19.01910 42.43210 30.72560
# Shear Modulus (GPa) = 20.84440 32.28027 26.56233
#
# Velocity S-wave (km/s) = 3.19904 3.98102 3.61126
# Velocity P-wave (km/s) = 4.79405 6.47796 5.69855
#
# Compressibility (1/GPa) = 0.05257872
#
# Stress axis : x y z
#
# Youngs Moduli (GPa) = 46.13134 69.44786 43.75670
#
# Poissons Ratio (x) = -0.00633 -0.05357
# Poissons Ratio (y) = -0.00420 0.19652
# Poissons Ratio (z) = -0.05648 0.31190
#
# Static dielectric constant tensor:
#      x y z
#    x 1.569380 0.045290 -0.059480 
#    y 0.045290 1.733000 0.002210 
#    z -0.059480 0.002210 1.749410 
# 
# From -- ./inp_files/37541.got.cif
#   From: 2010.05.17/outbox.cif.g08.bks.cpg/sg2_19_cif.got.tgz:37541.got - 2010.06.03 11:33:40.
