data_PCOD9022374
_publ_section_title
;
Structure prediction by ZEFSAII (Michael W. Deem and Ramdas Pophale) SiO2 
 PCOD9022374
Probable space group: P -1
;
_chemical_formula_sum "Si O2"
_cell_formula_units_Z 14
_cell_length_a 13.839548
_cell_length_b 14.376398
_cell_length_c 9.822034
_cell_angle_alpha 152.597343
_cell_angle_beta 33.631797
_cell_angle_gamma 142.557502
_cell_volume 486.506336
_symmetry_space_group_name_H-M "P -1"
_symmetry_group_IT_number 2
_symmetry_cell_setting 'triclinic'
loop_
_space_group_symop_operation_xyz
x,y,z
-x,-y,-z
loop_
_atom_site_type_symbol
_atom_site_label
_atom_site_fract_x
_atom_site_fract_y
_atom_site_fract_z
Si Si1 0.006409 0.293508 0.095748
Si Si2 0.588439 0.093431 0.846886
Si Si3 0.439598 0.256163 0.742460
Si Si4 0.171159 0.358881 0.367039
Si Si5 0.256064 0.717231 0.378494
Si Si6 0.952123 0.160352 0.604209
Si Si7 0.327493 0.342368 0.442654
O O1 0.873889 0.427032 0.353729
O O2 0.918960 0.245564 0.286857
O O3 0.192085 0.466066 0.110010
O O4 0.021375 0.075041 0.729349
O O5 0.663138 0.191794 0.741185
O O6 0.746219 0.175735 0.876551
O O7 0.571393 0.851353 0.528966
O O8 0.391619 0.135658 0.141594
O O9 0.589782 0.193366 0.577918
O O10 0.500000 0.500000 0.000000
O O11 0.246672 0.218239 0.988278
O O12 0.319893 0.386168 0.347814
O O13 0.003335 0.234869 0.486060
O O14 0.116658 0.312325 0.687774
O O15 0.500000 0.500000 0.500000
#
# Coordination Sequence:
#
# PCOD9022374 Si02
#       7
#     2   2   2   2   2   2   2
#     4  11  21  36  59  93 134 166 199 247 309 380
#     4  12  23  39  64  94 128 169 205 252 316 374
#     4  12  22  33  57  98 129 164 201 245 311 386
#     4  10  22  39  61  90 129 164 200 259 309 367
#     4  11  20  33  55  90 132 168 198 239 300 385
#     4  10  23  41  62  91 127 163 207 256 309 369
#     4  10  24  46  67  87 118 166 218 269 311 356
#
# _framework density 28.776603000000001
#
# number of rings (size 3 to 8) (size 9 to 14) (size 15 to 20)
#    0.857    0.286    4.286    3.000    2.000    1.714 
#    0.000    0.714    0.000    1.714    0.000    0.000 
#    0.000    0.000    0.000    0.000    0.000    0.000 
#
# Total GULP energy -78248.893151 kJ/mol
# GULP energy per Si atom -5589.206654 kJ/mol
# Density = 2.871111 g / cm^3
# Si number density = 28.776603 Si / 1000 Ang^3
#
#
#
# Elastic Constant Matrix: (Units=GPa)
#
#
# Indices 1 2 3 4 5 6 
#
# 1 99.7261 56.5363 22.3328 -18.8801 -20.7302 39.3477
# 2 56.5363 112.6156 5.7600 4.3038 -15.7157 5.5153
# 3 22.3328 5.7600 87.5196 7.2367 -12.3728 21.6312
# 4 -18.8801 4.3038 7.2367 49.0209 12.5448 -9.3352
# 5 -20.7302 -15.7157 -12.3728 12.5448 38.5392 -11.0396
# 6 39.3477 5.5153 21.6312 -9.3352 -11.0396 91.4091
#
#
#
# Elastic Compliance Matrix: (Units=1/GPa)
#
#
# Indices 1 2 3 4 5 6 
#
# 1 0.020927 -0.010079 -0.003464 0.007789 0.001611 -0.006590
# 2 -0.010079 0.014459 0.001938 -0.005871 0.003830 0.002871
# 3 -0.003464 0.001938 0.013676 -0.005004 0.004419 -0.001839
# 4 0.007789 -0.005871 -0.005004 0.026827 -0.008575 -0.000110
# 5 0.001611 0.003830 0.004419 -0.008575 0.032909 0.001128
# 6 -0.006590 0.002871 -0.001839 -0.000110 0.001128 0.014164
#
#
# Mechanical properties :
#
#
# Convention : Reuss Voigt Hill
#
# Bulk Modulus (GPa) = 38.68348 52.12439 45.40393
# Shear Modulus (GPa) = 32.30227 50.14264 41.22245
#
# Velocity S-wave (km/s) = 3.35404 4.17883 3.78894
# Velocity P-wave (km/s) = 5.33585 6.43710 5.91217
#
# Compressibility (1/GPa) = 0.02585083
#
# Stress axis : x y z
#
# Youngs Moduli (GPa) = 47.78592 69.16261 73.12294
#
# Poissons Ratio (x) = 0.69707 0.25330
# Poissons Ratio (y) = 0.48162 -0.14169
# Poissons Ratio (z) = 0.16553 -0.13401
#
# Static dielectric constant tensor:
#      x y z
#    x 2.378870 0.000670 0.006280 
#    y 0.000670 2.320460 0.058910 
#    z 0.006280 0.058910 2.425270 
# 
# From -- ./inp_files/539137.got.cif
#   From: 2010.05.17/outbox.cif.g08.bks.cpg/sg2_270_cif.got.tgz:539137.got - 2010.06.03 11:33:40.
