data_PCOD9022244
_publ_section_title
;
Structure prediction by ZEFSAII (Michael W. Deem and Ramdas Pophale) SiO2 
 PCOD9022244
Probable space group: P -1
;
_chemical_formula_sum "Si O2"
_cell_formula_units_Z 16
_cell_length_a 7.171174
_cell_length_b 15.203288
_cell_length_c 15.549179
_cell_angle_alpha 32.899118
_cell_angle_beta 122.262507
_cell_angle_gamma 133.616098
_cell_volume 662.180453
_symmetry_space_group_name_H-M "P -1"
_symmetry_group_IT_number 2
_symmetry_cell_setting 'triclinic'
loop_
_space_group_symop_operation_xyz
x,y,z
-x,-y,-z
loop_
_atom_site_type_symbol
_atom_site_label
_atom_site_fract_x
_atom_site_fract_y
_atom_site_fract_z
Si Si1 0.476333 0.012988 0.584392
Si Si2 0.261111 0.295392 0.836293
Si Si3 0.521771 0.815414 0.165958
Si Si4 0.014617 0.091312 0.667294
Si Si5 0.206881 0.575445 0.914143
Si Si6 0.389446 0.253090 0.480556
Si Si7 0.811837 0.304342 0.663324
Si Si8 0.767010 0.675034 0.998273
O O1 0.309296 0.796177 0.750598
O O2 0.770408 0.109832 0.613406
O O3 0.500000 0.000000 0.500000
O O4 0.351298 0.131506 0.486870
O O5 0.433137 0.233641 0.878194
O O6 0.432259 0.525201 0.679527
O O7 0.183580 0.252358 0.951574
O O8 0.982483 0.210417 0.791851
O O9 0.274535 0.670174 0.283352
O O10 0.763002 0.840362 0.261779
O O11 0.500000 0.000000 0.000000
O O12 0.140670 0.199091 0.520408
O O13 0.891763 0.863812 0.815289
O O14 0.129721 0.456911 0.902963
O O15 0.455098 0.563128 0.011551
O O16 0.000000 0.500000 0.000000
O O17 0.550166 0.199360 0.630413
O O18 0.000000 0.500000 0.500000
#
# Coordination Sequence:
#
# PCOD9022244 Si02
#       8
#     2   2   2   2   2   2   2   2
#     4  11  23  39  63  91 119 157 203 251 305 361
#     4  11  23  39  61  90 126 158 201 255 298 363
#     4  11  24  40  62  92 123 163 206 247 305 365
#     4  10  23  41  61  87 125 157 200 254 298 359
#     4  10  22  40  61  85 119 157 200 250 300 358
#     4  10  22  39  61  88 121 162 200 244 306 359
#     4   9  21  39  61  88 123 161 199 243 302 364
#     4  10  22  39  60  87 118 159 199 245 306 353
#
# _framework density 24.162597999999999
#
# number of rings (size 3 to 8) (size 9 to 14) (size 15 to 20)
#    0.000    1.750    0.000    3.000    0.000   16.000 
#    0.000    0.000    0.000    0.000    0.000    0.000 
#    0.000    0.000    0.000    0.000    0.000    0.000 
#
# Total GULP energy -89414.979533 kJ/mol
# GULP energy per Si atom -5588.436221 kJ/mol
# Density = 2.410760 g / cm^3
# Si number density = 24.162598 Si / 1000 Ang^3
#
#
#
# Elastic Constant Matrix: (Units=GPa)
#
#
# Indices 1 2 3 4 5 6 
#
# 1 133.9728 32.9947 37.2666 -17.9758 -28.0302 -24.7427
# 2 32.9947 37.1906 7.0911 3.9144 -6.8006 -19.6421
# 3 37.2666 7.0911 64.6412 -5.8708 -27.6116 -3.3609
# 4 -17.9758 3.9144 -5.8708 30.9284 4.9350 -0.2550
# 5 -28.0302 -6.8006 -27.6116 4.9350 46.0558 -6.0736
# 6 -24.7427 -19.6421 -3.3609 -0.2550 -6.0736 47.1294
#
#
#
# Elastic Compliance Matrix: (Units=1/GPa)
#
#
# Indices 1 2 3 4 5 6 
#
# 1 0.013390 -0.009397 -0.004160 0.007588 0.003898 0.003360
# 2 -0.009397 0.044598 0.002626 -0.011377 0.005571 0.014497
# 3 -0.004160 0.002626 0.022680 -0.000304 0.011755 0.002041
# 4 0.007588 -0.011377 -0.000304 0.038351 -0.001454 -0.000760
# 5 0.003898 0.005571 0.011755 -0.001454 0.033363 0.009498
# 6 0.003360 0.014497 0.002041 -0.000760 0.009498 0.030389
#
#
# Mechanical properties :
#
#
# Convention : Reuss Voigt Hill
#
# Bulk Modulus (GPa) = 17.00568 43.38994 30.19781
# Shear Modulus (GPa) = 22.29797 35.38619 28.84208
#
# Velocity S-wave (km/s) = 3.04111 3.83103 3.45870
# Velocity P-wave (km/s) = 4.40277 6.12907 5.33620
#
# Compressibility (1/GPa) = 0.05880388
#
# Stress axis : x y z
#
# Youngs Moduli (GPa) = 74.68381 22.42261 44.09211
#
# Poissons Ratio (x) = 0.21072 0.18341
# Poissons Ratio (y) = 0.70184 -0.11576
# Poissons Ratio (z) = 0.31067 -0.05887
#
# Static dielectric constant tensor:
#      x y z
#    x 1.909030 0.001940 0.019590 
#    y 0.001940 2.074590 0.069730 
#    z 0.019590 0.069730 1.747400 
# 
# From -- ./inp_files/99837.got.cif
#   From: 2010.05.17/outbox.cif.g08.bks.cpg/sg2_50_cif.got.tgz:99837.got - 2010.06.03 11:33:40.
