data_PCOD9022211
_publ_section_title
;
Structure prediction by ZEFSAII (Michael W. Deem and Ramdas Pophale) SiO2 
 PCOD9022211
Probable space group: P -1
;
_chemical_formula_sum "Si O2"
_cell_formula_units_Z 16
_cell_length_a 27.729924
_cell_length_b 13.416732
_cell_length_c 11.660280
_cell_angle_alpha 148.653423
_cell_angle_beta 150.378664
_cell_angle_gamma 21.507198
_cell_volume 761.192952
_symmetry_space_group_name_H-M "P -1"
_symmetry_group_IT_number 2
_symmetry_cell_setting 'triclinic'
loop_
_space_group_symop_operation_xyz
x,y,z
-x,-y,-z
loop_
_atom_site_type_symbol
_atom_site_label
_atom_site_fract_x
_atom_site_fract_y
_atom_site_fract_z
Si Si1 0.097960 0.387826 0.704189
Si Si2 0.308106 0.791410 0.483139
Si Si3 0.698139 0.838914 0.590466
Si Si4 0.438027 0.362763 0.872782
Si Si5 0.008378 0.748278 0.458383
Si Si6 0.705839 0.143849 0.106609
Si Si7 0.634325 0.270266 0.712621
Si Si8 0.934561 0.127779 0.864029
O O1 0.026046 0.369714 0.638008
O O2 0.000000 0.500000 0.500000
O O3 0.252574 0.080157 0.689172
O O4 0.100287 0.602268 0.955579
O O5 0.469832 0.509431 0.567394
O O6 0.279999 0.816475 0.312751
O O7 0.209841 0.787971 0.347108
O O8 0.581256 0.837705 0.361146
O O9 0.848838 0.512792 0.569274
O O10 0.671935 0.014899 0.599694
O O11 0.703042 0.979000 0.844106
O O12 0.364424 0.565410 0.808250
O O13 0.599855 0.213277 0.053742
O O14 0.359615 0.571118 0.024484
O O15 0.866181 0.960815 0.296193
O O16 0.023521 0.914702 0.732713
O O17 0.000000 0.000000 0.000000
#
# Coordination Sequence:
#
# PCOD9022211 Si02
#       8
#     2   2   2   2   2   2   2   2
#     4  11  21  38  60  87 125 163 200 246 303 360
#     4  10  22  39  59  90 128 164 206 248 299 367
#     4  11  24  39  67  91 122 164 208 255 310 363
#     4  10  22  41  66  86 123 164 207 256 310 367
#     4  11  24  39  64  95 126 161 205 257 306 363
#     4  10  23  44  61  90 124 159 208 260 310 363
#     4  10  23  39  60  90 127 163 202 256 303 360
#     4  11  23  37  63  90 123 164 204 245 300 370
#
# _framework density 21.019636999999999
#
# number of rings (size 3 to 8) (size 9 to 14) (size 15 to 20)
#    0.000    1.500    2.500    3.000    1.750    4.500 
#    0.000    2.500    0.000    0.000    0.000    0.000 
#    0.000    0.000    0.000    0.000    0.000    0.000 
#
# Total GULP energy -89402.800765 kJ/mol
# GULP energy per Si atom -5587.675048 kJ/mol
# Density = 2.097180 g / cm^3
# Si number density = 21.019637 Si / 1000 Ang^3
#
#
#
# Elastic Constant Matrix: (Units=GPa)
#
#
# Indices 1 2 3 4 5 6 
#
# 1 52.0267 6.3536 13.9610 8.4942 -8.4994 -4.2677
# 2 6.3536 95.6665 24.0847 4.0500 0.0686 -2.5689
# 3 13.9610 24.0847 87.5976 26.9271 4.8300 11.1737
# 4 8.4942 4.0500 26.9271 43.0910 3.1232 -4.6322
# 5 -8.4994 0.0686 4.8300 3.1232 23.5002 1.4442
# 6 -4.2677 -2.5689 11.1737 -4.6322 1.4442 33.8140
#
#
#
# Elastic Compliance Matrix: (Units=1/GPa)
#
#
# Indices 1 2 3 4 5 6 
#
# 1 0.022367 -0.000387 -0.003634 -0.002398 0.008954 0.003283
# 2 -0.000387 0.011456 -0.003916 0.001679 0.000265 0.002334
# 3 -0.003634 -0.003916 0.017445 -0.010439 -0.003020 -0.007822
# 4 -0.002398 0.001679 -0.010439 0.031112 -0.003333 0.007679
# 5 0.008954 0.000265 -0.003020 -0.003333 0.046873 -0.000310
# 6 0.003283 0.002334 -0.007822 0.007679 -0.000310 0.033815
#
#
# Mechanical properties :
#
#
# Convention : Reuss Voigt Hill
#
# Bulk Modulus (GPa) = 28.25432 36.00993 32.13212
# Shear Modulus (GPa) = 26.21362 32.80716 29.51039
#
# Velocity S-wave (km/s) = 3.53526 3.95496 3.75099
# Velocity P-wave (km/s) = 5.48955 6.16639 5.83779
#
# Compressibility (1/GPa) = 0.03539282
#
# Stress axis : x y z
#
# Youngs Moduli (GPa) = 44.70885 87.28952 57.32372
#
# Poissons Ratio (x) = 0.03382 0.20829
# Poissons Ratio (y) = 0.01732 0.22451
# Poissons Ratio (z) = 0.16245 0.34187
#
# Static dielectric constant tensor:
#      x y z
#    x 2.421010 0.037860 -1.041560 
#    y 0.037860 1.772850 -0.090950 
#    z -1.041560 -0.090950 3.281060 
# 
# From -- ./inp_files/477690.got.cif
#   From: 2010.05.17/outbox.cif.g08.bks.cpg/sg2_239_cif.got.tgz:477690.got - 2010.06.03 11:33:40.
