data_PCOD9022878
_publ_section_title
;
Structure prediction by ZEFSAII (Michael W. Deem and Ramdas Pophale) SiO2 
 PCOD9022878
Probable space group: P -1
;
_chemical_formula_sum "Si O2"
_cell_formula_units_Z 8
_cell_length_a 11.794758
_cell_length_b 12.420082
_cell_length_c 10.063417
_cell_angle_alpha 35.059630
_cell_angle_beta 154.701942
_cell_angle_gamma 147.981409
_cell_volume 325.092839
_symmetry_space_group_name_H-M "P -1"
_symmetry_group_IT_number 2
_symmetry_cell_setting 'triclinic'
loop_
_space_group_symop_operation_xyz
x,y,z
-x,-y,-z
loop_
_atom_site_type_symbol
_atom_site_label
_atom_site_fract_x
_atom_site_fract_y
_atom_site_fract_z
Si Si1 0.796514 0.728257 0.495844
Si Si2 0.869566 0.979206 0.676510
Si Si3 0.156881 0.350627 0.817484
Si Si4 0.330073 0.713487 0.227418
O O1 0.526548 0.739730 0.275368
O O2 0.711030 0.514279 0.539396
O O3 0.951980 0.919410 0.369736
O O4 0.027995 0.713733 0.861757
O O5 0.526620 0.889698 0.360932
O O6 0.887803 0.779031 0.962215
O O7 0.994795 0.166370 0.725112
O O8 0.000000 0.500000 0.500000
O O9 0.500000 0.500000 0.000000
#
# Coordination Sequence:
#
# PCOD9022878 Si02
#       4
#     2   2   2   2
#     4  10  22  39  64  99 133 166 209 263 322 388
#     4  11  24  44  72  94 130 177 218 264 328 389
#     4  11  28  47  66  96 130 171 224 277 320 374
#     4  10  22  39  64  99 133 166 209 263 322 388
#
# _framework density 24.608356000000001
#
# number of rings (size 3 to 8) (size 9 to 14) (size 15 to 20)
#    0.000    1.500    0.000    3.000    0.000   18.000 
#    0.000    0.000    0.000    0.000    0.000    0.000 
#    0.000    0.000    0.000    0.000    0.000    0.000 
#
# Total GULP energy -44810.827488 kJ/mol
# GULP energy per Si atom -5601.353436 kJ/mol
# Density = 2.455235 g / cm^3
# Si number density = 24.608356 Si / 1000 Ang^3
#
#
#
# Elastic Constant Matrix: (Units=GPa)
#
#
# Indices 1 2 3 4 5 6 
#
# 1 46.3462 41.7619 40.0213 -10.0097 -1.0146 20.4183
# 2 41.7619 203.1402 66.9172 0.6262 -6.3723 3.1656
# 3 40.0213 66.9172 110.6816 -4.7353 9.1085 0.1330
# 4 -10.0097 0.6262 -4.7353 60.3479 5.4237 -13.7456
# 5 -1.0146 -6.3723 9.1085 5.4237 40.1642 -3.9048
# 6 20.4183 3.1656 0.1330 -13.7456 -3.9048 47.4863
#
#
#
# Elastic Compliance Matrix: (Units=1/GPa)
#
#
# Indices 1 2 3 4 5 6 
#
# 1 0.046882 -0.004639 -0.014152 0.002243 0.001504 -0.019037
# 2 -0.004639 0.006771 -0.002604 -0.000877 0.001807 0.001445
# 3 -0.014152 -0.002604 0.016071 0.000679 -0.003915 0.006089
# 4 0.002243 -0.000877 0.000679 0.018158 -0.002284 0.004161
# 5 0.001504 0.001807 -0.003915 -0.002284 0.026493 0.000761
# 6 -0.019037 0.001445 0.006089 0.004161 0.000761 0.030398
#
#
# Mechanical properties :
#
#
# Convention : Reuss Voigt Hill
#
# Bulk Modulus (GPa) = 37.12981 73.06320 55.09650
# Shear Modulus (GPa) = 25.43998 43.69751 34.56874
#
# Velocity S-wave (km/s) = 3.21876 4.21850 3.75207
# Velocity P-wave (km/s) = 5.37912 7.31317 6.41940
#
# Compressibility (1/GPa) = 0.02693254
#
# Stress axis : x y z
#
# Youngs Moduli (GPa) = 21.33014 147.68479 62.22526
#
# Poissons Ratio (x) = 0.68514 0.88062
# Poissons Ratio (y) = 0.09896 0.16205
# Poissons Ratio (z) = 0.30187 0.38461
#
# Static dielectric constant tensor:
#      x y z
#    x 1.908830 -0.106690 -0.086540 
#    y -0.106690 1.957180 -0.060710 
#    z -0.086540 -0.060710 1.827560 
# 
# From -- ./inp_files/72949.got.cif
#   From: 2010.05.17/outbox.cif.g08.bks.cpg/sg2_37_cif.got.tgz:72949.got - 2010.06.03 11:33:40.
