data_PCOD9022800
_publ_section_title
;
Structure prediction by ZEFSAII (Michael W. Deem and Ramdas Pophale) SiO2 
 PCOD9022800
Probable space group: P -1
;
_chemical_formula_sum "Si O2"
_cell_formula_units_Z 16
_cell_length_a 6.049627
_cell_length_b 12.440450
_cell_length_c 9.502836
_cell_angle_alpha 107.960905
_cell_angle_beta 88.997228
_cell_angle_gamma 96.086567
_cell_volume 676.408810
_symmetry_space_group_name_H-M "P -1"
_symmetry_group_IT_number 2
_symmetry_cell_setting 'triclinic'
loop_
_space_group_symop_operation_xyz
x,y,z
-x,-y,-z
loop_
_atom_site_type_symbol
_atom_site_label
_atom_site_fract_x
_atom_site_fract_y
_atom_site_fract_z
Si Si1 0.277946 0.912732 0.955311
Si Si2 0.810790 0.598569 0.887919
Si Si3 0.008930 0.356564 0.814454
Si Si4 0.321598 0.708448 0.428967
Si Si5 0.163004 0.689490 0.717636
Si Si6 0.684944 0.911461 0.475196
Si Si7 0.414905 0.487242 0.721083
Si Si8 0.001814 0.024484 0.758267
O O1 0.298394 0.784398 0.852394
O O2 0.134169 0.956864 0.845031
O O3 0.155217 0.913789 0.108021
O O4 0.500000 0.000000 0.000000
O O5 0.548575 0.567149 0.868819
O O6 0.902521 0.476983 0.863715
O O7 0.918089 0.657643 0.771068
O O8 0.912992 0.674015 0.045176
O O9 0.236495 0.390955 0.744100
O O10 0.827194 0.275765 0.700438
O O11 0.171884 0.727532 0.572662
O O12 0.540111 0.794577 0.463397
O O13 0.399356 0.581629 0.378782
O O14 0.281480 0.574134 0.674320
O O15 0.821494 0.909680 0.325889
O O16 0.500000 0.000000 0.500000
O O17 0.846254 0.948568 0.618973
#
# Coordination Sequence:
#
# PCOD9022800 Si02
#       8
#     2   2   2   2   2   2   2   2
#     4  11  24  45  69  98 134 171 218 274 328 389
#     4   9  20  38  59  86 121 162 211 263 314 378
#     4   9  20  39  60  86 120 163 213 262 316 379
#     4  11  24  40  63  93 129 170 213 266 324 384
#     4  11  24  40  62  92 130 169 212 263 320 387
#     4  11  24  45  69  98 134 170 218 276 330 390
#     4  10  22  39  64  92 126 169 215 263 322 385
#     4  10  24  44  70  99 128 172 221 267 334 397
#
# _framework density 23.654333000000001
#
# number of rings (size 3 to 8) (size 9 to 14) (size 15 to 20)
#    0.000    1.750    0.000    3.000    0.000   15.500 
#    0.000    0.000    0.000    0.000    0.000    0.000 
#    0.000    0.000    0.000    0.000    0.000    0.000 
#
# Total GULP energy -89373.850951 kJ/mol
# GULP energy per Si atom -5585.865684 kJ/mol
# Density = 2.360049 g / cm^3
# Si number density = 23.654333 Si / 1000 Ang^3
#
#
#
# Elastic Constant Matrix: (Units=GPa)
#
#
# Indices 1 2 3 4 5 6 
#
# 1 62.5453 8.4052 19.4528 -1.5775 12.3674 8.3976
# 2 8.4052 72.3413 24.0779 6.0918 -0.6136 12.7962
# 3 19.4528 24.0779 121.9845 -17.5189 -1.8815 8.0811
# 4 -1.5775 6.0918 -17.5189 29.4924 4.8969 -3.0251
# 5 12.3674 -0.6136 -1.8815 4.8969 29.2322 14.0990
# 6 8.3976 12.7962 8.0811 -3.0251 14.0990 34.6185
#
#
#
# Elastic Compliance Matrix: (Units=1/GPa)
#
#
# Indices 1 2 3 4 5 6 
#
# 1 0.018678 -0.001473 -0.002665 0.001123 -0.008359 0.000138
# 2 -0.001473 0.017393 -0.003658 -0.007712 0.006081 -0.008369
# 3 -0.002665 -0.003658 0.010312 0.006620 0.000651 -0.000095
# 4 0.001123 -0.007712 0.006620 0.042465 -0.011962 0.009615
# 5 -0.008359 0.006081 0.000651 -0.011962 0.050528 -0.021996
# 6 0.000138 -0.008369 -0.000095 0.009615 -0.021996 0.041767
#
#
# Mechanical properties :
#
#
# Convention : Reuss Voigt Hill
#
# Bulk Modulus (GPa) = 32.47597 40.08252 36.27925
# Shear Modulus (GPa) = 24.15493 32.33097 28.24295
#
# Velocity S-wave (km/s) = 3.19903 3.70105 3.45916
# Velocity P-wave (km/s) = 5.23491 5.93680 5.59687
#
# Compressibility (1/GPa) = 0.03079199
#
# Stress axis : x y z
#
# Youngs Moduli (GPa) = 53.53950 57.49360 96.97615
#
# Poissons Ratio (x) = 0.08470 0.25840
# Poissons Ratio (y) = 0.07887 0.35470
# Poissons Ratio (z) = 0.14266 0.21029
#
# Static dielectric constant tensor:
#      x y z
#    x 1.878820 -0.036290 -0.023880 
#    y -0.036290 1.924720 0.039710 
#    z -0.023880 0.039710 1.936840 
# 
# From -- ./inp_files/135713.got.cif
#   From: 2010.05.17/outbox.cif.g08.bks.cpg/sg2_68_cif.got.tgz:135713.got - 2010.06.03 11:33:40.
