data_PCOD9022399
_publ_section_title
;
Structure prediction by ZEFSAII (Michael W. Deem and Ramdas Pophale) SiO2 
 PCOD9022399
Probable space group: P -1
;
_chemical_formula_sum "Si O2"
_cell_formula_units_Z 16
_cell_length_a 8.171086
_cell_length_b 9.577433
_cell_length_c 11.820048
_cell_angle_alpha 98.573934
_cell_angle_beta 56.068586
_cell_angle_gamma 99.538824
_cell_volume 755.066161
_symmetry_space_group_name_H-M "P -1"
_symmetry_group_IT_number 2
_symmetry_cell_setting 'triclinic'
loop_
_space_group_symop_operation_xyz
x,y,z
-x,-y,-z
loop_
_atom_site_type_symbol
_atom_site_label
_atom_site_fract_x
_atom_site_fract_y
_atom_site_fract_z
Si Si1 0.032677 0.543857 0.680788
Si Si2 0.276610 0.860314 0.463476
Si Si3 0.461241 0.688700 0.818454
Si Si4 0.684404 0.441674 0.628772
Si Si5 0.060334 0.064356 0.863531
Si Si6 0.107916 0.172854 0.260801
Si Si7 0.057998 0.626274 0.080952
Si Si8 0.428851 0.904100 0.660861
O O1 0.859782 0.504367 0.651376
O O2 0.988374 0.701637 0.756301
O O3 0.005718 0.435162 0.779842
O O4 0.232795 0.542657 0.529991
O O5 0.342496 0.725462 0.356090
O O6 0.383544 0.854998 0.544472
O O7 0.041088 0.840632 0.575402
O O8 0.352990 0.012823 0.403081
O O9 0.507847 0.535938 0.733836
O O10 0.666547 0.772212 0.793397
O O11 0.393495 0.781469 0.751534
O O12 0.293281 0.667640 0.975954
O O13 0.041413 0.230079 0.885745
O O14 0.280121 0.023449 0.751509
O O15 0.924379 0.973986 0.812163
O O16 0.000000 0.000000 0.000000
O O17 0.000000 0.500000 0.000000
#
# Coordination Sequence:
#
# PCOD9022399 Si02
#       8
#     2   2   2   2   2   2   2   2
#     4   9  20  42  62  94 127 162 213 254 319 372
#     4   9  20  39  63  92 124 166 208 260 321 370
#     4  11  24  41  62 100 127 166 213 260 324 373
#     4   9  20  38  67  90 125 167 203 267 312 366
#     4  11  22  43  63  85 125 174 210 256 316 372
#     4   9  21  41  66  88 128 162 204 268 313 373
#     4  12  27  41  64  96 130 170 215 261 318 388
#     4  10  22  39  61  93 126 162 214 259 315 382
#
# _framework density 21.190197999999999
#
# number of rings (size 3 to 8) (size 9 to 14) (size 15 to 20)
#    0.000    2.000    1.250    1.500    5.250    7.500 
#    2.250    0.000    0.000    0.000    0.000    0.000 
#    0.000    0.000    0.000    0.000    0.000    0.000 
#
# Total GULP energy -89335.301592 kJ/mol
# GULP energy per Si atom -5583.456350 kJ/mol
# Density = 2.114197 g / cm^3
# Si number density = 21.190198 Si / 1000 Ang^3
#
#
#
# Elastic Constant Matrix: (Units=GPa)
#
#
# Indices 1 2 3 4 5 6 
#
# 1 46.0065 11.1610 2.9782 4.3063 -10.7807 4.5098
# 2 11.1610 102.9549 10.7544 20.2993 9.5016 -2.2868
# 3 2.9782 10.7544 40.5266 3.2235 7.4109 -9.6026
# 4 4.3063 20.2993 3.2235 42.1815 -4.0201 -3.6620
# 5 -10.7807 9.5016 7.4109 -4.0201 25.9045 -7.1292
# 6 4.5098 -2.2868 -9.6026 -3.6620 -7.1292 34.6963
#
#
#
# Elastic Compliance Matrix: (Units=1/GPa)
#
#
# Indices 1 2 3 4 5 6 
#
# 1 0.026045 -0.003752 -0.003773 0.000484 0.012822 -0.001991
# 2 -0.003752 0.012075 -0.001473 -0.006068 -0.006832 -0.001168
# 3 -0.003773 -0.001473 0.028374 -0.001221 -0.007529 0.006570
# 4 0.000484 -0.006068 -0.001221 0.027776 0.008133 0.003802
# 5 0.012822 -0.006832 -0.007529 0.008133 0.051876 0.007317
# 6 -0.001991 -0.001168 0.006570 0.003802 0.007317 0.032726
#
#
# Mechanical properties :
#
#
# Convention : Reuss Voigt Hill
#
# Bulk Modulus (GPa) = 20.62037 26.58616 23.60326
# Shear Modulus (GPa) = 23.47029 31.52942 27.49986
#
# Velocity S-wave (km/s) = 3.33168 3.86155 3.60636
# Velocity P-wave (km/s) = 4.95503 5.69699 5.33892
#
# Compressibility (1/GPa) = 0.04849574
#
# Stress axis : x y z
#
# Youngs Moduli (GPa) = 38.39484 82.81846 35.24345
#
# Poissons Ratio (x) = 0.31077 0.13299
# Poissons Ratio (y) = 0.14407 0.05192
# Poissons Ratio (z) = 0.14488 0.12201
#
# Static dielectric constant tensor:
#      x y z
#    x 1.785570 0.028630 -0.032020 
#    y 0.028630 1.799920 0.013860 
#    z -0.032020 0.013860 1.798650 
# 
# From -- ./inp_files/298275.got.cif
#   From: 2010.05.17/outbox.cif.g08.bks.cpg/sg2_150_cif.got.tgz:298275.got - 2010.06.03 11:33:40.
