data_PCOD9023042
_publ_section_title
;
Structure prediction by ZEFSAII (Michael W. Deem and Ramdas Pophale) SiO2 
 PCOD9023042
Probable space group: P -1
;
_chemical_formula_sum "Si O2"
_cell_formula_units_Z 16
_cell_length_a 5.347391
_cell_length_b 10.792803
_cell_length_c 16.258448
_cell_angle_alpha 52.842181
_cell_angle_beta 124.905014
_cell_angle_gamma 103.986408
_cell_volume 605.488645
_symmetry_space_group_name_H-M "P -1"
_symmetry_group_IT_number 2
_symmetry_cell_setting 'triclinic'
loop_
_space_group_symop_operation_xyz
x,y,z
-x,-y,-z
loop_
_atom_site_type_symbol
_atom_site_label
_atom_site_fract_x
_atom_site_fract_y
_atom_site_fract_z
Si Si1 0.536217 0.369949 0.895107
Si Si2 0.821125 0.376837 0.101802
Si Si3 0.641781 0.057405 0.261049
Si Si4 0.325147 0.058846 0.028731
Si Si5 0.032105 0.740925 0.442634
Si Si6 0.954105 0.604201 0.703146
Si Si7 0.550899 0.573084 0.321961
Si Si8 0.452290 0.079215 0.549514
O O1 0.562568 0.332132 0.819204
O O2 0.311876 0.536183 0.789766
O O3 0.841445 0.357082 0.014636
O O4 0.336880 0.245647 0.948442
O O5 0.086263 0.416746 0.196396
O O6 0.769270 0.211733 0.197480
O O7 0.500000 0.500000 0.000000
O O8 0.480361 0.068085 0.314821
O O9 0.878186 0.900759 0.393293
O O10 0.484960 0.012750 0.165366
O O11 0.500000 0.000000 0.000000
O O12 0.000000 0.000000 0.000000
O O13 0.222122 0.593310 0.584785
O O14 0.295782 0.812780 0.413975
O O15 0.761025 0.671402 0.374100
O O16 0.745620 0.485913 0.669569
O O17 0.835155 0.779989 0.580990
O O18 0.500000 0.000000 0.500000
#
# Coordination Sequence:
#
# PCOD9023042 Si02
#       8
#     2   2   2   2   2   2   2   2
#     4  10  22  40  66  96 136 182 240 294 366 427
#     4   9  21  42  61  92 126 178 239 296 362 430
#     4  11  24  43  71  97 142 186 237 306 365 438
#     4  11  27  46  74 108 148 196 247 302 371 443
#     4  10  23  41  64 100 138 177 235 291 370 440
#     4  10  22  41  65  95 138 185 237 297 366 443
#     4  10  22  39  65  98 135 181 229 297 361 443
#     4  11  25  42  68 105 138 187 241 302 373 439
#
# _framework density 26.424942000000001
#
# number of rings (size 3 to 8) (size 9 to 14) (size 15 to 20)
#    0.000    1.750    0.000    2.250    7.000    6.500 
#    0.000    3.750    0.000    0.000    0.000    0.000 
#    0.000    0.000    0.000    0.000    0.000    0.000 
#
# Total GULP energy -89236.464907 kJ/mol
# GULP energy per Si atom -5577.279057 kJ/mol
# Density = 2.636480 g / cm^3
# Si number density = 26.424942 Si / 1000 Ang^3
#
#
#
# Elastic Constant Matrix: (Units=GPa)
#
#
# Indices 1 2 3 4 5 6 
#
# 1 57.7496 20.8038 45.1138 13.0879 -15.0204 8.4523
# 2 20.8038 105.7849 39.1895 1.5351 5.9767 18.0328
# 3 45.1138 39.1895 151.6570 4.1802 -30.4738 7.3299
# 4 13.0879 1.5351 4.1802 59.7127 -4.3710 10.5751
# 5 -15.0204 5.9767 -30.4738 -4.3710 49.1102 2.6548
# 6 8.4523 18.0328 7.3299 10.5751 2.6548 32.6040
#
#
#
# Elastic Compliance Matrix: (Units=1/GPa)
#
#
# Indices 1 2 3 4 5 6 
#
# 1 0.025178 -0.002525 -0.005736 -0.004246 0.004223 -0.002808
# 2 -0.002525 0.012143 -0.002885 0.001149 -0.003641 -0.005489
# 3 -0.005736 -0.002885 0.009993 0.000967 0.004877 0.000125
# 4 -0.004246 0.001149 0.000967 0.018712 0.001147 -0.005914
# 5 0.004223 -0.003641 0.004877 0.001147 0.025366 -0.002615
# 6 -0.002808 -0.005489 0.000125 -0.005914 -0.002615 0.036538
#
#
# Mechanical properties :
#
#
# Convention : Reuss Voigt Hill
#
# Bulk Modulus (GPa) = 39.96398 58.37842 49.17120
# Shear Modulus (GPa) = 31.53323 42.29101 36.91212
#
# Velocity S-wave (km/s) = 3.45818 4.00487 3.74152
# Velocity P-wave (km/s) = 5.57690 6.59738 6.10849
#
# Compressibility (1/GPa) = 0.02502253
#
# Stress axis : x y z
#
# Youngs Moduli (GPa) = 39.71690 82.35069 100.07144
#
# Poissons Ratio (x) = 0.20792 0.57403
# Poissons Ratio (y) = 0.10028 0.28869
# Poissons Ratio (z) = 0.22782 0.23757
#
# Static dielectric constant tensor:
#      x y z
#    x 3.031160 -0.125790 -0.181950 
#    y -0.125790 2.158740 0.109930 
#    z -0.181950 0.109930 2.157860 
# 
# From -- ./inp_files/549469.got.cif
#   From: 2010.05.17/outbox.cif.g08.bks.cpg/sg2_275_cif.got.tgz:549469.got - 2010.06.03 11:33:40.
