data_PCOD9023023
_publ_section_title
;
Structure prediction by ZEFSAII (Michael W. Deem and Ramdas Pophale) SiO2 
 PCOD9023023
Probable space group: P -1
;
_chemical_formula_sum "Si O2"
_cell_formula_units_Z 16
_cell_length_a 10.506306
_cell_length_b 12.183577
_cell_length_c 14.344738
_cell_angle_alpha 120.904224
_cell_angle_beta 81.621121
_cell_angle_gamma 144.793665
_cell_volume 756.318975
_symmetry_space_group_name_H-M "P -1"
_symmetry_group_IT_number 2
_symmetry_cell_setting 'triclinic'
loop_
_space_group_symop_operation_xyz
x,y,z
-x,-y,-z
loop_
_atom_site_type_symbol
_atom_site_label
_atom_site_fract_x
_atom_site_fract_y
_atom_site_fract_z
Si Si1 0.247229 0.049725 0.586790
Si Si2 0.549184 0.809560 0.560226
Si Si3 0.236497 0.043218 0.192217
Si Si4 0.192533 0.523429 0.229608
Si Si5 0.596561 0.942106 0.996833
Si Si6 0.188467 0.546464 0.029312
Si Si7 0.774995 0.706822 0.614337
Si Si8 0.198952 0.708639 0.486636
O O1 0.206300 0.864864 0.535986
O O2 0.024448 0.928798 0.615562
O O3 0.236884 0.054848 0.478285
O O4 0.553689 0.341325 0.709205
O O5 0.633638 0.879016 0.688128
O O6 0.288810 0.493376 0.436110
O O7 0.473258 0.885280 0.569827
O O8 0.419901 0.161519 0.137932
O O9 0.188747 0.153502 0.250699
O O10 0.976096 0.728735 0.076704
O O11 0.147875 0.590874 0.343604
O O12 0.266076 0.635852 0.167156
O O13 0.904110 0.210197 0.111000
O O14 0.422807 0.748464 0.018130
O O15 0.500000 0.000000 0.000000
O O16 0.000000 0.500000 0.000000
O O17 0.500000 0.500000 0.500000
O O18 0.000000 0.500000 0.500000
#
# Coordination Sequence:
#
# PCOD9023023 Si02
#       8
#     2   2   2   2   2   2   2   2
#     4  11  24  40  64  95 131 169 208 258 325 382
#     4  10  22  39  65  97 132 164 205 261 321 381
#     4  10  24  40  63  96 126 168 217 256 318 377
#     4  10  24  39  59  96 128 160 213 255 318 380
#     4  11  23  38  62  90 124 166 209 265 311 366
#     4  11  23  39  64  91 126 169 207 264 317 363
#     4  10  23  43  63  93 130 169 216 256 312 382
#     4  11  23  36  65  99 128 167 201 260 330 375
#
# _framework density 21.155096
#
# number of rings (size 3 to 8) (size 9 to 14) (size 15 to 20)
#    0.000    1.500    3.750    1.500    7.000    5.000 
#    0.000    2.500    0.000   13.500    0.000    0.000 
#    0.000    0.000    0.000    0.000    0.000    0.000 
#
# Total GULP energy -89299.003773 kJ/mol
# GULP energy per Si atom -5581.187736 kJ/mol
# Density = 2.110695 g / cm^3
# Si number density = 21.155096 Si / 1000 Ang^3
#
#
#
# Elastic Constant Matrix: (Units=GPa)
#
#
# Indices 1 2 3 4 5 6 
#
# 1 57.5893 23.5120 33.3119 -6.5376 -10.6096 12.6007
# 2 23.5120 192.7420 59.2452 -31.5984 -4.6183 17.7650
# 3 33.3119 59.2452 120.9721 -25.0800 -8.7228 3.7199
# 4 -6.5376 -31.5984 -25.0800 45.7355 -2.6028 -2.7039
# 5 -10.6096 -4.6183 -8.7228 -2.6028 34.6693 -3.7402
# 6 12.6007 17.7650 3.7199 -2.7039 -3.7402 39.0391
#
#
#
# Elastic Compliance Matrix: (Units=1/GPa)
#
#
# Indices 1 2 3 4 5 6 
#
# 1 0.023042 -0.000414 -0.005633 -0.000173 0.004891 -0.006256
# 2 -0.000414 0.006733 -0.002455 0.003107 0.000120 -0.002470
# 3 -0.005633 -0.002455 0.011945 0.004268 0.001516 0.002238
# 4 -0.000173 0.003107 0.004268 0.026549 0.003472 0.000406
# 5 0.004891 0.000120 0.001516 0.003472 0.031155 0.001448
# 6 -0.006256 -0.002470 0.002238 0.000406 0.001448 0.028712
#
#
# Mechanical properties :
#
#
# Convention : Reuss Voigt Hill
#
# Bulk Modulus (GPa) = 40.45842 67.04907 53.75375
# Shear Modulus (GPa) = 32.59904 40.90440 36.75172
#
# Velocity S-wave (km/s) = 3.92976 4.40198 4.17256
# Velocity P-wave (km/s) = 6.30530 7.58943 6.97697
#
# Compressibility (1/GPa) = 0.02471673
#
# Stress axis : x y z
#
# Youngs Moduli (GPa) = 43.39913 148.51605 83.71659
#
# Poissons Ratio (x) = 0.06147 0.47158
# Poissons Ratio (y) = 0.01796 0.20551
# Poissons Ratio (z) = 0.24447 0.36458
#
# Static dielectric constant tensor:
#      x y z
#    x 1.839320 -0.019510 -0.003830 
#    y -0.019510 1.819600 0.003980 
#    z -0.003830 0.003980 1.789720 
# 
# From -- ./inp_files/521661.got.cif
#   From: 2010.05.17/outbox.cif.g08.bks.cpg/sg2_261_cif.got.tgz:521661.got - 2010.06.03 11:33:40.
