data_PCOD9023411
_publ_section_title
;
Structure prediction by ZEFSAII (Michael W. Deem and Ramdas Pophale) SiO2 
 PCOD9023411
Probable space group: P -1
;
_chemical_formula_sum "Si O2"
_cell_formula_units_Z 12
_cell_length_a 13.704804
_cell_length_b 10.454949
_cell_length_c 9.222060
_cell_angle_alpha 95.687845
_cell_angle_beta 62.852954
_cell_angle_gamma 147.710457
_cell_volume 501.097478
_symmetry_space_group_name_H-M "P -1"
_symmetry_group_IT_number 2
_symmetry_cell_setting 'triclinic'
loop_
_space_group_symop_operation_xyz
x,y,z
-x,-y,-z
loop_
_atom_site_type_symbol
_atom_site_label
_atom_site_fract_x
_atom_site_fract_y
_atom_site_fract_z
Si Si1 0.213438 0.907351 0.142008
Si Si2 0.817025 0.195148 0.530608
Si Si3 0.726832 0.644294 0.160307
Si Si4 0.505998 0.348337 0.756826
Si Si5 0.246207 0.501871 0.154016
Si Si6 0.647924 0.332312 0.395926
O O1 0.208639 0.919332 0.320289
O O2 0.925359 0.559831 0.256737
O O3 0.280087 0.090963 0.002175
O O4 0.494825 0.137066 0.958946
O O5 0.000000 0.500000 0.500000
O O6 0.985690 0.302200 0.307872
O O7 0.551451 0.950986 0.606512
O O8 0.525501 0.547488 0.281915
O O9 0.696279 0.518860 0.302538
O O10 0.712817 0.538276 0.018602
O O11 0.000000 0.000000 0.000000
O O12 0.751939 0.590869 0.719400
O O13 0.521105 0.246499 0.622151
#
# Coordination Sequence:
#
# PCOD9023411 Si02
#       6
#     2   2   2   2   2   2
#     4  10  22  47  65  98 137 171 223 279 324 393
#     4  12  27  47  70  95 130 179 226 283 340 378
#     4  12  21  39  68 104 136 181 213 259 337 401
#     4  10  22  39  68  98 139 174 211 263 335 388
#     4  10  23  44  64  98 140 166 227 275 319 401
#     4  12  23  44  69 100 138 171 228 270 315 415
#
# _framework density 23.947437000000001
#
# number of rings (size 3 to 8) (size 9 to 14) (size 15 to 20)
#    1.000    0.000    5.000    2.000    0.000    1.333 
#    0.000    5.000    0.000    0.000    0.000    0.000 
#    0.000    0.000    0.000    0.000    0.000    0.000 
#
# Total GULP energy -66818.461894 kJ/mol
# GULP energy per Si atom -5568.205158 kJ/mol
# Density = 2.389293 g / cm^3
# Si number density = 23.947437 Si / 1000 Ang^3
#
#
#
# Elastic Constant Matrix: (Units=GPa)
#
#
# Indices 1 2 3 4 5 6 
#
# 1 16.1518 4.9916 -27.3844 -9.1233 53.9463 8.1395
# 2 4.9916 116.0890 24.9668 -12.2992 18.9445 23.8015
# 3 -27.3844 24.9668 21.2662 0.8729 70.2230 4.5376
# 4 -9.1233 -12.2992 0.8729 36.2061 15.6854 -2.8430
# 5 53.9463 18.9445 70.2230 15.6854 -38.0260 -2.1591
# 6 8.1395 23.8015 4.5376 -2.8430 -2.1591 41.2526
#
#
#
# Elastic Compliance Matrix: (Units=1/GPa)
#
#
# Indices 1 2 3 4 5 6 
#
# 1 0.017380 -0.000059 -0.008349 0.000313 0.009449 -0.001961
# 2 -0.000059 0.011919 -0.005605 0.004661 -0.002230 -0.006044
# 3 -0.008349 -0.005605 0.014375 -0.007791 0.008514 0.003209
# 4 0.000313 0.004661 -0.007791 0.029286 0.000451 0.000148
# 5 0.009449 -0.002230 0.008514 0.000451 0.001983 -0.001379
# 6 -0.001961 -0.006044 0.003209 0.000148 -0.001379 0.027700
#
#
# Mechanical properties :
#
#
# Convention : Reuss Voigt Hill
#
# Bulk Modulus (GPa) = 63.90400 17.62833 40.76617
# Shear Modulus (GPa) = 36.79582 17.94874 27.37228
#
# Velocity S-wave (km/s) = 3.92410 2.74068 3.38452
# Velocity P-wave (km/s) = 6.87565 4.17041 5.68625
#
# Compressibility (1/GPa) = 0.01564847
#
# Stress axis : x y z
#
# Youngs Moduli (GPa) = 57.53815 83.89851 69.56554
#
# Poissons Ratio (x) = 0.00492 0.58079
# Poissons Ratio (y) = 0.00337 0.38993
# Poissons Ratio (z) = 0.48038 0.47027
#
# Static dielectric constant tensor:
#      x y z
#    x 2.053370 -0.049490 0.003440 
#    y -0.049490 1.988450 -0.039390 
#    z 0.003440 -0.039390 1.984940 
# 
# From -- ./inp_files/137283.got.cif
#   From: 2010.05.17/outbox.cif.g08.bks.cpg/sg2_69_cif.got.tgz:137283.got - 2010.06.03 11:33:40.
