data_PCOD9023802
_publ_section_title
;
Structure prediction by ZEFSAII (Michael W. Deem and Ramdas Pophale) SiO2 
 PCOD9023802
Probable space group: P -1
;
_chemical_formula_sum "Si O2"
_cell_formula_units_Z 16
_cell_length_a 23.400932
_cell_length_b 17.589600
_cell_length_c 7.130062
_cell_angle_alpha 114.117820
_cell_angle_beta 122.265083
_cell_angle_gamma 19.531422
_cell_volume 781.943099
_symmetry_space_group_name_H-M "P -1"
_symmetry_group_IT_number 2
_symmetry_cell_setting 'triclinic'
loop_
_space_group_symop_operation_xyz
x,y,z
-x,-y,-z
loop_
_atom_site_type_symbol
_atom_site_label
_atom_site_fract_x
_atom_site_fract_y
_atom_site_fract_z
Si Si1 0.211473 0.510908 0.869252
Si Si2 0.122801 0.352940 0.377285
Si Si3 0.904371 0.798189 0.922477
Si Si4 0.796276 0.186297 0.375418
Si Si5 0.629751 0.254894 0.836167
Si Si6 0.463581 0.122829 0.191133
Si Si7 0.838787 0.521035 0.638549
Si Si8 0.061135 0.022963 0.185393
O O1 0.237205 0.442275 0.638329
O O2 0.131276 0.696944 0.894863
O O3 0.038710 0.666144 0.844916
O O4 0.395465 0.275767 0.086819
O O5 0.085220 0.312764 0.157934
O O6 0.097826 0.465069 0.327760
O O7 0.000000 0.500000 0.500000
O O8 0.339909 0.090475 0.568907
O O9 0.698655 0.080465 0.812727
O O10 0.994559 0.722796 0.203278
O O11 0.601923 0.469649 0.329358
O O12 0.713948 0.211826 0.114246
O O13 0.000000 0.000000 0.500000
O O14 0.852750 0.078357 0.558991
O O15 0.762670 0.141924 0.793000
O O16 0.309917 0.289121 0.259292
O O17 0.500000 0.000000 0.000000
O O18 0.000000 0.000000 0.000000
#
# Coordination Sequence:
#
# PCOD9023802 Si02
#       8
#     2   2   2   2   2   2   2   2
#     4  10  22  41  64  89 125 165 210 260 315 380
#     4  12  22  40  62  89 126 166 211 258 314 376
#     4  10  22  40  61  94 122 162 211 260 316 379
#     4  11  22  42  67  94 126 169 214 265 330 386
#     4  10  23  43  65  92 133 166 213 272 321 386
#     4  11  23  41  63  91 126 166 213 259 313 382
#     4  11  21  42  64  86 128 169 204 260 319 371
#     4  11  22  41  67  95 127 172 213 264 331 387
#
# _framework density 20.461846000000001
#
# number of rings (size 3 to 8) (size 9 to 14) (size 15 to 20)
#    0.000    1.250    3.750    2.625    0.000    1.000 
#    4.500    0.000    0.000    0.000    0.000    0.000 
#    0.000    0.000    0.000    0.000    0.000    0.000 
#
# Total GULP energy -89192.732330 kJ/mol
# GULP energy per Si atom -5574.545771 kJ/mol
# Density = 2.041527 g / cm^3
# Si number density = 20.461846 Si / 1000 Ang^3
#
#
#
# Elastic Constant Matrix: (Units=GPa)
#
#
# Indices 1 2 3 4 5 6 
#
# 1 70.5905 50.2896 37.0920 0.6371 -15.6332 9.1979
# 2 50.2896 102.9405 25.4787 -17.3115 -20.1996 6.4942
# 3 37.0920 25.4787 102.2430 -1.7372 -34.6275 -8.5730
# 4 0.6371 -17.3115 -1.7372 39.4017 -2.4707 2.7018
# 5 -15.6332 -20.1996 -34.6275 -2.4707 37.9744 -1.2981
# 6 9.1979 6.4942 -8.5730 2.7018 -1.2981 27.8462
#
#
#
# Elastic Compliance Matrix: (Units=1/GPa)
#
#
# Indices 1 2 3 4 5 6 
#
# 1 0.028699 -0.013037 -0.009568 -0.006283 -0.004560 -0.008988
# 2 -0.013037 0.018314 0.002943 0.008836 0.007648 0.000440
# 3 -0.009568 0.002943 0.018274 0.002593 0.014750 0.008536
# 4 -0.006283 0.008836 0.002593 0.030001 0.006368 -0.001801
# 5 -0.004560 0.007648 0.014750 0.006368 0.042582 0.005631
# 6 -0.008988 0.000440 0.008536 -0.001801 0.005631 0.041843
#
#
# Mechanical properties :
#
#
# Convention : Reuss Voigt Hill
#
# Bulk Modulus (GPa) = 38.51502 55.72161 47.11832
# Shear Modulus (GPa) = 21.95986 31.90538 26.93262
#
# Velocity S-wave (km/s) = 3.27954 3.95303 3.63193
# Velocity P-wave (km/s) = 5.76231 6.93732 6.37694
#
# Compressibility (1/GPa) = 0.02596390
#
# Stress axis : x y z
#
# Youngs Moduli (GPa) = 34.84447 54.60377 54.72398
#
# Poissons Ratio (x) = 0.71186 0.52358
# Poissons Ratio (y) = 0.45426 -0.16106
# Poissons Ratio (z) = 0.33338 -0.16071
#
# Static dielectric constant tensor:
#      x y z
#    x 1.739160 -0.064780 0.078540 
#    y -0.064780 1.730380 -0.200320 
#    z 0.078540 -0.200320 2.013490 
# 
# From -- ./inp_files/124832.got.cif
#   From: 2010.05.17/outbox.cif.g08.bks.cpg/sg2_63_cif.got.tgz:124832.got - 2010.06.03 11:33:40.
