data_PCOD9023143
_publ_section_title
;
Structure prediction by ZEFSAII (Michael W. Deem and Ramdas Pophale) SiO2 
 PCOD9023143
Probable space group: P -1
;
_chemical_formula_sum "Si O2"
_cell_formula_units_Z 16
_cell_length_a 10.172154
_cell_length_b 8.315048
_cell_length_c 13.527018
_cell_angle_alpha 121.183693
_cell_angle_beta 135.688370
_cell_angle_gamma 54.567313
_cell_volume 640.488292
_symmetry_space_group_name_H-M "P -1"
_symmetry_group_IT_number 2
_symmetry_cell_setting 'triclinic'
loop_
_space_group_symop_operation_xyz
x,y,z
-x,-y,-z
loop_
_atom_site_type_symbol
_atom_site_label
_atom_site_fract_x
_atom_site_fract_y
_atom_site_fract_z
Si Si1 0.106686 0.103211 0.012106
Si Si2 0.526880 0.570370 0.229697
Si Si3 0.972052 0.420006 0.330690
Si Si4 0.521927 0.981157 0.684218
Si Si5 0.067269 0.174369 0.491665
Si Si6 0.553460 0.352716 0.574283
Si Si7 0.152990 0.507222 0.928926
Si Si8 0.965657 0.873657 0.234732
O O1 0.320645 0.092632 0.165990
O O2 0.969717 0.337227 0.004731
O O3 0.112543 0.019607 0.878315
O O4 0.000000 0.000000 0.000000
O O5 0.746589 0.489274 0.275847
O O6 0.518626 0.522644 0.324862
O O7 0.449602 0.813320 0.268221
O O8 0.378962 0.498769 0.060741
O O9 0.028601 0.620628 0.434970
O O10 0.952283 0.385610 0.194561
O O11 0.097635 0.250788 0.420556
O O12 0.547047 0.813687 0.560441
O O13 0.288340 0.051082 0.610710
O O14 0.938311 0.035029 0.358137
O O15 0.500000 0.500000 0.500000
O O16 0.793326 0.239636 0.675845
O O17 0.136205 0.290503 0.854490
#
# Coordination Sequence:
#
# PCOD9023143 Si02
#       8
#     2   2   2   2   2   2   2   2
#     4  12  22  39  67 100 131 169 211 266 334 387
#     4  11  23  42  64  95 132 170 223 263 313 394
#     4  10  23  44  69  90 124 182 226 259 312 381
#     4  10  22  39  66  95 127 165 215 268 322 382
#     4   9  22  44  67  92 126 166 226 269 311 382
#     4  11  23  40  65  99 131 168 209 274 337 379
#     4  12  24  40  65  98 137 170 210 269 325 391
#     4  11  24  41  65  98 136 162 212 275 336 385
#
# _framework density 24.980941000000001
#
# number of rings (size 3 to 8) (size 9 to 14) (size 15 to 20)
#    0.000    1.250    2.500    2.625    1.750    9.500 
#    0.000    3.125    0.000    0.000    0.000    0.000 
#    0.000    0.000    0.000    0.000    0.000    0.000 
#
# Total GULP energy -89619.717567 kJ/mol
# GULP energy per Si atom -5601.232348 kJ/mol
# Density = 2.492408 g / cm^3
# Si number density = 24.980941 Si / 1000 Ang^3
#
#
#
# Elastic Constant Matrix: (Units=GPa)
#
#
# Indices 1 2 3 4 5 6 
#
# 1 54.4916 18.3306 36.8530 1.2950 -0.4570 13.2273
# 2 18.3306 71.9359 32.6360 10.2914 20.2719 10.7152
# 3 36.8530 32.6360 189.8743 4.5065 23.2841 5.8360
# 4 1.2950 10.2914 4.5065 56.7957 5.3827 7.9533
# 5 -0.4570 20.2719 23.2841 5.3827 39.0564 0.6248
# 6 13.2273 10.7152 5.8360 7.9533 0.6248 29.6611
#
#
#
# Elastic Compliance Matrix: (Units=1/GPa)
#
#
# Indices 1 2 3 4 5 6 
#
# 1 0.025216 -0.004747 -0.004492 0.001411 0.005388 -0.009138
# 2 -0.004747 0.018954 -0.001079 -0.001857 -0.008933 -0.003832
# 3 -0.004492 -0.001079 0.006720 -0.000065 -0.003508 0.001162
# 4 0.001411 -0.001857 -0.000065 0.018749 -0.001485 -0.004941
# 5 0.005388 -0.008933 -0.003508 -0.001485 0.032580 0.001226
# 6 -0.009138 -0.003832 0.001162 -0.004941 0.001226 0.040244
#
#
# Mechanical properties :
#
#
# Convention : Reuss Voigt Hill
#
# Bulk Modulus (GPa) = 33.05273 54.66010 43.85642
# Shear Modulus (GPa) = 28.87100 40.33479 34.60289
#
# Velocity S-wave (km/s) = 3.40328 4.02260 3.72583
# Velocity P-wave (km/s) = 5.35752 6.59570 6.00859
#
# Compressibility (1/GPa) = 0.03025469
#
# Stress axis : x y z
#
# Youngs Moduli (GPa) = 39.65754 52.75834 148.80982
#
# Poissons Ratio (x) = 0.25043 0.66841
# Poissons Ratio (y) = 0.18825 0.16061
# Poissons Ratio (z) = 0.17813 0.05694
#
# Static dielectric constant tensor:
#      x y z
#    x 1.964580 0.048180 0.003010 
#    y 0.048180 2.004430 0.020700 
#    z 0.003010 0.020700 1.963840 
# 
# From -- ./inp_files/500242.got.cif
#   From: 2010.05.17/outbox.cif.g08.bks.cpg/sg2_251_cif.got.tgz:500242.got - 2010.06.03 11:33:40.
