data_PCOD9023051
_publ_section_title
;
Structure prediction by ZEFSAII (Michael W. Deem and Ramdas Pophale) SiO2 
 PCOD9023051
Probable space group: P -1
;
_chemical_formula_sum "Si O2"
_cell_formula_units_Z 14
_cell_length_a 8.907616
_cell_length_b 11.559297
_cell_length_c 11.660383
_cell_angle_alpha 69.232766
_cell_angle_beta 112.062843
_cell_angle_gamma 52.675634
_cell_volume 542.337181
_symmetry_space_group_name_H-M "P -1"
_symmetry_group_IT_number 2
_symmetry_cell_setting 'triclinic'
loop_
_space_group_symop_operation_xyz
x,y,z
-x,-y,-z
loop_
_atom_site_type_symbol
_atom_site_label
_atom_site_fract_x
_atom_site_fract_y
_atom_site_fract_z
Si Si1 0.450004 0.813711 0.802507
Si Si2 0.752225 0.917382 0.031542
Si Si3 0.624266 0.519010 0.776214
Si Si4 0.790558 0.239306 0.620779
Si Si5 0.451515 0.075830 0.661589
Si Si6 0.936414 0.668605 0.750775
Si Si7 0.095207 0.817360 0.815823
O O1 0.533365 0.709535 0.737228
O O2 0.309720 0.040583 0.683570
O O3 0.261286 0.823519 0.799701
O O4 0.775105 0.602528 0.037352
O O5 0.075696 0.658240 0.157171
O O6 0.905389 0.914429 0.166607
O O7 0.562544 0.077833 0.804553
O O8 0.500000 0.000000 0.000000
O O9 0.315181 0.671378 0.572554
O O10 0.729192 0.358562 0.964707
O O11 0.500000 0.500000 0.500000
O O12 0.794545 0.086398 0.682759
O O13 0.727863 0.837472 0.744215
O O14 0.226196 0.274306 0.429812
O O15 0.049793 0.736882 0.741100
#
# Coordination Sequence:
#
# PCOD9023051 Si02
#       7
#     2   2   2   2   2   2   2
#     4  11  22  38  69 100 131 163 213 277 334 387
#     4  11  23  40  62  92 131 175 219 260 313 389
#     4  10  22  43  66  95 132 169 219 271 325 390
#     4  10  24  43  64  91 126 180 223 261 318 385
#     4  11  22  41  62  94 135 171 209 266 330 390
#     4  10  22  39  65  99 128 169 209 267 338 386
#     4  11  22  41  68  99 125 168 222 274 322 385
#
# _framework density 25.814198999999999
#
# number of rings (size 3 to 8) (size 9 to 14) (size 15 to 20)
#    0.000    1.429    2.857    3.857    0.000    8.000 
#    2.571    0.000    0.000    6.857    0.000    0.000 
#    0.000    0.000    0.000    0.000    0.000    0.000 
#
# Total GULP energy -78084.594686 kJ/mol
# GULP energy per Si atom -5577.471049 kJ/mol
# Density = 2.575544 g / cm^3
# Si number density = 25.814199 Si / 1000 Ang^3
#
#
#
# Elastic Constant Matrix: (Units=GPa)
#
#
# Indices 1 2 3 4 5 6 
#
# 1 66.5168 8.5128 26.9953 14.4839 16.7989 -16.0081
# 2 8.5128 82.9337 35.0858 18.8682 7.4166 -1.8185
# 3 26.9953 35.0858 199.8285 49.0022 23.1497 8.8362
# 4 14.4839 18.8682 49.0022 51.1305 9.8044 1.4921
# 5 16.7989 7.4166 23.1497 9.8044 41.7466 2.2394
# 6 -16.0081 -1.8185 8.8362 1.4921 2.2394 42.5671
#
#
#
# Elastic Compliance Matrix: (Units=1/GPa)
#
#
# Indices 1 2 3 4 5 6 
#
# 1 0.020100 0.000110 -0.001515 -0.003191 -0.006967 0.008356
# 2 0.000110 0.013570 -0.001494 -0.003472 -0.000870 0.001099
# 3 -0.001515 -0.001494 0.007077 -0.005427 -0.001677 -0.001824
# 4 -0.003191 -0.003472 -0.005427 0.027251 -0.001430 -0.001102
# 5 -0.006967 -0.000870 -0.001677 -0.001430 0.028379 -0.003752
# 6 0.008356 0.001099 -0.001824 -0.001102 -0.003752 0.027296
#
#
# Mechanical properties :
#
#
# Convention : Reuss Voigt Hill
#
# Bulk Modulus (GPa) = 28.61237 54.49631 41.55434
# Shear Modulus (GPa) = 35.43060 45.66784 40.54922
#
# Velocity S-wave (km/s) = 3.70878 4.21063 3.96765
# Velocity P-wave (km/s) = 5.42661 6.69298 6.09279
#
# Compressibility (1/GPa) = 0.03494992
#
# Stress axis : x y z
#
# Youngs Moduli (GPa) = 49.75199 73.68956 141.30239
#
# Poissons Ratio (x) = -0.00809 0.21402
# Poissons Ratio (y) = -0.00546 0.21107
# Poissons Ratio (z) = 0.07535 0.11007
#
# Static dielectric constant tensor:
#      x y z
#    x 2.730470 -0.165920 0.233870 
#    y -0.165920 2.184700 -0.065340 
#    z 0.233870 -0.065340 2.086350 
# 
# From -- ./inp_files/397201.got.cif
#   From: 2010.05.17/outbox.cif.g08.bks.cpg/sg2_199_cif.got.tgz:397201.got - 2010.06.03 11:33:40.
