data_PCOD9023577
_publ_section_title
;
Structure prediction by ZEFSAII (Michael W. Deem and Ramdas Pophale) SiO2 
 PCOD9023577
Probable space group: P -1
;
_chemical_formula_sum "Si O2"
_cell_formula_units_Z 14
_cell_length_a 20.901275
_cell_length_b 6.965486
_cell_length_c 12.948180
_cell_angle_alpha 54.406916
_cell_angle_beta 21.993550
_cell_angle_gamma 54.954935
_cell_volume 570.368812
_symmetry_space_group_name_H-M "P -1"
_symmetry_group_IT_number 2
_symmetry_cell_setting 'triclinic'
loop_
_space_group_symop_operation_xyz
x,y,z
-x,-y,-z
loop_
_atom_site_type_symbol
_atom_site_label
_atom_site_fract_x
_atom_site_fract_y
_atom_site_fract_z
Si Si1 0.995461 0.737990 0.690558
Si Si2 0.464169 0.774681 0.279851
Si Si3 0.958937 0.310707 0.768696
Si Si4 0.269141 0.000447 0.308128
Si Si5 0.442219 0.245625 0.441115
Si Si6 0.182438 0.033655 0.773989
Si Si7 0.794544 0.215369 0.846015
O O1 0.138438 0.819325 0.524460
O O2 0.082558 0.744619 0.445230
O O3 0.947346 0.476087 0.835372
O O4 0.836379 0.932075 0.886981
O O5 0.392717 0.844135 0.250212
O O6 0.455429 0.495343 0.402869
O O7 0.336346 0.919214 0.506441
O O8 0.646830 0.881599 0.954336
O O9 0.861133 0.374210 0.788259
O O10 0.153325 0.204417 0.482855
O O11 0.847657 0.107477 0.033752
O O12 0.265044 0.252400 0.637959
O O13 0.500000 0.000000 0.500000
O O14 0.592828 0.263243 0.125223
O O15 0.000000 0.000000 0.000000
#
# Coordination Sequence:
#
# PCOD9023577 Si02
#       7
#     2   2   2   2   2   2   2
#     4  10  22  39  73  96 136 177 227 284 341 394
#     4  11  26  44  71  96 142 179 227 286 337 405
#     4  11  22  41  70  98 138 175 227 282 336 408
#     4  10  23  45  67 105 130 180 234 278 340 405
#     4  12  27  46  68  99 141 182 226 277 341 408
#     4  12  27  46  68 104 134 181 231 277 349 409
#     4  10  22  43  62 103 133 177 232 274 336 411
#
# _framework density 24.545522999999999
#
# number of rings (size 3 to 8) (size 9 to 14) (size 15 to 20)
#    0.000    1.143    2.857    2.143    4.000    4.571 
#    0.000    3.571    0.000    0.000    0.000    0.000 
#    0.000    0.000    0.000    0.000    0.000    0.000 
#
# Total GULP energy -77941.489345 kJ/mol
# GULP energy per Si atom -5567.249239 kJ/mol
# Density = 2.448966 g / cm^3
# Si number density = 24.545523 Si / 1000 Ang^3
#
#
#
# Elastic Constant Matrix: (Units=GPa)
#
#
# Indices 1 2 3 4 5 6 
#
# 1 49.1573 4.5816 -11.6705 -2.4835 -7.6821 2.2775
# 2 4.5816 91.8298 4.0546 -10.3885 -3.6423 1.1956
# 3 -11.6705 4.0546 103.4124 0.0537 0.9795 -4.2160
# 4 -2.4835 -10.3885 0.0537 26.1146 9.6337 5.4870
# 5 -7.6821 -3.6423 0.9795 9.6337 46.9858 -7.4699
# 6 2.2775 1.1956 -4.2160 5.4870 -7.4699 28.8060
#
#
#
# Elastic Compliance Matrix: (Units=1/GPa)
#
#
# Indices 1 2 3 4 5 6 
#
# 1 0.021563 -0.000980 0.002417 0.000610 0.003178 -0.000602
# 2 -0.000980 0.011534 -0.000625 0.005029 -0.000537 -0.001590
# 3 0.002417 -0.000625 0.010025 -0.000544 0.000493 0.001534
# 4 0.000610 0.005029 -0.000544 0.046989 -0.011066 -0.012157
# 5 0.003178 -0.000537 0.000493 -0.011066 0.025376 0.008532
# 6 -0.000602 -0.001590 0.001534 -0.012157 0.008532 0.039581
#
#
# Mechanical properties :
#
#
# Convention : Reuss Voigt Hill
#
# Bulk Modulus (GPa) = 22.34757 26.48123 24.41440
# Shear Modulus (GPa) = 29.69812 36.87688 33.28750
#
# Velocity S-wave (km/s) = 3.48216 3.88027 3.68659
# Velocity P-wave (km/s) = 5.02907 5.55764 5.29995
#
# Compressibility (1/GPa) = 0.04474759
#
# Stress axis : x y z
#
# Youngs Moduli (GPa) = 46.37483 86.69664 99.74643
#
# Poissons Ratio (x) = 0.08493 -0.24108
# Poissons Ratio (y) = 0.04543 0.06236
# Poissons Ratio (z) = -0.11209 0.05420
#
# Static dielectric constant tensor:
#      x y z
#    x 2.006850 -0.028400 -0.022630 
#    y -0.028400 2.138140 -0.051370 
#    z -0.022630 -0.051370 2.008340 
# 
# From -- ./inp_files/542091.got.cif
#   From: 2010.05.17/outbox.cif.g08.bks.cpg/sg2_272_cif.got.tgz:542091.got - 2010.06.03 11:33:40.
