data_PCOD9023140
_publ_section_title
;
Structure prediction by ZEFSAII (Michael W. Deem and Ramdas Pophale) SiO2 
 PCOD9023140
Probable space group: P -1
;
_chemical_formula_sum "Si O2"
_cell_formula_units_Z 16
_cell_length_a 8.549296
_cell_length_b 10.717922
_cell_length_c 14.911621
_cell_angle_alpha 120.315319
_cell_angle_beta 126.386687
_cell_angle_gamma 99.930840
_cell_volume 697.073218
_symmetry_space_group_name_H-M "P -1"
_symmetry_group_IT_number 2
_symmetry_cell_setting 'triclinic'
loop_
_space_group_symop_operation_xyz
x,y,z
-x,-y,-z
loop_
_atom_site_type_symbol
_atom_site_label
_atom_site_fract_x
_atom_site_fract_y
_atom_site_fract_z
Si Si1 0.406975 0.327305 0.634189
Si Si2 0.784555 0.088776 0.094042
Si Si3 0.005131 0.436952 0.077021
Si Si4 0.413319 0.425149 0.044310
Si Si5 0.870974 0.456046 0.216021
Si Si6 0.366256 0.016620 0.184162
Si Si7 0.041188 0.669325 0.522719
Si Si8 0.882597 0.985341 0.726065
O O1 0.713710 0.487039 0.769558
O O2 0.460708 0.384271 0.780329
O O3 0.273702 0.125667 0.461149
O O4 0.207506 0.355049 0.551292
O O5 0.918461 0.312105 0.200976
O O6 0.952569 0.074889 0.212413
O O7 0.500000 0.000000 0.000000
O O8 0.760093 0.991902 0.955526
O O9 0.938091 0.519564 0.159531
O O10 0.000000 0.500000 0.000000
O O11 0.777718 0.204809 0.922421
O O12 0.573929 0.359141 0.100240
O O13 0.500000 0.500000 0.000000
O O14 0.106255 0.225076 0.881578
O O15 0.041185 0.636312 0.405337
O O16 0.661641 0.127820 0.292039
O O17 0.311805 0.082139 0.279207
O O18 0.000000 0.500000 0.500000
#
# Coordination Sequence:
#
# PCOD9023140 Si02
#       8
#     2   2   2   2   2   2   2   2
#     4  11  25  45  70 102 138 182 239 284 357 417
#     4  11  21  40  66 100 135 184 228 286 354 421
#     4  11  24  47  70  97 140 184 234 300 350 417
#     4  11  24  44  68 100 140 187 234 295 352 417
#     4  10  22  39  66  94 135 178 234 281 357 411
#     4  11  25  42  68 103 141 186 237 287 361 420
#     4  11  24  43  68 102 143 179 232 293 352 433
#     4  12  24  43  70 103 144 183 238 293 354 428
#
# _framework density 22.953113999999999
#
# number of rings (size 3 to 8) (size 9 to 14) (size 15 to 20)
#    0.000    1.000    2.500    4.125    3.500    2.500 
#    4.500    5.625    0.000    0.000    0.000    0.000 
#    0.000    0.000    0.000    0.000    0.000    0.000 
#
# Total GULP energy -89174.045177 kJ/mol
# GULP energy per Si atom -5573.377824 kJ/mol
# Density = 2.290087 g / cm^3
# Si number density = 22.953114 Si / 1000 Ang^3
#
#
#
# Elastic Constant Matrix: (Units=GPa)
#
#
# Indices 1 2 3 4 5 6 
#
# 1 123.1839 20.5524 47.4749 -10.8044 3.8715 12.1362
# 2 20.5524 72.1022 44.9520 2.2139 3.0380 14.7037
# 3 47.4749 44.9520 142.5463 -7.7723 -2.8575 14.1864
# 4 -10.8044 2.2139 -7.7723 17.9512 19.8462 -5.7332
# 5 3.8715 3.0380 -2.8575 19.8462 58.8415 -13.1171
# 6 12.1362 14.7037 14.1864 -5.7332 -13.1171 37.0402
#
#
#
# Elastic Compliance Matrix: (Units=1/GPa)
#
#
# Indices 1 2 3 4 5 6 
#
# 1 0.010454 -0.001101 -0.002488 0.009609 -0.004468 -0.002130
# 2 -0.001101 0.019073 -0.005417 -0.007209 -0.000150 -0.006305
# 3 -0.002488 -0.005417 0.009784 0.003772 -0.000432 -0.000351
# 4 0.009609 -0.007209 0.003772 0.102446 -0.034180 0.002021
# 5 -0.004468 -0.000150 -0.000432 -0.034180 0.030401 0.007164
# 6 -0.002130 -0.006305 -0.000351 0.002021 0.007164 0.033183
#
#
# Mechanical properties :
#
#
# Convention : Reuss Voigt Hill
#
# Bulk Modulus (GPa) = 46.94933 62.64345 54.79639
# Shear Modulus (GPa) = 21.69653 37.75679 29.72666
#
# Velocity S-wave (km/s) = 3.07783 4.06020 3.60266
# Velocity P-wave (km/s) = 5.75583 7.02364 6.42110
#
# Compressibility (1/GPa) = 0.02129956
#
# Stress axis : x y z
#
# Youngs Moduli (GPa) = 95.66075 52.42882 102.20786
#
# Poissons Ratio (x) = 0.05773 0.25429
# Poissons Ratio (y) = 0.10533 0.55363
# Poissons Ratio (z) = 0.23800 0.28399
#
# Static dielectric constant tensor:
#      x y z
#    x 1.953430 -0.000010 -0.017660 
#    y -0.000010 1.836710 -0.056920 
#    z -0.017660 -0.056920 1.926340 
# 
# From -- ./inp_files/500741.got.cif
#   From: 2010.05.17/outbox.cif.g08.bks.cpg/sg2_251_cif.got.tgz:500741.got - 2010.06.03 11:33:40.
