data_PCOD9023991
_publ_section_title
;
Structure prediction by ZEFSAII (Michael W. Deem and Ramdas Pophale) SiO2 
 PCOD9023991
Probable space group: P -1
;
_chemical_formula_sum "Si O2"
_cell_formula_units_Z 14
_cell_length_a 10.084887
_cell_length_b 5.567784
_cell_length_c 12.596358
_cell_angle_alpha 109.294318
_cell_angle_beta 89.944888
_cell_angle_gamma 63.038121
_cell_volume 585.372287
_symmetry_space_group_name_H-M "P -1"
_symmetry_group_IT_number 2
_symmetry_cell_setting 'triclinic'
loop_
_space_group_symop_operation_xyz
x,y,z
-x,-y,-z
loop_
_atom_site_type_symbol
_atom_site_label
_atom_site_fract_x
_atom_site_fract_y
_atom_site_fract_z
Si Si1 0.246270 0.322902 0.254161
Si Si2 0.498380 0.798515 0.068866
Si Si3 0.945963 0.347722 0.313123
Si Si4 0.482596 0.633318 0.636432
Si Si5 0.168079 0.499664 0.904713
Si Si6 0.371707 0.210381 0.613657
Si Si7 0.045576 0.760396 0.147157
O O1 0.357823 0.417078 0.325477
O O2 0.177428 0.488856 0.168717
O O3 0.098719 0.368954 0.325676
O O4 0.356258 0.991985 0.172489
O O5 0.655505 0.691455 0.112049
O O6 0.500000 0.500000 0.000000
O O7 0.500000 0.000000 0.000000
O O8 0.891909 0.384489 0.195055
O O9 0.797680 0.598777 0.405104
O O10 0.992640 0.011300 0.272686
O O11 0.500000 0.500000 0.500000
O O12 0.417764 0.458540 0.679756
O O13 0.376905 0.976042 0.664410
O O14 0.092093 0.294800 0.893113
O O15 0.117801 0.751231 0.030838
O O16 0.500000 0.000000 0.500000
#
# Coordination Sequence:
#
# PCOD9023991 Si02
#       7
#     2   2   2   2   2   2   2
#     4  11  25  41  68 105 141 183 240 288 352 414
#     4  12  26  41  64  99 142 188 235 281 333 410
#     4  11  24  40  69  99 139 185 236 286 352 417
#     4  10  24  48  74 101 133 179 232 298 355 422
#     4  10  22  40  62  94 141 189 234 271 343 405
#     4  10  24  47  74  98 133 177 234 292 362 419
#     4  10  22  40  63  97 141 185 228 283 339 415
#
# _framework density 23.916407
#
# number of rings (size 3 to 8) (size 9 to 14) (size 15 to 20)
#    0.000    1.429    1.429    2.143   10.000    0.000 
#    0.000    5.714    0.000    0.000    0.000    0.000 
#    0.000    0.000    0.000    0.000    0.000    0.000 
#
# Total GULP energy -78122.159422 kJ/mol
# GULP energy per Si atom -5580.154244 kJ/mol
# Density = 2.386197 g / cm^3
# Si number density = 23.916407 Si / 1000 Ang^3
#
#
#
# Elastic Constant Matrix: (Units=GPa)
#
#
# Indices 1 2 3 4 5 6 
#
# 1 167.3900 62.7303 29.1799 18.0617 11.5641 -18.7994
# 2 62.7303 123.6533 19.3072 26.8959 3.0647 -2.6238
# 3 29.1799 19.3072 75.9421 17.2801 0.2802 -4.5392
# 4 18.0617 26.8959 17.2801 33.5149 -11.3268 -4.0516
# 5 11.5641 3.0647 0.2802 -11.3268 41.4936 8.0327
# 6 -18.7994 -2.6238 -4.5392 -4.0516 8.0327 51.6785
#
#
#
# Elastic Compliance Matrix: (Units=1/GPa)
#
#
# Indices 1 2 3 4 5 6 
#
# 1 0.008292 -0.003483 -0.001789 -0.001402 -0.003013 0.003041
# 2 -0.003483 0.011675 0.000230 -0.008405 -0.001993 -0.001003
# 3 -0.001789 0.000230 0.015613 -0.007845 -0.001844 0.000404
# 4 -0.001402 -0.008405 -0.007845 0.045977 0.013642 -0.000142
# 5 -0.003013 -0.001993 -0.001844 0.013642 0.029776 -0.004918
# 6 0.003041 -0.001003 0.000404 -0.000142 -0.004918 0.021194
#
#
# Mechanical properties :
#
#
# Convention : Reuss Voigt Hill
#
# Bulk Modulus (GPa) = 39.22183 65.49113 52.35648
# Shear Modulus (GPa) = 33.08883 42.38861 37.73872
#
# Velocity S-wave (km/s) = 3.72361 4.21451 3.97664
# Velocity P-wave (km/s) = 5.90950 7.15022 6.55926
#
# Compressibility (1/GPa) = 0.02549600
#
# Stress axis : x y z
#
# Youngs Moduli (GPa) = 120.59499 85.65559 64.05060
#
# Poissons Ratio (x) = 0.29836 0.11457
# Poissons Ratio (y) = 0.42007 -0.01475
# Poissons Ratio (z) = 0.21571 -0.01972
#
# Static dielectric constant tensor:
#      x y z
#    x 1.395400 -0.126510 0.582000 
#    y -0.126510 1.837030 0.114590 
#    z 0.582000 0.114590 0.925880 
# 
# From -- ./inp_files/37686.got.cif
#   From: 2010.05.17/outbox.cif.g08.bks.cpg/sg2_19_cif.got.tgz:37686.got - 2010.06.03 11:33:40.
