data_PCOD9023543
_publ_section_title
;
Structure prediction by ZEFSAII (Michael W. Deem and Ramdas Pophale) SiO2 
 PCOD9023543
Probable space group: P -1
;
_chemical_formula_sum "Si O2"
_cell_formula_units_Z 12
_cell_length_a 8.825635
_cell_length_b 9.625478
_cell_length_c 13.579784
_cell_angle_alpha 31.259066
_cell_angle_beta 110.030371
_cell_angle_gamma 100.738725
_cell_volume 548.836819
_symmetry_space_group_name_H-M "P -1"
_symmetry_group_IT_number 2
_symmetry_cell_setting 'triclinic'
loop_
_space_group_symop_operation_xyz
x,y,z
-x,-y,-z
loop_
_atom_site_type_symbol
_atom_site_label
_atom_site_fract_x
_atom_site_fract_y
_atom_site_fract_z
Si Si1 0.880704 0.517208 0.372151
Si Si2 0.103282 0.129673 0.521184
Si Si3 0.320840 0.494885 0.253263
Si Si4 0.412647 0.703919 0.944310
Si Si5 0.703807 0.982962 0.926809
Si Si6 0.391470 0.646812 0.478360
O O1 0.703475 0.540591 0.368285
O O2 0.000000 0.500000 0.500000
O O3 0.963484 0.243473 0.500823
O O4 0.851868 0.755858 0.140818
O O5 0.170908 0.373672 0.334779
O O6 0.260697 0.926376 0.728927
O O7 0.000000 0.000000 0.500000
O O8 0.482432 0.276540 0.462024
O O9 0.325734 0.779128 0.140146
O O10 0.339084 0.545146 0.111712
O O11 0.547588 0.850594 0.940130
O O12 0.500000 0.500000 0.000000
O O13 0.738421 0.118794 0.748539
O O14 0.500000 0.500000 0.500000
#
# Coordination Sequence:
#
# PCOD9023543 Si02
#       6
#     2   2   2   2   2   2
#     4  12  25  42  70 110 147 181 225 302 358 404
#     4  12  29  48  67 103 152 181 233 301 360 409
#     4  11  24  44  76 102 135 188 242 290 344 424
#     4  12  26  45  75 104 138 192 240 287 349 430
#     4  11  23  43  75 105 138 181 242 282 346 431
#     4  10  22  39  71 105 135 183 235 282 342 416
#
# _framework density 21.864422999999999
#
# number of rings (size 3 to 8) (size 9 to 14) (size 15 to 20)
#    0.000    0.667    3.333    4.500    4.667    6.667 
#    0.000    0.000    0.000    0.000    0.000    0.000 
#    0.000    0.000    0.000    0.000    0.000    0.000 
#
# Total GULP energy -66926.500316 kJ/mol
# GULP energy per Si atom -5577.208360 kJ/mol
# Density = 2.181466 g / cm^3
# Si number density = 21.864423 Si / 1000 Ang^3
#
#
#
# Elastic Constant Matrix: (Units=GPa)
#
#
# Indices 1 2 3 4 5 6 
#
# 1 79.9283 50.7112 28.4145 2.0571 -6.9777 -1.1373
# 2 50.7112 135.7161 44.1716 17.4553 8.9782 -3.6076
# 3 28.4145 44.1716 151.8947 24.6195 13.1442 -7.6518
# 4 2.0571 17.4553 24.6195 27.8193 -2.1964 2.5110
# 5 -6.9777 8.9782 13.1442 -2.1964 42.9204 4.4707
# 6 -1.1373 -3.6076 -7.6518 2.5110 4.4707 42.6516
#
#
#
# Elastic Compliance Matrix: (Units=1/GPa)
#
#
# Indices 1 2 3 4 5 6 
#
# 1 0.018464 -0.007183 -0.003000 0.006414 0.005924 -0.001652
# 2 -0.007183 0.011354 -0.000475 -0.006614 -0.003890 0.001481
# 3 -0.003000 -0.000475 0.009025 -0.007982 -0.003808 0.002368
# 4 0.006414 -0.006614 -0.007982 0.047801 0.007886 -0.005461
# 5 0.005924 -0.003890 -0.003808 0.007886 0.027078 -0.004157
# 6 -0.001652 0.001481 0.002368 -0.005461 -0.004157 0.024709
#
#
# Mechanical properties :
#
#
# Convention : Reuss Voigt Hill
#
# Bulk Modulus (GPa) = 57.05756 68.23708 62.64732
# Shear Modulus (GPa) = 30.19481 38.96104 34.57793
#
# Velocity S-wave (km/s) = 3.72022 4.22588 3.98108
# Velocity P-wave (km/s) = 6.67878 7.42211 7.06023
#
# Compressibility (1/GPa) = 0.01752616
#
# Stress axis : x y z
#
# Youngs Moduli (GPa) = 54.15962 88.07214 110.79858
#
# Poissons Ratio (x) = 0.63265 0.33245
# Poissons Ratio (y) = 0.38905 0.05262
# Poissons Ratio (z) = 0.16250 0.04183
#
# Static dielectric constant tensor:
#      x y z
#    x 1.964650 0.058600 0.071770 
#    y 0.058600 1.767240 -0.045640 
#    z 0.071770 -0.045640 1.902360 
# 
# From -- ./inp_files/290263.got.cif
#   From: 2010.05.17/outbox.cif.g08.bks.cpg/sg2_146_cif.got.tgz:290263.got - 2010.06.03 11:33:40.
