data_PCOD9023058
_publ_section_title
;
Structure prediction by ZEFSAII (Michael W. Deem and Ramdas Pophale) SiO2 
 PCOD9023058
Probable space group: P -1
;
_chemical_formula_sum "Si O2"
_cell_formula_units_Z 16
_cell_length_a 12.024285
_cell_length_b 8.248732
_cell_length_c 8.192285
_cell_angle_alpha 87.317491
_cell_angle_beta 100.315570
_cell_angle_gamma 124.097168
_cell_volume 660.555801
_symmetry_space_group_name_H-M "P -1"
_symmetry_group_IT_number 2
_symmetry_cell_setting 'triclinic'
loop_
_space_group_symop_operation_xyz
x,y,z
-x,-y,-z
loop_
_atom_site_type_symbol
_atom_site_label
_atom_site_fract_x
_atom_site_fract_y
_atom_site_fract_z
Si Si1 0.849563 0.221793 0.352907
Si Si2 0.474133 0.669150 0.435612
Si Si3 0.850234 0.833366 0.342506
Si Si4 0.707463 0.049757 0.662387
Si Si5 0.403702 0.312508 0.878421
Si Si6 0.342613 0.919794 0.994210
Si Si7 0.842756 0.579968 0.643276
Si Si8 0.903016 0.922366 0.822258
O O1 0.010669 0.391152 0.353120
O O2 0.836584 0.015572 0.347592
O O3 0.789962 0.197066 0.522793
O O4 0.756616 0.214373 0.177044
O O5 0.500000 0.500000 0.500000
O O6 0.565775 0.867020 0.557098
O O7 0.524682 0.707605 0.260167
O O8 0.316384 0.593020 0.407555
O O9 0.720254 0.675623 0.213048
O O10 0.849030 0.732211 0.508695
O O11 0.990548 0.921037 0.288146
O O12 0.780029 0.944123 0.752376
O O13 0.698099 0.147046 0.824175
O O14 0.343884 0.115719 0.972533
O O15 0.500000 0.500000 0.000000
O O16 0.500000 0.000000 0.000000
O O17 0.859421 0.698822 0.806477
O O18 0.000000 0.000000 0.000000
#
# Coordination Sequence:
#
# PCOD9023058 Si02
#       8
#     2   2   2   2   2   2   2   2
#     4  10  19  40  59  87 118 166 210 257 303 370
#     4  12  20  33  57  91 128 171 197 243 326 378
#     4  10  17  31  51  82 129 156 192 253 309 361
#     4  12  20  38  62  84 121 164 214 252 309 377
#     4  11  22  37  58  95 134 161 203 258 317 377
#     4  11  26  44  64  93 123 163 220 267 305 368
#     4  11  19  32  53  84 131 156 197 254 310 375
#     4  11  19  28  50  85 121 164 200 246 310 369
#
# _framework density 24.222026
#
# number of rings (size 3 to 8) (size 9 to 14) (size 15 to 20)
#    0.000    1.000    7.500    3.750    1.750    0.500 
#    0.000    0.000    0.000    1.500    0.000    0.000 
#    0.000    0.000    0.000    0.000    0.000    0.000 
#
# Total GULP energy -89252.789411 kJ/mol
# GULP energy per Si atom -5578.299338 kJ/mol
# Density = 2.416690 g / cm^3
# Si number density = 24.222026 Si / 1000 Ang^3
#
#
#
# Elastic Constant Matrix: (Units=GPa)
#
#
# Indices 1 2 3 4 5 6 
#
# 1 109.4800 35.0451 65.0463 17.6934 2.3297 43.5918
# 2 35.0451 83.8206 57.9326 18.9780 15.8489 42.0021
# 3 65.0463 57.9326 163.4155 9.5031 10.3752 31.5460
# 4 17.6934 18.9780 9.5031 43.6692 23.8265 11.1221
# 5 2.3297 15.8489 10.3752 23.8265 34.5897 0.6407
# 6 43.5918 42.0021 31.5460 11.1221 0.6407 49.5995
#
#
#
# Elastic Compliance Matrix: (Units=1/GPa)
#
#
# Indices 1 2 3 4 5 6 
#
# 1 0.017737 0.004707 -0.005721 -0.005602 0.002496 -0.014711
# 2 0.004707 0.028751 -0.006763 -0.001394 -0.010062 -0.023739
# 3 -0.005721 -0.006763 0.010004 0.003050 -0.001687 0.003731
# 4 -0.005602 -0.001394 0.003050 0.042062 -0.028782 -0.004897
# 5 0.002496 -0.010062 -0.001687 -0.028782 0.053441 0.013164
# 6 -0.014711 -0.023739 0.003731 -0.004897 0.013164 0.051749
#
#
# Mechanical properties :
#
#
# Convention : Reuss Voigt Hill
#
# Bulk Modulus (GPa) = 24.42878 74.75157 49.59018
# Shear Modulus (GPa) = 21.46442 38.81780 30.14111
#
# Velocity S-wave (km/s) = 2.98006 4.00757 3.53139
# Velocity P-wave (km/s) = 4.68490 7.23479 6.09469
#
# Compressibility (1/GPa) = 0.04093532
#
# Stress axis : x y z
#
# Youngs Moduli (GPa) = 56.38086 34.78188 99.96134
#
# Poissons Ratio (x) = -0.16371 0.57191
# Poissons Ratio (y) = -0.26538 0.67608
# Poissons Ratio (z) = 0.32257 0.23524
#
# Static dielectric constant tensor:
#      x y z
#    x 1.955380 0.108130 -0.008850 
#    y 0.108130 1.683280 -0.170480 
#    z -0.008850 -0.170480 1.724990 
# 
# From -- ./inp_files/258603.got.cif
#   From: 2010.05.17/outbox.cif.g08.bks.cpg/sg2_130_cif.got.tgz:258603.got - 2010.06.03 11:33:40.
