data_PCOD9023052
_publ_section_title
;
Structure prediction by ZEFSAII (Michael W. Deem and Ramdas Pophale) SiO2 
 PCOD9023052
Probable space group: P -1
;
_chemical_formula_sum "Si O2"
_cell_formula_units_Z 14
_cell_length_a 11.914958
_cell_length_b 4.986122
_cell_length_c 11.545874
_cell_angle_alpha 119.379176
_cell_angle_beta 105.954597
_cell_angle_gamma 97.604724
_cell_volume 544.686190
_symmetry_space_group_name_H-M "P -1"
_symmetry_group_IT_number 2
_symmetry_cell_setting 'triclinic'
loop_
_space_group_symop_operation_xyz
x,y,z
-x,-y,-z
loop_
_atom_site_type_symbol
_atom_site_label
_atom_site_fract_x
_atom_site_fract_y
_atom_site_fract_z
Si Si1 0.655541 0.880844 0.791271
Si Si2 0.379475 0.496348 0.685531
Si Si3 0.767062 0.228420 0.454919
Si Si4 0.047218 0.022885 0.650910
Si Si5 0.870681 0.769754 0.958084
Si Si6 0.173885 0.866586 0.289811
Si Si7 0.759776 0.261965 0.114982
O O1 0.521458 0.640115 0.725760
O O2 0.761083 0.729784 0.825686
O O3 0.688853 0.981427 0.690490
O O4 0.686988 0.183077 0.954599
O O5 0.334601 0.132484 0.645062
O O6 0.339524 0.721834 0.814985
O O7 0.297787 0.522596 0.557043
O O8 0.868963 0.210759 0.385578
O O9 0.820093 0.263798 0.606600
O O10 0.133338 0.392250 0.778120
O O11 0.929224 0.952153 0.685636
O O12 0.000000 0.000000 0.500000
O O13 0.880100 0.410977 0.882235
O O14 0.821578 0.973433 0.082782
O O15 0.000000 0.000000 0.000000
#
# Coordination Sequence:
#
# PCOD9023052 Si02
#       7
#     2   2   2   2   2   2   2
#     4  10  25  39  67  99 133 182 221 283 340 397
#     4  11  24  47  67 101 135 185 231 277 333 404
#     4  10  26  43  73  97 138 182 229 281 334 403
#     4   9  19  42  65  98 130 175 222 282 339 403
#     4  10  22  39  65  99 132 171 218 282 343 400
#     4  11  22  43  66 100 136 176 229 278 347 405
#     4   9  21  41  64  98 132 172 229 275 341 398
#
# _framework density 25.702873
#
# number of rings (size 3 to 8) (size 9 to 14) (size 15 to 20)
#    0.857    1.143    1.429    0.429    4.000    6.857 
#    0.000   10.714    0.000    0.000    0.000    0.000 
#    0.000    0.000    0.000    0.000    0.000    0.000 
#
# Total GULP energy -78229.816375 kJ/mol
# GULP energy per Si atom -5587.844027 kJ/mol
# Density = 2.564437 g / cm^3
# Si number density = 25.702873 Si / 1000 Ang^3
#
#
#
# Elastic Constant Matrix: (Units=GPa)
#
#
# Indices 1 2 3 4 5 6 
#
# 1 165.4735 35.1268 17.6862 13.3313 -6.0809 41.7212
# 2 35.1268 67.3712 17.4077 -0.8742 -12.8103 20.8884
# 3 17.6862 17.4077 69.4405 17.8861 -22.3261 3.0010
# 4 13.3313 -0.8742 17.8861 41.7046 -2.7031 3.0940
# 5 -6.0809 -12.8103 -22.3261 -2.7031 48.8604 0.7290
# 6 41.7212 20.8884 3.0010 3.0940 0.7290 38.2183
#
#
#
# Elastic Compliance Matrix: (Units=1/GPa)
#
#
# Indices 1 2 3 4 5 6 
#
# 1 0.008787 -0.001705 -0.000892 -0.001818 0.000264 -0.008448
# 2 -0.001705 0.020412 -0.004049 0.003638 0.003630 -0.009341
# 3 -0.000892 -0.004049 0.020043 -0.008066 0.007508 0.002123
# 4 -0.001818 0.003638 -0.008066 0.028126 -0.001378 -0.001621
# 5 0.000264 0.003630 0.007508 -0.001378 0.024854 -0.003225
# 6 -0.008448 -0.009341 0.002123 -0.001621 -0.003225 0.040519
#
#
# Mechanical properties :
#
#
# Convention : Reuss Voigt Hill
#
# Bulk Modulus (GPa) = 27.81679 49.19185 38.50432
# Shear Modulus (GPa) = 29.75922 41.22762 35.49342
#
# Velocity S-wave (km/s) = 3.40636 4.00935 3.72009
# Velocity P-wave (km/s) = 5.13001 6.37287 5.78491
#
# Compressibility (1/GPa) = 0.03594952
#
# Stress axis : x y z
#
# Youngs Moduli (GPa) = 113.80776 48.99149 49.89293
#
# Poissons Ratio (x) = 0.08352 0.04452
# Poissons Ratio (y) = 0.19402 0.20201
# Poissons Ratio (z) = 0.10154 0.19836
#
# Static dielectric constant tensor:
#      x y z
#    x 1.966930 -0.047480 -0.002280 
#    y -0.047480 2.127330 0.033040 
#    z -0.002280 0.033040 2.107300 
# 
# From -- ./inp_files/409688.got.cif
#   From: 2010.05.17/outbox.cif.g08.bks.cpg/sg2_205_cif.got.tgz:409688.got - 2010.06.03 11:33:40.
