data_PCOD9023636
_publ_section_title
;
Structure prediction by ZEFSAII (Michael W. Deem and Ramdas Pophale) SiO2 
 PCOD9023636
Probable space group: P -1
;
_chemical_formula_sum "Si O2"
_cell_formula_units_Z 16
_cell_length_a 11.670133
_cell_length_b 18.061923
_cell_length_c 9.644885
_cell_angle_alpha 124.872155
_cell_angle_beta 97.303564
_cell_angle_gamma 129.526051
_cell_volume 811.636151
_symmetry_space_group_name_H-M "P -1"
_symmetry_group_IT_number 2
_symmetry_cell_setting 'triclinic'
loop_
_space_group_symop_operation_xyz
x,y,z
-x,-y,-z
loop_
_atom_site_type_symbol
_atom_site_label
_atom_site_fract_x
_atom_site_fract_y
_atom_site_fract_z
Si Si1 0.606226 0.085739 0.258382
Si Si2 0.338379 0.834372 0.192801
Si Si3 0.098689 0.337306 0.657788
Si Si4 0.382285 0.676070 0.176207
Si Si5 0.360776 0.103491 0.294391
Si Si6 0.534118 0.397317 0.484488
Si Si7 0.148612 0.285815 0.323365
Si Si8 0.905162 0.637270 0.016418
O O1 0.532864 0.134775 0.349493
O O2 0.882835 0.255384 0.492685
O O3 0.470420 0.923880 0.163887
O O4 0.500000 0.000000 0.000000
O O5 0.319195 0.722006 0.131867
O O6 0.106394 0.738515 0.054657
O O7 0.500000 0.000000 0.500000
O O8 0.117023 0.278043 0.474881
O O9 0.036196 0.266628 0.732067
O O10 0.340574 0.559502 0.949450
O O11 0.615767 0.845066 0.487626
O O12 0.188372 0.519333 0.095499
O O13 0.451357 0.241319 0.348312
O O14 0.102239 0.897102 0.985714
O O15 0.308068 0.307008 0.341122
O O16 0.702866 0.529235 0.520015
O O17 0.696949 0.538999 0.791313
#
# Coordination Sequence:
#
# PCOD9023636 Si02
#       8
#     2   2   2   2   2   2   2   2
#     4  12  24  36  56  97 124 155 197 249 313 369
#     4  12  19  33  61  86 122 163 198 242 298 377
#     4  10  22  40  59  88 131 150 199 261 304 355
#     4   9  21  36  59  90 119 161 205 241 303 374
#     4  11  21  41  65  88 126 157 207 253 306 366
#     4  10  24  40  67  87 116 171 214 244 308 365
#     4  11  23  43  63  90 122 160 213 258 301 364
#     4   9  20  37  57  87 115 161 198 244 301 357
#
# _framework density 19.713266999999998
#
# number of rings (size 3 to 8) (size 9 to 14) (size 15 to 20)
#    0.750    0.750    3.750    1.500    3.500    1.500 
#    0.000    1.250    0.000    1.500    0.000    0.000 
#    0.000    0.000    0.000    0.000    0.000    0.000 
#
# Total GULP energy -89078.686194 kJ/mol
# GULP energy per Si atom -5567.417887 kJ/mol
# Density = 1.966840 g / cm^3
# Si number density = 19.713267 Si / 1000 Ang^3
#
#
#
# Elastic Constant Matrix: (Units=GPa)
#
#
# Indices 1 2 3 4 5 6 
#
# 1 10.6714 0.8453 -9.7562 12.2929 4.6758 -1.2922
# 2 0.8453 73.4617 -2.0189 -5.2939 -4.4382 -5.5817
# 3 -9.7562 -2.0189 76.1627 -9.2843 -6.7076 16.1949
# 4 12.2929 -5.2939 -9.2843 28.0222 2.1443 -0.5447
# 5 4.6758 -4.4382 -6.7076 2.1443 17.3080 -2.3379
# 6 -1.2922 -5.5817 16.1949 -0.5447 -2.3379 21.9111
#
#
#
# Elastic Compliance Matrix: (Units=1/GPa)
#
#
# Indices 1 2 3 4 5 6 
#
# 1 0.251495 -0.013833 0.016453 -0.103571 -0.053514 -0.009137
# 2 -0.013833 0.015106 -0.000715 0.008243 0.006921 0.004504
# 3 0.016453 -0.000715 0.017670 -0.001797 0.000790 -0.012232
# 4 -0.103571 0.008243 -0.001797 0.080610 0.019601 0.001415
# 5 -0.053514 0.006921 0.000790 0.019601 0.072733 0.006271
# 6 -0.009137 0.004504 -0.012232 0.001415 0.006271 0.055993
#
#
# Mechanical properties :
#
#
# Convention : Reuss Voigt Hill
#
# Bulk Modulus (GPa) = 3.47122 15.38181 9.42651
# Shear Modulus (GPa) = 8.53500 24.86331 16.69916
#
# Velocity S-wave (km/s) = 2.08302 3.55526 2.91366
# Velocity P-wave (km/s) = 2.74772 4.96718 4.01390
#
# Compressibility (1/GPa) = 0.28808330
#
# Stress axis : x y z
#
# Youngs Moduli (GPa) = 3.97623 66.19704 56.59290
#
# Poissons Ratio (x) = 0.91567 -0.93115
# Poissons Ratio (y) = 0.05500 0.04046
# Poissons Ratio (z) = -0.06542 0.04732
#
# Static dielectric constant tensor:
#      x y z
#    x 1.674750 -0.009760 -0.006640 
#    y -0.009760 1.712890 0.010200 
#    z -0.006640 0.010200 1.751800 
# 
# From -- ./inp_files/170723.got.cif
#   From: 2010.05.17/outbox.cif.g08.bks.cpg/sg2_86_cif.got.tgz:170723.got - 2010.06.03 11:33:40.
