data_PCOD9023097
_publ_section_title
;
Structure prediction by ZEFSAII (Michael W. Deem and Ramdas Pophale) SiO2 
 PCOD9023097
Probable space group: P -1
;
_chemical_formula_sum "Si O2"
_cell_formula_units_Z 16
_cell_length_a 12.141428
_cell_length_b 9.331966
_cell_length_c 13.067241
_cell_angle_alpha 111.470779
_cell_angle_beta 46.471793
_cell_angle_gamma 75.812463
_cell_volume 675.333550
_symmetry_space_group_name_H-M "P -1"
_symmetry_group_IT_number 2
_symmetry_cell_setting 'triclinic'
loop_
_space_group_symop_operation_xyz
x,y,z
-x,-y,-z
loop_
_atom_site_type_symbol
_atom_site_label
_atom_site_fract_x
_atom_site_fract_y
_atom_site_fract_z
Si Si1 0.884933 0.156213 0.418339
Si Si2 0.116759 0.686237 0.161528
Si Si3 0.335284 0.105816 0.538150
Si Si4 0.079575 0.564742 0.878999
Si Si5 0.452303 0.533005 0.661149
Si Si6 0.463172 0.456826 0.123019
Si Si7 0.676217 0.792041 0.068198
Si Si8 0.659889 0.086570 0.031525
O O1 0.671722 0.293107 0.513828
O O2 0.780511 0.336750 0.621929
O O3 0.004874 0.924473 0.340656
O O4 0.078059 0.086968 0.207670
O O5 0.896836 0.808857 0.268164
O O6 0.351137 0.579058 0.943676
O O7 0.198914 0.463599 0.100427
O O8 0.247072 0.344509 0.638870
O O9 0.500000 0.000000 0.500000
O O10 0.465676 0.929759 0.315281
O O11 0.226181 0.597208 0.831785
O O12 0.000000 0.500000 0.000000
O O13 0.854878 0.761695 0.010965
O O14 0.500000 0.500000 0.500000
O O15 0.416117 0.731814 0.785080
O O16 0.500000 0.500000 0.000000
O O17 0.535972 0.231469 0.044367
O O18 0.609542 0.951662 0.061099
#
# Coordination Sequence:
#
# PCOD9023097 Si02
#       8
#     2   2   2   2   2   2   2   2
#     4  10  22  39  66  88 123 162 210 264 316 376
#     4  10  23  37  61  92 121 158 207 255 310 382
#     4  11  21  33  56  83 127 173 210 253 305 361
#     4  11  23  32  53  85 122 170 227 260 300 371
#     4  11  23  39  58  87 132 177 221 260 318 373
#     4  10  23  45  71  94 118 155 211 272 330 387
#     4  11  23  39  55  88 130 164 206 257 316 373
#     4  10  24  40  63  91 126 166 210 263 321 386
#
# _framework density 23.691997000000001
#
# number of rings (size 3 to 8) (size 9 to 14) (size 15 to 20)
#    0.000    1.500    1.250    3.000   10.500    8.000 
#    0.000    0.625    0.000    2.250    0.000    0.000 
#    0.000    0.000    0.000    0.000    0.000    0.000 
#
# Total GULP energy -89098.435368 kJ/mol
# GULP energy per Si atom -5568.652211 kJ/mol
# Density = 2.363807 g / cm^3
# Si number density = 23.691997 Si / 1000 Ang^3
#
#
#
# Elastic Constant Matrix: (Units=GPa)
#
#
# Indices 1 2 3 4 5 6 
#
# 1 37.3756 17.8055 19.4696 -5.6068 -0.8571 5.0426
# 2 17.8055 158.9877 55.4477 7.3405 7.7024 -5.6425
# 3 19.4696 55.4477 147.6894 3.2844 -4.9685 -2.2842
# 4 -5.6068 7.3405 3.2844 38.0833 0.3111 4.7696
# 5 -0.8571 7.7024 -4.9685 0.3111 18.8971 -5.4196
# 6 5.0426 -5.6425 -2.2842 4.7696 -5.4196 32.0238
#
#
#
# Elastic Compliance Matrix: (Units=1/GPa)
#
#
# Indices 1 2 3 4 5 6 
#
# 1 0.031744 -0.002906 -0.003350 0.006370 -0.000297 -0.006749
# 2 -0.002906 0.007835 -0.002618 -0.001848 -0.003606 0.001316
# 3 -0.003350 -0.002618 0.008356 -0.000913 0.003527 0.001395
# 4 0.006370 -0.001848 -0.000913 0.028374 -0.001342 -0.005847
# 5 -0.000297 -0.003606 0.003527 -0.001342 0.058105 0.009696
# 6 -0.006749 0.001316 0.001395 -0.005847 0.009696 0.035133
#
#
# Mechanical properties :
#
#
# Convention : Reuss Voigt Hill
#
# Bulk Modulus (GPa) = 33.12690 58.83317 45.98003
# Shear Modulus (GPa) = 25.33471 34.55617 29.94544
#
# Velocity S-wave (km/s) = 3.27362 3.82325 3.55906
# Velocity P-wave (km/s) = 5.31991 6.66154 6.02816
#
# Compressibility (1/GPa) = 0.03018695
#
# Stress axis : x y z
#
# Youngs Moduli (GPa) = 31.50194 127.63030 119.67294
#
# Poissons Ratio (x) = 0.37091 0.40087
# Poissons Ratio (y) = 0.09155 0.31334
# Poissons Ratio (z) = 0.10552 0.33418
#
# Static dielectric constant tensor:
#      x y z
#    x 2.085770 -0.056090 0.025240 
#    y -0.056090 2.032280 0.024140 
#    z 0.025240 0.024140 1.916850 
# 
# From -- ./inp_files/529877.got.cif
#   From: 2010.05.17/outbox.cif.g08.bks.cpg/sg2_265_cif.got.tgz:529877.got - 2010.06.03 11:33:40.
