data_PCOD9023055
_publ_section_title
;
Structure prediction by ZEFSAII (Michael W. Deem and Ramdas Pophale) SiO2 
 PCOD9023055
Probable space group: P -1
;
_chemical_formula_sum "Si O2"
_cell_formula_units_Z 15
_cell_length_a 6.014118
_cell_length_b 25.273397
_cell_length_c 13.628579
_cell_angle_alpha 156.249562
_cell_angle_beta 130.247066
_cell_angle_gamma 49.284922
_cell_volume 624.163299
_symmetry_space_group_name_H-M "P -1"
_symmetry_group_IT_number 2
_symmetry_cell_setting 'triclinic'
loop_
_space_group_symop_operation_xyz
x,y,z
-x,-y,-z
loop_
_atom_site_type_symbol
_atom_site_label
_atom_site_fract_x
_atom_site_fract_y
_atom_site_fract_z
Si Si1 0.757624 0.272372 0.006883
Si Si2 0.389425 0.073913 0.194716
Si Si3 0.112379 0.210266 0.727206
Si Si4 0.688141 0.173004 0.168895
Si Si5 0.268375 0.532027 0.843653
Si Si6 0.234138 0.622451 0.610472
Si Si7 0.000000 0.000000 0.500000
Si Si8 0.716576 0.285543 0.585759
O O1 0.713244 0.405826 0.153755
O O2 0.897803 0.302814 0.201382
O O3 0.437966 0.239159 0.885425
O O4 0.929530 0.147355 0.782678
O O5 0.530831 0.202922 0.462158
O O6 0.038971 0.118759 0.162992
O O7 0.500000 0.000000 0.000000
O O8 0.459679 0.957460 0.098298
O O9 0.076228 0.076145 0.545447
O O10 0.047192 0.222495 0.611388
O O11 0.873664 0.339419 0.915113
O O12 0.610489 0.279949 0.244292
O O13 0.662501 0.241231 0.384091
O O14 0.582895 0.443539 0.816568
O O15 0.032904 0.432992 0.610459
O O16 0.500000 0.500000 0.500000
#
# Coordination Sequence:
#
# PCOD9023055 Si02
#       8
#     2   2   2   2   2   2   1   2
#     4  11  25  45  72  99 138 182 230 281 339 408
#     4   9  20  40  61  92 131 172 219 273 334 395
#     4  11  25  46  69 102 137 181 227 278 341 409
#     4  10  22  39  65  99 133 176 224 281 339 397
#     4  11  24  45  67 103 134 179 230 279 350 398
#     4  12  23  44  72 101 138 177 230 289 339 403
#     4  10  26  48  70 100 134 186 230 272 338 412
#     4  11  23  41  69  98 141 172 222 282 341 414
#
# _framework density 24.032171000000002
#
# number of rings (size 3 to 8) (size 9 to 14) (size 15 to 20)
#    0.000    1.333    2.667    2.000    0.000    6.933 
#    0.000    0.000    0.000    0.000    0.000    0.000 
#    0.000    0.000    0.000    0.000    0.000    0.000 
#
# Total GULP energy -83624.743301 kJ/mol
# GULP energy per Si atom -5574.982887 kJ/mol
# Density = 2.397747 g / cm^3
# Si number density = 24.032171 Si / 1000 Ang^3
#
#
#
# Elastic Constant Matrix: (Units=GPa)
#
#
# Indices 1 2 3 4 5 6 
#
# 1 53.9663 12.0644 18.9622 13.9143 1.3022 13.9507
# 2 12.0644 85.9396 25.7579 26.4682 11.4573 20.0555
# 3 18.9622 25.7579 95.6419 25.8024 3.2191 13.4015
# 4 13.9143 26.4682 25.8024 44.2438 6.9237 11.7734
# 5 1.3022 11.4573 3.2191 6.9237 38.7577 9.1854
# 6 13.9507 20.0555 13.4015 11.7734 9.1854 42.9371
#
#
#
# Elastic Compliance Matrix: (Units=1/GPa)
#
#
# Indices 1 2 3 4 5 6 
#
# 1 0.021873 0.000067 -0.002489 -0.004235 0.001518 -0.005525
# 2 0.000067 0.015556 -0.001665 -0.006836 -0.002193 -0.004425
# 3 -0.002489 -0.001665 0.013053 -0.005661 0.000763 -0.001099
# 4 -0.004235 -0.006836 -0.005661 0.032258 -0.002670 -0.001939
# 5 0.001518 -0.002193 0.000763 -0.002670 0.027988 -0.004963
# 6 -0.005525 -0.004425 -0.001099 -0.001939 -0.004963 0.029088
#
#
# Mechanical properties :
#
#
# Convention : Reuss Voigt Hill
#
# Bulk Modulus (GPa) = 23.63662 38.79075 31.21368
# Shear Modulus (GPa) = 30.84650 37.10526 33.97588
#
# Velocity S-wave (km/s) = 3.58655 3.93362 3.76409
# Velocity P-wave (km/s) = 5.19691 6.06691 5.64868
#
# Compressibility (1/GPa) = 0.04230724
#
# Stress axis : x y z
#
# Youngs Moduli (GPa) = 45.71819 64.28446 76.61122
#
# Poissons Ratio (x) = -0.00428 0.19070
# Poissons Ratio (y) = -0.00304 0.12754
# Poissons Ratio (z) = 0.11380 0.10702
#
# Static dielectric constant tensor:
#      x y z
#    x 1.945770 0.037870 -0.009490 
#    y 0.037870 1.990970 -0.023110 
#    z -0.009490 -0.023110 1.902020 
# 
# From -- ./inp_files/69987.got.cif
#   From: 2010.05.17/outbox.cif.g08.bks.cpg/sg2_35_cif.got.tgz:69987.got - 2010.06.03 11:33:40.
