data_PCOD9023818
_publ_section_title
;
Structure prediction by ZEFSAII (Michael W. Deem and Ramdas Pophale) SiO2 
 PCOD9023818
Probable space group: P -1
;
_chemical_formula_sum "Si O2"
_cell_formula_units_Z 16
_cell_length_a 11.498758
_cell_length_b 15.191607
_cell_length_c 14.504238
_cell_angle_alpha 151.025053
_cell_angle_beta 42.040321
_cell_angle_gamma 118.015664
_cell_volume 683.778973
_symmetry_space_group_name_H-M "P -1"
_symmetry_group_IT_number 2
_symmetry_cell_setting 'triclinic'
loop_
_space_group_symop_operation_xyz
x,y,z
-x,-y,-z
loop_
_atom_site_type_symbol
_atom_site_label
_atom_site_fract_x
_atom_site_fract_y
_atom_site_fract_z
Si Si1 0.743914 0.771651 0.936057
Si Si2 0.857252 0.486941 0.442533
Si Si3 0.209247 0.838282 0.986605
Si Si4 0.567294 0.670990 0.107359
Si Si5 0.261788 0.179904 0.337393
Si Si6 0.186144 0.175458 0.783765
Si Si7 0.484265 0.462288 0.623375
Si Si8 0.689757 0.780492 0.439207
O O1 0.844593 0.666346 0.682847
O O2 0.928558 0.737311 0.861430
O O3 0.665332 0.644106 0.923854
O O4 0.540543 0.008799 0.256274
O O5 0.811109 0.599677 0.472810
O O6 0.661031 0.480155 0.581163
O O7 0.339098 0.677500 0.846815
O O8 0.376344 0.741286 0.715841
O O9 0.019855 0.814176 0.055002
O O10 0.136736 0.078640 0.280497
O O11 0.732150 0.680759 0.087536
O O12 0.368247 0.920773 0.458427
O O13 0.500000 0.500000 0.000000
O O14 0.250774 0.204816 0.477113
O O15 0.500000 0.000000 0.000000
O O16 0.165059 0.229273 0.736074
O O17 0.342468 0.416612 0.726190
#
# Coordination Sequence:
#
# PCOD9023818 Si02
#       8
#     2   2   2   2   2   2   2   2
#     4  10  22  40  61  96 127 166 226 271 329 398
#     4  11  22  37  64  99 130 165 221 277 326 406
#     4  11  22  39  64  94 128 177 219 272 330 399
#     4  10  23  45  67  91 133 185 218 275 335 402
#     4  12  20  41  65  92 133 177 214 273 336 390
#     4  10  25  45  64  98 138 170 231 277 330 406
#     4  11  21  37  64  93 129 171 214 273 338 385
#     4  11  23  42  64  93 134 176 216 280 329 394
#
# _framework density 23.399374000000002
#
# number of rings (size 3 to 8) (size 9 to 14) (size 15 to 20)
#    0.000    1.250    3.750    1.500    3.500    1.500 
#    0.000    0.000    0.000    0.000    0.000    0.000 
#    0.000    0.000    0.000    0.000    0.000    0.000 
#
# Total GULP energy -89361.516046 kJ/mol
# GULP energy per Si atom -5585.094753 kJ/mol
# Density = 2.334612 g / cm^3
# Si number density = 23.399374 Si / 1000 Ang^3
#
#
#
# Elastic Constant Matrix: (Units=GPa)
#
#
# Indices 1 2 3 4 5 6 
#
# 1 118.4454 36.6165 18.6681 17.4696 9.3033 5.8979
# 2 36.6165 101.5668 9.4190 12.1029 13.1135 8.8850
# 3 18.6681 9.4190 48.5461 6.7800 0.6372 7.4075
# 4 17.4696 12.1029 6.7800 17.1103 7.0666 4.6265
# 5 9.3033 13.1135 0.6372 7.0666 29.3818 -2.0395
# 6 5.8979 8.8850 7.4075 4.6265 -2.0395 44.9681
#
#
#
# Elastic Compliance Matrix: (Units=1/GPa)
#
#
# Indices 1 2 3 4 5 6 
#
# 1 0.010895 -0.002721 -0.002569 -0.008206 -0.000181 0.000368
# 2 -0.002721 0.011916 -0.000470 -0.003452 -0.003737 -0.001734
# 3 -0.002569 -0.000470 0.022917 -0.006170 0.001828 -0.002628
# 4 -0.008206 -0.003452 -0.006170 0.079691 -0.015318 -0.006119
# 5 -0.000181 -0.003737 0.001828 -0.015318 0.039670 0.003836
# 6 0.000368 -0.001734 -0.002628 -0.006119 0.003836 0.023769
#
#
# Mechanical properties :
#
#
# Convention : Reuss Voigt Hill
#
# Bulk Modulus (GPa) = 29.23317 44.21840 36.72579
# Shear Modulus (GPa) = 23.60949 31.88233 27.74591
#
# Velocity S-wave (km/s) = 3.17989 3.69525 3.44721
# Velocity P-wave (km/s) = 5.09927 6.09465 5.61904
#
# Compressibility (1/GPa) = 0.03420771
#
# Stress axis : x y z
#
# Youngs Moduli (GPa) = 91.78625 83.92311 43.63613
#
# Poissons Ratio (x) = 0.22831 0.11212
# Poissons Ratio (y) = 0.24971 0.02050
# Poissons Ratio (z) = 0.23584 0.03943
#
# Static dielectric constant tensor:
#      x y z
#    x 1.985750 -0.024680 0.063680 
#    y -0.024680 1.874760 -0.046370 
#    z 0.063680 -0.046370 1.973640 
# 
# From -- ./inp_files/522585.got.cif
#   From: 2010.05.17/outbox.cif.g08.bks.cpg/sg2_262_cif.got.tgz:522585.got - 2010.06.03 11:33:40.
