data_PCOD9023310
_publ_section_title
;
Structure prediction by ZEFSAII (Michael W. Deem and Ramdas Pophale) SiO2 
 PCOD9023310
Probable space group: P -1
;
_chemical_formula_sum "Si O2"
_cell_formula_units_Z 16
_cell_length_a 9.928349
_cell_length_b 13.380704
_cell_length_c 8.260434
_cell_angle_alpha 133.296901
_cell_angle_beta 61.917962
_cell_angle_gamma 91.307655
_cell_volume 623.029183
_symmetry_space_group_name_H-M "P -1"
_symmetry_group_IT_number 2
_symmetry_cell_setting 'triclinic'
loop_
_space_group_symop_operation_xyz
x,y,z
-x,-y,-z
loop_
_atom_site_type_symbol
_atom_site_label
_atom_site_fract_x
_atom_site_fract_y
_atom_site_fract_z
Si Si1 0.575703 0.195336 0.344388
Si Si2 0.100799 0.079992 0.664036
Si Si3 0.183180 0.120070 0.292761
Si Si4 0.367015 0.174886 0.720453
Si Si5 0.757774 0.342035 0.258394
Si Si6 0.220537 0.500367 0.248195
Si Si7 0.808681 0.211561 0.521557
Si Si8 0.102523 0.454071 0.723069
O O1 0.412132 0.217267 0.565130
O O2 0.587179 0.323566 0.364698
O O3 0.712874 0.178520 0.390877
O O4 0.654274 0.033052 0.027613
O O5 0.127081 0.104671 0.489672
O O6 0.190499 0.165756 0.804904
O O7 0.192342 0.898847 0.456857
O O8 0.904356 0.169602 0.934864
O O9 0.213096 0.269991 0.434704
O O10 0.013115 0.156442 0.321563
O O11 0.500000 0.000000 0.500000
O O12 0.352571 0.318957 0.993442
O O13 0.795907 0.407330 0.476194
O O14 0.788472 0.452984 0.241426
O O15 0.270739 0.602267 0.207115
O O16 0.046895 0.504291 0.282020
O O17 0.000000 0.500000 0.000000
#
# Coordination Sequence:
#
# PCOD9023310 Si02
#       8
#     2   2   2   2   2   2   2   2
#     4  11  25  41  63  97 132 169 214 259 317 389
#     4  12  23  42  66 100 129 169 215 262 323 380
#     4  11  23  38  69  97 132 162 213 270 326 369
#     4  12  26  44  64  90 134 176 214 261 315 390
#     4  11  23  39  67  97 127 159 220 269 312 376
#     4  10  24  39  65  94 129 165 216 262 326 367
#     4  10  22  39  67  99 125 163 213 271 315 377
#     4  11  21  38  63 101 129 160 207 276 322 372
#
# _framework density 25.680980000000002
#
# number of rings (size 3 to 8) (size 9 to 14) (size 15 to 20)
#    0.000    1.000    5.000    1.125    5.250    2.500 
#    0.000    0.000    0.000    3.750    0.000    0.000 
#    0.000    0.000    0.000    0.000    0.000    0.000 
#
# Total GULP energy -89493.727840 kJ/mol
# GULP energy per Si atom -5593.357990 kJ/mol
# Density = 2.562253 g / cm^3
# Si number density = 25.680980 Si / 1000 Ang^3
#
#
#
# Elastic Constant Matrix: (Units=GPa)
#
#
# Indices 1 2 3 4 5 6 
#
# 1 48.6354 6.8761 8.9916 15.4988 -1.9366 2.6611
# 2 6.8761 170.8123 33.0284 35.0392 -5.9501 33.4485
# 3 8.9916 33.0284 84.9864 28.3073 11.9765 -8.5128
# 4 15.4988 35.0392 28.3073 52.6539 10.7621 5.7487
# 5 -1.9366 -5.9501 11.9765 10.7621 19.8885 -1.4219
# 6 2.6611 33.4485 -8.5128 5.7487 -1.4219 32.7234
#
#
#
# Elastic Compliance Matrix: (Units=1/GPa)
#
#
# Indices 1 2 3 4 5 6 
#
# 1 0.023934 0.002014 -0.001828 -0.008897 0.008666 -0.002541
# 2 0.002014 0.010048 -0.004495 -0.005392 0.008090 -0.010305
# 3 -0.001828 -0.004495 0.017673 -0.005297 -0.008591 0.009898
# 4 -0.008897 -0.005392 -0.005297 0.031566 -0.016471 -0.001405
# 5 0.008666 0.008090 -0.008591 -0.016471 0.067245 -0.005393
# 6 -0.002541 -0.010305 0.009898 -0.001405 -0.005393 0.043886
#
#
# Mechanical properties :
#
#
# Convention : Reuss Voigt Hill
#
# Bulk Modulus (GPa) = 23.23445 44.69183 33.96314
# Shear Modulus (GPa) = 23.00816 38.08901 30.54859
#
# Velocity S-wave (km/s) = 2.99644 3.85536 3.45271
# Velocity P-wave (km/s) = 4.58678 6.10401 5.39895
#
# Compressibility (1/GPa) = 0.04303954
#
# Stress axis : x y z
#
# Youngs Moduli (GPa) = 41.78235 99.52142 56.58335
#
# Poissons Ratio (x) = -0.20048 0.10341
# Poissons Ratio (y) = -0.08417 0.25431
# Poissons Ratio (z) = 0.07636 0.44730
#
# Static dielectric constant tensor:
#      x y z
#    x 2.074790 -0.036880 -0.053040 
#    y -0.036880 2.127210 -0.002010 
#    z -0.053040 -0.002010 1.988490 
# 
# From -- ./inp_files/261474.got.cif
#   From: 2010.05.17/outbox.cif.g08.bks.cpg/sg2_131_cif.got.tgz:261474.got - 2010.06.03 11:33:40.
