data_PCOD9023327
_publ_section_title
;
Structure prediction by ZEFSAII (Michael W. Deem and Ramdas Pophale) SiO2 
 PCOD9023327
Probable space group: P -1
;
_chemical_formula_sum "Si O2"
_cell_formula_units_Z 16
_cell_length_a 5.616999
_cell_length_b 10.009685
_cell_length_c 23.500881
_cell_angle_alpha 34.467971
_cell_angle_beta 98.063959
_cell_angle_gamma 113.327356
_cell_volume 641.086960
_symmetry_space_group_name_H-M "P -1"
_symmetry_group_IT_number 2
_symmetry_cell_setting 'triclinic'
loop_
_space_group_symop_operation_xyz
x,y,z
-x,-y,-z
loop_
_atom_site_type_symbol
_atom_site_label
_atom_site_fract_x
_atom_site_fract_y
_atom_site_fract_z
Si Si1 0.066104 0.448192 0.764092
Si Si2 0.344495 0.685489 0.585015
Si Si3 0.375089 0.305919 0.894841
Si Si4 0.148939 0.085058 0.297399
Si Si5 0.138594 0.041551 0.552913
Si Si6 0.528345 0.016325 0.089661
Si Si7 0.824269 0.034720 0.199709
Si Si8 0.198806 0.768462 0.312243
O O1 0.300452 0.507995 0.702719
O O2 0.094180 0.310675 0.870741
O O3 0.114230 0.747947 0.667512
O O4 0.756181 0.240573 0.806142
O O5 0.032561 0.541181 0.601366
O O6 0.500000 0.000000 0.500000
O O7 0.551199 0.709455 0.534070
O O8 0.386505 0.112808 0.914095
O O9 0.593876 0.623680 0.781194
O O10 0.441651 0.222094 0.986681
O O11 0.996834 0.937179 0.401363
O O12 0.971420 0.161941 0.220345
O O13 0.224245 0.881702 0.337639
O O14 0.000000 0.000000 0.500000
O O15 0.762947 0.149561 0.099414
O O16 0.031735 0.921439 0.228887
O O17 0.504692 0.848126 0.274980
#
# Coordination Sequence:
#
# PCOD9023327 Si02
#       8
#     2   2   2   2   2   2   2   2
#     4  11  22  42  69 100 146 183 240 311 356 425
#     4  10  22  39  68 101 131 187 244 289 356 431
#     4  11  24  42  71 109 134 192 245 300 366 438
#     4  10  25  44  70  99 152 183 239 304 367 431
#     4  11  24  41  68 104 135 191 245 297 363 436
#     4  11  23  42  73 103 143 184 248 300 367 441
#     4  10  24  45  72 101 146 199 227 302 371 433
#     4  10  23  43  70  99 147 190 235 296 371 425
#
# _framework density 24.957614
#
# number of rings (size 3 to 8) (size 9 to 14) (size 15 to 20)
#    0.750    0.750    2.500    1.875    3.500    1.000 
#    0.000    1.250    0.000    0.000    0.000    0.000 
#    0.000    0.000    0.000    0.000    0.000    0.000 
#
# Total GULP energy -89107.005653 kJ/mol
# GULP energy per Si atom -5569.187853 kJ/mol
# Density = 2.490081 g / cm^3
# Si number density = 24.957614 Si / 1000 Ang^3
#
#
#
# Elastic Constant Matrix: (Units=GPa)
#
#
# Indices 1 2 3 4 5 6 
#
# 1 66.5139 -2.3586 12.2799 -4.3935 -7.4656 14.2940
# 2 -2.3586 94.7736 14.5393 13.8407 4.4809 13.8271
# 3 12.2799 14.5393 89.8519 26.9593 12.8306 -5.7588
# 4 -4.3935 13.8407 26.9593 27.2709 13.2687 0.7966
# 5 -7.4656 4.4809 12.8306 13.2687 50.6243 6.3732
# 6 14.2940 13.8271 -5.7588 0.7966 6.3732 39.4912
#
#
#
# Elastic Compliance Matrix: (Units=1/GPa)
#
#
# Indices 1 2 3 4 5 6 
#
# 1 0.018946 0.001548 -0.005917 0.006655 0.003541 -0.008968
# 2 0.001548 0.012233 -0.001098 -0.005453 0.001500 -0.005136
# 3 -0.005917 -0.001098 0.017981 -0.017643 -0.001430 0.005735
# 4 0.006655 -0.005453 -0.017643 0.063012 -0.010241 -0.002691
# 5 0.003541 0.001500 -0.001430 -0.010241 0.023903 -0.005666
# 6 -0.008968 -0.005136 0.005735 -0.002691 -0.005666 0.032172
#
#
# Mechanical properties :
#
#
# Convention : Reuss Voigt Hill
#
# Bulk Modulus (GPa) = 26.15963 33.34006 29.74985
# Shear Modulus (GPa) = 26.05200 38.58922 32.32061
#
# Velocity S-wave (km/s) = 3.23437 3.93643 3.60254
# Velocity P-wave (km/s) = 4.94496 5.83509 5.40837
#
# Compressibility (1/GPa) = 0.03822684
#
# Stress axis : x y z
#
# Youngs Moduli (GPa) = 52.78096 81.74428 55.61304
#
# Poissons Ratio (x) = -0.12657 0.32907
# Poissons Ratio (y) = -0.08173 0.06108
# Poissons Ratio (z) = 0.31231 0.08978
#
# Static dielectric constant tensor:
#      x y z
#    x 2.155630 -0.059090 0.080560 
#    y -0.059090 2.060330 0.008210 
#    z 0.080560 0.008210 2.002840 
# 
# From -- ./inp_files/615487.got.cif
#   From: 2010.05.17/outbox.cif.g08.bks.cpg/sg2_308_cif.got.tgz:615487.got - 2010.06.03 11:33:40.
