data_PCOD9023218
_publ_section_title
;
Structure prediction by ZEFSAII (Michael W. Deem and Ramdas Pophale) SiO2 
 PCOD9023218
Probable space group: P -1
;
_chemical_formula_sum "Si O2"
_cell_formula_units_Z 13
_cell_length_a 9.760699
_cell_length_b 9.608028
_cell_length_c 15.596546
_cell_angle_alpha 120.538479
_cell_angle_beta 31.764229
_cell_angle_gamma 138.383236
_cell_volume 476.155399
_symmetry_space_group_name_H-M "P -1"
_symmetry_group_IT_number 2
_symmetry_cell_setting 'triclinic'
loop_
_space_group_symop_operation_xyz
x,y,z
-x,-y,-z
loop_
_atom_site_type_symbol
_atom_site_label
_atom_site_fract_x
_atom_site_fract_y
_atom_site_fract_z
Si Si1 0.694023 0.196210 0.525607
Si Si2 0.720717 0.489545 0.312508
Si Si3 0.551110 0.381625 0.797924
Si Si4 0.722511 0.996065 0.598753
Si Si5 0.500000 0.000000 0.000000
Si Si6 0.496062 0.840727 0.093716
Si Si7 0.411175 0.624488 0.838874
O O1 0.463757 0.212077 0.716630
O O2 0.009478 0.428791 0.381841
O O3 0.500000 0.000000 0.500000
O O4 0.871850 0.144014 0.480619
O O5 0.500000 0.500000 0.500000
O O6 0.630426 0.265408 0.313953
O O7 0.542731 0.440652 0.299305
O O8 0.155356 0.709480 0.162711
O O9 0.431586 0.285961 0.928393
O O10 0.430249 0.504150 0.868071
O O11 0.612390 0.088371 0.750477
O O12 0.000000 0.000000 0.500000
O O13 0.771294 0.038089 0.943806
O O14 0.413557 0.128663 0.150378
O O15 0.000000 0.500000 0.000000
#
# Coordination Sequence:
#
# PCOD9023218 Si02
#       7
#     2   2   2   2   1   2   2
#     4  10  22  39  67 104 145 178 221 291 366 420
#     4  12  24  39  73 104 139 179 239 294 351 418
#     4  10  25  43  67 103 143 181 236 295 354 423
#     4  11  21  36  64 103 136 175 222 281 352 416
#     4  12  26  48  70  96 140 188 246 284 350 430
#     4  11  24  44  67  99 138 183 230 293 351 415
#     4  12  27  48  71 101 142 195 242 289 356 425
#
# _framework density 27.302009000000002
#
# number of rings (size 3 to 8) (size 9 to 14) (size 15 to 20)
#    0.000    0.923    4.615    1.846    6.462    1.846 
#    0.000    0.769    0.000    0.000    0.000    0.000 
#    0.000    0.000    0.000    0.000    0.000    0.000 
#
# Total GULP energy -72494.436124 kJ/mol
# GULP energy per Si atom -5576.495086 kJ/mol
# Density = 2.723987 g / cm^3
# Si number density = 27.302009 Si / 1000 Ang^3
#
#
#
# Elastic Constant Matrix: (Units=GPa)
#
#
# Indices 1 2 3 4 5 6 
#
# 1 200.1137 70.5464 39.1256 16.1847 34.4360 -30.9084
# 2 70.5464 142.5438 21.0710 22.5144 8.6592 0.6549
# 3 39.1256 21.0710 63.4240 18.8354 23.7213 7.8674
# 4 16.1847 22.5144 18.8354 43.4349 -0.1352 7.5824
# 5 34.4360 8.6592 23.7213 -0.1352 49.8585 -1.1069
# 6 -30.9084 0.6549 7.8674 7.5824 -1.1069 66.9684
#
#
#
# Elastic Compliance Matrix: (Units=1/GPa)
#
#
# Indices 1 2 3 4 5 6 
#
# 1 0.007980 -0.003211 -0.002796 -0.000819 -0.003535 0.004077
# 2 -0.003211 0.009107 -0.000201 -0.003231 0.000697 -0.001170
# 3 -0.002796 -0.000201 0.024184 -0.008796 -0.009637 -0.003293
# 4 -0.000819 -0.003231 -0.008796 0.029277 0.005335 -0.002540
# 5 -0.003535 0.000697 -0.009637 0.005335 0.026962 -0.000665
# 6 0.004077 -0.001170 -0.003293 -0.002540 -0.000665 0.017489
#
#
# Mechanical properties :
#
#
# Convention : Reuss Voigt Hill
#
# Bulk Modulus (GPa) = 34.65589 74.17417 54.41503
# Shear Modulus (GPa) = 36.48716 50.40825 43.44771
#
# Velocity S-wave (km/s) = 3.65968 4.30154 3.99353
# Velocity P-wave (km/s) = 5.52981 7.20403 6.42172
#
# Compressibility (1/GPa) = 0.02885513
#
# Stress axis : x y z
#
# Youngs Moduli (GPa) = 125.31054 109.80019 41.35026
#
# Poissons Ratio (x) = 0.35253 0.11563
# Poissons Ratio (y) = 0.40233 0.00831
# Poissons Ratio (z) = 0.35042 0.02208
#
# Static dielectric constant tensor:
#      x y z
#    x 0.704730 2.422510 -2.391970 
#    y 2.422510 -0.715510 3.764460 
#    z -2.391970 3.764460 -1.396190 
# 
# From -- ./inp_files/236225.got.cif
#   From: 2010.05.17/outbox.cif.g08.bks.cpg/sg2_119_cif.got.tgz:236225.got - 2010.06.03 11:33:40.
