data_PCOD9023897
_publ_section_title
;
Structure prediction by ZEFSAII (Michael W. Deem and Ramdas Pophale) SiO2 
 PCOD9023897
Probable space group: P -1
;
_chemical_formula_sum "Si O2"
_cell_formula_units_Z 12
_cell_length_a 10.151007
_cell_length_b 16.074324
_cell_length_c 6.935118
_cell_angle_alpha 52.393725
_cell_angle_beta 48.945551
_cell_angle_gamma 36.760733
_cell_volume 501.758396
_symmetry_space_group_name_H-M "P -1"
_symmetry_group_IT_number 2
_symmetry_cell_setting 'triclinic'
loop_
_space_group_symop_operation_xyz
x,y,z
-x,-y,-z
loop_
_atom_site_type_symbol
_atom_site_label
_atom_site_fract_x
_atom_site_fract_y
_atom_site_fract_z
Si Si1 0.770165 0.046644 0.445027
Si Si2 0.237850 0.250662 0.621976
Si Si3 0.836964 0.252887 0.032888
Si Si4 0.742718 0.203995 0.586348
Si Si5 0.974656 0.494555 0.806971
Si Si6 0.484438 0.429879 0.796953
O O1 0.513738 0.117800 0.519622
O O2 0.846113 0.124760 0.158224
O O3 0.743244 0.092665 0.632083
O O4 0.995378 0.881163 0.459471
O O5 0.111936 0.363824 0.409251
O O6 0.199083 0.351655 0.689643
O O7 0.087940 0.207021 0.866333
O O8 0.715195 0.294063 0.303014
O O9 0.674400 0.372465 0.860906
O O10 0.560175 0.291599 0.807320
O O11 0.765447 0.494920 0.976775
O O12 0.000000 0.500000 0.000000
O O13 0.500000 0.500000 0.500000
#
# Coordination Sequence:
#
# PCOD9023897 Si02
#       6
#     2   2   2   2   2   2
#     4   9  20  44  62  88 121 161 200 249 303 348
#     4  11  22  40  61  88 126 155 203 250 295 363
#     4  10  22  40  62  90 118 163 197 248 306 348
#     4   9  21  42  62  89 122 159 203 248 301 357
#     4  11  23  38  58  92 123 162 200 246 302 355
#     4  12  23  38  63  92 123 159 204 248 301 364
#
# _framework density 23.915893000000001
#
# number of rings (size 3 to 8) (size 9 to 14) (size 15 to 20)
#    1.000    0.667    1.667    3.000    0.000    5.333 
#    0.000    0.833    0.000    0.000    0.000    0.000 
#    0.000    0.000    0.000    0.000    0.000    0.000 
#
# Total GULP energy -66998.757759 kJ/mol
# GULP energy per Si atom -5583.229813 kJ/mol
# Density = 2.386146 g / cm^3
# Si number density = 23.915893 Si / 1000 Ang^3
#
#
#
# Elastic Constant Matrix: (Units=GPa)
#
#
# Indices 1 2 3 4 5 6 
#
# 1 71.6603 6.6123 24.2498 -4.2647 -4.2550 -24.7363
# 2 6.6123 62.0998 17.4219 -0.2666 8.5936 -26.2494
# 3 24.2498 17.4219 95.7203 -14.7013 12.1571 -8.3857
# 4 -4.2647 -0.2666 -14.7013 27.5400 -9.1470 6.8537
# 5 -4.2550 8.5936 12.1571 -9.1470 44.8926 4.2075
# 6 -24.7363 -26.2494 -8.3857 6.8537 4.2075 32.6245
#
#
#
# Elastic Compliance Matrix: (Units=1/GPa)
#
#
# Indices 1 2 3 4 5 6 
#
# 1 0.023946 0.010968 -0.006520 -0.007077 -0.002042 0.027055
# 2 0.010968 0.034594 -0.006592 -0.014620 -0.010420 0.038871
# 3 -0.006520 -0.006592 0.013916 0.008197 -0.000676 -0.008305
# 4 -0.007077 -0.014620 0.008197 0.050469 0.012747 -0.027269
# 5 -0.002042 -0.010420 -0.000676 0.012747 0.028398 -0.016446
# 6 0.027055 0.038871 -0.008305 -0.027269 -0.016446 0.088155
#
#
# Mechanical properties :
#
#
# Convention : Reuss Voigt Hill
#
# Bulk Modulus (GPa) = 14.66972 36.22759 25.44865
# Shear Modulus (GPa) = 18.76249 33.09119 25.92684
#
# Velocity S-wave (km/s) = 2.80397 3.72378 3.29612
# Velocity P-wave (km/s) = 4.07801 5.80254 5.01496
#
# Compressibility (1/GPa) = 0.06816764
#
# Stress axis : x y z
#
# Youngs Moduli (GPa) = 41.76136 28.90638 71.86029
#
# Poissons Ratio (x) = -0.31703 0.46853
# Poissons Ratio (y) = -0.45802 0.47368
# Poissons Ratio (z) = 0.27229 0.19054
#
# Static dielectric constant tensor:
#      x y z
#    x 1.978170 0.073430 -0.000790 
#    y 0.073430 2.042060 -0.035360 
#    z -0.000790 -0.035360 1.864960 
# 
# From -- ./inp_files/46472.got.cif
#   From: 2010.05.17/outbox.cif.g08.bks.cpg/sg2_24_cif.got.tgz:46472.got - 2010.06.03 11:33:40.
