data_PCOD9023938
_publ_section_title
;
Structure prediction by ZEFSAII (Michael W. Deem and Ramdas Pophale) SiO2 
 PCOD9023938
Probable space group: P -1
;
_chemical_formula_sum "Si O2"
_cell_formula_units_Z 13
_cell_length_a 18.318934
_cell_length_b 8.187073
_cell_length_c 10.384243
_cell_angle_alpha 137.828642
_cell_angle_beta 137.018851
_cell_angle_gamma 30.551103
_cell_volume 511.208891
_symmetry_space_group_name_H-M "P -1"
_symmetry_group_IT_number 2
_symmetry_cell_setting 'triclinic'
loop_
_space_group_symop_operation_xyz
x,y,z
-x,-y,-z
loop_
_atom_site_type_symbol
_atom_site_label
_atom_site_fract_x
_atom_site_fract_y
_atom_site_fract_z
Si Si1 0.744079 0.539960 0.402454
Si Si2 0.446654 0.204490 0.213114
Si Si3 0.938878 0.099798 0.157084
Si Si4 0.236089 0.678295 0.419854
Si Si5 0.262841 0.199759 0.804648
Si Si6 0.687284 0.164811 0.778994
Si Si7 0.500000 0.500000 0.000000
O O1 0.876130 0.276695 0.319313
O O2 0.790980 0.407814 0.531787
O O3 0.706150 0.884620 0.564159
O O4 0.611994 0.560698 0.208160
O O5 0.396039 0.357971 0.378789
O O6 0.382404 0.520845 0.222691
O O7 0.615376 0.910485 0.210473
O O8 0.354813 0.104453 0.999115
O O9 0.882564 0.406037 0.170651
O O10 0.849389 0.006621 0.940322
O O11 0.113925 0.801231 0.227543
O O12 0.229211 0.975039 0.609247
O O13 0.588218 0.305700 0.861909
#
# Coordination Sequence:
#
# PCOD9023938 Si02
#       7
#     2   2   2   2   2   2   1
#     4  11  24  40  63  90 126 165 207 259 313 368
#     4  10  23  41  64  94 124 162 213 258 308 366
#     4  10  24  42  62  91 128 168 210 250 306 376
#     4  12  24  39  64  95 126 166 208 255 313 370
#     4  10  22  41  63  89 126 165 206 261 306 363
#     4  10  22  41  65  92 128 166 204 256 310 370
#     4  10  22  40  62  92 122 162 210 252 310 370
#
# _framework density 25.429919000000002
#
# number of rings (size 3 to 8) (size 9 to 14) (size 15 to 20)
#    0.000    1.538    0.000    3.692    0.000   14.154 
#    0.000    0.000    0.000    0.000    0.000    0.000 
#    0.000    0.000    0.000    0.000    0.000    0.000 
#
# Total GULP energy -72685.098645 kJ/mol
# GULP energy per Si atom -5591.161434 kJ/mol
# Density = 2.537204 g / cm^3
# Si number density = 25.429919 Si / 1000 Ang^3
#
#
#
# Elastic Constant Matrix: (Units=GPa)
#
#
# Indices 1 2 3 4 5 6 
#
# 1 71.3087 3.3014 11.3777 9.6537 -16.8079 -17.6695
# 2 3.3014 76.3250 29.2034 -14.7788 8.6167 -16.3810
# 3 11.3777 29.2034 141.5976 20.2660 -3.3769 -4.0935
# 4 9.6537 -14.7788 20.2660 33.6983 2.7261 -3.2973
# 5 -16.8079 8.6167 -3.3769 2.7261 49.8428 -0.1622
# 6 -17.6695 -16.3810 -4.0935 -3.2973 -0.1622 24.1639
#
#
#
# Elastic Compliance Matrix: (Units=1/GPa)
#
#
# Indices 1 2 3 4 5 6 
#
# 1 0.019810 0.000980 -0.000643 -0.003980 0.006732 0.014543
# 2 0.000980 0.022979 -0.006714 0.015925 -0.004912 0.017297
# 3 -0.000643 -0.006714 0.009737 -0.009238 0.002094 -0.004619
# 4 -0.003980 0.015925 -0.009238 0.045150 -0.007150 0.012433
# 5 0.006732 -0.004912 0.002094 -0.007150 0.023719 0.001131
# 6 0.014543 0.017297 -0.004619 0.012433 0.001131 0.064666
#
#
# Mechanical properties :
#
#
# Convention : Reuss Voigt Hill
#
# Bulk Modulus (GPa) = 25.14407 41.88845 33.51626
# Shear Modulus (GPa) = 23.57679 37.89759 30.73719
#
# Velocity S-wave (km/s) = 3.04818 3.86460 3.48041
# Velocity P-wave (km/s) = 4.72203 6.03501 5.41844
#
# Compressibility (1/GPa) = 0.03977080
#
# Stress axis : x y z
#
# Youngs Moduli (GPa) = 50.47925 43.51848 102.69858
#
# Poissons Ratio (x) = -0.04264 0.06606
# Poissons Ratio (y) = -0.04946 0.68954
# Poissons Ratio (z) = 0.03247 0.29219
#
# Static dielectric constant tensor:
#      x y z
#    x 1.933650 0.060150 0.010470 
#    y 0.060150 2.041780 -0.021490 
#    z 0.010470 -0.021490 1.943930 
# 
# From -- ./inp_files/332599.got.cif
#   From: 2010.05.17/outbox.cif.g08.bks.cpg/sg2_167_cif.got.tgz:332599.got - 2010.06.03 11:33:40.
