data_PCOD9023172
_publ_section_title
;
Structure prediction by ZEFSAII (Michael W. Deem and Ramdas Pophale) SiO2 
 PCOD9023172
Probable space group: P -1
;
_chemical_formula_sum "Si O2"
_cell_formula_units_Z 14
_cell_length_a 9.886154
_cell_length_b 5.033287
_cell_length_c 15.147765
_cell_angle_alpha 116.704183
_cell_angle_beta 61.785749
_cell_angle_gamma 112.206284
_cell_volume 580.091089
_symmetry_space_group_name_H-M "P -1"
_symmetry_group_IT_number 2
_symmetry_cell_setting 'triclinic'
loop_
_space_group_symop_operation_xyz
x,y,z
-x,-y,-z
loop_
_atom_site_type_symbol
_atom_site_label
_atom_site_fract_x
_atom_site_fract_y
_atom_site_fract_z
Si Si1 0.416694 0.042072 0.900723
Si Si2 0.013839 0.772154 0.880370
Si Si3 0.700723 0.396644 0.985901
Si Si4 0.838521 0.803663 0.260251
Si Si5 0.520782 0.223544 0.607999
Si Si6 0.644655 0.878388 0.668416
Si Si7 0.015619 0.153510 0.422770
O O1 0.556452 0.222728 0.946426
O O2 0.290315 0.831811 0.971343
O O3 0.507574 0.872898 0.780554
O O4 0.344665 0.300823 0.915799
O O5 0.133233 0.540021 0.808512
O O6 0.848806 0.525748 0.898586
O O7 0.057292 0.984415 0.813658
O O8 0.000000 0.000000 0.000000
O O9 0.654608 0.793561 0.304876
O O10 0.895427 0.966995 0.360906
O O11 0.601143 0.546780 0.590543
O O12 0.500000 0.000000 0.500000
O O13 0.629396 0.130657 0.638362
O O14 0.810712 0.889722 0.665668
O O15 0.000000 0.500000 0.500000
O O16 0.000000 0.000000 0.500000
#
# Coordination Sequence:
#
# PCOD9023172 Si02
#       7
#     2   2   2   2   2   2   2
#     4  10  22  39  66  97 129 182 222 296 339 411
#     4  12  27  44  71 104 150 200 247 290 359 442
#     4  10  22  41  64  95 140 171 236 283 345 399
#     4  12  27  48  73 108 151 195 241 307 369 436
#     4  12  27  47  71 104 144 184 236 298 366 431
#     4  12  25  43  74 100 137 181 242 285 359 430
#     4  12  26  48  77 108 142 187 244 309 378 439
#
# _framework density 24.134139999999999
#
# number of rings (size 3 to 8) (size 9 to 14) (size 15 to 20)
#    0.000    0.571    0.000    7.714    6.000    3.429 
#    0.000    0.000    0.000    0.000    0.000    0.000 
#    0.000    0.000    0.000    0.000    0.000    0.000 
#
# Total GULP energy -78339.213020 kJ/mol
# GULP energy per Si atom -5595.658073 kJ/mol
# Density = 2.407921 g / cm^3
# Si number density = 24.134140 Si / 1000 Ang^3
#
#
#
# Elastic Constant Matrix: (Units=GPa)
#
#
# Indices 1 2 3 4 5 6 
#
# 1 114.0087 28.5829 19.2565 9.3227 -7.6759 -5.7137
# 2 28.5829 116.8617 20.5871 -1.0101 4.5059 -25.9119
# 3 19.2565 20.5871 84.5741 11.6260 6.4283 -19.6360
# 4 9.3227 -1.0101 11.6260 47.2638 -1.1683 -5.4010
# 5 -7.6759 4.5059 6.4283 -1.1683 40.4808 -0.7863
# 6 -5.7137 -25.9119 -19.6360 -5.4010 -0.7863 43.1778
#
#
#
# Elastic Compliance Matrix: (Units=1/GPa)
#
#
# Indices 1 2 3 4 5 6 
#
# 1 0.009945 -0.002468 -0.001898 -0.001624 0.002392 -0.001188
# 2 -0.002468 0.010670 -0.000775 0.001545 -0.001373 0.005892
# 3 -0.001898 -0.000775 0.014243 -0.002592 -0.002505 0.005391
# 4 -0.001624 0.001545 -0.002592 0.022433 0.000625 0.002351
# 5 0.002392 -0.001373 -0.002505 0.000625 0.025704 -0.001101
# 6 -0.001188 0.005892 0.005391 0.002351 -0.001101 0.029265
#
#
# Mechanical properties :
#
#
# Convention : Reuss Voigt Hill
#
# Bulk Modulus (GPa) = 40.68959 50.25527 45.47243
# Shear Modulus (GPa) = 38.24568 42.65234 40.44901
#
# Velocity S-wave (km/s) = 3.98516 4.20849 4.09835
# Velocity P-wave (km/s) = 6.17023 6.66961 6.42477
#
# Compressibility (1/GPa) = 0.02457631
#
# Stress axis : x y z
#
# Youngs Moduli (GPa) = 100.55509 93.71971 70.20885
#
# Poissons Ratio (x) = 0.23126 0.13325
# Poissons Ratio (y) = 0.24813 0.05444
# Poissons Ratio (z) = 0.19085 0.07267
#
# Static dielectric constant tensor:
#      x y z
#    x 1.981270 0.043870 -0.054460 
#    y 0.043870 1.942300 0.017360 
#    z -0.054460 0.017360 1.918060 
# 
# From -- ./inp_files/553833.got.cif
#   From: 2010.05.17/outbox.cif.g08.bks.cpg/sg2_277_cif.got.tgz:553833.got - 2010.06.03 11:33:40.
