data_PCOD9023851
_publ_section_title
;
Structure prediction by ZEFSAII (Michael W. Deem and Ramdas Pophale) SiO2 
 PCOD9023851
Probable space group: P -1
;
_chemical_formula_sum "Si O2"
_cell_formula_units_Z 16
_cell_length_a 8.625124
_cell_length_b 22.370238
_cell_length_c 14.654443
_cell_angle_alpha 18.748012
_cell_angle_beta 56.212974
_cell_angle_gamma 64.369775
_cell_volume 706.947050
_symmetry_space_group_name_H-M "P -1"
_symmetry_group_IT_number 2
_symmetry_cell_setting 'triclinic'
loop_
_space_group_symop_operation_xyz
x,y,z
-x,-y,-z
loop_
_atom_site_type_symbol
_atom_site_label
_atom_site_fract_x
_atom_site_fract_y
_atom_site_fract_z
Si Si1 0.688065 0.418248 0.376616
Si Si2 0.528634 0.973156 0.633632
Si Si3 0.188020 0.192331 0.145895
Si Si4 0.099344 0.950260 0.856872
Si Si5 0.741090 0.634459 0.319829
Si Si6 0.880083 0.316082 0.621120
Si Si7 0.281254 0.408076 0.084222
Si Si8 0.718492 0.404066 0.994827
O O1 0.463509 0.397128 0.512305
O O2 0.751820 0.265456 0.641072
O O3 0.847796 0.616818 0.080735
O O4 0.721264 0.465535 0.189337
O O5 0.500000 0.000000 0.500000
O O6 0.630190 0.814174 0.843581
O O7 0.312749 0.929426 0.804421
O O8 0.680269 0.171886 0.340530
O O9 0.261576 0.235607 0.956581
O O10 0.000000 0.000000 0.500000
O O11 0.136287 0.173586 0.483273
O O12 0.080305 0.878789 0.071514
O O13 0.928722 0.776856 0.110021
O O14 0.780672 0.440899 0.542354
O O15 0.103182 0.469864 0.309543
O O16 0.243262 0.514452 0.033223
O O17 0.507820 0.412336 0.015262
#
# Coordination Sequence:
#
# PCOD9023851 Si02
#       8
#     2   2   2   2   2   2   2   2
#     4  11  22  39  60  87 125 160 195 240 302 360
#     4  11  20  35  60  91 118 149 195 246 294 352
#     4  11  20  34  57  88 124 155 193 248 305 356
#     4  11  22  36  59  87 117 154 202 245 292 355
#     4  11  22  37  59  90 124 157 193 248 310 354
#     4  11  22  37  60  91 120 153 195 252 304 348
#     4  10  23  42  61  83 115 164 204 240 290 351
#     4  10  22  40  62  85 119 156 200 244 291 355
#
# _framework density 22.632531
#
# number of rings (size 3 to 8) (size 9 to 14) (size 15 to 20)
#    0.000    1.250    0.000    9.375    0.000    1.000 
#    0.000    1.250    0.000    8.250    0.000    0.000 
#    0.000    0.000    0.000    0.000    0.000    0.000 
#
# Total GULP energy -89143.841095 kJ/mol
# GULP energy per Si atom -5571.490068 kJ/mol
# Density = 2.258102 g / cm^3
# Si number density = 22.632531 Si / 1000 Ang^3
#
#
#
# Elastic Constant Matrix: (Units=GPa)
#
#
# Indices 1 2 3 4 5 6 
#
# 1 84.3336 26.3330 37.0627 11.8601 8.7321 21.3608
# 2 26.3330 45.2893 27.8344 -1.1075 3.5545 14.5214
# 3 37.0627 27.8344 105.7429 19.0248 -3.2961 12.2549
# 4 11.8601 -1.1075 19.0248 11.7128 1.9281 0.9659
# 5 8.7321 3.5545 -3.2961 1.9281 47.4419 15.9142
# 6 21.3608 14.5214 12.2549 0.9659 15.9142 34.7099
#
#
#
# Elastic Compliance Matrix: (Units=1/GPa)
#
#
# Indices 1 2 3 4 5 6 
#
# 1 0.019542 -0.009607 0.000327 -0.020682 0.000612 -0.007827
# 2 -0.009607 0.037872 -0.011946 0.033415 -0.001215 -0.006087
# 3 0.000327 -0.011946 0.018825 -0.032526 0.004469 -0.002994
# 4 -0.020682 0.033415 -0.032526 0.163265 -0.011227 0.010837
# 5 0.000612 -0.001215 0.004469 -0.011227 0.026239 -0.013164
# 6 -0.007827 -0.006087 -0.002994 0.010837 -0.013164 0.042965
#
#
# Mechanical properties :
#
#
# Convention : Reuss Voigt Hill
#
# Bulk Modulus (GPa) = 29.59784 46.42512 38.01148
# Shear Modulus (GPa) = 13.79601 28.38195 21.08898
#
# Velocity S-wave (km/s) = 2.47162 3.54507 3.05585
# Velocity P-wave (km/s) = 4.60990 6.10851 5.41133
#
# Compressibility (1/GPa) = 0.03378625
#
# Stress axis : x y z
#
# Youngs Moduli (GPa) = 51.17274 26.40443 53.12037
#
# Poissons Ratio (x) = 0.25367 -0.01735
# Poissons Ratio (y) = 0.49163 0.63458
# Poissons Ratio (z) = -0.01672 0.31543
#
# Static dielectric constant tensor:
#      x y z
#    x 1.874330 -0.009020 0.060820 
#    y -0.009020 1.840020 -0.013540 
#    z 0.060820 -0.013540 1.868540 
# 
# From -- ./inp_files/508698.got.cif
#   From: 2010.05.17/outbox.cif.g08.bks.cpg/sg2_255_cif.got.tgz:508698.got - 2010.06.03 11:33:40.
