data_PCOD9023374
_publ_section_title
;
Structure prediction by ZEFSAII (Michael W. Deem and Ramdas Pophale) SiO2 
 PCOD9023374
Probable space group: P -1
;
_chemical_formula_sum "Si O2"
_cell_formula_units_Z 16
_cell_length_a 10.862352
_cell_length_b 14.441734
_cell_length_c 17.106505
_cell_angle_alpha 159.151914
_cell_angle_beta 131.219888
_cell_angle_gamma 49.163435
_cell_volume 711.057061
_symmetry_space_group_name_H-M "P -1"
_symmetry_group_IT_number 2
_symmetry_cell_setting 'triclinic'
loop_
_space_group_symop_operation_xyz
x,y,z
-x,-y,-z
loop_
_atom_site_type_symbol
_atom_site_label
_atom_site_fract_x
_atom_site_fract_y
_atom_site_fract_z
Si Si1 0.104177 0.534952 0.992950
Si Si2 0.881787 0.968684 0.018600
Si Si3 0.796937 0.515465 0.348997
Si Si4 0.531910 0.690465 0.986555
Si Si5 0.367908 0.249489 0.375311
Si Si6 0.432458 0.288670 0.169389
Si Si7 0.965736 0.110437 0.327270
Si Si8 0.922474 0.479280 0.731737
O O1 0.045825 0.368773 0.764721
O O2 0.298214 0.463410 0.031979
O O3 0.000000 0.500000 0.000000
O O4 0.050241 0.830507 0.172735
O O5 0.906330 0.227047 0.182551
O O6 0.850758 0.100858 0.195724
O O7 0.742091 0.843767 0.814391
O O8 0.996358 0.704724 0.888713
O O9 0.631143 0.452830 0.187171
O O10 0.739596 0.649023 0.513789
O O11 0.895367 0.718640 0.507970
O O12 0.553561 0.716067 0.922344
O O13 0.490941 0.982773 0.235585
O O14 0.466003 0.485212 0.579301
O O15 0.243724 0.381769 0.187705
O O16 0.500000 0.000000 0.000000
O O17 0.876994 0.261026 0.481916
#
# Coordination Sequence:
#
# PCOD9023374 Si02
#       8
#     2   2   2   2   2   2   2   2
#     4  11  25  46  65  93 135 173 230 281 325 395
#     4  10  22  40  63  99 134 169 217 272 331 400
#     4  10  22  43  66 100 135 171 222 276 332 402
#     4  10  23  42  66  95 130 175 221 280 328 391
#     4  10  22  39  68  93 133 178 214 269 345 383
#     4  11  23  40  66 100 135 170 220 275 331 408
#     4  11  26  42  67  97 135 178 225 274 333 396
#     4  11  24  40  65  96 130 179 218 270 342 393
#
# _framework density 22.501712000000001
#
# number of rings (size 3 to 8) (size 9 to 14) (size 15 to 20)
#    0.000    1.500    1.250    3.375    1.750   11.000 
#    0.000    1.875    0.000    0.000    0.000    0.000 
#    0.000    0.000    0.000    0.000    0.000    0.000 
#
# Total GULP energy -89398.120946 kJ/mol
# GULP energy per Si atom -5587.382559 kJ/mol
# Density = 2.245050 g / cm^3
# Si number density = 22.501712 Si / 1000 Ang^3
#
#
#
# Elastic Constant Matrix: (Units=GPa)
#
#
# Indices 1 2 3 4 5 6 
#
# 1 80.7551 29.9570 38.0203 2.0278 19.7066 -7.5779
# 2 29.9570 121.5980 41.2850 2.0400 12.5224 -6.3828
# 3 38.0203 41.2850 132.2487 2.7097 10.0593 -3.1087
# 4 2.0278 2.0400 2.7097 35.1171 1.0780 -0.1230
# 5 19.7066 12.5224 10.0593 1.0780 40.4280 0.8681
# 6 -7.5779 -6.3828 -3.1087 -0.1230 0.8681 37.2436
#
#
#
# Elastic Compliance Matrix: (Units=1/GPa)
#
#
# Indices 1 2 3 4 5 6 
#
# 1 0.016751 -0.002061 -0.003588 -0.000355 -0.006687 0.002910
# 2 -0.002061 0.009724 -0.002302 -0.000220 -0.001452 0.001088
# 3 -0.003588 -0.002302 0.009299 -0.000383 0.000166 -0.000354
# 4 -0.000355 -0.000220 -0.000383 0.028552 -0.000424 -0.000038
# 5 -0.006687 -0.001452 0.000166 -0.000424 0.028463 -0.002260
# 6 0.002910 0.001088 -0.000354 -0.000038 -0.002260 0.027652
#
#
# Mechanical properties :
#
#
# Convention : Reuss Voigt Hill
#
# Bulk Modulus (GPa) = 50.32712 61.45851 55.89282
# Shear Modulus (GPa) = 34.97326 37.58037 36.27681
#
# Velocity S-wave (km/s) = 3.94667 4.09113 4.01955
# Velocity P-wave (km/s) = 6.57136 7.04901 6.81437
#
# Compressibility (1/GPa) = 0.01987000
#
# Stress axis : x y z
#
# Youngs Moduli (GPa) = 59.69857 102.84214 107.54232
#
# Poissons Ratio (x) = 0.21198 0.38585
# Poissons Ratio (y) = 0.12305 0.24761
# Poissons Ratio (z) = 0.21419 0.23679
#
# Static dielectric constant tensor:
#      x y z
#    x 1.890120 0.022680 -0.016590 
#    y 0.022680 1.818040 -0.019300 
#    z -0.016590 -0.019300 1.893390 
# 
# From -- ./inp_files/362958.got.cif
#   From: 2010.05.17/outbox.cif.g08.bks.cpg/sg2_182_cif.got.tgz:362958.got - 2010.06.03 11:33:40.
