data_PCOD9023265
_publ_section_title
;
Structure prediction by ZEFSAII (Michael W. Deem and Ramdas Pophale) SiO2 
 PCOD9023265
Probable space group: P -1
;
_chemical_formula_sum "Si O2"
_cell_formula_units_Z 14
_cell_length_a 25.811618
_cell_length_b 18.973635
_cell_length_c 12.727037
_cell_angle_alpha 150.853868
_cell_angle_beta 18.866276
_cell_angle_gamma 162.560909
_cell_volume 575.555346
_symmetry_space_group_name_H-M "P -1"
_symmetry_group_IT_number 2
_symmetry_cell_setting 'triclinic'
loop_
_space_group_symop_operation_xyz
x,y,z
-x,-y,-z
loop_
_atom_site_type_symbol
_atom_site_label
_atom_site_fract_x
_atom_site_fract_y
_atom_site_fract_z
Si Si1 0.326402 0.910608 0.115721
Si Si2 0.027191 0.009619 0.638925
Si Si3 0.809256 0.855948 0.279784
Si Si4 0.411227 0.446950 0.356283
Si Si5 0.299771 0.621197 0.387204
Si Si6 0.631562 0.013194 0.092256
Si Si7 0.748140 0.517104 0.479758
O O1 0.027031 0.619698 0.309415
O O2 0.267679 0.037046 0.406889
O O3 0.457939 0.983121 0.842087
O O4 0.500000 0.000000 0.000000
O O5 0.038842 0.085913 0.831044
O O6 0.093283 0.172395 0.632745
O O7 0.288796 0.094714 0.232073
O O8 0.791672 0.718029 0.696410
O O9 0.545984 0.579635 0.382557
O O10 0.000000 0.000000 0.000000
O O11 0.406552 0.579480 0.458579
O O12 0.585003 0.447470 0.968252
O O13 0.369879 0.662206 0.430815
O O14 0.427846 0.839800 0.353415
O O15 0.934726 0.294786 0.904061
#
# Coordination Sequence:
#
# PCOD9023265 Si02
#       7
#     2   2   2   2   2   2   2
#     4  10  20  36  53  74 102 138 176 209 247 309
#     4   8  17  30  46  71 106 139 161 203 256 306
#     4  11  19  33  48  77 106 133 166 213 264 295
#     4  11  18  28  51  76 110 133 165 211 263 298
#     4  10  17  31  52  74 102 136 171 212 246 302
#     4   7  17  31  50  74  99 131 174 209 249 292
#     4   9  17  30  47  78 107 135 169 205 252 309
#
# _framework density 24.324334
#
# number of rings (size 3 to 8) (size 9 to 14) (size 15 to 20)
#    0.857    1.714    2.857    1.286    0.000    0.571 
#    0.000    0.000    0.000    3.429    0.000    2.000 
#    0.000    0.000    0.000    0.000    0.000    0.000 
#
# Total GULP energy -78079.733206 kJ/mol
# GULP energy per Si atom -5577.123800 kJ/mol
# Density = 2.426897 g / cm^3
# Si number density = 24.324334 Si / 1000 Ang^3
#
#
#
# Elastic Constant Matrix: (Units=GPa)
#
#
# Indices 1 2 3 4 5 6 
#
# 1 153.4732 42.4857 35.8158 -6.2530 4.4704 -13.0012
# 2 42.4857 76.3870 40.0243 -19.8544 23.5970 -5.9583
# 3 35.8158 40.0243 38.2198 -8.2120 9.9261 -13.2569
# 4 -6.2530 -19.8544 -8.2120 26.3478 -0.0122 15.1407
# 5 4.4704 23.5970 9.9261 -0.0122 30.1381 -2.0339
# 6 -13.0012 -5.9583 -13.2569 15.1407 -2.0339 49.1273
#
#
#
# Elastic Compliance Matrix: (Units=1/GPa)
#
#
# Indices 1 2 3 4 5 6 
#
# 1 0.008727 -0.004350 -0.004790 -0.003731 0.003809 0.001797
# 2 -0.004350 0.059891 -0.048954 0.040898 -0.031525 -0.021007
# 3 -0.004790 -0.048954 0.080704 -0.026217 0.014017 0.023233
# 4 -0.003731 0.040898 -0.026217 0.075433 -0.024650 -0.027370
# 5 0.003809 -0.031525 0.014017 -0.024650 0.053399 0.010775
# 6 0.001797 -0.021007 0.023233 -0.027370 0.010775 0.033434
#
#
# Mechanical properties :
#
#
# Convention : Reuss Voigt Hill
#
# Bulk Modulus (GPa) = 30.18095 56.08129 43.13112
# Shear Modulus (GPa) = 11.39417 31.10625 21.25021
#
# Velocity S-wave (km/s) = 2.16666 3.57993 2.95891
# Velocity P-wave (km/s) = 4.32364 6.33984 5.42621
#
# Compressibility (1/GPa) = 0.03313348
#
# Stress axis : x y z
#
# Youngs Moduli (GPa) = 114.58401 16.69696 12.39100
#
# Poissons Ratio (x) = 0.07264 0.05936
# Poissons Ratio (y) = 0.49847 0.60659
# Poissons Ratio (z) = 0.54888 0.81738
#
# Static dielectric constant tensor:
#      x y z
#    x 1.799820 0.052050 -0.065770 
#    y 0.052050 2.027270 -0.014240 
#    z -0.065770 -0.014240 1.967810 
# 
# From -- ./inp_files/310724.got.cif
#   From: 2010.05.17/outbox.cif.g08.bks.cpg/sg2_156_cif.got.tgz:310724.got - 2010.06.03 11:33:40.
