data_PCOD9023282
_publ_section_title
;
Structure prediction by ZEFSAII (Michael W. Deem and Ramdas Pophale) SiO2 
 PCOD9023282
Probable space group: P -1
;
_chemical_formula_sum "Si O2"
_cell_formula_units_Z 10
_cell_length_a 12.707548
_cell_length_b 10.649180
_cell_length_c 6.857628
_cell_angle_alpha 66.393188
_cell_angle_beta 63.737359
_cell_angle_gamma 34.689925
_cell_volume 472.421367
_symmetry_space_group_name_H-M "P -1"
_symmetry_group_IT_number 2
_symmetry_cell_setting 'triclinic'
loop_
_space_group_symop_operation_xyz
x,y,z
-x,-y,-z
loop_
_atom_site_type_symbol
_atom_site_label
_atom_site_fract_x
_atom_site_fract_y
_atom_site_fract_z
Si Si1 0.194988 0.734614 0.120987
Si Si2 0.722571 0.813443 0.406124
Si Si3 0.508165 0.550006 0.247003
Si Si4 0.803345 0.971357 0.923169
Si Si5 0.998279 0.688081 0.558291
O O1 0.385658 0.555602 0.213292
O O2 0.129665 0.951436 0.069034
O O3 0.055898 0.755187 0.319998
O O4 0.283880 0.626943 0.903698
O O5 0.828119 0.576762 0.407725
O O6 0.822187 0.771060 0.551380
O O7 0.500000 0.000000 0.500000
O O8 0.765130 0.887140 0.159828
O O9 0.500000 0.500000 0.500000
O O10 0.391683 0.797432 0.162143
O O11 0.942002 0.798918 0.744683
#
# Coordination Sequence:
#
# PCOD9023282 Si02
#       5
#     2   2   2   2   2
#     4   9  21  39  64  98 129 162 216 266 322 382
#     4  11  26  44  65  91 135 175 216 264 317 387
#     4   9  20  36  63  99 132 166 205 265 326 378
#     4  10  22  39  67  96 127 170 215 267 321 382
#     4  11  24  43  68  96 130 172 214 266 326 379
#
# _framework density 21.167543999999999
#
# number of rings (size 3 to 8) (size 9 to 14) (size 15 to 20)
#    1.200    0.800    0.000    2.400    2.800    3.200 
#    0.000    0.000    0.000    0.000    0.000    0.000 
#    0.000    0.000    0.000    0.000    0.000    0.000 
#
# Total GULP energy -55851.977737 kJ/mol
# GULP energy per Si atom -5585.197774 kJ/mol
# Density = 2.111937 g / cm^3
# Si number density = 21.167544 Si / 1000 Ang^3
#
#
#
# Elastic Constant Matrix: (Units=GPa)
#
#
# Indices 1 2 3 4 5 6 
#
# 1 58.8893 65.1687 38.7284 16.9016 -20.3502 8.2152
# 2 65.1687 173.8901 82.2379 10.8478 -12.3988 14.0428
# 3 38.7284 82.2379 157.2251 4.3495 -11.9521 21.7196
# 4 16.9016 10.8478 4.3495 44.0607 3.5102 -2.2733
# 5 -20.3502 -12.3988 -11.9521 3.5102 33.0114 -2.8760
# 6 8.2152 14.0428 21.7196 -2.2733 -2.8760 41.3747
#
#
#
# Elastic Compliance Matrix: (Units=1/GPa)
#
#
# Indices 1 2 3 4 5 6 
#
# 1 0.047120 -0.013855 -0.001601 -0.016635 0.024771 -0.003005
# 2 -0.013855 0.011919 -0.003371 0.003173 -0.005600 0.000260
# 3 -0.001601 -0.003371 0.009003 0.000335 0.000692 -0.003197
# 4 -0.016635 0.003173 0.000335 0.029351 -0.011815 0.002841
# 5 0.024771 -0.005600 0.000692 -0.011815 0.044887 -0.000910
# 6 -0.003005 0.000260 -0.003197 0.002841 -0.000910 0.026449
#
#
# Mechanical properties :
#
#
# Convention : Reuss Voigt Hill
#
# Bulk Modulus (GPa) = 32.90847 84.69717 58.80282
# Shear Modulus (GPa) = 23.09316 37.28064 30.18690
#
# Velocity S-wave (km/s) = 3.30657 4.20124 3.78046
# Velocity P-wave (km/s) = 5.49165 7.97706 6.84806
#
# Compressibility (1/GPa) = 0.03038732
#
# Stress axis : x y z
#
# Youngs Moduli (GPa) = 21.22225 83.89728 111.07337
#
# Poissons Ratio (x) = 1.16242 0.17788
# Poissons Ratio (y) = 0.29404 0.37443
# Poissons Ratio (z) = 0.03399 0.28282
#
# Static dielectric constant tensor:
#      x y z
#    x 1.816400 -0.055600 0.042230 
#    y -0.055600 1.807000 -0.026220 
#    z 0.042230 -0.026220 1.716250 
# 
# From -- ./inp_files/79519.got.cif
#   From: 2010.05.17/outbox.cif.g08.bks.cpg/sg2_40_cif.got.tgz:79519.got - 2010.06.03 11:33:40.
