data_PCOD9023883
_publ_section_title
;
Structure prediction by ZEFSAII (Michael W. Deem and Ramdas Pophale) SiO2 
 PCOD9023883
Probable space group: P -1
;
_chemical_formula_sum "Si O2"
_cell_formula_units_Z 12
_cell_length_a 11.198104
_cell_length_b 12.506625
_cell_length_c 8.787633
_cell_angle_alpha 47.658725
_cell_angle_beta 78.374132
_cell_angle_gamma 46.906342
_cell_volume 583.047915
_symmetry_space_group_name_H-M "P -1"
_symmetry_group_IT_number 2
_symmetry_cell_setting 'triclinic'
loop_
_space_group_symop_operation_xyz
x,y,z
-x,-y,-z
loop_
_atom_site_type_symbol
_atom_site_label
_atom_site_fract_x
_atom_site_fract_y
_atom_site_fract_z
Si Si1 0.848123 0.942151 0.378423
Si Si2 0.158750 0.803664 0.266976
Si Si3 0.211243 0.261648 0.213144
Si Si4 0.865497 0.942337 0.715405
Si Si5 0.699710 0.503492 0.989625
Si Si6 0.568261 0.421019 0.842174
O O1 0.793470 0.827780 0.544362
O O2 0.858176 0.005238 0.483223
O O3 0.049423 0.773572 0.409903
O O4 0.702330 0.168620 0.105977
O O5 0.193907 0.898672 0.289071
O O6 0.344337 0.607592 0.311459
O O7 0.000000 0.000000 0.000000
O O8 0.250256 0.104040 0.226410
O O9 0.328791 0.301073 0.160613
O O10 0.000000 0.500000 0.000000
O O11 0.084377 0.711561 0.902148
O O12 0.587825 0.535807 0.845654
O O13 0.631575 0.473499 0.182397
#
# Coordination Sequence:
#
# PCOD9023883 Si02
#       6
#     2   2   2   2   2   2
#     4   9  18  32  56  77  91 141 176 200 240 310
#     4  10  17  31  52  81  99 129 172 210 243 300
#     4   8  18  31  55  75  97 133 174 209 239 300
#     4   9  17  32  58  71  94 135 178 200 237 302
#     4  10  18  35  50  77 106 133 163 208 262 289
#     4  10  21  31  55  76 108 130 162 214 256 294
#
# _framework density 20.581498
#
# number of rings (size 3 to 8) (size 9 to 14) (size 15 to 20)
#    1.000    1.667    3.333    0.500    0.000    0.667 
#    0.000    2.500    0.000    0.000    0.000    0.000 
#    0.000    0.000    0.000    0.000    0.000    0.000 
#
# Total GULP energy -66805.507337 kJ/mol
# GULP energy per Si atom -5567.125611 kJ/mol
# Density = 2.053465 g / cm^3
# Si number density = 20.581498 Si / 1000 Ang^3
#
#
#
# Elastic Constant Matrix: (Units=GPa)
#
#
# Indices 1 2 3 4 5 6 
#
# 1 134.5246 49.1601 24.1096 3.1873 -34.6251 8.2171
# 2 49.1601 95.8992 8.1601 23.3551 -15.3616 -8.4540
# 3 24.1096 8.1601 47.8028 -2.1714 -2.5965 0.9896
# 4 3.1873 23.3551 -2.1714 22.8952 0.7276 -2.9061
# 5 -34.6251 -15.3616 -2.5965 0.7276 24.5776 -3.1758
# 6 8.2171 -8.4540 0.9896 -2.9061 -3.1758 20.9415
#
#
#
# Elastic Compliance Matrix: (Units=1/GPa)
#
#
# Indices 1 2 3 4 5 6 
#
# 1 0.014845 -0.005420 -0.005494 0.001785 0.016241 -0.005043
# 2 -0.005420 0.019505 -0.001277 -0.018386 0.006054 0.008428
# 3 -0.005494 -0.001277 0.023777 0.004545 -0.006133 0.000217
# 4 0.001785 -0.018386 0.004545 0.062795 -0.010513 -0.001218
# 5 0.016241 0.006054 -0.006133 -0.010513 0.067683 0.005166
# 6 -0.005043 0.008428 0.000217 -0.001218 0.005166 0.053737
#
#
# Mechanical properties :
#
#
# Convention : Reuss Voigt Hill
#
# Bulk Modulus (GPa) = 29.63403 49.00959 39.32181
# Shear Modulus (GPa) = 17.98739 26.80264 22.39502
#
# Velocity S-wave (km/s) = 2.95949 3.61261 3.30224
# Velocity P-wave (km/s) = 5.10957 6.42382 5.80401
#
# Compressibility (1/GPa) = 0.03374499
#
# Stress axis : x y z
#
# Youngs Moduli (GPa) = 67.36286 51.26870 42.05717
#
# Poissons Ratio (x) = 0.27788 0.23107
# Poissons Ratio (y) = 0.36511 0.05370
# Poissons Ratio (z) = 0.37011 0.06546
#
# Static dielectric constant tensor:
#      x y z
#    x 1.787360 -0.024190 0.028610 
#    y -0.024190 1.744400 -0.030010 
#    z 0.028610 -0.030010 1.803440 
# 
# From -- ./inp_files/251965.got.cif
#   From: 2010.05.17/outbox.cif.g08.bks.cpg/sg2_126_cif.got.tgz:251965.got - 2010.06.03 11:33:40.
