data_PCOD9023314
_publ_section_title
;
Structure prediction by ZEFSAII (Michael W. Deem and Ramdas Pophale) SiO2 
 PCOD9023314
Probable space group: P -1
;
_chemical_formula_sum "Si O2"
_cell_formula_units_Z 14
_cell_length_a 7.563210
_cell_length_b 15.824872
_cell_length_c 14.401579
_cell_angle_alpha 28.102820
_cell_angle_beta 61.168132
_cell_angle_gamma 79.263013
_cell_volume 579.752266
_symmetry_space_group_name_H-M "P -1"
_symmetry_group_IT_number 2
_symmetry_cell_setting 'triclinic'
loop_
_space_group_symop_operation_xyz
x,y,z
-x,-y,-z
loop_
_atom_site_type_symbol
_atom_site_label
_atom_site_fract_x
_atom_site_fract_y
_atom_site_fract_z
Si Si1 0.635226 0.780904 0.958491
Si Si2 0.606824 0.828438 0.532561
Si Si3 0.938460 0.454259 0.667215
Si Si4 0.834691 0.994047 0.130219
Si Si5 0.276573 0.794060 0.404235
Si Si6 0.147678 0.452500 0.911366
Si Si7 0.292130 0.007456 0.456071
O O1 0.699458 0.980091 0.814718
O O2 0.748224 0.898819 0.716260
O O3 0.340105 0.616451 0.179850
O O4 0.751706 0.652039 0.080964
O O5 0.795074 0.880919 0.350507
O O6 0.363577 0.592804 0.795543
O O7 0.531448 0.003258 0.378203
O O8 0.681386 0.850776 0.598699
O O9 0.000000 0.500000 0.500000
O O10 0.143562 0.659902 0.476017
O O11 0.934313 0.240534 0.893467
O O12 0.556429 0.870447 0.278650
O O13 0.000000 0.000000 0.000000
O O14 0.122637 0.621485 0.694960
O O15 0.909637 0.245408 0.219799
#
# Coordination Sequence:
#
# PCOD9023314 Si02
#       7
#     2   2   2   2   2   2   2
#     4  11  25  43  65 104 135 168 232 276 325 410
#     4  10  22  39  67  99 132 181 214 274 338 393
#     4  11  25  45  67  95 136 178 221 282 340 393
#     4  10  22  44  68 101 133 169 233 276 321 406
#     4  10  24  47  67  97 135 179 219 276 345 392
#     4  11  23  40  70  96 130 179 220 267 340 401
#     4  11  21  41  65  98 141 170 223 272 333 399
#
# _framework density 24.148246
#
# number of rings (size 3 to 8) (size 9 to 14) (size 15 to 20)
#    0.000    1.429    4.286    1.714    6.000    4.571 
#    5.143    0.000    0.000    0.000    0.000    0.000 
#    0.000    0.000    0.000    0.000    0.000    0.000 
#
# Total GULP energy -78336.236272 kJ/mol
# GULP energy per Si atom -5595.445448 kJ/mol
# Density = 2.409328 g / cm^3
# Si number density = 24.148246 Si / 1000 Ang^3
#
#
#
# Elastic Constant Matrix: (Units=GPa)
#
#
# Indices 1 2 3 4 5 6 
#
# 1 53.8747 36.6530 10.2868 -10.4122 -15.1087 7.3151
# 2 36.6530 156.4971 52.1573 -4.6750 -30.2016 16.5145
# 3 10.2868 52.1573 79.4758 -18.5899 -16.2711 17.1596
# 4 -10.4122 -4.6750 -18.5899 41.2831 -3.5955 -9.5957
# 5 -15.1087 -30.2016 -16.2711 -3.5955 25.6916 -14.6548
# 6 7.3151 16.5145 17.1596 -9.5957 -14.6548 53.9152
#
#
#
# Elastic Compliance Matrix: (Units=1/GPa)
#
#
# Indices 1 2 3 4 5 6 
#
# 1 0.027165 -0.004787 0.004890 0.010530 0.016372 0.002548
# 2 -0.004787 0.010388 -0.005539 -0.001895 0.005908 0.000499
# 3 0.004890 -0.005539 0.020294 0.010453 0.010233 -0.000784
# 4 0.010530 -0.001895 0.010453 0.034793 0.019652 0.007359
# 5 0.016372 0.005908 0.010233 0.019652 0.074046 0.016336
# 6 0.002548 0.000499 -0.000784 0.007359 0.016336 0.024049
#
#
# Mechanical properties :
#
#
# Convention : Reuss Voigt Hill
#
# Bulk Modulus (GPa) = 21.28787 54.22688 37.75738
# Shear Modulus (GPa) = 23.01338 36.89469 29.95403
#
# Velocity S-wave (km/s) = 3.09043 3.91300 3.52578
# Velocity P-wave (km/s) = 4.64424 6.55134 5.67842
#
# Compressibility (1/GPa) = 0.04697510
#
# Stress axis : x y z
#
# Youngs Moduli (GPa) = 36.81211 96.26546 49.27571
#
# Poissons Ratio (x) = 0.46080 -0.24096
# Poissons Ratio (y) = 0.17621 0.27294
# Poissons Ratio (z) = -0.18001 0.53322
#
# Static dielectric constant tensor:
#      x y z
#    x 2.113640 -0.070500 0.069980 
#    y -0.070500 1.969830 -0.019510 
#    z 0.069980 -0.019510 1.977650 
# 
# From -- ./inp_files/417471.got.cif
#   From: 2010.05.17/outbox.cif.g08.bks.cpg/sg2_209_cif.got.tgz:417471.got - 2010.06.03 11:33:40.
