data_PCOD9023245
_publ_section_title
;
Structure prediction by ZEFSAII (Michael W. Deem and Ramdas Pophale) SiO2 
 PCOD9023245
Probable space group: P -1
;
_chemical_formula_sum "Si O2"
_cell_formula_units_Z 16
_cell_length_a 11.908058
_cell_length_b 11.855431
_cell_length_c 12.214610
_cell_angle_alpha 144.511548
_cell_angle_beta 48.657168
_cell_angle_gamma 131.746478
_cell_volume 718.449163
_symmetry_space_group_name_H-M "P -1"
_symmetry_group_IT_number 2
_symmetry_cell_setting 'triclinic'
loop_
_space_group_symop_operation_xyz
x,y,z
-x,-y,-z
loop_
_atom_site_type_symbol
_atom_site_label
_atom_site_fract_x
_atom_site_fract_y
_atom_site_fract_z
Si Si1 0.542519 0.722558 0.266810
Si Si2 0.630231 0.987198 0.992493
Si Si3 0.947651 0.222276 0.897609
Si Si4 0.258401 0.527850 0.142285
Si Si5 0.623179 0.074964 0.313541
Si Si6 0.986217 0.226158 0.212038
Si Si7 0.936565 0.323689 0.745738
Si Si8 0.892927 0.792715 0.647186
O O1 0.379133 0.596033 0.217283
O O2 0.496558 0.807017 0.475471
O O3 0.612521 0.902831 0.276608
O O4 0.656842 0.584180 0.085107
O O5 0.777060 0.185727 0.031825
O O6 0.583864 0.984703 0.146727
O O7 0.500000 0.000000 0.000000
O O8 0.716804 0.811286 0.780871
O O9 0.044627 0.448841 0.042365
O O10 0.928953 0.194416 0.757074
O O11 0.997685 0.031553 0.759612
O O12 0.216889 0.717014 0.263059
O O13 0.099863 0.377909 0.174885
O O14 0.804583 0.210562 0.304318
O O15 0.051758 0.286012 0.339336
O O16 0.000000 0.000000 0.000000
O O17 0.072995 0.312771 0.567260
#
# Coordination Sequence:
#
# PCOD9023245 Si02
#       8
#     2   2   2   2   2   2   2   2
#     4  10  24  39  60  98 132 164 203 267 333 384
#     4  10  22  41  61  87 127 170 210 256 306 384
#     4   9  23  41  61  90 125 161 218 261 302 377
#     4  11  23  40  62  97 131 160 209 272 325 380
#     4  11  22  42  65  93 128 173 214 254 328 387
#     4  12  20  40  68  93 127 168 212 270 317 380
#     4  11  21  41  65  92 125 161 214 266 316 374
#     4  10  22  39  67  93 121 167 212 264 319 370
#
# _framework density 22.270191000000001
#
# number of rings (size 3 to 8) (size 9 to 14) (size 15 to 20)
#    0.750    0.750    2.500    2.625    1.750    3.000 
#    4.500    0.625    0.000    0.000    0.000    0.000 
#    0.000    0.000    0.000    0.000    0.000    0.000 
#
# Total GULP energy -89369.388309 kJ/mol
# GULP energy per Si atom -5585.586769 kJ/mol
# Density = 2.221950 g / cm^3
# Si number density = 22.270191 Si / 1000 Ang^3
#
#
#
# Elastic Constant Matrix: (Units=GPa)
#
#
# Indices 1 2 3 4 5 6 
#
# 1 84.4254 28.3671 35.4338 -19.7350 -13.9368 -18.8927
# 2 28.3671 59.2423 15.8967 -22.2320 0.4037 0.6032
# 3 35.4338 15.8967 144.1666 -35.4190 -2.2755 -17.4673
# 4 -19.7350 -22.2320 -35.4190 36.5504 -1.2809 10.3036
# 5 -13.9368 0.4037 -2.2755 -1.2809 20.4744 -6.0026
# 6 -18.8927 0.6032 -17.4673 10.3036 -6.0026 38.3778
#
#
#
# Elastic Compliance Matrix: (Units=1/GPa)
#
#
# Indices 1 2 3 4 5 6 
#
# 1 0.022425 -0.010101 -0.002360 0.000704 0.019031 0.012912
# 2 -0.010101 0.027169 0.001913 0.015455 -0.009198 -0.010117
# 3 -0.002360 0.001913 0.009615 0.008987 0.000223 0.000806
# 4 0.000704 0.015455 0.008987 0.048307 0.001701 -0.008510
# 5 0.019031 -0.009198 0.000223 0.001701 0.067907 0.019779
# 6 0.012912 -0.010117 0.000806 -0.008510 0.019779 0.038317
#
#
# Mechanical properties :
#
#
# Convention : Reuss Voigt Hill
#
# Bulk Modulus (GPa) = 26.23902 49.69216 37.96559
# Shear Modulus (GPa) = 20.19871 32.95630 26.57750
#
# Velocity S-wave (km/s) = 3.01488 3.85104 3.45833
# Velocity P-wave (km/s) = 4.89153 6.49121 5.74730
#
# Compressibility (1/GPa) = 0.03811118
#
# Stress axis : x y z
#
# Youngs Moduli (GPa) = 44.59329 36.80682 104.00791
#
# Poissons Ratio (x) = 0.37180 0.24547
# Poissons Ratio (y) = 0.45046 -0.19896
# Poissons Ratio (z) = 0.10525 -0.07041
#
# Static dielectric constant tensor:
#      x y z
#    x 1.889890 -0.022720 0.028070 
#    y -0.022720 1.855160 0.031140 
#    z 0.028070 0.031140 1.852580 
# 
# From -- ./inp_files/429029.got.cif
#   From: 2010.05.17/outbox.cif.g08.bks.cpg/sg2_215_cif.got.tgz:429029.got - 2010.06.03 11:33:40.
