data_PCOD9023760
_publ_section_title
;
Structure prediction by ZEFSAII (Michael W. Deem and Ramdas Pophale) SiO2 
 PCOD9023760
Probable space group: P -1
;
_chemical_formula_sum "Si O2"
_cell_formula_units_Z 16
_cell_length_a 12.251028
_cell_length_b 11.672590
_cell_length_c 6.575413
_cell_angle_alpha 105.269615
_cell_angle_beta 95.339997
_cell_angle_gamma 118.081216
_cell_volume 773.858105
_symmetry_space_group_name_H-M "P -1"
_symmetry_group_IT_number 2
_symmetry_cell_setting 'triclinic'
loop_
_space_group_symop_operation_xyz
x,y,z
-x,-y,-z
loop_
_atom_site_type_symbol
_atom_site_label
_atom_site_fract_x
_atom_site_fract_y
_atom_site_fract_z
Si Si1 0.868942 0.588820 0.998270
Si Si2 0.950056 0.412336 0.654562
Si Si3 0.697889 0.119800 0.535397
Si Si4 0.966100 0.897650 0.135076
Si Si5 0.548761 0.959676 0.792219
Si Si6 0.396754 0.276281 0.384290
Si Si7 0.586435 0.504359 0.829072
Si Si8 0.799352 0.925410 0.445546
O O1 0.907029 0.498024 0.827448
O O2 0.717270 0.521767 0.942939
O O3 0.930871 0.744590 0.996733
O O4 0.934745 0.598231 0.229936
O O5 0.825692 0.258403 0.556070
O O6 0.000000 0.500000 0.500000
O O7 0.574295 0.109014 0.408559
O O8 0.664695 0.091995 0.757370
O O9 0.711234 0.989397 0.411275
O O10 0.849372 0.889250 0.237378
O O11 0.082281 0.960384 0.346291
O O12 0.000000 0.000000 0.000000
O O13 0.588819 0.845450 0.769500
O O14 0.500000 0.000000 0.000000
O O15 0.512622 0.373284 0.603197
O O16 0.385058 0.367450 0.251152
O O17 0.275342 0.204374 0.479000
O O18 0.500000 0.500000 0.000000
#
# Coordination Sequence:
#
# PCOD9023760 Si02
#       8
#     2   2   2   2   2   2   2   2
#     4  11  25  43  64 101 129 172 232 264 330 407
#     4  11  26  44  67  93 140 182 217 279 333 403
#     4  10  22  43  62  96 130 171 224 273 328 399
#     4  11  23  38  66  94 124 167 212 269 323 394
#     4  10  23  40  69  93 130 173 222 277 332 393
#     4  10  23  42  62  98 129 174 215 276 337 388
#     4  11  24  42  70  95 135 172 227 282 333 406
#     4  10  22  40  61  89 132 162 211 272 325 382
#
# _framework density 20.675625
#
# number of rings (size 3 to 8) (size 9 to 14) (size 15 to 20)
#    0.000    1.500    1.250    2.250    1.750   13.000 
#    0.000    0.000    0.000    0.000    0.000    0.000 
#    0.000    0.000    0.000    0.000    0.000    0.000 
#
# Total GULP energy -89418.587398 kJ/mol
# GULP energy per Si atom -5588.661712 kJ/mol
# Density = 2.062857 g / cm^3
# Si number density = 20.675625 Si / 1000 Ang^3
#
#
#
# Elastic Constant Matrix: (Units=GPa)
#
#
# Indices 1 2 3 4 5 6 
#
# 1 106.4825 29.0321 26.8783 -18.5782 0.3667 11.0422
# 2 29.0321 114.4831 39.6013 -25.0374 -11.7442 12.1972
# 3 26.8783 39.6013 59.0370 -19.1848 -11.4634 4.8076
# 4 -18.5782 -25.0374 -19.1848 31.4862 9.5818 -2.7443
# 5 0.3667 -11.7442 -11.4634 9.5818 31.9479 3.1952
# 6 11.0422 12.1972 4.8076 -2.7443 3.1952 32.7876
#
#
#
# Elastic Compliance Matrix: (Units=1/GPa)
#
#
# Indices 1 2 3 4 5 6 
#
# 1 0.011584 -0.000677 -0.003637 0.004740 -0.002864 -0.002440
# 2 -0.000677 0.012592 -0.005888 0.005363 0.001242 -0.003265
# 3 -0.003637 -0.005888 0.025952 0.007446 0.004981 -0.000252
# 4 0.004740 0.005363 0.007446 0.046188 -0.009272 0.000086
# 5 -0.002864 0.001242 0.004981 -0.009272 0.036818 -0.004592
# 6 -0.002440 -0.003265 -0.000252 0.000086 -0.004592 0.033027
#
#
# Mechanical properties :
#
#
# Convention : Reuss Voigt Hill
#
# Bulk Modulus (GPa) = 33.64447 52.33620 42.99034
# Shear Modulus (GPa) = 25.44897 31.54371 28.49634
#
# Velocity S-wave (km/s) = 3.51218 3.91019 3.71652
# Velocity P-wave (km/s) = 5.72320 6.76418 6.26535
#
# Compressibility (1/GPa) = 0.02972256
#
# Stress axis : x y z
#
# Youngs Moduli (GPa) = 86.32877 79.41851 38.53295
#
# Poissons Ratio (x) = 0.05374 0.14015
# Poissons Ratio (y) = 0.05842 0.22690
# Poissons Ratio (z) = 0.31399 0.46765
#
# Static dielectric constant tensor:
#      x y z
#    x 1.742550 0.015530 0.021200 
#    y 0.015530 1.715170 0.020680 
#    z 0.021200 0.020680 1.744600 
# 
# From -- ./inp_files/69988.got.cif
#   From: 2010.05.17/outbox.cif.g08.bks.cpg/sg2_35_cif.got.tgz:69988.got - 2010.06.03 11:33:40.
