data_PCOD9023804
_publ_section_title
;
Structure prediction by ZEFSAII (Michael W. Deem and Ramdas Pophale) SiO2 
 PCOD9023804
Probable space group: P -1
;
_chemical_formula_sum "Si O2"
_cell_formula_units_Z 16
_cell_length_a 15.611535
_cell_length_b 12.583290
_cell_length_c 9.266421
_cell_angle_alpha 48.837527
_cell_angle_beta 82.961941
_cell_angle_gamma 44.361177
_cell_volume 718.821972
_symmetry_space_group_name_H-M "P -1"
_symmetry_group_IT_number 2
_symmetry_cell_setting 'triclinic'
loop_
_space_group_symop_operation_xyz
x,y,z
-x,-y,-z
loop_
_atom_site_type_symbol
_atom_site_label
_atom_site_fract_x
_atom_site_fract_y
_atom_site_fract_z
Si Si1 0.775233 0.244322 0.940067
Si Si2 0.267459 0.571186 0.751503
Si Si3 0.617964 0.990448 0.224469
Si Si4 0.848169 0.439031 0.678199
Si Si5 0.967122 0.286135 0.481363
Si Si6 0.865365 0.741432 0.141164
Si Si7 0.533385 0.616719 0.866837
Si Si8 0.690398 0.241457 0.652395
O O1 0.871461 0.258109 0.911830
O O2 0.770460 0.187714 0.832211
O O3 0.591651 0.542342 0.757601
O O4 0.857910 0.012906 0.233478
O O5 0.108488 0.698038 0.647184
O O6 0.305571 0.561041 0.916511
O O7 0.271684 0.704497 0.532931
O O8 0.435063 0.252672 0.963628
O O9 0.677559 0.752235 0.464992
O O10 0.745237 0.874498 0.183281
O O11 0.603863 0.101739 0.275203
O O12 0.855750 0.398872 0.542123
O O13 0.983186 0.370510 0.743650
O O14 0.937708 0.494203 0.287465
O O15 0.760807 0.987106 0.838731
O O16 0.500000 0.500000 0.000000
O O17 0.500000 0.500000 0.500000
#
# Coordination Sequence:
#
# PCOD9023804 Si02
#       8
#     2   2   2   2   2   2   2   2
#     4  12  24  40  66  93 127 166 210 257 312 376
#     4  10  22  40  61  94 126 161 208 261 309 373
#     4   9  21  39  60  92 126 163 209 247 318 367
#     4  11  22  37  65  94 126 162 211 265 306 365
#     4  11  22  38  63  95 127 162 210 258 320 363
#     4  11  22  36  65  95 126 164 204 270 307 368
#     4  10  23  42  64  89 127 172 205 247 320 386
#     4  12  21  37  63  97 122 152 214 264 307 362
#
# _framework density 22.258641000000001
#
# number of rings (size 3 to 8) (size 9 to 14) (size 15 to 20)
#    0.750    0.500    3.750    4.125    1.750    4.000 
#    0.000    0.000    0.000    1.500    0.000    0.000 
#    0.000    0.000    0.000    0.000    0.000    0.000 
#
# Total GULP energy -89234.318923 kJ/mol
# GULP energy per Si atom -5577.144933 kJ/mol
# Density = 2.220798 g / cm^3
# Si number density = 22.258641 Si / 1000 Ang^3
#
#
#
# Elastic Constant Matrix: (Units=GPa)
#
#
# Indices 1 2 3 4 5 6 
#
# 1 84.0990 -1.4937 20.6826 -8.4956 -11.5288 12.0782
# 2 -1.4937 62.9434 2.8488 -15.3792 -16.4818 8.7364
# 3 20.6826 2.8488 93.1275 -31.0376 -14.1825 10.2515
# 4 -8.4956 -15.3792 -31.0376 28.7592 11.1699 -1.4395
# 5 -11.5288 -16.4818 -14.1825 11.1699 31.5687 -7.2582
# 6 12.0782 8.7364 10.2515 -1.4395 -7.2582 25.9457
#
#
#
# Elastic Compliance Matrix: (Units=1/GPa)
#
#
# Indices 1 2 3 4 5 6 
#
# 1 0.013816 0.002826 -0.001041 0.002718 0.003765 -0.005768
# 2 0.002826 0.022932 0.006247 0.016260 0.008144 -0.008325
# 3 -0.001041 0.006247 0.019580 0.023100 0.001761 -0.007581
# 4 0.002718 0.016260 0.023100 0.071936 -0.008896 -0.014365
# 5 0.003765 0.008144 0.001761 -0.008896 0.042681 0.006255
# 6 -0.005768 -0.008325 -0.007581 -0.014365 0.006255 0.047978
#
#
# Mechanical properties :
#
#
# Convention : Reuss Voigt Hill
#
# Bulk Modulus (GPa) = 13.81377 31.58280 22.69828
# Shear Modulus (GPa) = 22.02735 31.79687 26.91211
#
# Velocity S-wave (km/s) = 3.14922 3.78367 3.48093
# Velocity P-wave (km/s) = 4.40941 5.77131 5.13571
#
# Compressibility (1/GPa) = 0.07239156
#
# Stress axis : x y z
#
# Youngs Moduli (GPa) = 72.38001 43.60643 51.07350
#
# Poissons Ratio (x) = -0.12322 0.05314
# Poissons Ratio (y) = -0.20452 -0.31904
# Poissons Ratio (z) = 0.07531 -0.27240
#
# Static dielectric constant tensor:
#      x y z
#    x 1.869510 -0.006390 0.040660 
#    y -0.006390 1.825760 -0.029080 
#    z 0.040660 -0.029080 1.876980 
# 
# From -- ./inp_files/333041.got.cif
#   From: 2010.05.17/outbox.cif.g08.bks.cpg/sg2_167_cif.got.tgz:333041.got - 2010.06.03 11:33:40.
