data_PCOD9023941
_publ_section_title
;
Structure prediction by ZEFSAII (Michael W. Deem and Ramdas Pophale) SiO2 
 PCOD9023941
Probable space group: P -1
;
_chemical_formula_sum "Si O2"
_cell_formula_units_Z 14
_cell_length_a 17.727300
_cell_length_b 11.623572
_cell_length_c 8.750325
_cell_angle_alpha 141.413002
_cell_angle_beta 44.229573
_cell_angle_gamma 139.600891
_cell_volume 695.262035
_symmetry_space_group_name_H-M "P -1"
_symmetry_group_IT_number 2
_symmetry_cell_setting 'triclinic'
loop_
_space_group_symop_operation_xyz
x,y,z
-x,-y,-z
loop_
_atom_site_type_symbol
_atom_site_label
_atom_site_fract_x
_atom_site_fract_y
_atom_site_fract_z
Si Si1 0.299695 0.589911 0.745754
Si Si2 0.400579 0.956224 0.726609
Si Si3 0.043290 0.543119 0.159872
Si Si4 0.476112 0.182421 0.153314
Si Si5 0.221189 0.141092 0.446900
Si Si6 0.148064 0.914347 0.013196
Si Si7 0.003818 0.918857 0.741529
O O1 0.352649 0.749508 0.691414
O O2 0.407759 0.625775 0.745787
O O3 0.248523 0.348822 0.530065
O O4 0.187824 0.609670 0.010410
O O5 0.280331 0.943247 0.808467
O O6 0.500000 0.000000 0.500000
O O7 0.461933 0.146972 0.955786
O O8 0.957509 0.313328 0.113620
O O9 0.015785 0.710501 0.466338
O O10 0.000000 0.500000 0.000000
O O11 0.343399 0.155227 0.358339
O O12 0.500000 0.000000 0.000000
O O13 0.122189 0.098293 0.673939
O O14 0.161805 0.953390 0.216844
O O15 0.112893 0.082984 0.171577
O O16 0.000000 0.000000 0.000000
#
# Coordination Sequence:
#
# PCOD9023941 Si02
#       7
#     2   2   2   2   2   2   2
#     4  11  21  38  67  93 122 171 217 268 314 387
#     4  10  22  40  62  92 125 166 211 268 322 377
#     4  12  21  42  72  93 125 178 220 255 320 396
#     4   9  20  38  60  88 124 172 216 256 316 386
#     4  11  21  41  66  93 126 172 228 258 312 398
#     4  11  23  42  68  92 127 176 219 255 318 405
#     4  12  26  40  62 103 136 162 213 281 327 370
#
# _framework density 20.136292000000001
#
# number of rings (size 3 to 8) (size 9 to 14) (size 15 to 20)
#    0.000    1.143    4.286    3.429    0.000    4.000 
#    2.571    2.857    0.000    0.000    0.000    0.000 
#    0.000    0.000    0.000    0.000    0.000    0.000 
#
# Total GULP energy -78008.768093 kJ/mol
# GULP energy per Si atom -5572.054864 kJ/mol
# Density = 2.009046 g / cm^3
# Si number density = 20.136292 Si / 1000 Ang^3
#
#
#
# Elastic Constant Matrix: (Units=GPa)
#
#
# Indices 1 2 3 4 5 6 
#
# 1 103.5851 39.7969 52.3908 -8.1785 -25.6898 26.0017
# 2 39.7969 100.6872 71.4945 -1.9826 -3.9133 14.8273
# 3 52.3908 71.4945 128.9457 -13.5818 -17.3403 9.7074
# 4 -8.1785 -1.9826 -13.5818 48.0260 5.2038 -5.6974
# 5 -25.6898 -3.9133 -17.3403 5.2038 35.1169 4.9602
# 6 26.0017 14.8273 9.7074 -5.6974 4.9602 20.1184
#
#
#
# Elastic Compliance Matrix: (Units=1/GPa)
#
#
# Indices 1 2 3 4 5 6 
#
# 1 0.028930 -0.000580 -0.005383 -0.004276 0.024969 -0.041732
# 2 -0.000580 0.018197 -0.009743 -0.002927 -0.001588 -0.008397
# 3 -0.005383 -0.009743 0.015292 0.003814 0.000885 0.007622
# 4 -0.004276 -0.002927 0.003814 0.023507 -0.007066 0.014243
# 5 0.024969 -0.001588 0.000885 -0.007066 0.054690 -0.047012
# 6 -0.041732 -0.008397 0.007622 0.014243 -0.047012 0.121777
#
#
# Mechanical properties :
#
#
# Convention : Reuss Voigt Hill
#
# Bulk Modulus (GPa) = 32.25356 73.39805 52.82580
# Shear Modulus (GPa) = 16.43980 31.95464 24.19722
#
# Velocity S-wave (km/s) = 2.86042 3.98794 3.47028
# Velocity P-wave (km/s) = 5.19247 7.59833 6.50755
#
# Compressibility (1/GPa) = 0.03100433
#
# Stress axis : x y z
#
# Youngs Moduli (GPa) = 34.56628 54.95546 65.39575
#
# Poissons Ratio (x) = 0.03189 0.35205
# Poissons Ratio (y) = 0.02006 0.63715
# Poissons Ratio (z) = 0.18609 0.53543
#
# Static dielectric constant tensor:
#      x y z
#    x 1.768290 0.020960 -0.001990 
#    y 0.020960 1.771140 0.042730 
#    z -0.001990 0.042730 1.743960 
# 
# From -- ./inp_files/260430.got.cif
#   From: 2010.05.17/outbox.cif.g08.bks.cpg/sg2_131_cif.got.tgz:260430.got - 2010.06.03 11:33:40.
