data_PCOD9023836
_publ_section_title
;
Structure prediction by ZEFSAII (Michael W. Deem and Ramdas Pophale) SiO2 
 PCOD9023836
Probable space group: P -1
;
_chemical_formula_sum "Si O2"
_cell_formula_units_Z 13
_cell_length_a 4.993010
_cell_length_b 5.381494
_cell_length_c 17.147590
_cell_angle_alpha 74.796643
_cell_angle_beta 103.956990
_cell_angle_gamma 91.923184
_cell_volume 431.283745
_symmetry_space_group_name_H-M "P -1"
_symmetry_group_IT_number 2
_symmetry_cell_setting 'triclinic'
loop_
_space_group_symop_operation_xyz
x,y,z
-x,-y,-z
loop_
_atom_site_type_symbol
_atom_site_label
_atom_site_fract_x
_atom_site_fract_y
_atom_site_fract_z
Si Si1 0.677324 0.480045 0.454396
Si Si2 0.270716 0.628296 0.283322
Si Si3 0.933934 0.192448 0.369466
Si Si4 0.862795 0.528102 0.878215
Si Si5 0.829693 0.062033 0.205385
Si Si6 0.500000 0.000000 0.500000
Si Si7 0.350951 0.003012 0.072247
O O1 0.538208 0.619312 0.356998
O O2 0.442839 0.303740 0.503906
O O3 0.000000 0.500000 0.500000
O O4 0.725919 0.188102 0.429460
O O5 0.049048 0.470447 0.331625
O O6 0.297324 0.474230 0.216308
O O7 0.118307 0.900360 0.232469
O O8 0.208989 0.027087 0.419465
O O9 0.785654 0.100630 0.289735
O O10 0.866527 0.227768 0.926224
O O11 0.140190 0.665125 0.859150
O O12 0.748970 0.720558 0.921680
O O13 0.593351 0.916561 0.157100
O O14 0.500000 0.000000 0.000000
#
# Coordination Sequence:
#
# PCOD9023836 Si02
#       7
#     2   2   2   2   2   1   2
#     4  11  23  39  64  98 147 191 254 319 391 456
#     4  10  23  42  68 105 139 202 253 317 381 466
#     4  10  23  41  68 102 145 204 259 325 390 470
#     4  11  25  49  73 111 155 197 256 319 384 481
#     4  11  25  46  76 104 154 200 263 315 401 456
#     4  10  22  40  62 100 144 188 258 314 396 446
#     4  12  28  47  78 115 153 201 255 318 398 479
#
# _framework density 30.142568000000001
#
# number of rings (size 3 to 8) (size 9 to 14) (size 15 to 20)
#    0.000    1.231    1.538    2.769    6.462    4.923 
#    0.000    0.000    0.000    0.000    0.000    0.000 
#    0.000    0.000    0.000    0.000    0.000    0.000 
#
# Total GULP energy -72898.054722 kJ/mol
# GULP energy per Si atom -5607.542671 kJ/mol
# Density = 3.007396 g / cm^3
# Si number density = 30.142568 Si / 1000 Ang^3
#
#
#
# Elastic Constant Matrix: (Units=GPa)
#
#
# Indices 1 2 3 4 5 6 
#
# 1 209.4936 67.7373 73.4391 27.7531 -12.8771 -12.6508
# 2 67.7373 247.7912 40.9545 6.4834 -27.6832 12.1219
# 3 73.4391 40.9545 191.9733 70.2843 -15.9397 -6.3010
# 4 27.7531 6.4834 70.2843 61.3165 -2.9955 -16.0326
# 5 -12.8771 -27.6832 -15.9397 -2.9955 66.6121 3.2310
# 6 -12.6508 12.1219 -6.3010 -16.0326 3.2310 72.1036
#
#
#
# Elastic Compliance Matrix: (Units=1/GPa)
#
#
# Indices 1 2 3 4 5 6 
#
# 1 0.005966 -0.001356 -0.001931 -0.000055 0.000072 0.001091
# 2 -0.001356 0.004724 -0.000622 0.000640 0.001631 -0.001017
# 3 -0.001931 -0.000622 0.010249 -0.011236 0.001408 -0.001900
# 4 -0.000055 0.000640 -0.011236 0.030586 -0.001337 0.005762
# 5 0.000072 0.001631 0.001408 -0.001337 0.016037 -0.001154
# 6 0.001091 -0.001017 -0.001900 0.005762 -0.001154 0.015398
#
#
# Mechanical properties :
#
#
# Convention : Reuss Voigt Hill
#
# Bulk Modulus (GPa) = 76.21010 112.61333 94.41171
# Shear Modulus (GPa) = 52.54809 71.14825 61.84817
#
# Velocity S-wave (km/s) = 4.17984 4.86366 4.53465
# Velocity P-wave (km/s) = 6.97372 8.30551 7.66858
#
# Compressibility (1/GPa) = 0.01312162
#
# Stress axis : x y z
#
# Youngs Moduli (GPa) = 167.60690 211.67843 97.57459
#
# Poissons Ratio (x) = 0.28695 0.18846
# Poissons Ratio (y) = 0.22721 0.06066
# Poissons Ratio (z) = 0.32372 0.13160
#
# Static dielectric constant tensor:
#      x y z
#    x 2.424290 0.100840 -0.172540 
#    y 0.100840 2.510680 -0.120990 
#    z -0.172540 -0.120990 2.282750 
# 
# From -- ./inp_files/6215.got.cif
#   From: 2010.05.17/outbox.cif.g08.bks.cpg/sg2_4_cif.got.tgz:6215.got - 2010.06.03 11:33:40.
