data_PCOD9023057
_publ_section_title
;
Structure prediction by ZEFSAII (Michael W. Deem and Ramdas Pophale) SiO2 
 PCOD9023057
Probable space group: P -1
;
_chemical_formula_sum "Si O2"
_cell_formula_units_Z 14
_cell_length_a 11.660119
_cell_length_b 11.237358
_cell_length_c 11.147311
_cell_angle_alpha 38.197605
_cell_angle_beta 89.971580
_cell_angle_gamma 120.397954
_cell_volume 518.375287
_symmetry_space_group_name_H-M "P -1"
_symmetry_group_IT_number 2
_symmetry_cell_setting 'triclinic'
loop_
_space_group_symop_operation_xyz
x,y,z
-x,-y,-z
loop_
_atom_site_type_symbol
_atom_site_label
_atom_site_fract_x
_atom_site_fract_y
_atom_site_fract_z
Si Si1 0.912100 0.676193 0.299396
Si Si2 0.609642 0.466584 0.906503
Si Si3 0.829495 0.239816 0.459968
Si Si4 0.296577 0.108252 0.885911
Si Si5 0.254618 0.635640 0.209954
Si Si6 0.294619 0.729803 0.788648
Si Si7 0.338506 0.165512 0.582982
O O1 0.810400 0.400598 0.419482
O O2 0.789387 0.527962 0.535638
O O3 0.000000 0.000000 0.000000
O O4 0.118581 0.845057 0.188749
O O5 0.627703 0.339706 0.898235
O O6 0.688136 0.762059 0.601842
O O7 0.740747 0.534896 0.953245
O O8 0.381528 0.164240 0.196645
O O9 0.850019 0.364903 0.229256
O O10 0.029253 0.388611 0.361854
O O11 0.218194 0.048784 0.797738
O O12 0.447083 0.467465 0.656900
O O13 0.366812 0.988589 0.958786
O O14 0.500000 0.000000 0.500000
O O15 0.326253 0.925376 0.740713
#
# Coordination Sequence:
#
# PCOD9023057 Si02
#       7
#     2   2   2   2   2   2   2
#     4  11  23  38  63  98 133 168 225 275 332 393
#     4  11  23  43  70  98 132 180 219 271 333 391
#     4  10  24  44  64  94 134 176 219 275 329 392
#     4  10  22  39  65  99 137 168 219 283 327 393
#     4  11  22  44  67  97 135 174 218 278 341 381
#     4  10  24  44  65  97 137 180 221 269 330 396
#     4  11  22  41  67 102 132 174 228 270 327 402
#
# _framework density 27.007462
#
# number of rings (size 3 to 8) (size 9 to 14) (size 15 to 20)
#    0.000    1.429    1.429    4.286    4.000    5.143 
#    2.571    0.714    0.000    0.000    0.000    0.000 
#    0.000    0.000    0.000    0.000    0.000    0.000 
#
# Total GULP energy -78271.993661 kJ/mol
# GULP energy per Si atom -5590.856690 kJ/mol
# Density = 2.694599 g / cm^3
# Si number density = 27.007462 Si / 1000 Ang^3
#
#
#
# Elastic Constant Matrix: (Units=GPa)
#
#
# Indices 1 2 3 4 5 6 
#
# 1 99.0581 21.3610 37.5279 2.2061 1.9982 -1.0049
# 2 21.3610 86.9332 13.3216 17.8946 0.7950 9.6536
# 3 37.5279 13.3216 116.9945 23.1595 6.6996 16.0864
# 4 2.2061 17.8946 23.1595 49.5953 1.6149 2.7140
# 5 1.9982 0.7950 6.6996 1.6149 63.7662 8.9402
# 6 -1.0049 9.6536 16.0864 2.7140 8.9402 39.7245
#
#
#
# Elastic Compliance Matrix: (Units=1/GPa)
#
#
# Indices 1 2 3 4 5 6 
#
# 1 0.012476 -0.003213 -0.004514 0.002569 -0.000338 0.002825
# 2 -0.003213 0.013567 0.000936 -0.005011 0.000453 -0.003517
# 3 -0.004514 0.000936 0.011585 -0.005285 -0.000308 -0.004603
# 4 0.002569 -0.005011 -0.005285 0.024235 -0.000335 0.001843
# 5 -0.000338 0.000453 -0.000308 -0.000335 0.016236 -0.003625
# 6 0.002825 -0.003517 -0.004603 0.001843 -0.003625 0.028653
#
#
# Mechanical properties :
#
#
# Convention : Reuss Voigt Hill
#
# Bulk Modulus (GPa) = 41.58677 49.71186 45.64932
# Shear Modulus (GPa) = 38.95550 46.00221 42.47886
#
# Velocity S-wave (km/s) = 3.80201 4.13160 3.97023
# Velocity P-wave (km/s) = 5.89113 6.41926 6.16085
#
# Compressibility (1/GPa) = 0.02404611
#
# Stress axis : x y z
#
# Youngs Moduli (GPa) = 80.15247 73.70697 86.31586
#
# Poissons Ratio (x) = 0.23684 0.38959
# Poissons Ratio (y) = 0.25755 -0.08075
# Poissons Ratio (z) = 0.36178 -0.06895
#
# Static dielectric constant tensor:
#      x y z
#    x 2.196190 0.128150 0.036940 
#    y 0.128150 2.194210 0.028670 
#    z 0.036940 0.028670 2.137060 
# 
# From -- ./inp_files/425031.got.cif
#   From: 2010.05.17/outbox.cif.g08.bks.cpg/sg2_213_cif.got.tgz:425031.got - 2010.06.03 11:33:40.
