data_PCOD9023232
_publ_section_title
;
Structure prediction by ZEFSAII (Michael W. Deem and Ramdas Pophale) SiO2 
 PCOD9023232
Probable space group: P -1
;
_chemical_formula_sum "Si O2"
_cell_formula_units_Z 16
_cell_length_a 7.534040
_cell_length_b 8.690299
_cell_length_c 25.827882
_cell_angle_alpha 148.670180
_cell_angle_beta 50.162513
_cell_angle_gamma 128.298096
_cell_volume 663.923862
_symmetry_space_group_name_H-M "P -1"
_symmetry_group_IT_number 2
_symmetry_cell_setting 'triclinic'
loop_
_space_group_symop_operation_xyz
x,y,z
-x,-y,-z
loop_
_atom_site_type_symbol
_atom_site_label
_atom_site_fract_x
_atom_site_fract_y
_atom_site_fract_z
Si Si1 0.056891 0.226863 0.707784
Si Si2 0.262544 0.659008 0.280568
Si Si3 0.019134 0.222399 0.837857
Si Si4 0.283220 0.288406 0.427598
Si Si5 0.628082 0.227234 0.082835
Si Si6 0.977856 0.414144 0.354579
Si Si7 0.507215 0.849896 0.088953
Si Si8 0.471961 0.404806 0.318370
O O1 0.031970 0.229686 0.774571
O O2 0.317596 0.357623 0.677334
O O3 0.876067 0.417263 0.769589
O O4 0.954870 0.893869 0.608849
O O5 0.448877 0.448691 0.196489
O O6 0.061306 0.631281 0.353561
O O7 0.377836 0.006698 0.353846
O O8 0.159021 0.548149 0.919049
O O9 0.753127 0.162825 0.888879
O O10 0.106739 0.917898 0.748440
O O11 0.207260 0.490231 0.544429
O O12 0.443888 0.442905 0.395799
O O13 0.681530 0.034223 0.067091
O O14 0.500000 0.000000 0.000000
O O15 0.222340 0.419241 0.342116
O O16 0.521542 0.069440 0.199152
O O17 0.500000 0.500000 0.000000
#
# Coordination Sequence:
#
# PCOD9023232 Si02
#       8
#     2   2   2   2   2   2   2   2
#     4  10  22  39  67  91 130 174 208 260 322 369
#     4  10  22  44  61  95 137 167 213 270 315 380
#     4  11  23  46  66  95 129 171 213 268 318 383
#     4  10  23  39  66  95 134 173 214 264 315 379
#     4  12  27  45  67  95 129 170 212 271 329 380
#     4  11  20  43  67  93 136 169 217 264 320 377
#     4  11  24  43  69  95 127 168 216 268 322 382
#     4  11  21  42  64  96 128 169 223 260 315 386
#
# _framework density 24.099148
#
# number of rings (size 3 to 8) (size 9 to 14) (size 15 to 20)
#    0.750    0.500    6.250    0.750    3.500    3.500 
#    2.250    1.250    0.000    0.000    0.000    0.000 
#    0.000    0.000    0.000    0.000    0.000    0.000 
#
# Total GULP energy -89424.577581 kJ/mol
# GULP energy per Si atom -5589.036099 kJ/mol
# Density = 2.404430 g / cm^3
# Si number density = 24.099148 Si / 1000 Ang^3
#
#
#
# Elastic Constant Matrix: (Units=GPa)
#
#
# Indices 1 2 3 4 5 6 
#
# 1 33.9027 12.8518 4.2940 8.8667 1.2203 3.7288
# 2 12.8518 106.4602 -17.1670 2.1560 -1.3735 10.9385
# 3 4.2940 -17.1670 53.9343 4.1261 0.3211 2.0995
# 4 8.8667 2.1560 4.1261 26.5268 0.8874 14.6524
# 5 1.2203 -1.3735 0.3211 0.8874 30.8719 4.2963
# 6 3.7288 10.9385 2.0995 14.6524 4.2963 37.7404
#
#
#
# Elastic Compliance Matrix: (Units=1/GPa)
#
#
# Indices 1 2 3 4 5 6 
#
# 1 0.034717 -0.004846 -0.003474 -0.012356 -0.001635 0.003151
# 2 -0.004846 0.010971 0.003851 0.002256 0.001120 -0.003919
# 3 -0.003474 0.003851 0.020214 -0.001576 0.000328 -0.001323
# 4 -0.012356 0.002256 -0.001576 0.052935 0.001882 -0.020111
# 5 -0.001635 0.001120 0.000328 0.001882 0.033100 -0.004680
# 6 0.003151 -0.003919 -0.001323 -0.020111 -0.004680 0.035736
#
#
# Mechanical properties :
#
#
# Convention : Reuss Voigt Hill
#
# Bulk Modulus (GPa) = 17.55525 21.58387 19.56956
# Shear Modulus (GPa) = 23.19136 31.98237 27.58686
#
# Velocity S-wave (km/s) = 3.10551 3.64691 3.38705
# Velocity P-wave (km/s) = 4.48992 5.16808 4.84089
#
# Compressibility (1/GPa) = 0.05696303
#
# Stress axis : x y z
#
# Youngs Moduli (GPa) = 28.80448 91.15347 49.47185
#
# Poissons Ratio (x) = 0.44171 0.17187
# Poissons Ratio (y) = 0.13958 -0.19051
# Poissons Ratio (z) = 0.10007 -0.35102
#
# Static dielectric constant tensor:
#      x y z
#    x 1.982690 0.000300 -0.006730 
#    y 0.000300 1.927010 0.039010 
#    z -0.006730 0.039010 1.923060 
# 
# From -- ./inp_files/616748.got.cif
#   From: 2010.05.17/outbox.cif.g08.bks.cpg/sg2_309_cif.got.tgz:616748.got - 2010.06.03 11:33:40.
