data_PCOD9023005
_publ_section_title
;
Structure prediction by ZEFSAII (Michael W. Deem and Ramdas Pophale) SiO2 
 PCOD9023005
Probable space group: P -1
;
_chemical_formula_sum "Si O2"
_cell_formula_units_Z 16
_cell_length_a 9.202964
_cell_length_b 9.478956
_cell_length_c 16.971558
_cell_angle_alpha 138.590896
_cell_angle_beta 100.353061
_cell_angle_gamma 95.747227
_cell_volume 898.327857
_symmetry_space_group_name_H-M "P -1"
_symmetry_group_IT_number 2
_symmetry_cell_setting 'triclinic'
loop_
_space_group_symop_operation_xyz
x,y,z
-x,-y,-z
loop_
_atom_site_type_symbol
_atom_site_label
_atom_site_fract_x
_atom_site_fract_y
_atom_site_fract_z
Si Si1 0.379783 0.799013 0.502052
Si Si2 0.830235 0.714807 0.547832
Si Si3 0.025310 0.437451 0.886516
Si Si4 0.736745 0.075425 0.614276
Si Si5 0.055104 0.919181 0.051429
Si Si6 0.642275 0.705073 0.685218
Si Si7 0.319710 0.790970 0.672935
Si Si8 0.865047 0.923262 0.191383
O O1 0.273256 0.836167 0.437121
O O2 0.391502 0.548437 0.391191
O O3 0.309674 0.809265 0.585164
O O4 0.556178 0.988584 0.591808
O O5 0.703561 0.702028 0.600154
O O6 0.805208 0.456052 0.416435
O O7 0.791796 0.858362 0.534351
O O8 0.998134 0.863199 0.663859
O O9 0.861620 0.265629 0.760941
O O10 0.141782 0.295612 0.848697
O O11 0.000000 0.500000 0.000000
O O12 0.076775 0.675274 0.944769
O O13 0.928176 0.895867 0.099378
O O14 0.216327 0.110620 0.177045
O O15 0.000000 0.000000 0.000000
O O16 0.489920 0.776041 0.700687
O O17 0.285481 0.002280 0.794991
#
# Coordination Sequence:
#
# PCOD9023005 Si02
#       8
#     2   2   2   2   2   2   2   2
#     4  10  19  29  52  79 109 130 165 211 261 305
#     4   9  16  32  51  74 102 139 165 198 242 320
#     4   9  19  35  55  70  99 138 180 208 241 303
#     4  10  17  31  51  80  99 132 177 209 248 297
#     4  10  20  37  58  73  94 134 181 215 245 297
#     4  10  18  32  54  77 100 135 174 203 249 311
#     4  11  18  32  49  79 107 133 162 208 259 308
#     4   9  20  33  53  75 102 132 171 206 256 304
#
# _framework density 17.810869
#
# number of rings (size 3 to 8) (size 9 to 14) (size 15 to 20)
#    0.000    2.250    2.500    2.625    0.000    0.000 
#    0.000    5.000    0.000    0.000    0.000    0.000 
#    0.000    0.000    0.000    0.000    0.000    0.000 
#
# Total GULP energy -89189.101711 kJ/mol
# GULP energy per Si atom -5574.318857 kJ/mol
# Density = 1.777033 g / cm^3
# Si number density = 17.810869 Si / 1000 Ang^3
#
#
#
# Elastic Constant Matrix: (Units=GPa)
#
#
# Indices 1 2 3 4 5 6 
#
# 1 41.1162 29.1113 17.9750 8.0899 -11.9981 -16.5797
# 2 29.1113 153.9872 49.3939 3.3308 -2.2907 -22.7516
# 3 17.9750 49.3939 79.0626 12.3612 3.8959 -10.2273
# 4 8.0899 3.3308 12.3612 28.6427 -6.8179 0.5418
# 5 -11.9981 -2.2907 3.8959 -6.8179 19.7523 7.6594
# 6 -16.5797 -22.7516 -10.2273 0.5418 7.6594 23.2639
#
#
#
# Elastic Compliance Matrix: (Units=1/GPa)
#
#
# Indices 1 2 3 4 5 6 
#
# 1 0.042889 -0.003160 -0.005148 -0.005845 0.017028 0.019742
# 2 -0.003160 0.009273 -0.004510 0.001285 -0.001575 0.005323
# 3 -0.005148 -0.004510 0.019357 -0.009464 -0.012595 0.004798
# 4 -0.005845 0.001285 -0.009464 0.045503 0.019859 -0.014668
# 5 0.017028 -0.001575 -0.012595 0.019859 0.078347 -0.021200
# 6 0.019742 0.005323 0.004798 -0.014668 -0.021200 0.071691
#
#
# Mechanical properties :
#
#
# Convention : Reuss Voigt Hill
#
# Bulk Modulus (GPa) = 21.79432 51.90294 36.84863
# Shear Modulus (GPa) = 16.23421 26.17751 21.20586
#
# Velocity S-wave (km/s) = 3.02234 3.83789 3.45427
# Velocity P-wave (km/s) = 4.94394 6.98882 6.05335
#
# Compressibility (1/GPa) = 0.04588352
#
# Stress axis : x y z
#
# Youngs Moduli (GPa) = 23.31588 107.83665 51.66115
#
# Poissons Ratio (x) = 0.34079 0.26596
# Poissons Ratio (y) = 0.07368 0.23297
# Poissons Ratio (z) = 0.12003 0.48630
#
# Static dielectric constant tensor:
#      x y z
#    x 1.623630 -0.006850 0.006210 
#    y -0.006850 1.631550 0.026810 
#    z 0.006210 0.026810 1.606360 
# 
# From -- ./inp_files/180332.got.cif
#   From: 2010.05.17/outbox.cif.g08.bks.cpg/sg2_91_cif.got.tgz:180332.got - 2010.06.03 11:33:40.
