data_PCOD9023246
_publ_section_title
;
Structure prediction by ZEFSAII (Michael W. Deem and Ramdas Pophale) SiO2 
 PCOD9023246
Probable space group: P -1
;
_chemical_formula_sum "Si O2"
_cell_formula_units_Z 16
_cell_length_a 19.329143
_cell_length_b 9.007427
_cell_length_c 9.641741
_cell_angle_alpha 48.139156
_cell_angle_beta 131.900101
_cell_angle_gamma 130.802183
_cell_volume 862.711275
_symmetry_space_group_name_H-M "P -1"
_symmetry_group_IT_number 2
_symmetry_cell_setting 'triclinic'
loop_
_space_group_symop_operation_xyz
x,y,z
-x,-y,-z
loop_
_atom_site_type_symbol
_atom_site_label
_atom_site_fract_x
_atom_site_fract_y
_atom_site_fract_z
Si Si1 0.977864 0.252825 0.171658
Si Si2 0.895683 0.309000 0.505602
Si Si3 0.093459 0.960243 0.079744
Si Si4 0.866339 0.964382 0.448970
Si Si5 0.541061 0.475069 0.921039
Si Si6 0.314101 0.709295 0.868175
Si Si7 0.353708 0.190019 0.669431
Si Si8 0.690639 0.697364 0.768703
O O1 0.904212 0.150633 0.266498
O O2 0.929253 0.097400 0.073990
O O3 0.075733 0.199091 0.375605
O O4 0.000000 0.500000 0.000000
O O5 0.894908 0.244391 0.703700
O O6 0.889475 0.100073 0.538420
O O7 0.797259 0.350884 0.303820
O O8 0.000000 0.500000 0.500000
O O9 0.197687 0.153083 0.130627
O O10 0.000000 0.000000 0.000000
O O11 0.747993 0.832796 0.372445
O O12 0.614412 0.682560 0.803151
O O13 0.500000 0.500000 0.000000
O O14 0.611194 0.334677 0.113222
O O15 0.550228 0.644399 0.230344
O O16 0.355464 0.952344 0.820697
O O17 0.311364 0.544739 0.089424
O O18 0.341137 0.240377 0.459845
#
# Coordination Sequence:
#
# PCOD9023246 Si02
#       8
#     2   2   2   2   2   2   2   2
#     4  11  24  42  58  92 135 169 209 255 326 376
#     4  11  20  38  65  96 123 165 213 256 308 380
#     4  12  21  39  67  92 129 165 210 261 304 384
#     4  10  23  38  63  90 127 170 203 264 317 376
#     4  10  24  42  67  93 128 165 207 269 321 365
#     4   9  22  38  68  89 125 163 214 249 315 381
#     4  11  20  45  65  92 123 164 219 258 314 375
#     4  10  22  39  67  93 123 163 211 255 318 367
#
# _framework density 18.546182000000002
#
# number of rings (size 3 to 8) (size 9 to 14) (size 15 to 20)
#    0.750    0.750    3.750    2.250    1.750    3.000 
#    4.500    0.625    0.000    0.000    0.000    0.000 
#    0.000    0.000    0.000    0.000    0.000    0.000 
#
# Total GULP energy -89148.454971 kJ/mol
# GULP energy per Si atom -5571.778436 kJ/mol
# Density = 1.850397 g / cm^3
# Si number density = 18.546182 Si / 1000 Ang^3
#
#
#
# Elastic Constant Matrix: (Units=GPa)
#
#
# Indices 1 2 3 4 5 6 
#
# 1 126.0489 44.1048 31.4549 10.3168 0.3026 21.3322
# 2 44.1048 78.8933 35.7087 7.1525 4.4885 21.5775
# 3 31.4549 35.7087 69.2151 -9.6445 -14.0132 6.8494
# 4 10.3168 7.1525 -9.6445 37.0653 2.2048 -0.6412
# 5 0.3026 4.4885 -14.0132 2.2048 30.9588 1.2586
# 6 21.3322 21.5775 6.8494 -0.6412 1.2586 28.7943
#
#
#
# Elastic Compliance Matrix: (Units=1/GPa)
#
#
# Indices 1 2 3 4 5 6 
#
# 1 0.010991 -0.002553 -0.003854 -0.003602 -0.001008 -0.005349
# 2 -0.002553 0.024772 -0.012997 -0.007183 -0.008394 -0.013373
# 3 -0.003854 -0.012997 0.026277 0.009756 0.012878 0.005999
# 4 -0.003602 -0.007183 0.009756 0.031839 0.002969 0.006310
# 5 -0.001008 -0.008394 0.012878 0.002969 0.039051 0.002333
# 6 -0.005349 -0.013373 0.005999 0.006310 0.002333 0.047325
#
#
# Mechanical properties :
#
#
# Convention : Reuss Voigt Hill
#
# Bulk Modulus (GPa) = 43.04453 55.18823 49.11638
# Shear Modulus (GPa) = 22.04518 30.22293 26.13406
#
# Velocity S-wave (km/s) = 3.45144 4.04121 3.75792
# Velocity P-wave (km/s) = 6.25644 7.18311 6.73573
#
# Compressibility (1/GPa) = 0.02323176
#
# Stress axis : x y z
#
# Youngs Moduli (GPa) = 90.98284 40.36894 38.05543
#
# Poissons Ratio (x) = 0.10306 0.14668
# Poissons Ratio (y) = 0.23228 0.49459
# Poissons Ratio (z) = 0.35069 0.52466
#
# Static dielectric constant tensor:
#      x y z
#    x 1.679280 0.023210 0.006430 
#    y 0.023210 1.663230 -0.004790 
#    z 0.006430 -0.004790 1.658190 
# 
# From -- ./inp_files/342477.got.cif
#   From: 2010.05.17/outbox.cif.g08.bks.cpg/sg2_172_cif.got.tgz:342477.got - 2010.06.03 11:33:40.
