data_PCOD9023514
_publ_section_title
;
Structure prediction by ZEFSAII (Michael W. Deem and Ramdas Pophale) SiO2 
 PCOD9023514
Probable space group: P -1
;
_chemical_formula_sum "Si O2"
_cell_formula_units_Z 16
_cell_length_a 9.167342
_cell_length_b 24.076658
_cell_length_c 7.709092
_cell_angle_alpha 125.128502
_cell_angle_beta 65.905522
_cell_angle_gamma 148.715828
_cell_volume 708.543137
_symmetry_space_group_name_H-M "P -1"
_symmetry_group_IT_number 2
_symmetry_cell_setting 'triclinic'
loop_
_space_group_symop_operation_xyz
x,y,z
-x,-y,-z
loop_
_atom_site_type_symbol
_atom_site_label
_atom_site_fract_x
_atom_site_fract_y
_atom_site_fract_z
Si Si1 0.181840 0.595582 0.310839
Si Si2 0.260901 0.243442 0.857042
Si Si3 0.338181 0.372609 0.377912
Si Si4 0.773640 0.883706 0.095022
Si Si5 0.255288 0.774718 0.559225
Si Si6 0.339262 0.633260 0.685595
Si Si7 0.404105 0.077758 0.010187
Si Si8 0.605190 0.013028 0.659040
O O1 0.461178 0.654987 0.216694
O O2 0.180804 0.670416 0.365396
O O3 0.207591 0.613796 0.538395
O O4 0.881717 0.448671 0.190999
O O5 0.265485 0.167998 0.796837
O O6 0.948521 0.141622 0.741026
O O7 0.296858 0.311499 0.115708
O O8 0.500000 0.500000 0.500000
O O9 0.536466 0.398090 0.452636
O O10 0.026967 0.280444 0.433601
O O11 0.631440 0.903351 0.132566
O O12 0.611306 0.774907 0.849668
O O13 0.110309 0.998688 0.100097
O O14 0.505129 0.902776 0.566883
O O15 0.344883 0.808827 0.780576
O O16 0.449306 0.013279 0.859893
O O17 0.500000 0.000000 0.500000
#
# Coordination Sequence:
#
# PCOD9023514 Si02
#       8
#     2   2   2   2   2   2   2   2
#     4  11  25  42  68  97 136 173 229 282 327 399
#     4  11  25  43  66 102 135 174 224 288 329 395
#     4  11  23  44  71  96 131 180 227 270 337 409
#     4  10  22  39  70  94 128 173 229 271 332 403
#     4  12  23  45  68  96 134 185 222 268 343 407
#     4  10  22  44  66  95 129 180 222 273 336 403
#     4  11  22  43  66  99 128 183 221 277 333 408
#     4  12  27  41  65  99 143 174 221 282 340 396
#
# _framework density 22.581547
#
# number of rings (size 3 to 8) (size 9 to 14) (size 15 to 20)
#    0.000    1.000    5.000    1.875    5.250    2.500 
#    0.000    0.625    0.000    0.000    0.000    0.000 
#    0.000    0.000    0.000    0.000    0.000    0.000 
#
# Total GULP energy -89300.854345 kJ/mol
# GULP energy per Si atom -5581.303397 kJ/mol
# Density = 2.253015 g / cm^3
# Si number density = 22.581547 Si / 1000 Ang^3
#
#
#
# Elastic Constant Matrix: (Units=GPa)
#
#
# Indices 1 2 3 4 5 6 
#
# 1 125.3875 34.3237 23.0308 3.8786 -0.3515 -2.2163
# 2 34.3237 62.6514 19.1446 5.5562 -5.4079 4.1616
# 3 23.0308 19.1446 44.5259 4.8965 -6.2393 -8.9602
# 4 3.8786 5.5562 4.8965 28.3876 -0.6428 -3.4798
# 5 -0.3515 -5.4079 -6.2393 -0.6428 37.9771 7.6576
# 6 -2.2163 4.1616 -8.9602 -3.4798 7.6576 37.8723
#
#
#
# Elastic Compliance Matrix: (Units=1/GPa)
#
#
# Indices 1 2 3 4 5 6 
#
# 1 0.009809 -0.004556 -0.003182 0.000144 -0.001195 0.000577
# 2 -0.004556 0.021509 -0.007217 -0.002913 0.002830 -0.005177
# 3 -0.003182 -0.007217 0.029158 -0.002293 0.002318 0.006826
# 4 0.000144 -0.002913 -0.002293 0.036560 -0.000840 0.003315
# 5 -0.001195 0.002830 0.002318 -0.000840 0.028223 -0.005616
# 6 0.000577 -0.005177 0.006826 0.003315 -0.005616 0.030062
#
#
# Mechanical properties :
#
#
# Convention : Reuss Voigt Hill
#
# Bulk Modulus (GPa) = 32.71465 42.84035 37.77750
# Shear Modulus (GPa) = 25.58594 31.25177 28.41886
#
# Velocity S-wave (km/s) = 3.36973 3.72419 3.55138
# Velocity P-wave (km/s) = 5.44600 6.12416 5.79501
#
# Compressibility (1/GPa) = 0.03056734
#
# Stress axis : x y z
#
# Youngs Moduli (GPa) = 101.94435 46.49224 34.29550
#
# Poissons Ratio (x) = 0.21181 0.10913
# Poissons Ratio (y) = 0.46444 0.24750
# Poissons Ratio (z) = 0.32440 0.33552
#
# Static dielectric constant tensor:
#      x y z
#    x 1.911920 -0.013260 0.009450 
#    y -0.013260 1.893000 -0.003350 
#    z 0.009450 -0.003350 1.874840 
# 
# From -- ./inp_files/186521.got.cif
#   From: 2010.05.17/outbox.cif.g08.bks.cpg/sg2_94_cif.got.tgz:186521.got - 2010.06.03 11:33:40.
