data_PCOD9023623
_publ_section_title
;
Structure prediction by ZEFSAII (Michael W. Deem and Ramdas Pophale) SiO2 
 PCOD9023623
Probable space group: P -1
;
_chemical_formula_sum "Si O2"
_cell_formula_units_Z 16
_cell_length_a 8.004002
_cell_length_b 21.062642
_cell_length_c 6.402111
_cell_angle_alpha 56.121569
_cell_angle_beta 114.659405
_cell_angle_gamma 120.433175
_cell_volume 758.766301
_symmetry_space_group_name_H-M "P -1"
_symmetry_group_IT_number 2
_symmetry_cell_setting 'triclinic'
loop_
_space_group_symop_operation_xyz
x,y,z
-x,-y,-z
loop_
_atom_site_type_symbol
_atom_site_label
_atom_site_fract_x
_atom_site_fract_y
_atom_site_fract_z
Si Si1 0.157316 0.122056 0.431846
Si Si2 0.196484 0.440161 0.637817
Si Si3 0.449632 0.068230 0.970970
Si Si4 0.951876 0.337495 0.313736
Si Si5 0.824771 0.702977 0.876313
Si Si6 0.237218 0.756524 0.231092
Si Si7 0.784182 0.394112 0.745077
Si Si8 0.853612 0.991778 0.744751
O O1 0.294961 0.090466 0.704924
O O2 0.244286 0.220372 0.303519
O O3 0.146047 0.081279 0.274317
O O4 0.940199 0.076749 0.504830
O O5 0.306147 0.536577 0.476178
O O6 0.091644 0.401021 0.437553
O O7 0.011852 0.430012 0.714916
O O8 0.296890 0.382593 0.910952
O O9 0.630766 0.152805 0.924144
O O10 0.356395 0.033404 0.208838
O O11 0.500000 0.000000 0.000000
O O12 0.804414 0.263360 0.510106
O O13 0.094527 0.312360 0.278108
O O14 0.817150 0.373741 0.037810
O O15 0.022119 0.737728 0.056108
O O16 0.312304 0.689247 0.284769
O O17 0.000000 0.000000 0.000000
#
# Coordination Sequence:
#
# PCOD9023623 Si02
#       8
#     2   2   2   2   2   2   2   2
#     4  10  22  40  59  80 106 149 183 223 279 329
#     4   8  14  25  45  77 107 139 179 220 261 313
#     4  11  25  38  56  84 111 143 184 232 275 327
#     4   8  15  27  48  79 105 145 174 220 267 316
#     4   9  19  31  54  79 109 139 181 224 266 323
#     4   9  20  32  49  79 112 141 178 228 270 317
#     4   8  14  27  45  72 111 144 174 217 268 316
#     4   9  22  40  59  79 104 143 185 228 270 330
#
# _framework density 21.086863000000001
#
# number of rings (size 3 to 8) (size 9 to 14) (size 15 to 20)
#    0.000    3.500    0.000    0.375    7.000    6.500 
#    0.000    0.000    0.000    0.750    0.000    2.625 
#    0.000    0.000    0.000    0.000    0.000    0.000 
#
# Total GULP energy -89132.467389 kJ/mol
# GULP energy per Si atom -5570.779212 kJ/mol
# Density = 2.103887 g / cm^3
# Si number density = 21.086863 Si / 1000 Ang^3
#
#
#
# Elastic Constant Matrix: (Units=GPa)
#
#
# Indices 1 2 3 4 5 6 
#
# 1 28.3544 17.8056 36.5798 -9.8934 -9.2059 -13.2353
# 2 17.8056 54.8149 25.4134 -27.7275 4.6035 -17.3317
# 3 36.5798 25.4134 101.6161 -6.4914 -10.8139 -24.8064
# 4 -9.8934 -27.7275 -6.4914 35.6970 -12.0466 6.3304
# 5 -9.2059 4.6035 -10.8139 -12.0466 25.6724 -2.0184
# 6 -13.2353 -17.3317 -24.8064 6.3304 -2.0184 21.2405
#
#
#
# Elastic Compliance Matrix: (Units=1/GPa)
#
#
# Indices 1 2 3 4 5 6 
#
# 1 0.112387 0.001396 -0.024028 0.038575 0.050896 0.036447
# 2 0.001396 0.040892 -0.002178 0.030424 0.008368 0.023421
# 3 -0.024028 -0.002178 0.020618 -0.006932 -0.002070 0.009199
# 4 0.038575 0.030424 -0.006932 0.070529 0.040407 0.023586
# 5 0.050896 0.008368 -0.002070 0.040407 0.076254 0.031328
# 6 0.036447 0.023421 0.009199 0.023586 0.031328 0.095592
#
#
# Mechanical properties :
#
#
# Convention : Reuss Voigt Hill
#
# Bulk Modulus (GPa) = 8.04660 38.26477 23.15569
# Shear Modulus (GPa) = 9.85577 23.52108 16.68842
#
# Velocity S-wave (km/s) = 2.16426 3.34344 2.81626
# Velocity P-wave (km/s) = 3.17326 5.75243 4.64543
#
# Compressibility (1/GPa) = 0.12427604
#
# Stress axis : x y z
#
# Youngs Moduli (GPa) = 8.89785 24.45491 48.50196
#
# Poissons Ratio (x) = -0.03413 1.16541
# Poissons Ratio (y) = -0.01242 0.10561
# Poissons Ratio (z) = 0.21380 0.05325
#
# Static dielectric constant tensor:
#      x y z
#    x 2.044130 0.140780 0.050050 
#    y 0.140780 1.882870 -0.044020 
#    z 0.050050 -0.044020 1.820360 
# 
# From -- ./inp_files/48596.got.cif
#   From: 2010.05.17/outbox.cif.g08.bks.cpg/sg2_25_cif.got.tgz:48596.got - 2010.06.03 11:33:40.
