data_PCOD9023884
_publ_section_title
;
Structure prediction by ZEFSAII (Michael W. Deem and Ramdas Pophale) SiO2 
 PCOD9023884
Probable space group: P -1
;
_chemical_formula_sum "Si O2"
_cell_formula_units_Z 14
_cell_length_a 7.064595
_cell_length_b 10.613547
_cell_length_c 10.446655
_cell_angle_alpha 130.107103
_cell_angle_beta 75.791624
_cell_angle_gamma 92.444476
_cell_volume 573.683116
_symmetry_space_group_name_H-M "P -1"
_symmetry_group_IT_number 2
_symmetry_cell_setting 'triclinic'
loop_
_space_group_symop_operation_xyz
x,y,z
-x,-y,-z
loop_
_atom_site_type_symbol
_atom_site_label
_atom_site_fract_x
_atom_site_fract_y
_atom_site_fract_z
Si Si1 0.670500 0.379028 0.818951
Si Si2 0.537703 0.578539 0.376695
Si Si3 0.230548 0.138639 0.451759
Si Si4 0.007654 0.874985 0.264318
Si Si5 0.121347 0.325991 0.086498
Si Si6 0.763360 0.293063 0.275226
Si Si7 0.583238 0.976700 0.113101
O O1 0.554848 0.342800 0.687065
O O2 0.791042 0.222408 0.768733
O O3 0.500000 0.500000 0.000000
O O4 0.840310 0.490887 0.832581
O O5 0.717965 0.675485 0.450312
O O6 0.634012 0.384573 0.237218
O O7 0.353938 0.610674 0.525137
O O8 0.166738 0.119342 0.597748
O O9 0.055471 0.062377 0.357233
O O10 0.429145 0.038784 0.290842
O O11 0.965219 0.768729 0.079391
O O12 0.328584 0.212865 0.004462
O O13 0.983381 0.318153 0.226339
O O14 0.746096 0.100472 0.169289
O O15 0.500000 0.000000 0.000000
#
# Coordination Sequence:
#
# PCOD9023884 Si02
#       7
#     2   2   2   2   2   2   2
#     4  12  24  39  63  90 123 161 200 247 300 356
#     4  10  22  41  63  90 122 160 200 247 300 353
#     4  10  23  41  63  87 123 159 201 249 295 356
#     4  11  24  40  62  91 121 160 202 246 299 356
#     4  12  24  40  63  90 123 158 200 250 299 357
#     4  10  22  40  62  89 122 157 200 248 299 357
#     4  11  23  40  63  89 121 160 200 248 302 356
#
# _framework density 24.403717
#
# number of rings (size 3 to 8) (size 9 to 14) (size 15 to 20)
#    0.000    1.143    0.000    6.000    0.000    7.429 
#    0.000    0.000    0.000    0.000    0.000    0.000 
#    0.000    0.000    0.000    0.000    0.000    0.000 
#
# Total GULP energy -78254.801417 kJ/mol
# GULP energy per Si atom -5589.628673 kJ/mol
# Density = 2.434817 g / cm^3
# Si number density = 24.403717 Si / 1000 Ang^3
#
#
#
# Elastic Constant Matrix: (Units=GPa)
#
#
# Indices 1 2 3 4 5 6 
#
# 1 54.6901 25.9655 26.2947 -7.6616 -4.4445 5.9432
# 2 25.9655 91.7023 17.8302 4.7284 2.3305 29.7388
# 3 26.2947 17.8302 74.2255 -11.0213 -28.9429 10.3341
# 4 -7.6616 4.7284 -11.0213 30.4809 19.9823 -4.6025
# 5 -4.4445 2.3305 -28.9429 19.9823 39.1179 -5.1461
# 6 5.9432 29.7388 10.3341 -4.6025 -5.1461 69.5485
#
#
#
# Elastic Compliance Matrix: (Units=1/GPa)
#
#
# Indices 1 2 3 4 5 6 
#
# 1 0.026812 -0.006566 -0.010241 0.010376 -0.009171 0.002046
# 2 -0.006566 0.015379 -0.001736 -0.004708 -0.001353 -0.006169
# 3 -0.010241 -0.001736 0.024667 -0.007096 0.020686 -0.000987
# 4 0.010376 -0.004708 -0.007096 0.054563 -0.031204 0.003483
# 5 -0.009171 -0.001353 0.020686 -0.031204 0.055895 0.000360
# 6 0.002046 -0.006169 -0.000987 0.003483 0.000360 0.017245
#
#
# Mechanical properties :
#
#
# Convention : Reuss Voigt Hill
#
# Bulk Modulus (GPa) = 33.58921 40.08875 36.83898
# Shear Modulus (GPa) = 20.69767 37.86462 29.28115
#
# Velocity S-wave (km/s) = 2.91544 3.94330 3.46766
# Velocity P-wave (km/s) = 5.01267 6.09883 5.58223
#
# Compressibility (1/GPa) = 0.02977146
#
# Stress axis : x y z
#
# Youngs Moduli (GPa) = 37.29635 65.02238 40.53923
#
# Poissons Ratio (x) = 0.42695 0.41518
# Poissons Ratio (y) = 0.24489 0.07039
# Poissons Ratio (z) = 0.38197 0.11289
#
# Static dielectric constant tensor:
#      x y z
#    x 1.944760 -0.003690 0.024140 
#    y -0.003690 1.938050 -0.008750 
#    z 0.024140 -0.008750 1.923110 
# 
# From -- ./inp_files/68487.got.cif
#   From: 2010.05.17/outbox.cif.g08.bks.cpg/sg2_35_cif.got.tgz:68487.got - 2010.06.03 11:33:40.
