data_PCOD9023922
_publ_section_title
;
Structure prediction by ZEFSAII (Michael W. Deem and Ramdas Pophale) SiO2 
 PCOD9023922
Probable space group: P -1
;
_chemical_formula_sum "Si O2"
_cell_formula_units_Z 16
_cell_length_a 6.090648
_cell_length_b 19.408454
_cell_length_c 7.292092
_cell_angle_alpha 57.864479
_cell_angle_beta 113.658862
_cell_angle_gamma 102.136721
_cell_volume 668.577856
_symmetry_space_group_name_H-M "P -1"
_symmetry_group_IT_number 2
_symmetry_cell_setting 'triclinic'
loop_
_space_group_symop_operation_xyz
x,y,z
-x,-y,-z
loop_
_atom_site_type_symbol
_atom_site_label
_atom_site_fract_x
_atom_site_fract_y
_atom_site_fract_z
Si Si1 0.811660 0.378336 0.516000
Si Si2 0.026656 0.257028 0.332658
Si Si3 0.299825 0.415870 0.181408
Si Si4 0.756550 0.076885 0.136787
Si Si5 0.336063 0.104112 0.664762
Si Si6 0.884727 0.477821 0.723513
Si Si7 0.439698 0.823819 0.732680
Si Si8 0.065856 0.225213 0.956882
O O1 0.577788 0.392569 0.293102
O O2 0.032028 0.438016 0.459763
O O3 0.907054 0.286995 0.698274
O O4 0.739996 0.415347 0.639000
O O5 0.159101 0.337726 0.325463
O O6 0.163372 0.177236 0.561810
O O7 0.749406 0.243627 0.298791
O O8 0.044778 0.254118 0.120802
O O9 0.261212 0.494318 0.186586
O O10 0.139757 0.437147 0.921366
O O11 0.686136 0.112895 0.260798
O O12 0.800567 0.980755 0.290786
O O13 0.535299 0.091050 0.904401
O O14 0.967279 0.133452 0.051117
O O15 0.455435 0.131199 0.473923
O O16 0.652853 0.779901 0.977540
#
# Coordination Sequence:
#
# PCOD9023922 Si02
#       8
#     2   2   2   2   2   2   2   2
#     4  11  22  42  64  91 126 161 206 258 313 373
#     4  10  22  40  62  91 126 164 205 258 313 374
#     4  11  22  42  64  91 126 161 206 258 313 373
#     4  10  22  40  63  92 125 164 212 262 313 375
#     4  10  22  40  63  92 125 164 212 262 313 375
#     4  10  24  40  62  96 120 162 206 254 318 376
#     4  10  23  40  62  90 126 172 204 262 314 370
#     4  10  22  40  62  91 126 164 205 258 313 374
#
# _framework density 23.931394000000001
#
# number of rings (size 3 to 8) (size 9 to 14) (size 15 to 20)
#    0.000    1.750    1.250    1.875    0.000   12.500 
#    9.000    2.500    0.000    0.000    0.000    0.000 
#    0.000    0.000    0.000    0.000    0.000    0.000 
#
# Total GULP energy -89496.734144 kJ/mol
# GULP energy per Si atom -5593.545884 kJ/mol
# Density = 2.387692 g / cm^3
# Si number density = 23.931394 Si / 1000 Ang^3
#
#
#
# Elastic Constant Matrix: (Units=GPa)
#
#
# Indices 1 2 3 4 5 6 
#
# 1 47.7968 27.8541 29.3803 -11.0081 16.8515 16.5430
# 2 27.8541 110.2009 16.8865 -13.6047 3.0549 4.0002
# 3 29.3803 16.8865 88.0734 -7.4835 16.1970 -3.8350
# 4 -11.0081 -13.6047 -7.4835 40.6446 3.9698 -6.3942
# 5 16.8515 3.0549 16.1970 3.9698 27.9459 2.3248
# 6 16.5430 4.0002 -3.8350 -6.3942 2.3248 26.8664
#
#
#
# Elastic Compliance Matrix: (Units=1/GPa)
#
#
# Indices 1 2 3 4 5 6 
#
# 1 0.054216 -0.009172 -0.012918 0.006676 -0.022629 -0.030315
# 2 -0.009172 0.011268 0.000612 0.001730 0.003351 0.004179
# 3 -0.012918 0.000612 0.016760 0.001826 -0.003163 0.010964
# 4 0.006676 0.001730 0.001826 0.028836 -0.009668 0.003592
# 5 -0.022629 0.003351 -0.003163 -0.009668 0.051753 0.006204
# 6 -0.030315 0.004179 0.010964 0.003592 0.006204 0.057148
#
#
# Mechanical properties :
#
#
# Convention : Reuss Voigt Hill
#
# Bulk Modulus (GPa) = 25.45342 43.81255 34.63299
# Shear Modulus (GPa) = 18.11365 30.55474 24.33419
#
# Velocity S-wave (km/s) = 2.75416 3.57706 3.19224
# Velocity P-wave (km/s) = 4.55774 5.95044 5.30004
#
# Compressibility (1/GPa) = 0.03928745
#
# Stress axis : x y z
#
# Youngs Moduli (GPa) = 18.44468 88.74779 59.66444
#
# Poissons Ratio (x) = 0.81400 0.77077
# Poissons Ratio (y) = 0.16918 -0.03652
# Poissons Ratio (z) = 0.23828 -0.05432
#
# Static dielectric constant tensor:
#      x y z
#    x 1.947280 -0.024890 -0.038270 
#    y -0.024890 1.933710 0.035150 
#    z -0.038270 0.035150 1.933240 
# 
# From -- ./inp_files/117226.got.cif
#   From: 2010.05.17/outbox.cif.g08.bks.cpg/sg2_59_cif.got.tgz:117226.got - 2010.06.03 11:33:40.
