data_PCOD9023470
_publ_section_title
;
Structure prediction by ZEFSAII (Michael W. Deem and Ramdas Pophale) SiO2 
 PCOD9023470
Probable space group: P -1
;
_chemical_formula_sum "Si O2"
_cell_formula_units_Z 16
_cell_length_a 15.488419
_cell_length_b 10.025930
_cell_length_c 13.876811
_cell_angle_alpha 144.935989
_cell_angle_beta 42.267195
_cell_angle_gamma 117.660474
_cell_volume 774.812234
_symmetry_space_group_name_H-M "P -1"
_symmetry_group_IT_number 2
_symmetry_cell_setting 'triclinic'
loop_
_space_group_symop_operation_xyz
x,y,z
-x,-y,-z
loop_
_atom_site_type_symbol
_atom_site_label
_atom_site_fract_x
_atom_site_fract_y
_atom_site_fract_z
Si Si1 0.391009 0.655216 0.105348
Si Si2 0.103401 0.589887 0.332369
Si Si3 0.409063 0.916055 0.948860
Si Si4 0.616717 0.547071 0.207578
Si Si5 0.920231 0.466224 0.895223
Si Si6 0.115995 0.674594 0.954973
Si Si7 0.604491 0.796209 0.549150
Si Si8 0.837893 0.847207 0.834192
O O1 0.235794 0.669898 0.263968
O O2 0.391437 0.933164 0.272907
O O3 0.500000 0.500000 0.000000
O O4 0.442581 0.501050 0.872346
O O5 0.035349 0.629666 0.305656
O O6 0.159021 0.308207 0.163934
O O7 0.984056 0.732078 0.590359
O O8 0.346394 0.726641 0.936511
O O9 0.512369 0.758524 0.688380
O O10 0.500000 0.000000 0.000000
O O11 0.287827 0.136412 0.124452
O O12 0.544334 0.753052 0.469856
O O13 0.755831 0.594037 0.096092
O O14 0.994575 0.648874 0.976234
O O15 0.938717 0.280387 0.861885
O O16 0.241402 0.407835 0.695624
O O17 0.174330 0.869190 0.975899
#
# Coordination Sequence:
#
# PCOD9023470 Si02
#       8
#     2   2   2   2   2   2   2   2
#     4  11  24  44  66  95 133 178 221 268 329 403
#     4  10  25  41  66  92 137 176 209 267 336 396
#     4  12  23  40  67  96 134 171 222 278 326 390
#     4  10  22  41  64 100 125 166 222 273 325 388
#     4   9  20  40  63  97 124 164 217 266 329 382
#     4  10  22  39  69  97 126 166 222 278 319 391
#     4  11  23  40  68  96 128 169 223 273 336 371
#     4  11  24  44  62  97 133 173 220 266 331 398
#
# _framework density 20.650165999999999
#
# number of rings (size 3 to 8) (size 9 to 14) (size 15 to 20)
#    0.000    1.500    3.750    1.125    7.000    1.500 
#    0.000    1.250    0.000    0.000    0.000    0.000 
#    0.000    0.000    0.000    0.000    0.000    0.000 
#
# Total GULP energy -89183.683374 kJ/mol
# GULP energy per Si atom -5573.980211 kJ/mol
# Density = 2.060316 g / cm^3
# Si number density = 20.650166 Si / 1000 Ang^3
#
#
#
# Elastic Constant Matrix: (Units=GPa)
#
#
# Indices 1 2 3 4 5 6 
#
# 1 119.8901 32.2399 39.8646 12.2963 24.2848 0.8414
# 2 32.2399 65.3668 13.3964 5.6731 6.4193 5.0199
# 3 39.8646 13.3964 51.7982 -11.1932 21.5528 -3.8732
# 4 12.2963 5.6731 -11.1932 29.1716 -2.3650 6.4591
# 5 24.2848 6.4193 21.5528 -2.3650 32.2602 -2.3148
# 6 0.8414 5.0199 -3.8732 6.4591 -2.3148 27.5926
#
#
#
# Elastic Compliance Matrix: (Units=1/GPa)
#
#
# Indices 1 2 3 4 5 6 
#
# 1 0.014842 -0.003870 -0.011014 -0.010205 -0.003737 0.000781
# 2 -0.003870 0.018112 -0.002718 -0.002214 0.000750 -0.002977
# 3 -0.011014 -0.002718 0.039232 0.018798 -0.015958 0.000598
# 4 -0.010205 -0.002214 0.018798 0.047870 -0.001499 -0.007979
# 5 -0.003737 0.000750 -0.015958 -0.001499 0.044342 0.001809
# 6 0.000781 -0.002977 0.000598 -0.007979 0.001809 0.038863
#
#
# Mechanical properties :
#
#
# Convention : Reuss Voigt Hill
#
# Bulk Modulus (GPa) = 27.04162 45.33967 36.19064
# Shear Modulus (GPa) = 19.93677 27.90848 23.92263
#
# Velocity S-wave (km/s) = 3.11055 3.68025 3.40733
# Velocity P-wave (km/s) = 5.10139 6.32951 5.74834
#
# Compressibility (1/GPa) = 0.03698003
#
# Stress axis : x y z
#
# Youngs Moduli (GPa) = 67.37619 55.21346 25.48959
#
# Poissons Ratio (x) = 0.21370 0.28074
# Poissons Ratio (y) = 0.26078 0.06929
# Poissons Ratio (z) = 0.74207 0.15009
#
# Static dielectric constant tensor:
#      x y z
#    x 1.778580 -0.010980 0.026290 
#    y -0.010980 1.827980 -0.028110 
#    z 0.026290 -0.028110 1.759670 
# 
# From -- ./inp_files/448303.got.cif
#   From: 2010.05.17/outbox.cif.g08.bks.cpg/sg2_225_cif.got.tgz:448303.got - 2010.06.03 11:33:40.
