data_PCOD9023538
_publ_section_title
;
Structure prediction by ZEFSAII (Michael W. Deem and Ramdas Pophale) SiO2 
 PCOD9023538
Probable space group: P -1
;
_chemical_formula_sum "Si O2"
_cell_formula_units_Z 13
_cell_length_a 10.268263
_cell_length_b 13.581447
_cell_length_c 7.087910
_cell_angle_alpha 61.951000
_cell_angle_beta 116.781477
_cell_angle_gamma 146.599833
_cell_volume 476.785389
_symmetry_space_group_name_H-M "P -1"
_symmetry_group_IT_number 2
_symmetry_cell_setting 'triclinic'
loop_
_space_group_symop_operation_xyz
x,y,z
-x,-y,-z
loop_
_atom_site_type_symbol
_atom_site_label
_atom_site_fract_x
_atom_site_fract_y
_atom_site_fract_z
Si Si1 0.323795 0.906801 0.763038
Si Si2 0.846329 0.971975 0.265999
Si Si3 0.273668 0.579716 0.541291
Si Si4 0.676925 0.663427 0.820855
Si Si5 0.201965 0.795789 0.359034
Si Si6 0.000000 0.500000 0.000000
Si Si7 0.364284 0.582129 0.182950
O O1 0.280734 0.000018 0.744642
O O2 0.251485 0.875780 0.524233
O O3 0.162469 0.714674 0.923722
O O4 0.602820 0.041575 0.806432
O O5 0.058907 0.145316 0.114997
O O6 0.641530 0.775662 0.209269
O O7 0.000000 0.000000 0.500000
O O8 0.531914 0.683607 0.640324
O O9 0.254529 0.694541 0.486039
O O10 0.224259 0.549171 0.306491
O O11 0.081945 0.379504 0.685172
O O12 0.688563 0.578896 0.736632
O O13 0.500000 0.500000 0.000000
O O14 0.777445 0.427085 0.046223
#
# Coordination Sequence:
#
# PCOD9023538 Si02
#       7
#     2   2   2   2   2   1   2
#     4  11  23  42  67 108 140 190 233 305 347 434
#     4  12  25  48  78 106 143 194 248 288 375 444
#     4  11  22  44  73 102 144 192 239 294 369 436
#     4  12  28  46  72 107 147 186 244 310 361 426
#     4  10  22  39  71 103 138 184 245 286 363 420
#     4  12  26  44  72  98 158 184 246 288 380 408
#     4  12  26  46  74 106 143 201 233 298 367 440
#
# _framework density 27.265937000000001
#
# number of rings (size 3 to 8) (size 9 to 14) (size 15 to 20)
#    0.000    0.615    6.154    0.462    4.308    2.462 
#    0.000    0.000    0.000    0.000    0.000    0.000 
#    0.000    0.000    0.000    0.000    0.000    0.000 
#
# Total GULP energy -72669.796385 kJ/mol
# GULP energy per Si atom -5589.984337 kJ/mol
# Density = 2.720388 g / cm^3
# Si number density = 27.265937 Si / 1000 Ang^3
#
#
#
# Elastic Constant Matrix: (Units=GPa)
#
#
# Indices 1 2 3 4 5 6 
#
# 1 100.0426 25.8889 10.9453 4.5679 13.8935 24.5758
# 2 25.8889 188.3429 21.1270 -23.2117 0.6744 49.1553
# 3 10.9453 21.1270 88.9245 -16.8314 -0.9887 3.4118
# 4 4.5679 -23.2117 -16.8314 50.1497 -0.2801 -13.4426
# 5 13.8935 0.6744 -0.9887 -0.2801 24.1272 -12.9529
# 6 24.5758 49.1553 3.4118 -13.4426 -12.9529 58.4594
#
#
#
# Elastic Compliance Matrix: (Units=1/GPa)
#
#
# Indices 1 2 3 4 5 6 
#
# 1 0.015209 0.000558 -0.002711 -0.005121 -0.014954 -0.011196
# 2 0.000558 0.007382 -0.001417 0.000960 -0.004392 -0.007111
# 3 -0.002711 -0.001417 0.012743 0.004861 0.004121 0.003618
# 4 -0.005121 0.000960 0.004861 0.024816 0.007994 0.008540
# 5 -0.014954 -0.004392 0.004121 0.007994 0.064308 0.025826
# 6 -0.011196 -0.007111 0.003618 0.008540 0.025826 0.035267
#
#
# Mechanical properties :
#
#
# Convention : Reuss Voigt Hill
#
# Bulk Modulus (GPa) = 35.46841 54.80357 45.13599
# Shear Modulus (GPa) = 28.36702 47.83718 38.10210
#
# Velocity S-wave (km/s) = 3.22900 4.19318 3.74227
# Velocity P-wave (km/s) = 5.19023 6.60204 5.93824
#
# Compressibility (1/GPa) = 0.02819411
#
# Stress axis : x y z
#
# Youngs Moduli (GPa) = 65.75132 135.47168 78.47584
#
# Poissons Ratio (x) = -0.07557 0.21272
# Poissons Ratio (y) = -0.03668 0.11118
# Poissons Ratio (z) = 0.17822 0.19193
#
# Static dielectric constant tensor:
#      x y z
#    x 2.036540 -0.029100 -0.256350 
#    y -0.029100 2.059630 -0.193280 
#    z -0.256350 -0.193280 1.792800 
# 
# From -- ./inp_files/174516.got.cif
#   From: 2010.05.17/outbox.cif.g08.bks.cpg/sg2_88_cif.got.tgz:174516.got - 2010.06.03 11:33:40.
