data_PCOD9023595
_publ_section_title
;
Structure prediction by ZEFSAII (Michael W. Deem and Ramdas Pophale) SiO2 
 PCOD9023595
Probable space group: P -1
;
_chemical_formula_sum "Si O2"
_cell_formula_units_Z 14
_cell_length_a 12.528520
_cell_length_b 12.916176
_cell_length_c 9.442995
_cell_angle_alpha 44.003152
_cell_angle_beta 82.331578
_cell_angle_gamma 118.153177
_cell_volume 594.965559
_symmetry_space_group_name_H-M "P -1"
_symmetry_group_IT_number 2
_symmetry_cell_setting 'triclinic'
loop_
_space_group_symop_operation_xyz
x,y,z
-x,-y,-z
loop_
_atom_site_type_symbol
_atom_site_label
_atom_site_fract_x
_atom_site_fract_y
_atom_site_fract_z
Si Si1 0.664587 0.733063 0.946100
Si Si2 0.964036 0.675468 0.655776
Si Si3 0.185128 0.507431 0.430429
Si Si4 0.193879 0.680447 0.530179
Si Si5 0.445236 0.237292 0.803249
Si Si6 0.431744 0.055442 0.712431
Si Si7 0.430907 0.656811 0.845878
O O1 0.523468 0.687828 0.936451
O O2 0.615364 0.689812 0.164747
O O3 0.632931 0.543828 0.056263
O O4 0.878935 0.036380 0.589631
O O5 0.954492 0.701915 0.462188
O O6 0.041134 0.594924 0.732323
O O7 0.755291 0.465643 0.957508
O O8 0.099294 0.483123 0.610784
O O9 0.335729 0.555839 0.406389
O O10 0.304960 0.776837 0.068183
O O11 0.348084 0.748366 0.506145
O O12 0.324214 0.962353 0.165469
O O13 0.404567 0.163159 0.718084
O O14 0.411603 0.071994 0.536139
#
# Coordination Sequence:
#
# PCOD9023595 Si02
#       7
#     2   2   2   2   2   2   2
#     4  10  22  40  57  77 103 148 199 214 258 321
#     4  11  20  35  59  80 107 147 181 217 271 327
#     4   9  16  33  58  84 109 140 172 223 274 322
#     4   8  17  32  56  84 110 138 179 216 266 337
#     4   8  15  35  59  79 104 144 183 217 261 326
#     4   9  19  35  56  85 114 136 175 223 278 320
#     4  11  23  38  56  77 112 148 178 231 264 310
#
# _framework density 23.530773
#
# number of rings (size 3 to 8) (size 9 to 14) (size 15 to 20)
#    0.000    2.571    1.429    2.571    0.000    1.714 
#    2.571    0.000    0.000    3.429    0.000    0.000 
#    0.000    0.000    0.000    0.000    0.000    0.000 
#
# Total GULP energy -78213.192100 kJ/mol
# GULP energy per Si atom -5586.656579 kJ/mol
# Density = 2.347722 g / cm^3
# Si number density = 23.530773 Si / 1000 Ang^3
#
#
#
# Elastic Constant Matrix: (Units=GPa)
#
#
# Indices 1 2 3 4 5 6 
#
# 1 54.9769 18.1828 27.3607 9.8102 -18.5860 -13.4196
# 2 18.1828 92.7725 20.9098 -5.1186 -9.3473 -8.1736
# 3 27.3607 20.9098 45.5019 3.0320 -5.7665 -1.1077
# 4 9.8102 -5.1186 3.0320 33.1138 -0.8730 -3.1559
# 5 -18.5860 -9.3473 -5.7665 -0.8730 18.8643 -1.9533
# 6 -13.4196 -8.1736 -1.1077 -3.1559 -1.9533 24.1402
#
#
#
# Elastic Compliance Matrix: (Units=1/GPa)
#
#
# Indices 1 2 3 4 5 6 
#
# 1 0.062742 0.003092 -0.030253 -0.010215 0.057548 0.037858
# 2 0.003092 0.013339 -0.006936 0.002664 0.008378 0.006943
# 3 -0.030253 -0.006936 0.039866 0.001829 -0.022935 -0.018953
# 4 -0.010215 0.002664 0.001829 0.033206 -0.006741 -0.000897
# 5 0.057548 0.008378 -0.022935 -0.006741 0.110873 0.041866
# 6 0.037858 0.006943 -0.018953 -0.000897 0.041866 0.067222
#
#
# Mechanical properties :
#
#
# Convention : Reuss Voigt Hill
#
# Bulk Modulus (GPa) = 20.94081 36.23975 28.59028
# Shear Modulus (GPa) = 12.15482 23.67685 17.91583
#
# Velocity S-wave (km/s) = 2.27524 3.17552 2.76230
# Velocity P-wave (km/s) = 3.97755 5.37398 4.72761
#
# Compressibility (1/GPa) = 0.04775365
#
# Stress axis : x y z
#
# Youngs Moduli (GPa) = 15.93822 74.96770 25.08420
#
# Poissons Ratio (x) = -0.23178 0.75887
# Poissons Ratio (y) = -0.04928 0.17398
# Poissons Ratio (z) = 0.48218 0.51995
#
# Static dielectric constant tensor:
#      x y z
#    x 1.892290 -0.015890 0.016740 
#    y -0.015890 1.923300 0.013630 
#    z 0.016740 0.013630 1.918420 
# 
# From -- ./inp_files/163061.got.cif
#   From: 2010.05.17/outbox.cif.g08.bks.cpg/sg2_82_cif.got.tgz:163061.got - 2010.06.03 11:33:40.
