data_PCOD9023733
_publ_section_title
;
Structure prediction by ZEFSAII (Michael W. Deem and Ramdas Pophale) SiO2 
 PCOD9023733
Probable space group: P -1
;
_chemical_formula_sum "Si O2"
_cell_formula_units_Z 14
_cell_length_a 10.858225
_cell_length_b 8.404666
_cell_length_c 6.181004
_cell_angle_alpha 86.552697
_cell_angle_beta 84.748220
_cell_angle_gamma 96.457688
_cell_volume 556.729534
_symmetry_space_group_name_H-M "P -1"
_symmetry_group_IT_number 2
_symmetry_cell_setting 'triclinic'
loop_
_space_group_symop_operation_xyz
x,y,z
-x,-y,-z
loop_
_atom_site_type_symbol
_atom_site_label
_atom_site_fract_x
_atom_site_fract_y
_atom_site_fract_z
Si Si1 0.411100 0.427384 0.711234
Si Si2 0.502203 0.264248 0.091109
Si Si3 0.160947 0.672360 0.422627
Si Si4 0.929912 0.629852 0.765703
Si Si5 0.699442 0.115660 0.303627
Si Si6 0.265870 0.215494 0.444821
Si Si7 0.062275 0.840808 0.048938
O O1 0.500000 0.500000 0.500000
O O2 0.409640 0.572603 0.867496
O O3 0.287219 0.348920 0.620402
O O4 0.469424 0.287912 0.845589
O O5 0.576668 0.124645 0.180578
O O6 0.373007 0.253757 0.243944
O O7 0.162840 0.530142 0.259242
O O8 0.283079 0.747185 0.523408
O O9 0.058753 0.613557 0.624008
O O10 0.105873 0.812695 0.285814
O O11 0.864141 0.770704 0.650265
O O12 0.966990 0.688872 0.994444
O O13 0.815115 0.148005 0.119740
O O14 0.712585 0.950416 0.434959
O O15 0.000000 0.000000 0.000000
#
# Coordination Sequence:
#
# PCOD9023733 Si02
#       7
#     2   2   2   2   2   2   2
#     4   9  21  40  60  85 118 157 200 245 292 353
#     4  10  22  40  61  87 119 158 201 243 297 358
#     4  10  22  41  63  87 120 158 204 255 298 352
#     4  10  22  40  62  89 117 157 205 250 300 355
#     4  11  24  39  60  91 123 159 201 247 300 359
#     4  11  22  37  60  89 124 158 195 246 301 358
#     4  11  23  39  61  88 121 160 202 250 304 355
#
# _framework density 25.146858999999999
#
# number of rings (size 3 to 8) (size 9 to 14) (size 15 to 20)
#    0.000    1.714    0.000    3.429    0.000   12.000 
#    0.000    0.000    0.000    0.000    0.000    0.000 
#    0.000    0.000    0.000    0.000    0.000    0.000 
#
# Total GULP energy -78348.887231 kJ/mol
# GULP energy per Si atom -5596.349088 kJ/mol
# Density = 2.508962 g / cm^3
# Si number density = 25.146859 Si / 1000 Ang^3
#
#
#
# Elastic Constant Matrix: (Units=GPa)
#
#
# Indices 1 2 3 4 5 6 
#
# 1 75.6797 0.5569 36.8997 1.2645 9.9259 -11.1295
# 2 0.5569 66.6301 7.3945 -12.2294 -2.0695 -0.7611
# 3 36.8997 7.3945 106.4510 -18.5263 19.7435 7.1729
# 4 1.2645 -12.2294 -18.5263 37.7864 -4.7480 12.6131
# 5 9.9259 -2.0695 19.7435 -4.7480 51.9744 -4.9143
# 6 -11.1295 -0.7611 7.1729 12.6131 -4.9143 32.2535
#
#
#
# Elastic Compliance Matrix: (Units=1/GPa)
#
#
# Indices 1 2 3 4 5 6 
#
# 1 0.019823 -0.000767 -0.009385 -0.009756 0.000062 0.012734
# 2 -0.000767 0.016142 0.000169 0.006196 0.001085 -0.002179
# 3 -0.009385 0.000169 0.016362 0.011903 -0.004483 -0.012211
# 4 -0.009756 0.006196 0.011903 0.042025 -0.000691 -0.022407
# 5 0.000062 0.001085 -0.004483 -0.000691 0.021343 0.004566
# 6 0.012734 -0.002179 -0.012211 -0.022407 0.004566 0.047521
#
#
# Mechanical properties :
#
#
# Convention : Reuss Voigt Hill
#
# Bulk Modulus (GPa) = 30.90400 37.60700 34.25550
# Shear Modulus (GPa) = 25.77711 37.99685 31.88698
#
# Velocity S-wave (km/s) = 3.20513 3.89137 3.56480
# Velocity P-wave (km/s) = 5.10032 5.93109 5.53132
#
# Compressibility (1/GPa) = 0.03235827
#
# Stress axis : x y z
#
# Youngs Moduli (GPa) = 50.44660 61.95007 61.11886
#
# Poissons Ratio (x) = 0.04754 0.57363
# Poissons Ratio (y) = 0.03871 -0.01031
# Poissons Ratio (z) = 0.47346 -0.01045
#
# Static dielectric constant tensor:
#      x y z
#    x 1.954790 -0.016760 0.022890 
#    y -0.016760 2.090020 0.014970 
#    z 0.022890 0.014970 1.945410 
# 
# From -- ./inp_files/27612.got.cif
#   From: 2010.05.17/outbox.cif.g08.bks.cpg/sg2_14_cif.got.tgz:27612.got - 2010.06.03 11:33:40.
