data_PCOD9023920
_publ_section_title
;
Structure prediction by ZEFSAII (Michael W. Deem and Ramdas Pophale) SiO2 
 PCOD9023920
Probable space group: P -1
;
_chemical_formula_sum "Si O2"
_cell_formula_units_Z 16
_cell_length_a 7.771015
_cell_length_b 7.678324
_cell_length_c 15.961644
_cell_angle_alpha 93.828284
_cell_angle_beta 95.177625
_cell_angle_gamma 36.189564
_cell_volume 560.031596
_symmetry_space_group_name_H-M "P -1"
_symmetry_group_IT_number 2
_symmetry_cell_setting 'triclinic'
loop_
_space_group_symop_operation_xyz
x,y,z
-x,-y,-z
loop_
_atom_site_type_symbol
_atom_site_label
_atom_site_fract_x
_atom_site_fract_y
_atom_site_fract_z
Si Si1 0.961278 0.257218 0.956475
Si Si2 0.647064 0.091504 0.288590
Si Si3 0.239623 0.291668 0.603823
Si Si4 0.629957 0.290858 0.128953
Si Si5 0.816590 0.584383 0.127304
Si Si6 0.159854 0.099063 0.455407
Si Si7 0.737025 0.290058 0.658342
Si Si8 0.203342 0.037656 0.207785
O O1 0.688506 0.389442 0.901970
O O2 0.085975 0.314880 0.907837
O O3 0.873289 0.404055 0.046689
O O4 0.229375 0.907304 0.953711
O O5 0.555096 0.210088 0.194766
O O6 0.514531 0.359864 0.346487
O O7 0.604802 0.934705 0.319929
O O8 0.994414 0.825415 0.295275
O O9 0.087448 0.255698 0.544366
O O10 0.025016 0.631698 0.610149
O O11 0.497726 0.149321 0.551917
O O12 0.892613 0.188268 0.177643
O O13 0.044116 0.356605 0.204976
O O14 0.483903 0.835242 0.152257
O O15 0.151343 0.902743 0.425145
O O16 0.673485 0.182967 0.717601
#
# Coordination Sequence:
#
# PCOD9023920 Si02
#       8
#     2   2   2   2   2   2   2   2
#     4  11  24  41  61  88 121 158 205 258 311 371
#     4  11  23  40  62  90 125 162 205 255 305 366
#     4  10  22  40  62  91 125 160 203 252 302 363
#     4  11  23  40  61  88 122 159 205 256 308 368
#     4  11  24  41  61  88 121 158 205 258 311 371
#     4  10  22  40  62  91 125 160 203 252 302 363
#     4  11  23  40  62  90 125 162 205 255 305 366
#     4  11  23  40  61  88 122 159 205 256 308 368
#
# _framework density 28.569818999999999
#
# number of rings (size 3 to 8) (size 9 to 14) (size 15 to 20)
#    0.000    1.250    0.000    6.750    0.000    9.000 
#    0.000    0.000    0.000    0.000    0.000    0.000 
#    0.000    0.000    0.000    0.000    0.000    0.000 
#
# Total GULP energy -89467.881190 kJ/mol
# GULP energy per Si atom -5591.742574 kJ/mol
# Density = 2.850479 g / cm^3
# Si number density = 28.569819 Si / 1000 Ang^3
#
#
#
# Elastic Constant Matrix: (Units=GPa)
#
#
# Indices 1 2 3 4 5 6 
#
# 1 98.7379 22.2463 -4.2025 5.4352 -6.6261 -2.4753
# 2 22.2463 169.4920 8.1353 10.2450 2.5609 -2.7279
# 3 -4.2025 8.1353 94.0304 2.5948 -8.0155 0.9861
# 4 5.4352 10.2450 2.5948 48.4655 7.2771 4.2043
# 5 -6.6261 2.5609 -8.0155 7.2771 43.6051 6.8280
# 6 -2.4753 -2.7279 0.9861 4.2043 6.8280 53.2678
#
#
#
# Elastic Compliance Matrix: (Units=1/GPa)
#
#
# Indices 1 2 3 4 5 6 
#
# 1 0.010688 -0.001391 0.000803 -0.001274 0.002027 0.000251
# 2 -0.001391 0.006193 -0.000622 -0.001070 -0.000577 0.000422
# 3 0.000803 -0.000622 0.010956 -0.000866 0.002385 -0.000435
# 4 -0.001274 -0.001070 -0.000866 0.021721 -0.003705 -0.001337
# 5 0.002027 -0.000577 0.002385 -0.003705 0.024780 -0.002863
# 6 0.000251 0.000422 -0.000435 -0.001337 -0.002863 0.019287
#
#
# Mechanical properties :
#
#
# Convention : Reuss Voigt Hill
#
# Bulk Modulus (GPa) = 39.34323 46.06874 42.70599
# Shear Modulus (GPa) = 47.83926 51.47308 49.65617
#
# Velocity S-wave (km/s) = 4.09647 4.24920 4.17353
# Velocity P-wave (km/s) = 6.01461 6.34305 6.18101
#
# Compressibility (1/GPa) = 0.02541733
#
# Stress axis : x y z
#
# Youngs Moduli (GPa) = 93.56445 161.48350 91.27135
#
# Poissons Ratio (x) = 0.22462 -0.07332
# Poissons Ratio (y) = 0.13014 0.05677
# Poissons Ratio (z) = -0.07516 0.10045
#
# Static dielectric constant tensor:
#      x y z
#    x 2.320120 0.105690 0.040010 
#    y 0.105690 2.110880 -0.002310 
#    z 0.040010 -0.002310 2.370330 
# 
# From -- ./inp_files/217583.got.cif
#   From: 2010.05.17/outbox.cif.g08.bks.cpg/sg2_109_cif.got.tgz:217583.got - 2010.06.03 11:33:40.
