data_PCOD9023171
_publ_section_title
;
Structure prediction by ZEFSAII (Michael W. Deem and Ramdas Pophale) SiO2 
 PCOD9023171
Probable space group: P -1
;
_chemical_formula_sum "Si O2"
_cell_formula_units_Z 14
_cell_length_a 9.411828
_cell_length_b 23.618342
_cell_length_c 12.325002
_cell_angle_alpha 32.645308
_cell_angle_beta 135.536479
_cell_angle_gamma 150.179950
_cell_volume 733.487272
_symmetry_space_group_name_H-M "P -1"
_symmetry_group_IT_number 2
_symmetry_cell_setting 'triclinic'
loop_
_space_group_symop_operation_xyz
x,y,z
-x,-y,-z
loop_
_atom_site_type_symbol
_atom_site_label
_atom_site_fract_x
_atom_site_fract_y
_atom_site_fract_z
Si Si1 0.434912 0.368262 0.386710
Si Si2 0.301463 0.513434 0.426013
Si Si3 0.775759 0.132929 0.366672
Si Si4 0.395407 0.329800 0.058202
Si Si5 0.647891 0.279847 0.473061
Si Si6 0.265701 0.636405 0.998224
Si Si7 0.167878 0.953362 0.694850
O O1 0.557055 0.406158 0.512806
O O2 0.589605 0.339927 0.441048
O O3 0.095604 0.219756 0.440325
O O4 0.495052 0.509447 0.147075
O O5 0.500000 0.500000 0.500000
O O6 0.973881 0.362409 0.511780
O O7 0.278055 0.593258 0.193431
O O8 0.768820 0.254548 0.177773
O O9 0.754931 0.079065 0.321103
O O10 0.500000 0.000000 0.500000
O O11 0.558923 0.316909 0.257881
O O12 0.462859 0.300929 0.026100
O O13 0.060215 0.198935 0.116931
O O14 0.449928 0.104587 0.658446
O O15 0.000000 0.500000 0.000000
O O16 0.000000 0.000000 0.500000
#
# Coordination Sequence:
#
# PCOD9023171 Si02
#       7
#     2   2   2   2   2   2   2
#     4  12  24  41  67  98 130 172 211 274 324 387
#     4  12  25  43  66  95 135 171 217 270 329 378
#     4  12  24  40  70 101 130 166 221 271 325 379
#     4  11  21  40  68  97 124 164 224 265 317 382
#     4  11  23  42  67  93 130 170 220 263 324 388
#     4  12  23  41  69  97 125 173 223 270 314 388
#     4  10  22  39  66  97 127 166 215 273 317 378
#
# _framework density 19.086901000000001
#
# number of rings (size 3 to 8) (size 9 to 14) (size 15 to 20)
#    0.000    0.571    7.143    2.571    4.000    0.000 
#    0.000    1.429    0.000    0.000    0.000    0.000 
#    0.000    0.000    0.000    0.000    0.000    0.000 
#
# Total GULP energy -78151.950632 kJ/mol
# GULP energy per Si atom -5582.282188 kJ/mol
# Density = 1.904346 g / cm^3
# Si number density = 19.086901 Si / 1000 Ang^3
#
#
#
# Elastic Constant Matrix: (Units=GPa)
#
#
# Indices 1 2 3 4 5 6 
#
# 1 150.6077 70.5079 22.7411 -29.3055 1.7669 12.4143
# 2 70.5079 109.4980 40.1578 -5.1970 -3.2486 13.0262
# 3 22.7411 40.1578 57.3996 -10.8980 -3.3668 -2.6736
# 4 -29.3055 -5.1970 -10.8980 16.1356 -3.1303 0.5414
# 5 1.7669 -3.2486 -3.3668 -3.1303 37.3536 -4.5506
# 6 12.4143 13.0262 -2.6736 0.5414 -4.5506 43.8605
#
#
#
# Elastic Compliance Matrix: (Units=1/GPa)
#
#
# Indices 1 2 3 4 5 6 
#
# 1 0.018551 -0.013298 0.008776 0.035685 0.001621 -0.001038
# 2 -0.013298 0.022715 -0.016210 -0.027980 -0.001664 -0.003798
# 3 0.008776 -0.016210 0.032016 0.033042 0.004357 0.004326
# 4 0.035685 -0.027980 0.033042 0.142185 0.010721 -0.000419
# 5 0.001621 -0.001664 0.004357 0.010721 0.028218 0.003096
# 6 -0.001038 -0.003798 0.004326 -0.000419 0.003096 0.024811
#
#
# Mechanical properties :
#
#
# Convention : Reuss Voigt Hill
#
# Bulk Modulus (GPa) = 31.42956 64.92433 48.17695
# Shear Modulus (GPa) = 15.59744 31.74316 23.67030
#
# Velocity S-wave (km/s) = 2.86174 4.08252 3.52537
# Velocity P-wave (km/s) = 5.23657 7.50410 6.47044
#
# Compressibility (1/GPa) = 0.03181718
#
# Stress axis : x y z
#
# Youngs Moduli (GPa) = 53.90674 44.02391 31.23453
#
# Poissons Ratio (x) = 0.58544 -0.27412
# Poissons Ratio (y) = 0.71687 0.50631
# Poissons Ratio (z) = -0.47309 0.71362
#
# Static dielectric constant tensor:
#      x y z
#    x 1.655660 0.035880 -0.031780 
#    y 0.035880 1.703700 -0.021730 
#    z -0.031780 -0.021730 1.649430 
# 
# From -- ./inp_files/154599.got.cif
#   From: 2010.05.17/outbox.cif.g08.bks.cpg/sg2_78_cif.got.tgz:154599.got - 2010.06.03 11:33:40.
