data_PCOD9023139
_publ_section_title
;
Structure prediction by ZEFSAII (Michael W. Deem and Ramdas Pophale) SiO2 
 PCOD9023139
Probable space group: P -1
;
_chemical_formula_sum "Si O2"
_cell_formula_units_Z 14
_cell_length_a 5.444598
_cell_length_b 22.355932
_cell_length_c 8.669846
_cell_angle_alpha 139.228147
_cell_angle_beta 93.571411
_cell_angle_gamma 104.527430
_cell_volume 611.703960
_symmetry_space_group_name_H-M "P -1"
_symmetry_group_IT_number 2
_symmetry_cell_setting 'triclinic'
loop_
_space_group_symop_operation_xyz
x,y,z
-x,-y,-z
loop_
_atom_site_type_symbol
_atom_site_label
_atom_site_fract_x
_atom_site_fract_y
_atom_site_fract_z
Si Si1 0.514588 0.422926 0.976623
Si Si2 0.148802 0.253482 0.434489
Si Si3 0.749916 0.607674 0.776598
Si Si4 0.032768 0.596857 0.469099
Si Si5 0.191345 0.954853 0.837230
Si Si6 0.302215 0.034568 0.651938
Si Si7 0.602825 0.750634 0.860858
O O1 0.285393 0.400480 0.057293
O O2 0.818604 0.482150 0.182376
O O3 0.500000 0.500000 0.000000
O O4 0.422720 0.318556 0.674438
O O5 0.043214 0.329949 0.500867
O O6 0.195208 0.201036 0.181384
O O7 0.943078 0.166044 0.366611
O O8 0.500000 0.500000 0.500000
O O9 0.986968 0.611249 0.677763
O O10 0.717136 0.707286 0.916792
O O11 0.361033 0.645839 0.572714
O O12 0.230298 0.983051 0.715438
O O13 0.500000 0.000000 0.000000
O O14 0.000000 0.000000 0.000000
O O15 0.500000 0.000000 0.500000
O O16 0.465121 0.159445 0.912999
O O17 0.000000 0.000000 0.500000
#
# Coordination Sequence:
#
# PCOD9023139 Si02
#       7
#     2   2   2   2   2   2   2
#     4   9  19  38  61  95 130 170 223 285 341 425
#     4  10  22  39  66  94 134 177 228 289 348 424
#     4   9  20  38  63  90 133 171 222 275 348 417
#     4   9  20  39  65  93 130 175 223 280 354 423
#     4  12  25  47  76 104 142 190 246 299 366 430
#     4  12  29  48  73 108 147 189 249 310 363 432
#     4  11  23  41  68  94 133 184 229 286 364 424
#
# _framework density 22.886889
#
# number of rings (size 3 to 8) (size 9 to 14) (size 15 to 20)
#    0.000    1.714    1.429    2.571    6.000    2.857 
#    0.000    2.857    0.000    0.000    0.000    0.000 
#    0.000    0.000    0.000    0.000    0.000    0.000 
#
# Total GULP energy -78121.551432 kJ/mol
# GULP energy per Si atom -5580.110817 kJ/mol
# Density = 2.283480 g / cm^3
# Si number density = 22.886889 Si / 1000 Ang^3
#
#
#
# Elastic Constant Matrix: (Units=GPa)
#
#
# Indices 1 2 3 4 5 6 
#
# 1 90.3551 45.4765 32.1994 -10.3666 1.4480 0.3245
# 2 45.4765 189.3876 54.9909 -24.3166 -9.1242 11.5889
# 3 32.1994 54.9909 93.0084 3.2400 -1.4042 -3.2700
# 4 -10.3666 -24.3166 3.2400 47.7891 1.9470 1.5319
# 5 1.4480 -9.1242 -1.4042 1.9470 40.0758 -0.3055
# 6 0.3245 11.5889 -3.2700 1.5319 -0.3055 27.3870
#
#
#
# Elastic Compliance Matrix: (Units=1/GPa)
#
#
# Indices 1 2 3 4 5 6 
#
# 1 0.013643 -0.001998 -0.003634 0.002234 -0.001183 0.000112
# 2 -0.001998 0.007779 -0.004160 0.003874 0.001479 -0.003965
# 3 -0.003634 -0.004160 0.014741 -0.004023 -0.000075 0.003787
# 4 0.002234 0.003874 -0.004023 0.023786 -0.000522 -0.003482
# 5 -0.001183 0.001479 -0.000075 -0.000522 0.025353 -0.000309
# 6 0.000112 -0.003965 0.003787 -0.003482 -0.000309 0.038834
#
#
# Mechanical properties :
#
#
# Convention : Reuss Voigt Hill
#
# Bulk Modulus (GPa) = 60.31127 70.89830 65.60478
# Shear Modulus (GPa) = 33.50203 39.05599 36.27901
#
# Velocity S-wave (km/s) = 3.83013 4.13544 3.98571
# Velocity P-wave (km/s) = 6.78004 7.33808 7.06457
#
# Compressibility (1/GPa) = 0.01658065
#
# Stress axis : x y z
#
# Youngs Moduli (GPa) = 73.29910 128.55207 67.83719
#
# Poissons Ratio (x) = 0.25683 0.24649
# Poissons Ratio (y) = 0.14644 0.28218
# Poissons Ratio (z) = 0.26634 0.53473
#
# Static dielectric constant tensor:
#      x y z
#    x 1.414290 0.423910 -0.095760 
#    y 0.423910 1.573290 0.081800 
#    z -0.095760 0.081800 1.866830 
# 
# From -- ./inp_files/53255.got.cif
#   From: 2010.05.17/outbox.cif.g08.bks.cpg/sg2_27_cif.got.tgz:53255.got - 2010.06.03 11:33:40.
