data_PCOD9023789
_publ_section_title
;
Structure prediction by ZEFSAII (Michael W. Deem and Ramdas Pophale) SiO2 
 PCOD9023789
Probable space group: P -1
;
_chemical_formula_sum "Si O2"
_cell_formula_units_Z 14
_cell_length_a 17.540301
_cell_length_b 7.445271
_cell_length_c 7.249842
_cell_angle_alpha 121.542484
_cell_angle_beta 90.301424
_cell_angle_gamma 125.738814
_cell_volume 585.109981
_symmetry_space_group_name_H-M "P -1"
_symmetry_group_IT_number 2
_symmetry_cell_setting 'triclinic'
loop_
_space_group_symop_operation_xyz
x,y,z
-x,-y,-z
loop_
_atom_site_type_symbol
_atom_site_label
_atom_site_fract_x
_atom_site_fract_y
_atom_site_fract_z
Si Si1 0.942569 0.589061 0.299064
Si Si2 0.621496 0.730795 0.827957
Si Si3 0.157158 0.033524 0.107502
Si Si4 0.893949 0.855784 0.180415
Si Si5 0.420343 0.990796 0.747431
Si Si6 0.425382 0.053503 0.373826
Si Si7 0.234927 0.440495 0.654380
O O1 0.920932 0.311168 0.094206
O O2 0.950661 0.755718 0.207994
O O3 0.837581 0.489496 0.338101
O O4 0.038439 0.822747 0.561251
O O5 0.531700 0.392833 0.593869
O O6 0.636309 0.926925 0.765471
O O7 0.732483 0.831445 0.908340
O O8 0.581108 0.790929 0.031203
O O9 0.117562 0.145494 0.036279
O O10 0.185232 0.162171 0.380625
O O11 0.783426 0.643423 0.176316
O O12 0.531912 0.087748 0.776554
O O13 0.348284 0.702801 0.716795
O O14 0.374842 0.927240 0.505812
#
# Coordination Sequence:
#
# PCOD9023789 Si02
#       7
#     2   2   2   2   2   2   2
#     4   9  21  46  59  92 128 155 205 255 297 360
#     4  11  22  41  60  90 122 157 203 252 305 356
#     4  12  22  39  67  92 121 165 202 249 308 363
#     4   9  22  44  62  90 128 157 204 254 297 367
#     4  11  21  42  62  87 119 162 201 251 307 351
#     4  10  24  40  61  89 119 158 207 248 299 371
#     4  10  22  40  61  93 120 158 210 245 301 370
#
# _framework density 23.927125
#
# number of rings (size 3 to 8) (size 9 to 14) (size 15 to 20)
#    0.857    0.857    2.857    1.286    0.000    4.571 
#    5.143    0.000    0.000    0.000    0.000    0.000 
#    0.000    0.000    0.000    0.000    0.000    0.000 
#
# Total GULP energy -78273.137577 kJ/mol
# GULP energy per Si atom -5590.938398 kJ/mol
# Density = 2.387267 g / cm^3
# Si number density = 23.927125 Si / 1000 Ang^3
#
#
#
# Elastic Constant Matrix: (Units=GPa)
#
#
# Indices 1 2 3 4 5 6 
#
# 1 60.7697 -2.0416 19.8285 -10.1201 -10.2855 3.1104
# 2 -2.0416 59.0175 16.8490 -3.1150 4.9155 -1.6589
# 3 19.8285 16.8490 54.0414 -10.5618 -15.2152 1.2049
# 4 -10.1201 -3.1150 -10.5618 34.4245 -7.9041 7.6694
# 5 -10.2855 4.9155 -15.2152 -7.9041 39.8959 -2.9830
# 6 3.1104 -1.6589 1.2049 7.6694 -2.9830 23.7564
#
#
#
# Elastic Compliance Matrix: (Units=1/GPa)
#
#
# Indices 1 2 3 4 5 6 
#
# 1 0.020248 0.002288 -0.005868 0.006009 0.003615 -0.003680
# 2 0.002288 0.020018 -0.009064 -0.001911 -0.005602 0.001471
# 3 -0.005868 -0.009064 0.028957 0.009839 0.012375 -0.002956
# 4 0.006009 -0.001911 0.009839 0.039301 0.012385 -0.012552
# 5 0.003615 -0.005602 0.012375 0.012385 0.033767 -0.001250
# 6 -0.003680 0.001471 -0.002956 -0.012552 -0.001250 0.046724
#
#
# Mechanical properties :
#
#
# Convention : Reuss Voigt Hill
#
# Bulk Modulus (GPa) = 22.76128 27.01115 24.88622
# Shear Modulus (GPa) = 21.83890 28.89488 25.36689
#
# Velocity S-wave (km/s) = 3.02441 3.47885 3.25956
# Velocity P-wave (km/s) = 4.66149 5.23927 4.95880
#
# Compressibility (1/GPa) = 0.04393426
#
# Stress axis : x y z
#
# Youngs Moduli (GPa) = 49.38699 49.95456 34.53425
#
# Poissons Ratio (x) = -0.11432 0.20266
# Poissons Ratio (y) = -0.11302 0.31303
# Poissons Ratio (z) = 0.28983 0.45281
#
# Static dielectric constant tensor:
#      x y z
#    x 1.903860 0.004990 0.019340 
#    y 0.004990 1.952520 -0.000350 
#    z 0.019340 -0.000350 1.921310 
# 
# From -- ./inp_files/117379.got.cif
#   From: 2010.05.17/outbox.cif.g08.bks.cpg/sg2_59_cif.got.tgz:117379.got - 2010.06.03 11:33:40.
