data_PCOD9023262
_publ_section_title
;
Structure prediction by ZEFSAII (Michael W. Deem and Ramdas Pophale) SiO2 
 PCOD9023262
Probable space group: P -1
;
_chemical_formula_sum "Si O2"
_cell_formula_units_Z 14
_cell_length_a 5.345063
_cell_length_b 19.451846
_cell_length_c 14.026351
_cell_angle_alpha 153.303040
_cell_angle_beta 97.585856
_cell_angle_gamma 83.826876
_cell_volume 649.278658
_symmetry_space_group_name_H-M "P -1"
_symmetry_group_IT_number 2
_symmetry_cell_setting 'triclinic'
loop_
_space_group_symop_operation_xyz
x,y,z
-x,-y,-z
loop_
_atom_site_type_symbol
_atom_site_label
_atom_site_fract_x
_atom_site_fract_y
_atom_site_fract_z
Si Si1 0.332937 0.481974 0.857341
Si Si2 0.768909 0.305072 0.730884
Si Si3 0.092939 0.633591 0.407404
Si Si4 0.750910 0.100297 0.111969
Si Si5 0.337214 0.876113 0.079758
Si Si6 0.140243 0.023023 0.701797
Si Si7 0.639928 0.672004 0.970151
O O1 0.475560 0.351400 0.760308
O O2 0.526373 0.611253 0.987555
O O3 0.205238 0.403850 0.661779
O O4 0.152270 0.577467 0.035770
O O5 0.858327 0.324665 0.649974
O O6 0.844036 0.134472 0.549378
O O7 0.194440 0.765529 0.643656
O O8 0.217610 0.473938 0.242736
O O9 0.723500 0.160133 0.076816
O O10 0.500000 0.000000 0.000000
O O11 0.000000 0.000000 0.000000
O O12 0.412022 0.727795 0.960905
O O13 0.600541 0.974622 0.219487
O O14 0.107149 0.959065 0.223635
O O15 0.179948 0.176923 0.831940
#
# Coordination Sequence:
#
# PCOD9023262 Si02
#       7
#     2   2   2   2   2   2   2
#     4  10  22  42  63 100 131 177 223 272 336 393
#     4  10  22  39  67  94 135 176 223 276 331 387
#     4  11  23  41  67  96 136 172 222 278 330 391
#     4  12  27  43  70 103 131 174 222 274 332 398
#     4  10  22  44  64  96 133 168 224 264 332 385
#     4  10  22  42  69  94 132 176 216 276 318 396
#     4   9  23  41  66  92 140 172 222 266 333 392
#
# _framework density 21.562387999999999
#
# number of rings (size 3 to 8) (size 9 to 14) (size 15 to 20)
#    0.857    0.857    0.000    3.857    8.000    1.143 
#    0.000    2.857    0.000    0.000    0.000    0.000 
#    0.000    0.000    0.000    0.000    0.000    0.000 
#
# Total GULP energy -78030.351427 kJ/mol
# GULP energy per Si atom -5573.596530 kJ/mol
# Density = 2.151331 g / cm^3
# Si number density = 21.562388 Si / 1000 Ang^3
#
#
#
# Elastic Constant Matrix: (Units=GPa)
#
#
# Indices 1 2 3 4 5 6 
#
# 1 108.6084 34.4847 51.2967 2.8134 -4.0461 -10.4873
# 2 34.4847 78.3690 45.7916 1.7259 -3.2035 -11.0839
# 3 51.2967 45.7916 169.3309 9.3893 -5.9528 -13.4554
# 4 2.8134 1.7259 9.3893 34.7654 -9.1088 4.2856
# 5 -4.0461 -3.2035 -5.9528 -9.1088 20.9852 -3.0314
# 6 -10.4873 -11.0839 -13.4554 4.2856 -3.0314 23.5762
#
#
#
# Elastic Compliance Matrix: (Units=1/GPa)
#
#
# Indices 1 2 3 4 5 6 
#
# 1 0.011687 -0.003341 -0.002389 -0.000074 0.001389 0.002457
# 2 -0.003341 0.016791 -0.003088 0.000146 0.001808 0.004852
# 3 -0.002389 -0.003088 0.007783 -0.001832 0.000823 0.002366
# 4 -0.000074 0.000146 -0.001832 0.033379 0.013200 -0.005380
# 5 0.001389 0.001808 0.000823 0.013200 0.055116 0.006624
# 6 0.002457 0.004852 0.002366 -0.005380 0.006624 0.048969
#
#
# Mechanical properties :
#
#
# Convention : Reuss Voigt Hill
#
# Bulk Modulus (GPa) = 53.68827 68.82824 61.25826
# Shear Modulus (GPa) = 25.30741 30.84770 28.07756
#
# Velocity S-wave (km/s) = 3.42962 3.78646 3.61245
# Velocity P-wave (km/s) = 6.37465 7.14886 6.77283
#
# Compressibility (1/GPa) = 0.01862604
#
# Stress axis : x y z
#
# Youngs Moduli (GPa) = 85.56220 59.55445 128.48855
#
# Poissons Ratio (x) = 0.19898 0.30695
# Poissons Ratio (y) = 0.28587 0.39674
# Poissons Ratio (z) = 0.20440 0.18389
#
# Static dielectric constant tensor:
#      x y z
#    x 1.900490 0.009680 0.056940 
#    y 0.009680 1.785900 -0.007080 
#    z 0.056940 -0.007080 1.750520 
# 
# From -- ./inp_files/479748.got.cif
#   From: 2010.05.17/outbox.cif.g08.bks.cpg/sg2_240_cif.got.tgz:479748.got - 2010.06.03 11:33:40.
