data_PCOD9023500
_publ_section_title
;
Structure prediction by ZEFSAII (Michael W. Deem and Ramdas Pophale) SiO2 
 PCOD9023500
Probable space group: P -1
;
_chemical_formula_sum "Si O2"
_cell_formula_units_Z 16
_cell_length_a 25.189553
_cell_length_b 12.411278
_cell_length_c 5.269442
_cell_angle_alpha 96.925522
_cell_angle_beta 99.353679
_cell_angle_gamma 21.260599
_cell_volume 587.224717
_symmetry_space_group_name_H-M "P -1"
_symmetry_group_IT_number 2
_symmetry_cell_setting 'triclinic'
loop_
_space_group_symop_operation_xyz
x,y,z
-x,-y,-z
loop_
_atom_site_type_symbol
_atom_site_label
_atom_site_fract_x
_atom_site_fract_y
_atom_site_fract_z
Si Si1 0.411700 0.248608 0.177075
Si Si2 0.963163 0.750649 0.602068
Si Si3 0.019558 0.889011 0.730559
Si Si4 0.570451 0.604374 0.114420
Si Si5 0.287749 0.321686 0.497961
Si Si6 0.807869 0.832039 0.630822
Si Si7 0.768053 0.750884 0.948079
Si Si8 0.493065 0.387554 0.411490
O O1 0.549586 0.027279 0.400864
O O2 0.341926 0.463950 0.982449
O O3 0.308190 0.384974 0.341373
O O4 0.500000 0.000000 0.000000
O O5 0.929174 0.944549 0.621042
O O6 0.043147 0.520151 0.390931
O O7 0.834883 0.907596 0.627110
O O8 0.092144 0.513516 0.842194
O O9 0.192074 0.528578 0.730256
O O10 0.000000 0.000000 0.500000
O O11 0.000000 0.000000 0.000000
O O12 0.582297 0.489624 0.880871
O O13 0.580722 0.538351 0.386982
O O14 0.400848 0.963763 0.048838
O O15 0.200602 0.394670 0.294729
O O16 0.758379 0.894381 0.892107
O O17 0.671833 0.031431 0.430782
O O18 0.500000 0.500000 0.500000
#
# Coordination Sequence:
#
# PCOD9023500 Si02
#       8
#     2   2   2   2   2   2   2   2
#     4  11  23  39  70 108 137 175 241 310 350 412
#     4  11  22  42  71  99 134 176 243 303 344 419
#     4  12  28  49  70  99 146 201 240 286 370 446
#     4  11  22  40  67 101 136 186 229 283 357 429
#     4  11  24  42  69 103 145 186 240 304 362 430
#     4  10  22  39  70 106 131 176 239 301 352 411
#     4  11  19  39  70 102 135 173 235 298 365 411
#     4  11  24  45  67  99 145 187 225 282 370 442
#
# _framework density 27.246808999999999
#
# number of rings (size 3 to 8) (size 9 to 14) (size 15 to 20)
#    0.000    1.000    3.750    3.750    3.500    0.000 
#    2.250    0.000    0.000    0.000    0.000    0.000 
#    0.000    0.000    0.000    0.000    0.000    0.000 
#
# Total GULP energy -89269.470194 kJ/mol
# GULP energy per Si atom -5579.341887 kJ/mol
# Density = 2.718479 g / cm^3
# Si number density = 27.246809 Si / 1000 Ang^3
#
#
#
# Elastic Constant Matrix: (Units=GPa)
#
#
# Indices 1 2 3 4 5 6 
#
# 1 230.7951 21.0414 44.0765 14.2681 -14.2973 9.1457
# 2 21.0414 53.9437 15.9361 14.0329 -3.1125 -3.0637
# 3 44.0765 15.9361 125.4764 20.5695 -5.3442 2.8533
# 4 14.2681 14.0329 20.5695 48.6267 3.5887 2.4358
# 5 -14.2973 -3.1125 -5.3442 3.5887 48.2433 5.0781
# 6 9.1457 -3.0637 2.8533 2.4358 5.0781 41.8154
#
#
#
# Elastic Compliance Matrix: (Units=1/GPa)
#
#
# Indices 1 2 3 4 5 6 
#
# 1 0.004883 -0.001358 -0.001375 -0.000500 0.001372 -0.001211
# 2 -0.001358 0.021011 -0.001333 -0.005279 0.000975 0.002116
# 3 -0.001375 -0.001333 0.009177 -0.003136 0.000792 -0.000337
# 4 -0.000500 -0.005279 -0.003136 0.023802 -0.002486 -0.001148
# 5 0.001372 0.000975 0.000792 -0.002486 0.021763 -0.002781
# 6 -0.001211 0.002116 -0.000337 -0.001148 -0.002781 0.024762
#
#
# Mechanical properties :
#
#
# Convention : Reuss Voigt Hill
#
# Bulk Modulus (GPa) = 37.11924 63.59147 50.35535
# Shear Modulus (GPa) = 40.81285 49.68117 45.24701
#
# Velocity S-wave (km/s) = 3.87446 4.27473 4.07951
# Velocity P-wave (km/s) = 5.80243 6.91044 6.38053
#
# Compressibility (1/GPa) = 0.02694021
#
# Stress axis : x y z
#
# Youngs Moduli (GPa) = 204.78676 47.59392 108.96518
#
# Poissons Ratio (x) = 0.06464 0.14982
# Poissons Ratio (y) = 0.27813 0.14520
# Poissons Ratio (z) = 0.28156 0.06342
#
# Static dielectric constant tensor:
#      x y z
#    x 2.230950 -0.004330 -0.067010 
#    y -0.004330 2.288320 0.063260 
#    z -0.067010 0.063260 2.259910 
# 
# From -- ./inp_files/123474.got.cif
#   From: 2010.05.17/outbox.cif.g08.bks.cpg/sg2_62_cif.got.tgz:123474.got - 2010.06.03 11:33:40.
