data_PCOD9023698
_publ_section_title
;
Structure prediction by ZEFSAII (Michael W. Deem and Ramdas Pophale) SiO2 
 PCOD9023698
Probable space group: P -1
;
_chemical_formula_sum "Si O2"
_cell_formula_units_Z 12
_cell_length_a 13.156413
_cell_length_b 7.775120
_cell_length_c 14.405233
_cell_angle_alpha 55.413923
_cell_angle_beta 139.999728
_cell_angle_gamma 140.303728
_cell_volume 604.132034
_symmetry_space_group_name_H-M "P -1"
_symmetry_group_IT_number 2
_symmetry_cell_setting 'triclinic'
loop_
_space_group_symop_operation_xyz
x,y,z
-x,-y,-z
loop_
_atom_site_type_symbol
_atom_site_label
_atom_site_fract_x
_atom_site_fract_y
_atom_site_fract_z
Si Si1 0.632782 0.952380 0.168600
Si Si2 0.068238 0.232585 0.403837
Si Si3 0.511756 0.233025 0.482045
Si Si4 0.583678 0.019534 0.323199
Si Si5 0.100251 0.946191 0.353839
Si Si6 0.632916 0.538492 0.168107
O O1 0.626893 0.718849 0.186186
O O2 0.560530 0.907895 0.238397
O O3 0.872805 0.218687 0.261943
O O4 0.500000 0.000000 0.000000
O O5 0.291443 0.495991 0.506355
O O6 0.096543 0.150282 0.349729
O O7 0.000000 0.000000 0.500000
O O8 0.500000 0.000000 0.500000
O O9 0.550129 0.221650 0.622273
O O10 0.280149 0.125785 0.349155
O O11 0.807123 0.153350 0.481730
O O12 0.556530 0.246008 0.236472
O O13 0.865998 0.704200 0.243991
O O14 0.500000 0.500000 0.000000
#
# Coordination Sequence:
#
# PCOD9023698 Si02
#       6
#     2   2   2   2   2   2
#     4  11  23  39  65  92 126 171 208 260 313 379
#     4  11  21  39  66  90 118 168 221 252 315 385
#     4  10  24  36  62  95 131 159 210 269 321 359
#     4  10  22  40  60  93 131 156 218 255 318 366
#     4   9  22  37  62  89 128 158 213 258 315 369
#     4  11  22  37  67  96 126 169 212 255 318 380
#
# _framework density 19.863206999999999
#
# number of rings (size 3 to 8) (size 9 to 14) (size 15 to 20)
#    1.000    0.667    3.333    1.000    7.000    0.000 
#    0.000    0.833    3.667    2.000    0.000    0.000 
#    0.000    0.000    0.000    0.000    0.000    0.000 
#
# Total GULP energy -66806.402949 kJ/mol
# GULP energy per Si atom -5567.200246 kJ/mol
# Density = 1.981800 g / cm^3
# Si number density = 19.863207 Si / 1000 Ang^3
#
#
#
# Elastic Constant Matrix: (Units=GPa)
#
#
# Indices 1 2 3 4 5 6 
#
# 1 100.7189 24.3030 16.1251 4.4465 1.5485 8.7862
# 2 24.3030 116.3387 32.5280 9.0992 5.3069 15.0626
# 3 16.1251 32.5280 134.6030 4.4165 3.1442 11.5610
# 4 4.4465 9.0992 4.4165 19.0375 -2.3137 4.9306
# 5 1.5485 5.3069 3.1442 -2.3137 27.3578 0.8889
# 6 8.7862 15.0626 11.5610 4.9306 0.8889 24.6143
#
#
#
# Elastic Compliance Matrix: (Units=1/GPa)
#
#
# Indices 1 2 3 4 5 6 
#
# 1 0.010680 -0.001669 -0.000643 -0.000982 -0.000216 -0.002285
# 2 -0.001669 0.010323 -0.001787 -0.003277 -0.001845 -0.004159
# 3 -0.000643 -0.001787 0.008169 -0.000323 -0.000504 -0.002431
# 4 -0.000982 -0.003277 -0.000323 0.057503 0.005891 -0.009224
# 5 -0.000216 -0.001845 -0.000504 0.005891 0.037514 -0.001092
# 6 -0.002285 -0.004159 -0.002431 -0.009224 -0.001092 0.047017
#
#
# Mechanical properties :
#
#
# Convention : Reuss Voigt Hill
#
# Bulk Modulus (GPa) = 47.67506 55.28587 51.48047
# Shear Modulus (GPa) = 26.82475 32.78221 29.80348
#
# Velocity S-wave (km/s) = 3.67887 4.06692 3.87775
# Velocity P-wave (km/s) = 6.48839 7.06731 6.78403
#
# Compressibility (1/GPa) = 0.02097533
#
# Stress axis : x y z
#
# Youngs Moduli (GPa) = 93.63122 96.87380 122.41049
#
# Poissons Ratio (x) = 0.16168 0.07867
# Poissons Ratio (y) = 0.15626 0.21873
# Poissons Ratio (z) = 0.06017 0.17310
#
# Static dielectric constant tensor:
#      x y z
#    x 1.443120 -0.001390 -0.053650 
#    y -0.001390 1.754880 0.014690 
#    z -0.053650 0.014690 1.698950 
# 
# From -- ./inp_files/515131.got.cif
#   From: 2010.05.17/outbox.cif.g08.bks.cpg/sg2_258_cif.got.tgz:515131.got - 2010.06.03 11:33:40.
