data_PCOD9023607
_publ_section_title
;
Structure prediction by ZEFSAII (Michael W. Deem and Ramdas Pophale) SiO2 
 PCOD9023607
Probable space group: P -1
;
_chemical_formula_sum "Si O2"
_cell_formula_units_Z 12
_cell_length_a 20.328551
_cell_length_b 6.681081
_cell_length_c 20.959389
_cell_angle_alpha 135.739480
_cell_angle_beta 14.196239
_cell_angle_gamma 133.891983
_cell_volume 487.224539
_symmetry_space_group_name_H-M "P -1"
_symmetry_group_IT_number 2
_symmetry_cell_setting 'triclinic'
loop_
_space_group_symop_operation_xyz
x,y,z
-x,-y,-z
loop_
_atom_site_type_symbol
_atom_site_label
_atom_site_fract_x
_atom_site_fract_y
_atom_site_fract_z
Si Si1 0.828476 0.673586 0.286910
Si Si2 0.292238 0.773619 0.226453
Si Si3 0.394759 0.483370 0.863084
Si Si4 0.245006 0.873481 0.834729
Si Si5 0.135460 0.186627 0.570896
Si Si6 0.734716 0.613624 0.685100
O O1 0.538576 0.778914 0.560678
O O2 0.825488 0.326112 0.204874
O O3 0.890020 0.797074 0.326081
O O4 0.039610 0.789094 0.063933
O O5 0.051424 0.570243 0.383756
O O6 0.220621 0.888269 0.390440
O O7 0.277471 0.076760 0.269888
O O8 0.578840 0.654465 0.907663
O O9 0.619749 0.608634 0.633240
O O10 0.559816 0.415920 0.757344
O O11 0.257666 0.213978 0.896852
O O12 0.153744 0.703121 0.157120
#
# Coordination Sequence:
#
# PCOD9023607 Si02
#       6
#     2   2   2   2   2   2
#     4  10  22  40  58  76 106 147 179 210 268 334
#     4   9  16  28  47  74 107 138 169 209 259 312
#     4  11  21  33  56  86 108 134 179 229 264 298
#     4  10  22  40  58  76 106 147 179 210 268 334
#     4  11  21  33  56  86 108 134 179 229 264 298
#     4   9  16  28  47  74 107 138 169 209 259 312
#
# _framework density 24.629301999999999
#
# number of rings (size 3 to 8) (size 9 to 14) (size 15 to 20)
#    0.000    2.000    0.000    7.000    0.000    1.333 
#    0.000    0.000    0.000    6.000    0.000    0.000 
#    0.000    0.000    0.000    0.000    0.000    0.000 
#
# Total GULP energy -67156.956033 kJ/mol
# GULP energy per Si atom -5596.413003 kJ/mol
# Density = 2.457324 g / cm^3
# Si number density = 24.629302 Si / 1000 Ang^3
#
#
#
# Elastic Constant Matrix: (Units=GPa)
#
#
# Indices 1 2 3 4 5 6 
#
# 1 88.2210 18.0818 32.3392 10.0929 5.8067 30.8670
# 2 18.0818 91.6424 34.7254 4.6976 -3.8955 15.7320
# 3 32.3392 34.7254 179.2320 -4.6468 -1.3294 8.4777
# 4 10.0929 4.6976 -4.6468 41.2773 4.3310 3.7663
# 5 5.8067 -3.8955 -1.3294 4.3310 40.2633 -0.0140
# 6 30.8670 15.7320 8.4777 3.7663 -0.0140 25.1326
#
#
#
# Elastic Compliance Matrix: (Units=1/GPa)
#
#
# Indices 1 2 3 4 5 6 
#
# 1 0.021925 0.001401 -0.003087 -0.003176 -0.002796 -0.026288
# 2 0.001401 0.013211 -0.002417 -0.001421 0.001146 -0.008961
# 3 -0.003087 -0.002417 0.006508 0.001471 0.000269 0.002889
# 4 -0.003176 -0.001421 0.001471 0.025537 -0.002378 0.000465
# 5 -0.002796 0.001146 0.000269 -0.002378 0.025616 0.002996
# 6 -0.026288 -0.008961 0.002889 0.000465 0.002996 0.076642
#
#
# Mechanical properties :
#
#
# Convention : Reuss Voigt Hill
#
# Bulk Modulus (GPa) = 29.90618 58.82092 44.36355
# Shear Modulus (GPa) = 26.48410 39.59791 33.04101
#
# Velocity S-wave (km/s) = 3.28275 4.01403 3.66667
# Velocity P-wave (km/s) = 5.15145 6.73926 5.99813
#
# Compressibility (1/GPa) = 0.03343791
#
# Stress axis : x y z
#
# Youngs Moduli (GPa) = 45.61018 75.69288 153.65503
#
# Poissons Ratio (x) = -0.10601 0.47432
# Poissons Ratio (y) = -0.06388 0.37135
# Poissons Ratio (z) = 0.14080 0.18293
#
# Static dielectric constant tensor:
#      x y z
#    x 2.028960 -0.077060 -0.016870 
#    y -0.077060 2.061390 0.047700 
#    z -0.016870 0.047700 1.855770 
# 
# From -- ./inp_files/210828.got.cif
#   From: 2010.05.17/outbox.cif.g08.bks.cpg/sg2_106_cif.got.tgz:210828.got - 2010.06.03 11:33:40.
