data_PCOD9023087
_publ_section_title
;
Structure prediction by ZEFSAII (Michael W. Deem and Ramdas Pophale) SiO2 
 PCOD9023087
Probable space group: P -1
;
_chemical_formula_sum "Si O2"
_cell_formula_units_Z 16
_cell_length_a 9.943548
_cell_length_b 15.697638
_cell_length_c 7.524647
_cell_angle_alpha 57.958634
_cell_angle_beta 57.784089
_cell_angle_gamma 42.146689
_cell_volume 647.600174
_symmetry_space_group_name_H-M "P -1"
_symmetry_group_IT_number 2
_symmetry_cell_setting 'triclinic'
loop_
_space_group_symop_operation_xyz
x,y,z
-x,-y,-z
loop_
_atom_site_type_symbol
_atom_site_label
_atom_site_fract_x
_atom_site_fract_y
_atom_site_fract_z
Si Si1 0.848827 0.838250 0.934159
Si Si2 0.699937 0.355810 0.075487
Si Si3 0.048573 0.212204 0.493652
Si Si4 0.044290 0.454626 0.224105
Si Si5 0.499465 0.250973 0.218483
Si Si6 0.811694 0.998223 0.090112
Si Si7 0.393196 0.649572 0.446753
Si Si8 0.644915 0.724969 0.312315
O O1 0.818899 0.953995 0.933104
O O2 0.678649 0.822784 0.109046
O O3 0.063489 0.705235 0.015246
O O4 0.871750 0.841727 0.702743
O O5 0.673568 0.265799 0.082371
O O6 0.663332 0.337637 0.322303
O O7 0.500000 0.500000 0.000000
O O8 0.816573 0.263292 0.609292
O O9 0.037077 0.337099 0.384113
O O10 0.167932 0.107649 0.679647
O O11 0.280709 0.387693 0.168534
O O12 0.868875 0.579085 0.326617
O O13 0.000000 0.500000 0.000000
O O14 0.461525 0.227934 0.471829
O O15 0.590130 0.132699 0.153412
O O16 0.000000 0.000000 0.000000
O O17 0.500000 0.500000 0.500000
O O18 0.525750 0.696974 0.294597
#
# Coordination Sequence:
#
# PCOD9023087 Si02
#       8
#     2   2   2   2   2   2   2   2
#     4  11  24  48  73 107 149 193 249 311 368 434
#     4  10  22  39  69 103 142 188 241 307 376 441
#     4  11  26  47  76 110 152 194 253 305 368 453
#     4  12  24  44  75 115 154 185 235 317 392 442
#     4  11  26  47  71 106 145 197 253 301 367 455
#     4  12  28  53  77 102 148 211 257 304 362 438
#     4  10  22  39  66 108 146 187 237 298 378 446
#     4  11  23  44  74 109 152 188 238 316 384 436
#
# _framework density 24.706603999999999
#
# number of rings (size 3 to 8) (size 9 to 14) (size 15 to 20)
#    0.000    1.000    3.750    1.875    3.500    4.500 
#    2.250    1.250    0.000    0.000    0.000    0.000 
#    0.000    0.000    0.000    0.000    0.000    0.000 
#
# Total GULP energy -89579.941787 kJ/mol
# GULP energy per Si atom -5598.746362 kJ/mol
# Density = 2.465037 g / cm^3
# Si number density = 24.706604 Si / 1000 Ang^3
#
#
#
# Elastic Constant Matrix: (Units=GPa)
#
#
# Indices 1 2 3 4 5 6 
#
# 1 94.2809 -0.8378 23.5267 3.0947 -23.9116 15.5751
# 2 -0.8378 89.4417 21.7246 18.8179 5.0251 20.3621
# 3 23.5267 21.7246 115.1332 5.7912 -0.0334 14.0475
# 4 3.0947 18.8179 5.7912 39.1965 4.1734 9.6214
# 5 -23.9116 5.0251 -0.0334 4.1734 36.4279 -2.8862
# 6 15.5751 20.3621 14.0475 9.6214 -2.8862 45.8277
#
#
#
# Elastic Compliance Matrix: (Units=1/GPa)
#
#
# Indices 1 2 3 4 5 6 
#
# 1 0.014239 0.001439 -0.002642 -0.001452 0.009011 -0.003796
# 2 0.001439 0.013976 -0.002057 -0.005202 -0.000788 -0.005026
# 3 -0.002642 -0.002057 0.009763 0.000248 -0.001576 -0.001332
# 4 -0.001452 -0.005202 0.000248 0.029409 -0.003897 -0.003691
# 5 0.009011 -0.000788 -0.001576 -0.003897 0.033978 0.000729
# 6 -0.003796 -0.005026 -0.001332 -0.003691 0.000729 0.026573
#
#
# Mechanical properties :
#
#
# Convention : Reuss Voigt Hill
#
# Bulk Modulus (GPa) = 31.78820 43.07585 37.43203
# Shear Modulus (GPa) = 34.49581 41.25325 37.87453
#
# Velocity S-wave (km/s) = 3.74065 4.09066 3.91957
# Velocity P-wave (km/s) = 5.61702 6.30747 5.97223
#
# Compressibility (1/GPa) = 0.03145821
#
# Stress axis : x y z
#
# Youngs Moduli (GPa) = 70.22986 71.54915 102.42567
#
# Poissons Ratio (x) = -0.10293 0.27064
# Poissons Ratio (y) = -0.10103 0.21064
# Poissons Ratio (z) = 0.18557 0.14714
#
# Static dielectric constant tensor:
#      x y z
#    x 2.043480 -0.016960 -0.083230 
#    y -0.016960 1.941280 -0.015810 
#    z -0.083230 -0.015810 1.975010 
# 
# From -- ./inp_files/276326.got.cif
#   From: 2010.05.17/outbox.cif.g08.bks.cpg/sg2_139_cif.got.tgz:276326.got - 2010.06.03 11:33:40.
