data_PCOD9023390
_publ_section_title
;
Structure prediction by ZEFSAII (Michael W. Deem and Ramdas Pophale) SiO2 
 PCOD9023390
Probable space group: P -1
;
_chemical_formula_sum "Si O2"
_cell_formula_units_Z 15
_cell_length_a 7.982885
_cell_length_b 10.504179
_cell_length_c 15.800697
_cell_angle_alpha 32.529843
_cell_angle_beta 77.907223
_cell_angle_gamma 67.384473
_cell_volume 639.885136
_symmetry_space_group_name_H-M "P -1"
_symmetry_group_IT_number 2
_symmetry_cell_setting 'triclinic'
loop_
_space_group_symop_operation_xyz
x,y,z
-x,-y,-z
loop_
_atom_site_type_symbol
_atom_site_label
_atom_site_fract_x
_atom_site_fract_y
_atom_site_fract_z
Si Si1 0.453057 0.054007 0.145202
Si Si2 0.198163 0.983270 0.354012
Si Si3 0.385205 0.823641 0.596758
Si Si4 0.896608 0.314758 0.597891
Si Si5 0.802867 0.395786 0.128644
Si Si6 0.799747 0.203907 0.064954
Si Si7 0.000000 0.000000 0.000000
Si Si8 0.376004 0.699984 0.229667
O O1 0.372043 0.971518 0.284132
O O2 0.629545 0.121293 0.108352
O O3 0.488587 0.844206 0.185415
O O4 0.286056 0.318406 0.985470
O O5 0.021900 0.246042 0.204349
O O6 0.239495 0.956977 0.462802
O O7 0.150836 0.744865 0.457713
O O8 0.291303 0.777042 0.717912
O O9 0.509035 0.540104 0.706192
O O10 0.500000 0.000000 0.500000
O O11 0.715649 0.401159 0.627340
O O12 0.000000 0.500000 0.500000
O O13 0.040718 0.040588 0.770366
O O14 0.748641 0.417199 0.022984
O O15 0.894893 0.228918 0.954122
O O16 0.800540 0.096279 0.915426
#
# Coordination Sequence:
#
# PCOD9023390 Si02
#       8
#     2   2   2   2   2   2   1   2
#     4  11  23  43  71  99 132 175 225 286 329 401
#     4  10  24  42  67  98 134 176 226 273 340 403
#     4  12  27  43  65  99 139 179 226 282 334 402
#     4   9  21  39  66  92 130 174 214 272 334 400
#     4  11  24  45  66  97 137 180 223 273 344 399
#     4  10  22  39  68  96 130 170 221 269 337 394
#     4  10  22  46  62  98 130 172 220 274 332 402
#     4  10  25  42  64  98 132 171 225 278 336 397
#
# _framework density 23.441707000000001
#
# number of rings (size 3 to 8) (size 9 to 14) (size 15 to 20)
#    0.000    1.600    0.000    3.600    7.467    5.333 
#    2.400    0.000    0.000    0.000    0.000    0.000 
#    0.000    0.000    0.000    0.000    0.000    0.000 
#
# Total GULP energy -83611.991894 kJ/mol
# GULP energy per Si atom -5574.132793 kJ/mol
# Density = 2.338835 g / cm^3
# Si number density = 23.441707 Si / 1000 Ang^3
#
#
#
# Elastic Constant Matrix: (Units=GPa)
#
#
# Indices 1 2 3 4 5 6 
#
# 1 102.8399 47.9809 18.5826 -7.4050 1.1606 12.0863
# 2 47.9809 126.9813 15.0729 -2.9867 -8.9942 9.7604
# 3 18.5826 15.0729 36.4504 -4.7295 -5.1724 7.5517
# 4 -7.4050 -2.9867 -4.7295 30.5796 0.0033 0.9723
# 5 1.1606 -8.9942 -5.1724 0.0033 41.5574 -2.8209
# 6 12.0863 9.7604 7.5517 0.9723 -2.8209 43.9948
#
#
#
# Elastic Compliance Matrix: (Units=1/GPa)
#
#
# Indices 1 2 3 4 5 6 
#
# 1 0.012937 -0.004301 -0.004408 0.002095 -0.001978 -0.002016
# 2 -0.004301 0.009863 -0.001510 -0.000293 0.002025 -0.000611
# 3 -0.004408 -0.001510 0.032102 0.003871 0.003532 -0.003823
# 4 0.002095 -0.000293 0.003871 0.033840 0.000228 -0.001908
# 5 -0.001978 0.002025 0.003532 0.000228 0.025070 0.001090
# 6 -0.002016 -0.000611 -0.003823 -0.001908 0.001090 0.024188
#
#
# Mechanical properties :
#
#
# Convention : Reuss Voigt Hill
#
# Bulk Modulus (GPa) = 29.01542 47.72715 38.37128
# Shear Modulus (GPa) = 29.42465 35.53538 32.48001
#
# Velocity S-wave (km/s) = 3.54676 3.89769 3.72636
# Velocity P-wave (km/s) = 5.40160 6.37652 5.90920
#
# Compressibility (1/GPa) = 0.03446444
#
# Stress axis : x y z
#
# Youngs Moduli (GPa) = 77.29655 101.38777 31.15102
#
# Poissons Ratio (x) = 0.43607 0.13731
# Poissons Ratio (y) = 0.33245 0.04703
# Poissons Ratio (z) = 0.34072 0.15308
#
# Static dielectric constant tensor:
#      x y z
#    x 1.811520 0.130150 0.091670 
#    y 0.130150 1.695260 -0.168000 
#    z 0.091670 -0.168000 1.767940 
# 
# From -- ./inp_files/494243.got.cif
#   From: 2010.05.17/outbox.cif.g08.bks.cpg/sg2_248_cif.got.tgz:494243.got - 2010.06.03 11:33:40.
