data_PCOD9023419
_publ_section_title
;
Structure prediction by ZEFSAII (Michael W. Deem and Ramdas Pophale) SiO2 
 PCOD9023419
Probable space group: P -1
;
_chemical_formula_sum "Si O2"
_cell_formula_units_Z 16
_cell_length_a 16.970077
_cell_length_b 11.493129
_cell_length_c 14.347996
_cell_angle_alpha 129.906673
_cell_angle_beta 30.209030
_cell_angle_gamma 147.156580
_cell_volume 726.093376
_symmetry_space_group_name_H-M "P -1"
_symmetry_group_IT_number 2
_symmetry_cell_setting 'triclinic'
loop_
_space_group_symop_operation_xyz
x,y,z
-x,-y,-z
loop_
_atom_site_type_symbol
_atom_site_label
_atom_site_fract_x
_atom_site_fract_y
_atom_site_fract_z
Si Si1 0.613228 0.345592 0.813876
Si Si2 0.085029 0.496571 0.248907
Si Si3 0.777116 0.702592 0.406901
Si Si4 0.529110 0.276283 0.170376
Si Si5 0.158881 0.188184 0.252036
Si Si6 0.575868 0.063219 0.562737
Si Si7 0.049875 0.797850 0.354082
Si Si8 0.727836 0.349247 0.195511
O O1 0.771867 0.363761 0.731810
O O2 0.761880 0.602767 0.772801
O O3 0.554139 0.211592 0.711932
O O4 0.375434 0.230126 0.044995
O O5 0.012291 0.600655 0.326936
O O6 0.853672 0.234923 0.370241
O O7 0.265171 0.545862 0.020682
O O8 0.582618 0.650136 0.637628
O O9 0.698646 0.507756 0.324657
O O10 0.954178 0.754545 0.327212
O O11 0.929070 0.939758 0.321223
O O12 0.627988 0.251256 0.143855
O O13 0.319800 0.033407 0.211964
O O14 0.090601 0.190776 0.427146
O O15 0.500000 0.000000 0.500000
O O16 0.419845 0.842817 0.673461
O O17 0.000000 0.500000 0.000000
#
# Coordination Sequence:
#
# PCOD9023419 Si02
#       8
#     2   2   2   2   2   2   2   2
#     4  11  23  42  69  99 135 176 219 276 340 398
#     4  12  24  42  68 101 135 172 227 278 331 396
#     4  11  23  42  68  97 137 175 228 272 335 397
#     4  11  24  42  67 100 136 175 227 273 338 396
#     4  10  22  39  68  99 134 168 224 275 336 388
#     4  12  26  44  67  98 138 176 224 274 338 397
#     4  11  21  40  68 100 132 171 225 282 328 393
#     4  12  26  45  69  94 135 185 228 275 333 403
#
# _framework density 22.035733
#
# number of rings (size 3 to 8) (size 9 to 14) (size 15 to 20)
#    0.000    0.750    1.250    7.875    3.500    0.000 
#    0.000    0.625    0.000    0.000    0.000    0.000 
#    0.000    0.000    0.000    0.000    0.000    0.000 
#
# Total GULP energy -89541.535384 kJ/mol
# GULP energy per Si atom -5596.345961 kJ/mol
# Density = 2.198558 g / cm^3
# Si number density = 22.035733 Si / 1000 Ang^3
#
#
#
# Elastic Constant Matrix: (Units=GPa)
#
#
# Indices 1 2 3 4 5 6 
#
# 1 104.5041 20.3951 23.6203 -2.4354 -1.5042 19.8641
# 2 20.3951 107.8809 53.5268 -8.6695 8.1307 -2.2332
# 3 23.6203 53.5268 159.7940 -23.1981 9.2017 1.5061
# 4 -2.4354 -8.6695 -23.1981 32.2366 -7.6008 2.8425
# 5 -1.5042 8.1307 9.2017 -7.6008 26.7113 -4.1265
# 6 19.8641 -2.2332 1.5061 2.8425 -4.1265 33.5104
#
#
#
# Elastic Compliance Matrix: (Units=1/GPa)
#
#
# Indices 1 2 3 4 5 6 
#
# 1 0.011468 -0.001829 -0.000994 0.000404 0.000604 -0.006835
# 2 -0.001829 0.011546 -0.003522 -0.000242 -0.002201 0.001762
# 3 -0.000994 -0.003522 0.008330 0.004889 -0.000540 -0.000501
# 4 0.000404 -0.000242 0.004889 0.036726 0.008469 -0.002548
# 5 0.000604 -0.002201 -0.000540 0.008469 0.041338 0.003891
# 6 -0.006835 0.001762 -0.000501 -0.002548 0.003891 0.034728
#
#
# Mechanical properties :
#
#
# Convention : Reuss Voigt Hill
#
# Bulk Modulus (GPa) = 53.61034 63.02925 58.31980
# Shear Modulus (GPa) = 30.66621 36.80077 33.73349
#
# Velocity S-wave (km/s) = 3.73454 4.09106 3.91686
# Velocity P-wave (km/s) = 6.55571 7.14010 6.85413
#
# Compressibility (1/GPa) = 0.01865312
#
# Stress axis : x y z
#
# Youngs Moduli (GPa) = 87.19893 86.61176 120.04181
#
# Poissons Ratio (x) = 0.15845 0.11933
# Poissons Ratio (y) = 0.15952 0.42280
# Poissons Ratio (z) = 0.08668 0.30506
#
# Static dielectric constant tensor:
#      x y z
#    x 1.808340 -0.008770 -0.016540 
#    y -0.008770 1.817530 -0.005610 
#    z -0.016540 -0.005610 1.808590 
# 
# From -- ./inp_files/186841.got.cif
#   From: 2010.05.17/outbox.cif.g08.bks.cpg/sg2_94_cif.got.tgz:186841.got - 2010.06.03 11:33:40.
