data_PCOD9023486
_publ_section_title
;
Structure prediction by ZEFSAII (Michael W. Deem and Ramdas Pophale) SiO2 
 PCOD9023486
Probable space group: P -1
;
_chemical_formula_sum "Si O2"
_cell_formula_units_Z 16
_cell_length_a 15.495553
_cell_length_b 10.032962
_cell_length_c 10.919157
_cell_angle_alpha 68.490853
_cell_angle_beta 72.325892
_cell_angle_gamma 132.649106
_cell_volume 686.503150
_symmetry_space_group_name_H-M "P -1"
_symmetry_group_IT_number 2
_symmetry_cell_setting 'triclinic'
loop_
_space_group_symop_operation_xyz
x,y,z
-x,-y,-z
loop_
_atom_site_type_symbol
_atom_site_label
_atom_site_fract_x
_atom_site_fract_y
_atom_site_fract_z
Si Si1 0.705289 0.582520 0.121300
Si Si2 0.526929 0.179102 0.005809
Si Si3 0.945373 0.840448 0.701701
Si Si4 0.425835 0.296271 0.836368
Si Si5 0.993533 0.362022 0.876060
Si Si6 0.539440 0.333609 0.521449
Si Si7 0.127735 0.849938 0.743506
Si Si8 0.588142 0.073606 0.617834
O O1 0.579500 0.550781 0.160288
O O2 0.721127 0.611833 0.253760
O O3 0.573292 0.253124 0.270016
O O4 0.882077 0.830789 0.860162
O O5 0.741905 0.475697 0.875672
O O6 0.504082 0.289267 0.899622
O O7 0.500000 0.000000 0.000000
O O8 0.376798 0.955727 0.258490
O O9 0.113332 0.962031 0.621048
O O10 0.000000 0.000000 0.500000
O O11 0.533635 0.422663 0.615619
O O12 0.194789 0.937106 0.025247
O O13 0.002361 0.542569 0.845114
O O14 0.203934 0.625257 0.640195
O O15 0.972265 0.249281 0.051306
O O16 0.521340 0.143848 0.636472
O O17 0.340946 0.090848 0.611670
#
# Coordination Sequence:
#
# PCOD9023486 Si02
#       8
#     2   2   2   2   2   2   2   2
#     4  11  25  43  67 102 136 172 228 281 334 402
#     4  11  24  44  68  96 136 177 226 268 333 409
#     4  11  27  45  69  95 136 181 221 279 340 396
#     4  11  25  44  66 102 145 177 216 279 346 391
#     4  10  22  39  70 100 132 170 226 277 325 393
#     4  11  22  44  75  96 136 180 226 276 336 401
#     4  10  22  40  70  98 129 171 234 270 323 399
#     4  11  23  41  73 100 130 183 225 277 329 402
#
# _framework density 23.306519999999999
#
# number of rings (size 3 to 8) (size 9 to 14) (size 15 to 20)
#    0.000    1.250    2.500    2.250   10.500    4.500 
#    0.000    3.125    0.000    0.000    0.000    0.000 
#    0.000    0.000    0.000    0.000    0.000    0.000 
#
# Total GULP energy -89451.228895 kJ/mol
# GULP energy per Si atom -5590.701806 kJ/mol
# Density = 2.325347 g / cm^3
# Si number density = 23.306520 Si / 1000 Ang^3
#
#
#
# Elastic Constant Matrix: (Units=GPa)
#
#
# Indices 1 2 3 4 5 6 
#
# 1 131.2773 24.3082 22.0025 6.5912 22.3172 0.6271
# 2 24.3082 63.7801 12.3268 -4.3983 -7.5547 -8.9439
# 3 22.0025 12.3268 116.8807 22.7769 13.4642 4.6236
# 4 6.5912 -4.3983 22.7769 36.9183 6.8658 0.5539
# 5 22.3172 -7.5547 13.4642 6.8658 36.2882 0.7874
# 6 0.6271 -8.9439 4.6236 0.5539 0.7874 34.4165
#
#
#
# Elastic Compliance Matrix: (Units=1/GPa)
#
#
# Indices 1 2 3 4 5 6 
#
# 1 0.009709 -0.004631 -0.000374 -0.000806 -0.006619 -0.001166
# 2 -0.004631 0.019895 -0.002983 0.003599 0.007298 0.005430
# 3 -0.000374 -0.002983 0.010589 -0.006215 -0.003101 -0.002020
# 4 -0.000806 0.003599 -0.006215 0.031943 -0.002522 0.001328
# 5 -0.006619 0.007298 -0.003101 -0.002522 0.034738 0.001680
# 6 -0.001166 0.005430 -0.002020 0.001328 0.001680 0.030700
#
#
# Mechanical properties :
#
#
# Convention : Reuss Voigt Hill
#
# Bulk Modulus (GPa) = 41.29430 47.69034 44.49232
# Shear Modulus (GPa) = 30.93665 38.41131 34.67398
#
# Velocity S-wave (km/s) = 3.64728 4.06408 3.86130
# Velocity P-wave (km/s) = 5.95762 6.52142 6.24588
#
# Compressibility (1/GPa) = 0.02421642
#
# Stress axis : x y z
#
# Youngs Moduli (GPa) = 102.99919 50.26497 94.43926
#
# Poissons Ratio (x) = 0.23278 0.03528
# Poissons Ratio (y) = 0.47700 0.28173
# Poissons Ratio (z) = 0.03848 0.14995
#
# Static dielectric constant tensor:
#      x y z
#    x 1.865140 -0.012750 0.011860 
#    y -0.012750 1.920150 0.031010 
#    z 0.011860 0.031010 1.998410 
# 
# From -- ./inp_files/447137.got.cif
#   From: 2010.05.17/outbox.cif.g08.bks.cpg/sg2_224_cif.got.tgz:447137.got - 2010.06.03 11:33:40.
