data_PCOD9023854
_publ_section_title
;
Structure prediction by ZEFSAII (Michael W. Deem and Ramdas Pophale) SiO2 
 PCOD9023854
Probable space group: P -1
;
_chemical_formula_sum "Si O2"
_cell_formula_units_Z 14
_cell_length_a 9.565216
_cell_length_b 12.919290
_cell_length_c 10.049809
_cell_angle_alpha 146.821241
_cell_angle_beta 89.447367
_cell_angle_gamma 72.042349
_cell_volume 554.507598
_symmetry_space_group_name_H-M "P -1"
_symmetry_group_IT_number 2
_symmetry_cell_setting 'triclinic'
loop_
_space_group_symop_operation_xyz
x,y,z
-x,-y,-z
loop_
_atom_site_type_symbol
_atom_site_label
_atom_site_fract_x
_atom_site_fract_y
_atom_site_fract_z
Si Si1 0.255642 0.004410 0.487740
Si Si2 0.560620 0.239691 0.250357
Si Si3 0.956871 0.446335 0.585979
Si Si4 0.143049 0.973237 0.174570
Si Si5 0.761757 0.511456 0.310839
Si Si6 0.707671 0.947025 0.187183
Si Si7 0.398277 0.279448 0.713261
O O1 0.150996 0.013039 0.373853
O O2 0.454021 0.770605 0.240089
O O3 0.193142 0.024528 0.662058
O O4 0.273761 0.219559 0.708480
O O5 0.500000 0.500000 0.500000
O O6 0.380257 0.304126 0.382585
O O7 0.687394 0.091069 0.212319
O O8 0.676769 0.096054 0.968260
O O9 0.102641 0.432349 0.658500
O O10 0.000000 0.500000 0.500000
O O11 0.988748 0.202980 0.350225
O O12 0.780361 0.683086 0.877313
O O13 0.147308 0.745050 0.907799
O O14 0.686560 0.513695 0.168748
O O15 0.519850 0.071099 0.384279
#
# Coordination Sequence:
#
# PCOD9023854 Si02
#       7
#     2   2   2   2   2   2   2
#     4   9  18  36  65  91 113 154 201 245 296 346
#     4   9  19  39  60  87 119 153 197 252 288 339
#     4  12  24  39  60  86 122 165 194 239 299 359
#     4  11  22  38  63  91 116 159 201 237 303 352
#     4  10  22  40  62  86 124 151 198 254 286 349
#     4   9  19  37  61  85 124 154 195 247 293 347
#     4   8  17  38  63  86 114 154 192 247 296 336
#
# _framework density 25.247626
#
# number of rings (size 3 to 8) (size 9 to 14) (size 15 to 20)
#    0.857    1.429    2.857    0.000    0.000    3.429 
#    0.000    0.714    3.143    0.000    0.000    0.000 
#    0.000    0.000    0.000    0.000    0.000    0.000 
#
# Total GULP energy -77973.027831 kJ/mol
# GULP energy per Si atom -5569.501988 kJ/mol
# Density = 2.519016 g / cm^3
# Si number density = 25.247626 Si / 1000 Ang^3
#
#
#
# Elastic Constant Matrix: (Units=GPa)
#
#
# Indices 1 2 3 4 5 6 
#
# 1 42.3568 -2.4683 1.2403 3.2757 5.3675 4.0612
# 2 -2.4683 148.2750 47.4054 16.5060 1.1338 -14.8053
# 3 1.2403 47.4054 96.6248 32.1588 -3.9625 1.8222
# 4 3.2757 16.5060 32.1588 48.6478 -0.8392 4.7621
# 5 5.3675 1.1338 -3.9625 -0.8392 17.8283 -3.5301
# 6 4.0612 -14.8053 1.8222 4.7621 -3.5301 23.1767
#
#
#
# Elastic Compliance Matrix: (Units=1/GPa)
#
#
# Indices 1 2 3 4 5 6 
#
# 1 0.025358 0.000169 -0.000265 -0.001212 -0.008833 -0.005411
# 2 0.000169 0.008773 -0.004157 -0.000835 -0.000381 0.006015
# 3 -0.000265 -0.004157 0.015388 -0.008535 0.003045 -0.001602
# 4 -0.001212 -0.000835 -0.008535 0.027070 -0.001275 -0.005406
# 5 -0.008833 -0.000381 0.003045 -0.001275 0.061509 0.010695
# 6 -0.005411 0.006015 -0.001602 -0.005406 0.010695 0.050803
#
#
# Mechanical properties :
#
#
# Convention : Reuss Voigt Hill
#
# Bulk Modulus (GPa) = 24.38293 42.17905 33.28099
# Shear Modulus (GPa) = 23.68795 34.00252 28.84523
#
# Velocity S-wave (km/s) = 3.06637 3.67381 3.38375
# Velocity P-wave (km/s) = 4.71331 5.89391 5.33636
#
# Compressibility (1/GPa) = 0.04101230
#
# Stress axis : x y z
#
# Youngs Moduli (GPa) = 39.43459 113.99112 64.98617
#
# Poissons Ratio (x) = -0.01928 0.01724
# Poissons Ratio (y) = -0.00667 0.27016
# Poissons Ratio (z) = 0.01046 0.47389
#
# Static dielectric constant tensor:
#      x y z
#    x 2.038170 -0.078950 -0.021190 
#    y -0.078950 2.126940 0.016130 
#    z -0.021190 0.016130 1.979520 
# 
# From -- ./inp_files/432080.got.cif
#   From: 2010.05.17/outbox.cif.g08.bks.cpg/sg2_217_cif.got.tgz:432080.got - 2010.06.03 11:33:40.
