data_PCOD9023100
_publ_section_title
;
Structure prediction by ZEFSAII (Michael W. Deem and Ramdas Pophale) SiO2 
 PCOD9023100
Probable space group: P -1
;
_chemical_formula_sum "Si O2"
_cell_formula_units_Z 16
_cell_length_a 9.999012
_cell_length_b 14.764244
_cell_length_c 11.075160
_cell_angle_alpha 130.427647
_cell_angle_beta 149.850520
_cell_angle_gamma 51.754806
_cell_volume 617.810008
_symmetry_space_group_name_H-M "P -1"
_symmetry_group_IT_number 2
_symmetry_cell_setting 'triclinic'
loop_
_space_group_symop_operation_xyz
x,y,z
-x,-y,-z
loop_
_atom_site_type_symbol
_atom_site_label
_atom_site_fract_x
_atom_site_fract_y
_atom_site_fract_z
Si Si1 0.730048 0.642950 0.060148
Si Si2 0.964709 0.903278 0.199897
Si Si3 0.627036 0.119971 0.701185
Si Si4 0.825074 0.281154 0.197551
Si Si5 0.954960 0.177420 0.457292
Si Si6 0.396139 0.296686 0.231096
Si Si7 0.782953 0.453774 0.112931
Si Si8 0.565213 0.289321 0.603246
O O1 0.796006 0.778312 0.242794
O O2 0.423789 0.640650 0.858284
O O3 0.764965 0.618991 0.924327
O O4 0.889777 0.563185 0.222299
O O5 0.078645 0.907239 0.156010
O O6 0.214263 0.813867 0.375516
O O7 0.722862 0.827936 0.952845
O O8 0.929415 0.038407 0.335157
O O9 0.447740 0.210108 0.545238
O O10 0.500000 0.000000 0.500000
O O11 0.682112 0.189811 0.924629
O O12 0.989274 0.205926 0.366539
O O13 0.938850 0.371018 0.268348
O O14 0.690142 0.260082 0.372170
O O15 0.400530 0.350194 0.415261
O O16 0.719766 0.373415 0.879479
O O17 0.500000 0.500000 0.000000
#
# Coordination Sequence:
#
# PCOD9023100 Si02
#       8
#     2   2   2   2   2   2   2   2
#     4  10  22  39  66  89 121 166 211 261 301 363
#     4  10  23  39  60  92 132 162 200 253 307 369
#     4   9  19  38  59  86 126 153 198 251 302 365
#     4   9  20  39  60  93 123 156 205 253 316 368
#     4  11  23  38  63  93 125 169 210 251 303 371
#     4  11  23  41  59  90 128 166 214 246 308 369
#     4   9  19  44  66  90 125 158 205 264 313 367
#     4   9  22  40  62  91 125 161 201 256 313 362
#
# _framework density 25.897929999999999
#
# number of rings (size 3 to 8) (size 9 to 14) (size 15 to 20)
#    0.750    1.500    0.000    1.875    1.750    4.500 
#    6.750    6.250    0.000    0.000    0.000    0.000 
#    0.000    0.000    0.000    0.000    0.000    0.000 
#
# Total GULP energy -89306.483948 kJ/mol
# GULP energy per Si atom -5581.655247 kJ/mol
# Density = 2.583898 g / cm^3
# Si number density = 25.897930 Si / 1000 Ang^3
#
#
#
# Elastic Constant Matrix: (Units=GPa)
#
#
# Indices 1 2 3 4 5 6 
#
# 1 115.7087 27.1355 36.1571 -8.7153 -13.4871 35.9206
# 2 27.1355 68.8692 28.1863 6.6224 -12.4033 1.3318
# 3 36.1571 28.1863 62.5468 1.2177 -18.4587 28.8046
# 4 -8.7153 6.6224 1.2177 35.3084 15.8386 3.5643
# 5 -13.4871 -12.4033 -18.4587 15.8386 41.4203 -8.0755
# 6 35.9206 1.3318 28.8046 3.5643 -8.0755 40.6934
#
#
#
# Elastic Compliance Matrix: (Units=1/GPa)
#
#
# Indices 1 2 3 4 5 6 
#
# 1 0.014891 -0.006858 0.000000 0.007699 -0.002912 -0.014172
# 2 -0.006858 0.024076 -0.012111 -0.010419 0.006698 0.016080
# 3 0.000000 -0.012111 0.033669 0.000197 0.007001 -0.022064
# 4 0.007699 -0.010419 0.000197 0.042336 -0.019476 -0.014167
# 5 -0.002912 0.006698 0.007001 -0.019476 0.037025 0.006449
# 6 -0.014172 0.016080 -0.022064 -0.014167 0.006449 0.054696
#
#
# Mechanical properties :
#
#
# Convention : Reuss Voigt Hill
#
# Bulk Modulus (GPa) = 28.82034 47.78696 38.30365
# Shear Modulus (GPa) = 19.51614 33.86081 26.68847
#
# Velocity S-wave (km/s) = 2.74812 3.61982 3.21366
# Velocity P-wave (km/s) = 4.60675 5.99691 5.34720
#
# Compressibility (1/GPa) = 0.03469771
#
# Stress axis : x y z
#
# Youngs Moduli (GPa) = 67.15641 41.53448 29.70053
#
# Poissons Ratio (x) = 0.28483 0.00001
# Poissons Ratio (y) = 0.46053 0.35971
# Poissons Ratio (z) = 0.00003 0.50304
#
# Static dielectric constant tensor:
#      x y z
#    x 2.049490 0.001430 -0.013110 
#    y 0.001430 2.134240 -0.045650 
#    z -0.013110 -0.045650 2.018510 
# 
# From -- ./inp_files/433280.got.cif
#   From: 2010.05.17/outbox.cif.g08.bks.cpg/sg2_217_cif.got.tgz:433280.got - 2010.06.03 11:33:40.
