data_PCOD9023960
_publ_section_title
;
Structure prediction by ZEFSAII (Michael W. Deem and Ramdas Pophale) SiO2 
 PCOD9023960
Probable space group: P -1
;
_chemical_formula_sum "Si O2"
_cell_formula_units_Z 16
_cell_length_a 15.466111
_cell_length_b 8.508092
_cell_length_c 12.406373
_cell_angle_alpha 145.585773
_cell_angle_beta 131.346347
_cell_angle_gamma 43.524307
_cell_volume 627.168031
_symmetry_space_group_name_H-M "P -1"
_symmetry_group_IT_number 2
_symmetry_cell_setting 'triclinic'
loop_
_space_group_symop_operation_xyz
x,y,z
-x,-y,-z
loop_
_atom_site_type_symbol
_atom_site_label
_atom_site_fract_x
_atom_site_fract_y
_atom_site_fract_z
Si Si1 0.834125 0.318208 0.859553
Si Si2 0.119149 0.961240 0.870577
Si Si3 0.516430 0.367611 0.316952
Si Si4 0.687934 0.620691 0.538885
Si Si5 0.680082 0.975326 0.526563
Si Si6 0.203169 0.423799 0.800608
Si Si7 0.334078 0.173524 0.139613
Si Si8 0.962732 0.278989 0.544803
O O1 0.762933 0.480647 0.783218
O O2 0.811251 0.011107 0.678027
O O3 0.766936 0.536610 0.028919
O O4 0.982582 0.247153 0.940808
O O5 0.160626 0.748072 0.888815
O O6 0.083262 0.795895 0.649270
O O7 0.241370 0.008855 0.959906
O O8 0.500000 0.500000 0.500000
O O9 0.653488 0.330643 0.367079
O O10 0.457336 0.120218 0.138875
O O11 0.424201 0.674991 0.350719
O O12 0.655602 0.768283 0.478668
O O13 0.623285 0.849949 0.714308
O O14 0.835075 0.542313 0.635383
O O15 0.695525 0.827785 0.337107
O O16 0.080576 0.354182 0.665470
O O17 0.000000 0.000000 0.500000
#
# Coordination Sequence:
#
# PCOD9023960 Si02
#       8
#     2   2   2   2   2   2   2   2
#     4  11  22  39  64  93 136 173 208 267 323 386
#     4  12  21  39  60  92 139 169 210 267 323 386
#     4   9  22  41  70  91 123 174 222 267 320 379
#     4  11  21  41  66  92 126 172 216 264 324 377
#     4  11  22  42  69  96 133 167 219 266 320 392
#     4  12  24  40  63 102 131 168 213 264 331 385
#     4  10  22  40  62  93 122 170 225 260 318 379
#     4  12  24  37  63  99 131 167 213 260 323 392
#
# _framework density 25.511505
#
# number of rings (size 3 to 8) (size 9 to 14) (size 15 to 20)
#    0.000    1.000    2.500    5.250    3.500    0.000 
#    0.000    0.625    8.250    6.750    0.000    0.000 
#    0.000    0.000    0.000    0.000    0.000    0.000 
#
# Total GULP energy -89453.181063 kJ/mol
# GULP energy per Si atom -5590.823816 kJ/mol
# Density = 2.545344 g / cm^3
# Si number density = 25.511505 Si / 1000 Ang^3
#
#
#
# Elastic Constant Matrix: (Units=GPa)
#
#
# Indices 1 2 3 4 5 6 
#
# 1 167.2011 28.6751 55.8335 0.0496 13.9606 18.4586
# 2 28.6751 56.2568 -5.1748 -4.2728 7.9104 6.3792
# 3 55.8335 -5.1748 96.3376 -15.0337 0.2680 1.9734
# 4 0.0496 -4.2728 -15.0337 24.9484 1.4216 3.1788
# 5 13.9606 7.9104 0.2680 1.4216 60.4824 4.2861
# 6 18.4586 6.3792 1.9734 3.1788 4.2861 38.3293
#
#
#
# Elastic Compliance Matrix: (Units=1/GPa)
#
#
# Indices 1 2 3 4 5 6 
#
# 1 0.009406 -0.005219 -0.006342 -0.004305 -0.001157 -0.002848
# 2 -0.005219 0.021941 0.005393 0.007350 -0.001732 -0.001832
# 3 -0.006342 0.005393 0.015972 0.010484 0.000412 0.000419
# 4 -0.004305 0.007350 0.010484 0.048175 -0.000892 -0.003585
# 5 -0.001157 -0.001732 0.000412 -0.000892 0.017119 -0.001016
# 6 -0.002848 -0.001832 0.000419 -0.003585 -0.001016 0.028156
#
#
# Mechanical properties :
#
#
# Convention : Reuss Voigt Hill
#
# Bulk Modulus (GPa) = 28.58585 53.16256 40.87420
# Shear Modulus (GPa) = 30.34603 40.78280 35.56441
#
# Velocity S-wave (km/s) = 3.45266 4.00259 3.73775
# Velocity P-wave (km/s) = 5.20806 6.49961 5.88935
#
# Compressibility (1/GPa) = 0.03498235
#
# Stress axis : x y z
#
# Youngs Moduli (GPa) = 106.31464 45.57585 62.61061
#
# Poissons Ratio (x) = 0.23787 0.39708
# Poissons Ratio (y) = 0.55487 -0.33764
# Poissons Ratio (z) = 0.67425 -0.24578
#
# Static dielectric constant tensor:
#      x y z
#    x 2.108130 -0.075400 0.011560 
#    y -0.075400 1.999520 0.043730 
#    z 0.011560 0.043730 2.058600 
# 
# From -- ./inp_files/271741.got.cif
#   From: 2010.05.17/outbox.cif.g08.bks.cpg/sg2_136_cif.got.tgz:271741.got - 2010.06.03 11:33:40.
