data_PCOD9023562
_publ_section_title
;
Structure prediction by ZEFSAII (Michael W. Deem and Ramdas Pophale) SiO2 
 PCOD9023562
Probable space group: P -1
;
_chemical_formula_sum "Si O2"
_cell_formula_units_Z 14
_cell_length_a 21.487824
_cell_length_b 8.716400
_cell_length_c 12.438882
_cell_angle_alpha 141.368162
_cell_angle_beta 26.176199
_cell_angle_gamma 146.235353
_cell_volume 565.310873
_symmetry_space_group_name_H-M "P -1"
_symmetry_group_IT_number 2
_symmetry_cell_setting 'triclinic'
loop_
_space_group_symop_operation_xyz
x,y,z
-x,-y,-z
loop_
_atom_site_type_symbol
_atom_site_label
_atom_site_fract_x
_atom_site_fract_y
_atom_site_fract_z
Si Si1 0.803283 0.021559 0.947580
Si Si2 0.845711 0.546885 0.713755
Si Si3 0.090912 0.552562 0.167067
Si Si4 0.691073 0.903099 0.665871
Si Si5 0.551694 0.816652 0.070978
Si Si6 0.458701 0.715247 0.738742
Si Si7 0.008790 0.895698 0.097577
O O1 0.906888 0.219058 0.797694
O O2 0.891166 0.169546 0.002102
O O3 0.780707 0.708553 0.824382
O O4 0.631268 0.967277 0.143470
O O5 0.998092 0.579643 0.428182
O O6 0.747977 0.223879 0.717862
O O7 0.898079 0.767500 0.853037
O O8 0.274363 0.621791 0.943300
O O9 0.001479 0.259084 0.081564
O O10 0.659432 0.868555 0.823111
O O11 0.524880 0.728695 0.763919
O O12 0.828543 0.822825 0.374091
O O13 0.500000 0.500000 0.000000
O O14 0.448710 0.968201 0.278282
O O15 0.500000 0.500000 0.500000
#
# Coordination Sequence:
#
# PCOD9023562 Si02
#       7
#     2   2   2   2   2   2   2
#     4   9  22  41  67 106 141 178 241 295 346 426
#     4  10  24  41  68 112 141 182 240 295 361 421
#     4  11  21  44  73 104 148 190 237 292 356 427
#     4  12  24  46  70 101 147 180 238 301 354 432
#     4  11  25  47  76 100 136 197 241 289 366 435
#     4  11  24  46  70 106 145 185 237 297 355 427
#     4  10  22  39  72 103 145 179 241 283 362 403
#
# _framework density 24.765135000000001
#
# number of rings (size 3 to 8) (size 9 to 14) (size 15 to 20)
#    0.857    0.571    1.429    4.286    2.000    0.571 
#    5.143    0.714    3.143    0.000    0.000    0.000 
#    0.000    0.000    0.000    0.000    0.000    0.000 
#
# Total GULP energy -77984.818192 kJ/mol
# GULP energy per Si atom -5570.344157 kJ/mol
# Density = 2.470877 g / cm^3
# Si number density = 24.765135 Si / 1000 Ang^3
#
#
#
# Elastic Constant Matrix: (Units=GPa)
#
#
# Indices 1 2 3 4 5 6 
#
# 1 175.3044 42.1565 41.0627 5.7541 -4.0268 31.1870
# 2 42.1565 105.3449 22.0714 10.6012 28.1974 -21.7705
# 3 41.0627 22.0714 81.0668 16.9859 12.4780 3.1254
# 4 5.7541 10.6012 16.9859 28.8475 6.9709 3.5620
# 5 -4.0268 28.1974 12.4780 6.9709 33.8750 7.5854
# 6 31.1870 -21.7705 3.1254 3.5620 7.5854 53.7169
#
#
#
# Elastic Compliance Matrix: (Units=1/GPa)
#
#
# Indices 1 2 3 4 5 6 
#
# 1 0.012283 -0.010817 -0.005672 0.002912 0.014975 -0.013493
# 2 -0.010817 0.025071 0.003016 -0.004865 -0.026827 0.020376
# 3 -0.005672 0.003016 0.017389 -0.008703 -0.008998 0.005351
# 4 0.002912 -0.004865 -0.008703 0.041644 0.000368 -0.005969
# 5 0.014975 -0.026827 -0.008998 0.000368 0.063136 -0.027983
# 6 -0.013493 0.020376 0.005351 -0.005969 -0.027983 0.038744
#
#
# Mechanical properties :
#
#
# Convention : Reuss Voigt Hill
#
# Bulk Modulus (GPa) = 35.97323 63.58860 49.78092
# Shear Modulus (GPa) = 21.32405 40.38292 30.85349
#
# Velocity S-wave (km/s) = 2.93755 4.04249 3.53348
# Velocity P-wave (km/s) = 5.10518 6.89358 6.06565
#
# Compressibility (1/GPa) = 0.02779845
#
# Stress axis : x y z
#
# Youngs Moduli (GPa) = 81.41406 39.88745 57.50695
#
# Poissons Ratio (x) = 0.43146 0.32616
# Poissons Ratio (y) = 0.88065 -0.17346
# Poissons Ratio (z) = 0.46175 -0.12032
#
# Static dielectric constant tensor:
#      x y z
#    x 2.066710 0.012460 -0.029760 
#    y 0.012460 2.128130 -0.043720 
#    z -0.029760 -0.043720 1.932820 
# 
# From -- ./inp_files/469631.got.cif
#   From: 2010.05.17/outbox.cif.g08.bks.cpg/sg2_235_cif.got.tgz:469631.got - 2010.06.03 11:33:40.
