data_PCOD9023236
_publ_section_title
;
Structure prediction by ZEFSAII (Michael W. Deem and Ramdas Pophale) SiO2 
 PCOD9023236
Probable space group: P -1
;
_chemical_formula_sum "Si O2"
_cell_formula_units_Z 14
_cell_length_a 9.628975
_cell_length_b 12.296786
_cell_length_c 8.444655
_cell_angle_alpha 117.323162
_cell_angle_beta 119.131740
_cell_angle_gamma 45.438165
_cell_volume 611.123099
_symmetry_space_group_name_H-M "P -1"
_symmetry_group_IT_number 2
_symmetry_cell_setting 'triclinic'
loop_
_space_group_symop_operation_xyz
x,y,z
-x,-y,-z
loop_
_atom_site_type_symbol
_atom_site_label
_atom_site_fract_x
_atom_site_fract_y
_atom_site_fract_z
Si Si1 0.902821 0.182725 0.202649
Si Si2 0.228217 0.824648 0.197663
Si Si3 0.367191 0.917677 0.932601
Si Si4 0.060761 0.593540 0.412066
Si Si5 0.334709 0.303803 0.576278
Si Si6 0.964041 0.811569 0.258284
Si Si7 0.448552 0.976158 0.699261
O O1 0.911074 0.300323 0.388493
O O2 0.734983 0.164497 0.158575
O O3 0.838281 0.234831 0.020146
O O4 0.111487 0.005768 0.207256
O O5 0.467302 0.721779 0.269172
O O6 0.140310 0.821205 0.315585
O O7 0.492068 0.871986 0.809848
O O8 0.183941 0.101139 0.916230
O O9 0.492527 0.914816 0.143715
O O10 0.234997 0.421259 0.451476
O O11 0.057880 0.642812 0.263164
O O12 0.794885 0.922095 0.373552
O O13 0.152803 0.367610 0.638474
O O14 0.423450 0.134629 0.446530
#
# Coordination Sequence:
#
# PCOD9023236 Si02
#       7
#     2   2   2   2   2   2   2
#     4  10  22  39  67  92 124 155 203 259 303 364
#     4  10  23  39  66  96 120 154 209 252 315 349
#     4   8  19  36  63  97 120 150 201 259 302 356
#     4  11  26  42  60  87 130 165 209 243 303 364
#     4  11  26  41  60  88 127 170 203 246 303 371
#     4   9  20  39  62  94 120 153 203 261 295 365
#     4   9  19  37  64  89 127 152 202 255 306 355
#
# _framework density 22.908643000000001
#
# number of rings (size 3 to 8) (size 9 to 14) (size 15 to 20)
#    0.857    1.429    0.000    0.857   10.000    4.000 
#    0.000    0.714    0.000    0.000    0.000    0.000 
#    0.000    0.000    0.000    0.000    0.000    0.000 
#
# Total GULP energy -78025.575507 kJ/mol
# GULP energy per Si atom -5573.255393 kJ/mol
# Density = 2.285650 g / cm^3
# Si number density = 22.908643 Si / 1000 Ang^3
#
#
#
# Elastic Constant Matrix: (Units=GPa)
#
#
# Indices 1 2 3 4 5 6 
#
# 1 120.5171 41.3774 19.6567 -15.4886 23.7435 -8.4194
# 2 41.3774 83.5443 24.6998 -27.6832 1.4979 5.4901
# 3 19.6567 24.6998 55.5846 -15.8617 18.7307 -11.0455
# 4 -15.4886 -27.6832 -15.8617 28.2476 2.1357 -2.2069
# 5 23.7435 1.4979 18.7307 2.1357 22.6285 -7.0599
# 6 -8.4194 5.4901 -11.0455 -2.2069 -7.0599 23.8359
#
#
#
# Elastic Compliance Matrix: (Units=1/GPa)
#
#
# Indices 1 2 3 4 5 6 
#
# 1 0.014997 -0.007282 0.008384 0.007817 -0.021285 0.005279
# 2 -0.007282 0.022401 -0.009085 0.011478 0.010137 -0.007877
# 3 0.008384 -0.009085 0.042742 0.023971 -0.041196 0.014878
# 4 0.007817 0.011478 0.023971 0.067480 -0.032747 0.007774
# 5 -0.021285 0.010137 -0.041196 -0.032747 0.102545 -0.001603
# 6 0.005279 -0.007877 0.014878 0.007774 -0.001603 0.052772
#
#
# Mechanical properties :
#
#
# Convention : Reuss Voigt Hill
#
# Bulk Modulus (GPa) = 15.58235 47.90154 31.74195
# Shear Modulus (GPa) = 14.69320 26.53651 20.61485
#
# Velocity S-wave (km/s) = 2.53530 3.40716 3.00304
# Velocity P-wave (km/s) = 3.92263 6.03602 5.09022
#
# Compressibility (1/GPa) = 0.06417517
#
# Stress axis : x y z
#
# Youngs Moduli (GPa) = 66.68092 44.64051 23.39617
#
# Poissons Ratio (x) = 0.32505 -0.19616
# Poissons Ratio (y) = 0.48554 0.21256
# Poissons Ratio (z) = -0.55907 0.40556
#
# Static dielectric constant tensor:
#      x y z
#    x 1.910150 0.016470 -0.018410 
#    y 0.016470 1.847420 -0.027170 
#    z -0.018410 -0.027170 1.889850 
# 
# From -- ./inp_files/259592.got.cif
#   From: 2010.05.17/outbox.cif.g08.bks.cpg/sg2_130_cif.got.tgz:259592.got - 2010.06.03 11:33:40.
