data_PCOD9023752
_publ_section_title
;
Structure prediction by ZEFSAII (Michael W. Deem and Ramdas Pophale) SiO2 
 PCOD9023752
Probable space group: P -1
;
_chemical_formula_sum "Si O2"
_cell_formula_units_Z 16
_cell_length_a 20.422179
_cell_length_b 7.040158
_cell_length_c 19.081157
_cell_angle_alpha 73.529269
_cell_angle_beta 159.120956
_cell_angle_gamma 116.688293
_cell_volume 789.734971
_symmetry_space_group_name_H-M "P -1"
_symmetry_group_IT_number 2
_symmetry_cell_setting 'triclinic'
loop_
_space_group_symop_operation_xyz
x,y,z
-x,-y,-z
loop_
_atom_site_type_symbol
_atom_site_label
_atom_site_fract_x
_atom_site_fract_y
_atom_site_fract_z
Si Si1 0.322444 0.159752 0.394249
Si Si2 0.042469 0.621035 0.198059
Si Si3 0.809203 0.523638 0.839268
Si Si4 0.069092 0.263964 0.776229
Si Si5 0.837308 0.159752 0.409113
Si Si6 0.714435 0.523636 0.244500
Si Si7 0.421433 0.378965 0.765843
Si Si8 0.805128 0.736036 0.597991
O O1 0.571435 0.306083 0.603006
O O2 0.188397 0.247404 0.207788
O O3 0.312849 0.234194 0.456738
O O4 0.217122 0.882776 0.317526
O O5 0.125151 0.445378 0.295470
O O6 0.988090 0.647623 0.220435
O O7 0.839765 0.528531 0.952742
O O8 0.000000 0.500000 0.000000
O O9 0.921345 0.234193 0.565234
O O10 0.320227 0.445378 0.990545
O O11 0.011291 0.000000 0.761291
O O12 0.734647 0.306082 0.266218
O O13 0.059008 0.247406 0.578399
O O14 0.665655 0.882775 0.266058
O O15 0.688766 0.528528 0.301744
O O16 0.500000 0.500000 0.000000
O O17 0.340466 0.352376 0.608121
#
# Coordination Sequence:
#
# PCOD9023752 Si02
#       8
#     2   2   2   2   2   2   2   2
#     4  10  23  42  61  91 126 154 206 252 293 366
#     4  11  22  40  63  90 122 165 199 249 308 350
#     4  11  22  41  64  91 124 159 200 252 302 358
#     4  10  22  40  61  89 124 158 206 250 295 362
#     4  10  23  42  61  91 126 154 206 252 293 366
#     4  11  22  41  64  91 124 159 200 252 302 358
#     4  11  22  40  63  90 122 165 199 249 308 350
#     4  10  22  40  61  89 124 158 206 250 295 362
#
# _framework density 20.25996
#
# number of rings (size 3 to 8) (size 9 to 14) (size 15 to 20)
#    0.000    1.500    2.500    2.250    0.000    3.000 
#    4.500    0.000    0.000    0.000    0.000    0.000 
#    0.000    0.000    0.000    0.000    0.000    0.000 
#
# Total GULP energy -89401.973512 kJ/mol
# GULP energy per Si atom -5587.623345 kJ/mol
# Density = 2.021385 g / cm^3
# Si number density = 20.259960 Si / 1000 Ang^3
#
#
#
# Elastic Constant Matrix: (Units=GPa)
#
#
# Indices 1 2 3 4 5 6 
#
# 1 47.0823 6.0552 23.9200 -9.1327 7.7368 -3.7387
# 2 6.0552 133.8379 73.4549 -2.7766 22.9546 9.3589
# 3 23.9200 73.4549 109.4128 0.4194 21.0220 1.5426
# 4 -9.1327 -2.7766 0.4194 23.8119 6.3289 -1.5092
# 5 7.7368 22.9546 21.0220 6.3289 31.9352 6.2236
# 6 -3.7387 9.3589 1.5426 -1.5092 6.2236 27.0836
#
#
#
# Elastic Compliance Matrix: (Units=1/GPa)
#
#
# Indices 1 2 3 4 5 6 
#
# 1 0.029490 0.004413 -0.007764 0.014811 -0.009301 0.005951
# 2 0.004413 0.013276 -0.008843 0.004688 -0.005332 -0.001988
# 3 -0.007764 -0.008843 0.017292 -0.003497 -0.002732 0.001432
# 4 0.014811 0.004688 -0.003497 0.053177 -0.016639 0.007411
# 5 -0.009301 -0.005332 -0.002732 -0.016639 0.044531 -0.010446
# 6 0.005951 -0.001988 0.001432 0.007411 -0.010446 0.041163
#
#
# Mechanical properties :
#
#
# Convention : Reuss Voigt Hill
#
# Bulk Modulus (GPa) = 28.03419 55.24367 41.63893
# Shear Modulus (GPa) = 21.25786 29.02633 25.14210
#
# Velocity S-wave (km/s) = 3.24273 3.78920 3.52657
# Velocity P-wave (km/s) = 5.28088 6.81694 6.09747
#
# Compressibility (1/GPa) = 0.03567073
#
# Stress axis : x y z
#
# Youngs Moduli (GPa) = 33.90983 75.32112 57.82970
#
# Poissons Ratio (x) = -0.33240 0.44896
# Poissons Ratio (y) = -0.14965 0.51142
# Poissons Ratio (z) = 0.26326 0.66610
#
# Static dielectric constant tensor:
#      x y z
#    x 1.738930 0.011450 -0.011450 
#    y 0.011450 1.703180 0.008950 
#    z -0.011450 0.008950 1.689990 
# 
# From -- ./inp_files/584279.got.cif
#   From: 2010.05.17/outbox.cif.g08.bks.cpg/sg2_293_cif.got.tgz:584279.got - 2010.06.03 11:33:40.
