data_PCOD9023084
_publ_section_title
;
Structure prediction by ZEFSAII (Michael W. Deem and Ramdas Pophale) SiO2 
 PCOD9023084
Probable space group: P -1
;
_chemical_formula_sum "Si O2"
_cell_formula_units_Z 16
_cell_length_a 7.473744
_cell_length_b 10.150381
_cell_length_c 11.605569
_cell_angle_alpha 110.430516
_cell_angle_beta 111.955993
_cell_angle_gamma 116.516319
_cell_volume 572.265184
_symmetry_space_group_name_H-M "P -1"
_symmetry_group_IT_number 2
_symmetry_cell_setting 'triclinic'
loop_
_space_group_symop_operation_xyz
x,y,z
-x,-y,-z
loop_
_atom_site_type_symbol
_atom_site_label
_atom_site_fract_x
_atom_site_fract_y
_atom_site_fract_z
Si Si1 0.109572 0.139505 0.248328
Si Si2 0.207672 0.551957 0.277696
Si Si3 0.645524 0.807057 0.895965
Si Si4 0.221452 0.191321 0.542874
Si Si5 0.895524 0.597030 0.551753
Si Si6 0.724782 0.146192 0.920070
Si Si7 0.488849 0.311527 0.928318
Si Si8 0.033505 0.293732 0.815658
O O1 0.207283 0.126253 0.387564
O O2 0.967237 0.211779 0.281235
O O3 0.321491 0.263410 0.235636
O O4 0.911561 0.945854 0.073946
O O5 0.273024 0.533942 0.418330
O O6 0.478787 0.682077 0.314305
O O7 0.104642 0.662749 0.288483
O O8 0.972237 0.341598 0.103630
O O9 0.474555 0.665611 0.914640
O O10 0.612125 0.952100 0.893315
O O11 0.179259 0.338263 0.553533
O O12 0.231640 0.267948 0.814594
O O13 0.000000 0.000000 0.500000
O O14 0.000000 0.500000 0.500000
O O15 0.503935 0.155563 0.860001
O O16 0.823017 0.158254 0.820107
O O17 0.748083 0.507538 0.006151
#
# Coordination Sequence:
#
# PCOD9023084 Si02
#       8
#     2   2   2   2   2   2   2   2
#     4   9  22  41  74 109 149 192 257 307 397 439
#     4  11  22  46  71 103 149 202 254 312 385 470
#     4  11  20  43  76 107 152 195 249 325 380 465
#     4  10  24  49  80 107 144 203 269 325 384 458
#     4  10  23  49  71 111 151 199 261 313 383 469
#     4  11  22  44  68 112 151 200 249 315 393 458
#     4  10  22  39  66 104 149 198 249 303 380 467
#     4  10  23  43  65 106 154 198 251 311 389 452
#
# _framework density 27.959066
#
# number of rings (size 3 to 8) (size 9 to 14) (size 15 to 20)
#    0.750    1.000    1.250    3.750    0.000    2.000 
#   18.000    0.625    2.750    0.000    0.000    0.875 
#    0.000    0.000    0.000    0.000    0.000    0.000 
#
# Total GULP energy -89231.710416 kJ/mol
# GULP energy per Si atom -5576.981901 kJ/mol
# Density = 2.789543 g / cm^3
# Si number density = 27.959066 Si / 1000 Ang^3
#
#
#
# Elastic Constant Matrix: (Units=GPa)
#
#
# Indices 1 2 3 4 5 6 
#
# 1 185.7810 91.0856 34.9477 4.7816 -17.8255 -34.3089
# 2 91.0856 167.5552 32.3384 -16.4427 4.2753 -7.9508
# 3 34.9477 32.3384 135.4378 -4.6686 -13.9357 -0.4264
# 4 4.7816 -16.4427 -4.6686 30.0808 -7.2757 -7.1326
# 5 -17.8255 4.2753 -13.9357 -7.2757 42.2582 5.0611
# 6 -34.3089 -7.9508 -0.4264 -7.1326 5.0611 62.7325
#
#
#
# Elastic Compliance Matrix: (Units=1/GPa)
#
#
# Indices 1 2 3 4 5 6 
#
# 1 0.009000 -0.004871 -0.000919 -0.002599 0.003089 0.003754
# 2 -0.004871 0.009332 -0.001050 0.004958 -0.002404 -0.000731
# 3 -0.000919 -0.001050 0.008197 0.001352 0.002732 -0.000647
# 4 -0.002599 0.004958 0.001352 0.038568 0.005106 0.003189
# 5 0.003089 -0.002404 0.002732 0.005106 0.027014 -0.000195
# 6 0.003754 -0.000731 -0.000647 0.003189 -0.000195 0.018275
#
#
# Mechanical properties :
#
#
# Convention : Reuss Voigt Hill
#
# Bulk Modulus (GPa) = 77.82893 89.50193 83.66543
# Shear Modulus (GPa) = 38.95604 49.04114 43.99859
#
# Velocity S-wave (km/s) = 3.73678 4.19266 3.97127
# Velocity P-wave (km/s) = 6.82020 7.45112 7.14263
#
# Compressibility (1/GPa) = 0.01284869
#
# Stress axis : x y z
#
# Youngs Moduli (GPa) = 111.10680 107.15852 121.99538
#
# Poissons Ratio (x) = 0.52197 0.11214
# Poissons Ratio (y) = 0.54120 0.12810
# Poissons Ratio (z) = 0.10214 0.11252
#
# Static dielectric constant tensor:
#      x y z
#    x 2.257600 0.042630 -0.015330 
#    y 0.042630 2.297780 -0.035330 
#    z -0.015330 -0.035330 2.275270 
# 
# From -- ./inp_files/256827.got.cif
#   From: 2010.05.17/outbox.cif.g08.bks.cpg/sg2_129_cif.got.tgz:256827.got - 2010.06.03 11:33:40.
