data_PCOD9023048
_publ_section_title
;
Structure prediction by ZEFSAII (Michael W. Deem and Ramdas Pophale) SiO2 
 PCOD9023048
Probable space group: P -1
;
_chemical_formula_sum "Si O2"
_cell_formula_units_Z 13
_cell_length_a 5.424087
_cell_length_b 8.136113
_cell_length_c 14.985922
_cell_angle_alpha 48.775229
_cell_angle_beta 78.596272
_cell_angle_gamma 62.965431
_cell_volume 437.917926
_symmetry_space_group_name_H-M "P -1"
_symmetry_group_IT_number 2
_symmetry_cell_setting 'triclinic'
loop_
_space_group_symop_operation_xyz
x,y,z
-x,-y,-z
loop_
_atom_site_type_symbol
_atom_site_label
_atom_site_fract_x
_atom_site_fract_y
_atom_site_fract_z
Si Si1 0.765032 0.239769 0.074892
Si Si2 0.500000 0.500000 0.500000
Si Si3 0.726703 0.159913 0.408654
Si Si4 0.002584 0.647833 0.819446
Si Si5 0.839955 0.798665 0.143735
Si Si6 0.343699 0.670214 0.290044
Si Si7 0.402418 0.055026 0.663961
O O1 0.992056 0.281905 0.103655
O O2 0.774770 0.082758 0.042616
O O3 0.726274 0.050792 0.213666
O O4 0.500000 0.500000 0.000000
O O5 0.233523 0.730314 0.377542
O O6 0.327892 0.333012 0.588507
O O7 0.761044 0.318089 0.267270
O O8 0.550613 0.386181 0.407045
O O9 0.646933 0.977680 0.424449
O O10 0.000000 0.000000 0.500000
O O11 0.054066 0.373657 0.890224
O O12 0.721409 0.843356 0.726320
O O13 0.548607 0.783724 0.198339
O O14 0.116470 0.678717 0.231696
#
# Coordination Sequence:
#
# PCOD9023048 Si02
#       7
#     2   1   2   2   2   2   2
#     4  11  26  48  74 103 141 189 246 311 370 432
#     4  12  24  36  68 100 146 184 236 294 356 430
#     4  10  22  39  65  98 142 190 236 292 351 434
#     4  10  23  44  70 101 144 186 246 296 363 441
#     4  11  24  48  72 106 146 191 243 302 372 436
#     4  11  24  42  68 102 147 194 237 295 364 437
#     4  11  23  45  66 103 140 186 246 289 368 434
#
# _framework density 29.685928000000001
#
# number of rings (size 3 to 8) (size 9 to 14) (size 15 to 20)
#    0.000    1.231    3.077    1.846    4.308    4.308 
#    0.000    0.769    0.000    0.000    0.000    0.000 
#    0.000    0.000    0.000    0.000    0.000    0.000 
#
# Total GULP energy -72459.382755 kJ/mol
# GULP energy per Si atom -5573.798673 kJ/mol
# Density = 2.961836 g / cm^3
# Si number density = 29.685928 Si / 1000 Ang^3
#
#
#
# Elastic Constant Matrix: (Units=GPa)
#
#
# Indices 1 2 3 4 5 6 
#
# 1 103.5668 47.3654 41.1603 -5.1045 18.4557 41.5780
# 2 47.3654 197.5081 54.9013 -28.6553 3.3273 35.9027
# 3 41.1603 54.9013 127.0070 -14.4738 5.6755 20.7040
# 4 -5.1045 -28.6553 -14.4738 84.8258 13.2007 -4.3420
# 5 18.4557 3.3273 5.6755 13.2007 74.8576 -10.2347
# 6 41.5780 35.9027 20.7040 -4.3420 -10.2347 60.4455
#
#
#
# Elastic Compliance Matrix: (Units=1/GPa)
#
#
# Indices 1 2 3 4 5 6 
#
# 1 0.016524 -0.001084 -0.002870 0.000425 -0.005334 -0.010611
# 2 -0.001084 0.006557 -0.001851 0.001791 -0.000538 -0.002477
# 3 -0.002870 -0.001851 0.009746 0.000874 -0.000134 -0.000225
# 4 0.000425 0.001791 0.000874 0.012927 -0.002692 -0.001183
# 5 -0.005334 -0.000538 -0.000134 -0.002692 0.016080 0.006564
# 6 -0.010611 -0.002477 -0.000225 -0.001183 0.006564 0.026418
#
#
# Mechanical properties :
#
#
# Convention : Reuss Voigt Hill
#
# Bulk Modulus (GPa) = 47.13322 79.43733 63.28528
# Shear Modulus (GPa) = 46.75824 63.00276 54.88050
#
# Velocity S-wave (km/s) = 3.97306 4.61185 4.30432
# Velocity P-wave (km/s) = 6.07936 7.42807 6.78730
#
# Compressibility (1/GPa) = 0.02121646
#
# Stress axis : x y z
#
# Youngs Moduli (GPa) = 60.51983 152.51268 102.60693
#
# Poissons Ratio (x) = 0.16539 0.29443
# Poissons Ratio (y) = 0.06563 0.18992
# Poissons Ratio (z) = 0.17366 0.28229
#
# Static dielectric constant tensor:
#      x y z
#    x 2.610590 -1.549250 -0.447600 
#    y -1.549250 -4.499270 -1.438630 
#    z -0.447600 -1.438630 1.998050 
# 
# From -- ./inp_files/25044.got.cif
#   From: 2010.05.17/outbox.cif.g08.bks.cpg/sg2_13_cif.got.tgz:25044.got - 2010.06.03 11:33:40.
