data_PCOD9023522
_publ_section_title
;
Structure prediction by ZEFSAII (Michael W. Deem and Ramdas Pophale) SiO2 
 PCOD9023522
Probable space group: P -1
;
_chemical_formula_sum "Si O2"
_cell_formula_units_Z 16
_cell_length_a 7.798098
_cell_length_b 8.432376
_cell_length_c 14.853246
_cell_angle_alpha 130.229209
_cell_angle_beta 94.885350
_cell_angle_gamma 70.486446
_cell_volume 691.179960
_symmetry_space_group_name_H-M "P -1"
_symmetry_group_IT_number 2
_symmetry_cell_setting 'triclinic'
loop_
_space_group_symop_operation_xyz
x,y,z
-x,-y,-z
loop_
_atom_site_type_symbol
_atom_site_label
_atom_site_fract_x
_atom_site_fract_y
_atom_site_fract_z
Si Si1 0.370130 0.315326 0.121460
Si Si2 0.655080 0.289192 0.974731
Si Si3 0.600748 0.888107 0.754094
Si Si4 0.768326 0.489388 0.474333
Si Si5 0.218591 0.964737 0.733347
Si Si6 0.906149 0.748780 0.467848
Si Si7 0.050994 0.142605 0.977528
Si Si8 0.119396 0.785446 0.321378
O O1 0.409543 0.223631 0.191115
O O2 0.285768 0.583306 0.214427
O O3 0.554048 0.240349 0.041520
O O4 0.204805 0.241757 0.049917
O O5 0.847567 0.323717 0.011349
O O6 0.704221 0.060756 0.835218
O O7 0.500000 0.500000 0.000000
O O8 0.689144 0.692287 0.614746
O O9 0.393223 0.039536 0.770612
O O10 0.687015 0.297268 0.385773
O O11 0.778264 0.606375 0.422815
O O12 0.964010 0.330689 0.467764
O O13 0.132671 0.992948 0.838817
O O14 0.055398 0.106156 0.711944
O O15 0.038152 0.691106 0.367019
O O16 0.818895 0.015621 0.566920
O O17 0.000000 0.000000 0.000000
#
# Coordination Sequence:
#
# PCOD9023522 Si02
#       8
#     2   2   2   2   2   2   2   2
#     4  12  25  47  71  98 139 183 225 282 337 406
#     4  12  28  44  67 102 139 177 228 281 340 400
#     4  12  24  46  67  98 135 179 223 282 338 403
#     4  10  22  39  70  97 129 175 226 277 330 407
#     4  11  25  43  67  99 137 173 228 279 340 399
#     4   9  20  40  64 101 128 174 227 271 335 405
#     4  12  26  45  73 101 134 184 233 277 336 411
#     4  10  22  40  68  95 137 177 217 278 343 396
#
# _framework density 23.148817999999999
#
# number of rings (size 3 to 8) (size 9 to 14) (size 15 to 20)
#    0.000    1.000    3.750    2.250   10.500    1.000 
#    0.000    0.625    0.000    0.000    0.000    0.000 
#    0.000    0.000    0.000    0.000    0.000    0.000 
#
# Total GULP energy -89395.232145 kJ/mol
# GULP energy per Si atom -5587.202009 kJ/mol
# Density = 2.309613 g / cm^3
# Si number density = 23.148818 Si / 1000 Ang^3
#
#
#
# Elastic Constant Matrix: (Units=GPa)
#
#
# Indices 1 2 3 4 5 6 
#
# 1 81.7461 0.2272 19.3703 2.7621 -6.7869 -8.1529
# 2 0.2272 65.6868 7.1888 -0.8823 -12.5043 0.9056
# 3 19.3703 7.1888 73.1247 11.3873 -23.8894 2.5285
# 4 2.7621 -0.8823 11.3873 29.3264 -6.8803 -10.8895
# 5 -6.7869 -12.5043 -23.8894 -6.8803 26.2605 0.1797
# 6 -8.1529 0.9056 2.5285 -10.8895 0.1797 37.0181
#
#
#
# Elastic Compliance Matrix: (Units=1/GPa)
#
#
# Indices 1 2 3 4 5 6 
#
# 1 0.013503 0.000474 -0.003801 0.001770 0.000696 0.003739
# 2 0.000474 0.017003 0.000999 0.002486 0.009777 0.000304
# 3 -0.003801 0.000999 0.021243 -0.005220 0.017477 -0.003933
# 4 0.001770 0.002486 -0.005220 0.042836 0.008024 0.013248
# 5 0.000696 0.009777 0.017477 0.008024 0.060912 0.000785
# 6 0.003739 0.000304 -0.003933 0.013248 0.000785 0.031992
#
#
# Mechanical properties :
#
#
# Convention : Reuss Voigt Hill
#
# Bulk Modulus (GPa) = 21.23435 30.45891 25.84663
# Shear Modulus (GPa) = 24.05679 31.43908 27.74793
#
# Velocity S-wave (km/s) = 3.22720 3.68928 3.46595
# Velocity P-wave (km/s) = 4.80409 5.59769 5.21600
#
# Compressibility (1/GPa) = 0.04709351
#
# Stress axis : x y z
#
# Youngs Moduli (GPa) = 74.05597 58.81261 47.07524
#
# Poissons Ratio (x) = -0.02788 0.17894
# Poissons Ratio (y) = -0.03510 -0.04705
# Poissons Ratio (z) = 0.28150 -0.05878
#
# Static dielectric constant tensor:
#      x y z
#    x 1.942360 0.036280 0.040010 
#    y 0.036280 1.891630 -0.005010 
#    z 0.040010 -0.005010 1.875290 
# 
# From -- ./inp_files/495727.got.cif
#   From: 2010.05.17/outbox.cif.g08.bks.cpg/sg2_248_cif.got.tgz:495727.got - 2010.06.03 11:33:40.
