data_PCOD9023469
_publ_section_title
;
Structure prediction by ZEFSAII (Michael W. Deem and Ramdas Pophale) SiO2 
 PCOD9023469
Probable space group: P -1
;
_chemical_formula_sum "Si O2"
_cell_formula_units_Z 12
_cell_length_a 9.628591
_cell_length_b 7.784977
_cell_length_c 14.056184
_cell_angle_alpha 106.230879
_cell_angle_beta 136.179843
_cell_angle_gamma 104.846640
_cell_volume 507.805725
_symmetry_space_group_name_H-M "P -1"
_symmetry_group_IT_number 2
_symmetry_cell_setting 'triclinic'
loop_
_space_group_symop_operation_xyz
x,y,z
-x,-y,-z
loop_
_atom_site_type_symbol
_atom_site_label
_atom_site_fract_x
_atom_site_fract_y
_atom_site_fract_z
Si Si1 0.733338 0.275094 0.569831
Si Si2 0.348187 0.737065 0.931785
Si Si3 0.611895 0.072556 0.275983
Si Si4 0.163388 0.000514 0.300686
Si Si5 0.403200 0.308120 0.119037
Si Si6 0.883955 0.815332 0.502834
O O1 0.641825 0.096653 0.407450
O O2 0.805411 0.185117 0.677400
O O3 0.019576 0.548729 0.731859
O O4 0.471486 0.238068 0.455969
O O5 0.455225 0.636353 0.906828
O O6 0.500000 0.000000 0.000000
O O7 0.443307 0.809814 0.099730
O O8 0.470072 0.169718 0.189472
O O9 0.921989 0.240855 0.414297
O O10 0.080018 0.063787 0.361309
O O11 0.920979 0.867278 0.083983
O O12 0.568707 0.567801 0.291294
O O13 0.000000 0.000000 0.500000
#
# Coordination Sequence:
#
# PCOD9023469 Si02
#       6
#     2   2   2   2   2   2
#     4  11  25  45  64  96 141 172 212 281 334 382
#     4  10  22  39  69  97 125 173 222 268 319 389
#     4  11  23  41  69  96 130 172 221 269 328 385
#     4  11  26  43  64 100 138 172 215 274 337 388
#     4  11  24  40  68  98 131 169 223 276 319 393
#     4  12  23  40  71 102 126 175 228 271 319 396
#
# _framework density 23.631083
#
# number of rings (size 3 to 8) (size 9 to 14) (size 15 to 20)
#    0.000    1.000    5.000    0.500    4.667    3.333 
#    0.000    9.167    0.000    0.000    0.000    0.000 
#    0.000    0.000    0.000    0.000    0.000    0.000 
#
# Total GULP energy -67137.221422 kJ/mol
# GULP energy per Si atom -5594.768452 kJ/mol
# Density = 2.357730 g / cm^3
# Si number density = 23.631083 Si / 1000 Ang^3
#
#
#
# Elastic Constant Matrix: (Units=GPa)
#
#
# Indices 1 2 3 4 5 6 
#
# 1 47.3828 -13.0051 17.4862 1.6296 14.3891 5.5193
# 2 -13.0051 47.1083 35.0878 -7.6177 13.6096 -4.0324
# 3 17.4862 35.0878 177.6536 -8.2337 21.6127 2.1366
# 4 1.6296 -7.6177 -8.2337 34.8375 -3.4173 2.9822
# 5 14.3891 13.6096 21.6127 -3.4173 51.2169 1.5068
# 6 5.5193 -4.0324 2.1366 2.9822 1.5068 17.3277
#
#
#
# Elastic Compliance Matrix: (Units=1/GPa)
#
#
# Indices 1 2 3 4 5 6 
#
# 1 0.030387 0.014304 -0.004503 0.000053 -0.010290 -0.004910
# 2 0.014304 0.034160 -0.006802 0.003821 -0.010101 0.004453
# 3 -0.004503 -0.006802 0.007457 0.000586 -0.000001 -0.001169
# 4 0.000053 0.003821 0.000586 0.030143 0.000865 -0.004463
# 5 -0.010290 -0.010101 -0.000001 0.000865 0.025199 -0.001413
# 6 -0.004910 0.004453 -0.001169 -0.004463 -0.001413 0.061346
#
#
# Mechanical properties :
#
#
# Convention : Reuss Voigt Hill
#
# Bulk Modulus (GPa) = 12.82021 39.03141 25.92581
# Shear Modulus (GPa) = 23.95822 36.18148 30.06985
#
# Velocity S-wave (km/s) = 3.18755 3.91717 3.57104
# Velocity P-wave (km/s) = 4.35708 6.08373 5.29131
#
# Compressibility (1/GPa) = 0.07800184
#
# Stress axis : x y z
#
# Youngs Moduli (GPa) = 32.90863 29.27362 134.10353
#
# Poissons Ratio (x) = -0.41872 0.60383
# Poissons Ratio (y) = -0.47072 0.91222
# Poissons Ratio (z) = 0.14818 0.19913
#
# Static dielectric constant tensor:
#      x y z
#    x 1.909680 0.016330 -0.002840 
#    y 0.016330 1.946050 -0.034630 
#    z -0.002840 -0.034630 1.913330 
# 
# From -- ./inp_files/159029.got.cif
#   From: 2010.05.17/outbox.cif.g08.bks.cpg/sg2_80_cif.got.tgz:159029.got - 2010.06.03 11:33:40.
