data_PCOD9023397
_publ_section_title
;
Structure prediction by ZEFSAII (Michael W. Deem and Ramdas Pophale) SiO2 
 PCOD9023397
Probable space group: P -1
;
_chemical_formula_sum "Si O2"
_cell_formula_units_Z 16
_cell_length_a 14.063165
_cell_length_b 11.708390
_cell_length_c 8.915474
_cell_angle_alpha 107.970341
_cell_angle_beta 120.231131
_cell_angle_gamma 32.462350
_cell_volume 659.028648
_symmetry_space_group_name_H-M "P -1"
_symmetry_group_IT_number 2
_symmetry_cell_setting 'triclinic'
loop_
_space_group_symop_operation_xyz
x,y,z
-x,-y,-z
loop_
_atom_site_type_symbol
_atom_site_label
_atom_site_fract_x
_atom_site_fract_y
_atom_site_fract_z
Si Si1 0.711123 0.341805 0.030982
Si Si2 0.174181 0.540590 0.620123
Si Si3 0.878346 0.728883 0.939041
Si Si4 0.426628 0.156542 0.861733
Si Si5 0.027785 0.778755 0.312471
Si Si6 0.225494 0.067114 0.387241
Si Si7 0.860477 0.137787 0.770649
Si Si8 0.375574 0.939063 0.754729
O O1 0.773842 0.398042 0.201727
O O2 0.500000 0.500000 0.000000
O O3 0.720786 0.339203 0.857219
O O4 0.897578 0.078343 0.092269
O O5 0.323103 0.302626 0.691749
O O6 0.171652 0.580555 0.463606
O O7 0.947523 0.719735 0.557711
O O8 0.827776 0.815187 0.761811
O O9 0.653200 0.923615 0.900161
O O10 0.000000 0.500000 0.000000
O O11 0.989497 0.737206 0.115265
O O12 0.320097 0.130869 0.809896
O O13 0.442735 0.232551 0.048044
O O14 0.135184 0.805006 0.365351
O O15 0.805903 0.981253 0.299265
O O16 0.197632 0.948889 0.296997
O O17 0.410916 0.900004 0.587558
#
# Coordination Sequence:
#
# PCOD9023397 Si02
#       8
#     2   2   2   2   2   2   2   2
#     4  10  22  39  68  97 129 183 226 282 331 396
#     4  10  23  39  68  98 128 175 228 273 337 406
#     4  11  25  41  64  96 134 181 221 276 345 399
#     4  10  23  43  63  97 135 173 224 281 332 402
#     4  10  22  43  66  97 134 179 221 278 335 407
#     4  10  23  42  69  96 130 180 220 276 342 405
#     4  10  22  45  67  97 138 178 230 276 341 404
#     4   9  22  40  67  96 123 182 215 273 336 401
#
# _framework density 24.278157
#
# number of rings (size 3 to 8) (size 9 to 14) (size 15 to 20)
#    0.000    2.000    0.000    2.250   12.250    6.000 
#    0.000    0.625    0.000    0.000    0.000    0.000 
#    0.000    0.000    0.000    0.000    0.000    0.000 
#
# Total GULP energy -89101.132142 kJ/mol
# GULP energy per Si atom -5568.820759 kJ/mol
# Density = 2.422290 g / cm^3
# Si number density = 24.278157 Si / 1000 Ang^3
#
#
#
# Elastic Constant Matrix: (Units=GPa)
#
#
# Indices 1 2 3 4 5 6 
#
# 1 109.5628 34.9616 56.5783 0.9251 -27.7444 1.4675
# 2 34.9616 56.2807 2.0345 8.4183 -1.5611 -13.7182
# 3 56.5783 2.0345 150.1944 4.6243 -29.3592 1.7553
# 4 0.9251 8.4183 4.6243 17.4196 4.0921 -3.9753
# 5 -27.7444 -1.5611 -29.3592 4.0921 51.4143 -1.0718
# 6 1.4675 -13.7182 1.7553 -3.9753 -1.0718 27.1656
#
#
#
# Elastic Compliance Matrix: (Units=1/GPa)
#
#
# Indices 1 2 3 4 5 6 
#
# 1 0.017284 -0.012453 -0.005318 0.003832 0.005480 -0.006102
# 2 -0.012453 0.030411 0.004014 -0.011360 -0.002308 0.014017
# 3 -0.005318 0.004014 0.009312 -0.004559 0.002957 0.001162
# 4 0.003832 -0.011360 -0.004559 0.066195 -0.006069 0.003798
# 5 0.005480 -0.002308 0.002957 -0.006069 0.024475 -0.001575
# 6 -0.006102 0.014017 0.001162 0.003798 -0.001575 0.044638
#
#
# Mechanical properties :
#
#
# Convention : Reuss Voigt Hill
#
# Bulk Modulus (GPa) = 33.90716 55.90964 44.90840
# Shear Modulus (GPa) = 21.77133 34.03081 27.90107
#
# Velocity S-wave (km/s) = 2.99782 3.74800 3.39370
# Velocity P-wave (km/s) = 5.09696 6.46597 5.82184
#
# Compressibility (1/GPa) = 0.02949230
#
# Stress axis : x y z
#
# Youngs Moduli (GPa) = 57.85635 32.88324 107.39333
#
# Poissons Ratio (x) = 0.40950 0.57109
# Poissons Ratio (y) = 0.72050 -0.43107
# Poissons Ratio (z) = 0.30767 -0.13199
#
# Static dielectric constant tensor:
#      x y z
#    x 2.022640 0.015110 -0.013130 
#    y 0.015110 1.976670 -0.046530 
#    z -0.013130 -0.046530 2.156820 
# 
# From -- ./inp_files/307791.got.cif
#   From: 2010.05.17/outbox.cif.g08.bks.cpg/sg2_154_cif.got.tgz:307791.got - 2010.06.03 11:33:40.
