data_PCOD9023899
_publ_section_title
;
Structure prediction by ZEFSAII (Michael W. Deem and Ramdas Pophale) SiO2 
 PCOD9023899
Probable space group: P -1
;
_chemical_formula_sum "Si O2"
_cell_formula_units_Z 15
_cell_length_a 21.784562
_cell_length_b 13.195626
_cell_length_c 6.709933
_cell_angle_alpha 120.597809
_cell_angle_beta 67.219693
_cell_angle_gamma 152.951659
_cell_volume 744.141624
_symmetry_space_group_name_H-M "P -1"
_symmetry_group_IT_number 2
_symmetry_cell_setting 'triclinic'
loop_
_space_group_symop_operation_xyz
x,y,z
-x,-y,-z
loop_
_atom_site_type_symbol
_atom_site_label
_atom_site_fract_x
_atom_site_fract_y
_atom_site_fract_z
Si Si1 0.500000 0.000000 0.500000
Si Si2 0.997494 0.842251 0.136612
Si Si3 0.958252 0.562928 0.196433
Si Si4 0.351838 0.965911 0.912602
Si Si5 0.485669 0.182911 0.378040
Si Si6 0.132310 0.964096 0.704893
Si Si7 0.617392 0.778159 0.150147
Si Si8 0.787677 0.716645 0.390216
O O1 0.455689 0.045163 0.739966
O O2 0.499236 0.911932 0.609279
O O3 0.973817 0.683547 0.123286
O O4 0.867954 0.726355 0.218514
O O5 0.126160 0.103954 0.347080
O O6 0.029937 0.869904 0.893060
O O7 0.801411 0.315994 0.216821
O O8 0.052162 0.750752 0.448797
O O9 0.000000 0.500000 0.000000
O O10 0.363102 0.116997 0.970833
O O11 0.384446 0.009382 0.146962
O O12 0.427148 0.196572 0.602399
O O13 0.633968 0.449774 0.375641
O O14 0.243791 0.069947 0.803666
O O15 0.202114 0.167907 0.676748
O O16 0.500000 0.500000 0.000000
#
# Coordination Sequence:
#
# PCOD9023899 Si02
#       8
#     1   2   2   2   2   2   2   2
#     4  10  24  42  62  92 122 160 208 246 300 368
#     4  10  22  40  62  90 121 156 204 255 306 362
#     4  11  24  40  60  89 124 163 208 252 299 362
#     4  11  24  41  62  90 125 162 203 252 304 359
#     4  11  23  41  65  90 125 162 199 252 307 361
#     4  11  23  40  64  89 122 164 204 252 305 359
#     4  11  24  40  62  93 123 159 206 252 304 365
#     4  10  22  40  63  92 121 156 202 254 308 362
#
# _framework density 20.157454999999999
#
# number of rings (size 3 to 8) (size 9 to 14) (size 15 to 20)
#    0.000    1.333    0.000    4.800    0.000   10.667 
#    0.000    0.000    0.000    0.000    0.000    0.000 
#    0.000    0.000    0.000    0.000    0.000    0.000 
#
# Total GULP energy -83662.378534 kJ/mol
# GULP energy per Si atom -5577.491902 kJ/mol
# Density = 2.011158 g / cm^3
# Si number density = 20.157455 Si / 1000 Ang^3
#
#
#
# Elastic Constant Matrix: (Units=GPa)
#
#
# Indices 1 2 3 4 5 6 
#
# 1 78.3718 23.2252 29.0492 8.0320 -15.2226 -23.6261
# 2 23.2252 56.4545 16.8884 7.1065 13.9961 -17.5888
# 3 29.0492 16.8884 79.3006 -10.0628 -5.6193 -20.5342
# 4 8.0320 7.1065 -10.0628 26.4876 -1.4739 0.0909
# 5 -15.2226 13.9961 -5.6193 -1.4739 21.5587 -7.3208
# 6 -23.6261 -17.5888 -20.5342 0.0909 -7.3208 28.9103
#
#
#
# Elastic Compliance Matrix: (Units=1/GPa)
#
#
# Indices 1 2 3 4 5 6 
#
# 1 0.037164 -0.017037 0.001770 -0.003418 0.048964 0.033673
# 2 -0.017037 0.035782 -0.007425 -0.009479 -0.040436 -0.007636
# 3 0.001770 -0.007425 0.020045 0.009977 0.017240 0.015500
# 4 -0.003418 -0.009479 0.009977 0.045663 0.009752 0.000852
# 5 0.048964 -0.040436 0.017240 0.009752 0.133207 0.061359
# 6 0.033673 -0.007636 0.015500 0.000852 0.061359 0.084006
#
#
# Mechanical properties :
#
#
# Convention : Reuss Voigt Hill
#
# Bulk Modulus (GPa) = 21.00533 39.16142 30.08338
# Shear Modulus (GPa) = 11.98695 25.05560 18.52127
#
# Velocity S-wave (km/s) = 2.44122 3.52944 3.03451
# Velocity P-wave (km/s) = 4.28828 6.00659 5.21864
#
# Compressibility (1/GPa) = 0.04760695
#
# Stress axis : x y z
#
# Youngs Moduli (GPa) = 26.90740 27.94678 49.88870
#
# Poissons Ratio (x) = 0.47612 -0.08828
# Poissons Ratio (y) = 0.45841 0.37044
# Poissons Ratio (z) = -0.04761 0.20751
#
# Static dielectric constant tensor:
#      x y z
#    x 1.670200 0.009490 0.018420 
#    y 0.009490 1.691090 -0.003710 
#    z 0.018420 -0.003710 1.673390 
# 
# From -- ./inp_files/67197.got.cif
#   From: 2010.05.17/outbox.cif.g08.bks.cpg/sg2_34_cif.got.tgz:67197.got - 2010.06.03 11:33:40.
