data_PCOD9023598
_publ_section_title
;
Structure prediction by ZEFSAII (Michael W. Deem and Ramdas Pophale) SiO2 
 PCOD9023598
Probable space group: P -1
;
_chemical_formula_sum "Si O2"
_cell_formula_units_Z 12
_cell_length_a 6.917395
_cell_length_b 8.132603
_cell_length_c 19.916735
_cell_angle_alpha 43.315291
_cell_angle_beta 133.014792
_cell_angle_gamma 103.125813
_cell_volume 474.170942
_symmetry_space_group_name_H-M "P -1"
_symmetry_group_IT_number 2
_symmetry_cell_setting 'triclinic'
loop_
_space_group_symop_operation_xyz
x,y,z
-x,-y,-z
loop_
_atom_site_type_symbol
_atom_site_label
_atom_site_fract_x
_atom_site_fract_y
_atom_site_fract_z
Si Si1 0.234515 0.935950 0.359809
Si Si2 0.790514 0.772808 0.066445
Si Si3 0.826760 0.371401 0.676967
Si Si4 0.692087 0.314032 0.210209
Si Si5 0.752789 0.899562 0.826843
Si Si6 0.674250 0.365653 0.856159
O O1 0.600325 0.707139 0.525898
O O2 0.114791 0.751213 0.348056
O O3 0.191643 0.147589 0.226253
O O4 0.038284 0.086646 0.334019
O O5 0.616360 0.605108 0.068795
O O6 0.864010 0.759580 0.166947
O O7 0.142641 0.592039 0.172462
O O8 0.658506 0.090425 0.915324
O O9 0.642018 0.229339 0.706469
O O10 0.477492 0.193137 0.175888
O O11 0.634804 0.384096 0.255506
O O12 0.072633 0.737390 0.992127
#
# Coordination Sequence:
#
# PCOD9023598 Si02
#       6
#     2   2   2   2   2   2
#     4   9  20  40  63  81 115 150 196 231 276 346
#     4  10  22  41  57  82 119 153 186 235 286 340
#     4   8  19  45  59  77 120 157 181 233 293 328
#     4  12  22  35  63  92 110 147 199 237 279 334
#     4   9  20  38  58  85 114 150 187 233 282 332
#     4  10  22  40  57  82 121 155 182 231 292 340
#
# _framework density 25.30733
#
# number of rings (size 3 to 8) (size 9 to 14) (size 15 to 20)
#    1.000    1.333    0.000    2.000    0.000    4.000 
#    9.000    1.667    0.000    0.000    0.000    0.000 
#    0.000    0.000    0.000    0.000    0.000    0.000 
#
# Total GULP energy -66932.558838 kJ/mol
# GULP energy per Si atom -5577.713236 kJ/mol
# Density = 2.524973 g / cm^3
# Si number density = 25.307330 Si / 1000 Ang^3
#
#
#
# Elastic Constant Matrix: (Units=GPa)
#
#
# Indices 1 2 3 4 5 6 
#
# 1 141.1630 42.0986 -5.6049 -22.3600 3.7272 5.3606
# 2 42.0986 89.5227 13.2268 -20.4307 -2.0871 16.0807
# 3 -5.6049 13.2268 42.7783 -6.3902 -1.5805 -0.9221
# 4 -22.3600 -20.4307 -6.3902 26.9009 -9.3608 0.0981
# 5 3.7272 -2.0871 -1.5805 -9.3608 19.9642 -13.4890
# 6 5.3606 16.0807 -0.9221 0.0981 -13.4890 56.5220
#
#
#
# Elastic Compliance Matrix: (Units=1/GPa)
#
#
# Indices 1 2 3 4 5 6 
#
# 1 0.009174 -0.003406 0.003267 0.006334 0.001496 0.000498
# 2 -0.003406 0.016409 -0.003875 0.010342 0.004653 -0.003316
# 3 0.003267 -0.003875 0.026600 0.008533 0.007047 0.002893
# 4 0.006334 0.010342 0.008533 0.064007 0.033634 0.004512
# 5 0.001496 0.004653 0.007047 0.033634 0.078298 0.017277
# 6 0.000498 -0.003316 0.002893 0.004512 0.017277 0.022751
#
#
# Mechanical properties :
#
#
# Convention : Reuss Voigt Hill
#
# Bulk Modulus (GPa) = 22.64669 41.43388 32.04029
# Shear Modulus (GPa) = 20.83463 35.59366 28.21415
#
# Velocity S-wave (km/s) = 2.87237 3.75434 3.34258
# Velocity P-wave (km/s) = 4.46865 5.93307 5.25215
#
# Compressibility (1/GPa) = 0.04415656
#
# Stress axis : x y z
#
# Youngs Moduli (GPa) = 108.99896 60.94237 37.59416
#
# Poissons Ratio (x) = 0.20758 -0.12283
# Poissons Ratio (y) = 0.37127 0.14566
# Poissons Ratio (z) = -0.35614 0.23612
#
# Static dielectric constant tensor:
#      x y z
#    x 2.033790 -0.044750 0.031170 
#    y -0.044750 2.120030 -0.047660 
#    z 0.031170 -0.047660 1.986110 
# 
# From -- ./inp_files/229156.got.cif
#   From: 2010.05.17/outbox.cif.g08.bks.cpg/sg2_115_cif.got.tgz:229156.got - 2010.06.03 11:33:40.
