data_PCOD9023519
_publ_section_title
;
Structure prediction by ZEFSAII (Michael W. Deem and Ramdas Pophale) SiO2 
 PCOD9023519
Probable space group: P -1
;
_chemical_formula_sum "Si O2"
_cell_formula_units_Z 14
_cell_length_a 9.119204
_cell_length_b 19.660000
_cell_length_c 9.840026
_cell_angle_alpha 152.018372
_cell_angle_beta 67.746408
_cell_angle_gamma 122.860275
_cell_volume 672.317815
_symmetry_space_group_name_H-M "P -1"
_symmetry_group_IT_number 2
_symmetry_cell_setting 'triclinic'
loop_
_space_group_symop_operation_xyz
x,y,z
-x,-y,-z
loop_
_atom_site_type_symbol
_atom_site_label
_atom_site_fract_x
_atom_site_fract_y
_atom_site_fract_z
Si Si1 0.923538 0.863132 0.929007
Si Si2 0.997577 0.550987 0.745871
Si Si3 0.500496 0.387245 0.925927
Si Si4 0.105189 0.190793 0.841601
Si Si5 0.633673 0.237322 0.413189
Si Si6 0.873129 0.544470 0.225928
Si Si7 0.704898 0.935828 0.933634
O O1 0.938850 0.731887 0.588234
O O2 0.768964 0.904974 0.003098
O O3 0.894953 0.795411 0.971003
O O4 0.116619 0.030373 0.154706
O O5 0.812449 0.407140 0.621404
O O6 0.000000 0.500000 0.500000
O O7 0.145614 0.555427 0.804854
O O8 0.998121 0.722747 0.041145
O O9 0.311664 0.298673 0.912106
O O10 0.531540 0.245375 0.596511
O O11 0.500000 0.500000 0.000000
O O12 0.679850 0.490942 0.133201
O O13 0.000000 0.000000 0.500000
O O14 0.491764 0.207202 0.289578
O O15 0.682766 0.093376 0.172779
O O16 0.000000 0.500000 0.000000
#
# Coordination Sequence:
#
# PCOD9023519 Si02
#       7
#     2   2   2   2   2   2   2
#     4  11  23  43  66 103 139 181 235 289 354 415
#     4  12  24  45  69 100 143 186 236 291 353 417
#     4  12  24  42  70 103 136 186 237 290 350 424
#     4  12  27  46  69 102 146 185 233 296 361 410
#     4  11  21  42  65 100 134 185 237 279 350 423
#     4  12  23  42  71 103 135 183 242 289 344 423
#     4  10  22  39  70  95 139 180 228 293 351 414
#
# _framework density 20.823485000000002
#
# number of rings (size 3 to 8) (size 9 to 14) (size 15 to 20)
#    0.000    0.571    5.714    1.714    0.000    7.429 
#    0.000    1.429    0.000    0.000    0.000    0.000 
#    0.000    0.000    0.000    0.000    0.000    0.000 
#
# Total GULP energy -78061.808943 kJ/mol
# GULP energy per Si atom -5575.843496 kJ/mol
# Density = 2.077609 g / cm^3
# Si number density = 20.823485 Si / 1000 Ang^3
#
#
#
# Elastic Constant Matrix: (Units=GPa)
#
#
# Indices 1 2 3 4 5 6 
#
# 1 161.2449 36.6505 37.9861 6.6779 19.8971 -29.8776
# 2 36.6505 98.8487 26.6897 -0.8207 -0.1601 -18.2616
# 3 37.9861 26.6897 73.8914 6.5776 -2.5361 -5.4316
# 4 6.6779 -0.8207 6.5776 32.6841 -2.3250 -2.2740
# 5 19.8971 -0.1601 -2.5361 -2.3250 29.6898 1.1814
# 6 -29.8776 -18.2616 -5.4316 -2.2740 1.1814 35.6323
#
#
#
# Elastic Compliance Matrix: (Units=1/GPa)
#
#
# Indices 1 2 3 4 5 6 
#
# 1 0.009709 -0.001187 -0.004186 -0.001195 -0.007245 0.007058
# 2 -0.001187 0.012471 -0.003664 0.001670 0.000485 0.004928
# 3 -0.004186 -0.003664 0.017158 -0.002607 0.004169 -0.003077
# 4 -0.001195 0.001670 -0.002607 0.031717 0.003016 0.001380
# 5 -0.007245 0.000485 0.004169 0.003016 0.039383 -0.006304
# 6 0.007058 0.004928 -0.003077 0.001380 -0.006304 0.036336
#
#
# Mechanical properties :
#
#
# Convention : Reuss Voigt Hill
#
# Bulk Modulus (GPa) = 47.02884 59.62639 53.32762
# Shear Modulus (GPa) = 29.08045 35.11182 32.09613
#
# Velocity S-wave (km/s) = 3.74106 4.11075 3.93025
# Velocity P-wave (km/s) = 6.42606 7.15733 6.80153
#
# Compressibility (1/GPa) = 0.02126355
#
# Stress axis : x y z
#
# Youngs Moduli (GPa) = 102.99576 80.18574 58.28306
#
# Poissons Ratio (x) = 0.09521 0.24396
# Poissons Ratio (y) = 0.12230 0.21355
# Poissons Ratio (z) = 0.43112 0.29380
#
# Static dielectric constant tensor:
#      x y z
#    x 1.897730 0.007760 0.011790 
#    y 0.007760 1.729030 -0.008800 
#    z 0.011790 -0.008800 1.860150 
# 
# From -- ./inp_files/219024.got.cif
#   From: 2010.05.17/outbox.cif.g08.bks.cpg/sg2_110_cif.got.tgz:219024.got - 2010.06.03 11:33:40.
