data_PCOD9023699
_publ_section_title
;
Structure prediction by ZEFSAII (Michael W. Deem and Ramdas Pophale) SiO2 
 PCOD9023699
Probable space group: P -1
;
_chemical_formula_sum "Si O2"
_cell_formula_units_Z 14
_cell_length_a 11.757194
_cell_length_b 5.460803
_cell_length_c 12.226909
_cell_angle_alpha 76.508678
_cell_angle_beta 132.882950
_cell_angle_gamma 93.295008
_cell_volume 553.662069
_symmetry_space_group_name_H-M "P -1"
_symmetry_group_IT_number 2
_symmetry_cell_setting 'triclinic'
loop_
_space_group_symop_operation_xyz
x,y,z
-x,-y,-z
loop_
_atom_site_type_symbol
_atom_site_label
_atom_site_fract_x
_atom_site_fract_y
_atom_site_fract_z
Si Si1 0.770173 0.692517 0.042704
Si Si2 0.915759 0.150489 0.779224
Si Si3 0.823451 0.422144 0.890482
Si Si4 0.342297 0.168514 0.422666
Si Si5 0.178451 0.376776 0.485229
Si Si6 0.152342 0.667970 0.665642
Si Si7 0.462186 0.799546 0.907501
O O1 0.803565 0.564938 0.196170
O O2 0.897159 0.885404 0.096497
O O3 0.784404 0.465496 0.987008
O O4 0.592885 0.824326 0.899986
O O5 0.847274 0.177985 0.853385
O O6 0.879799 0.424160 0.669864
O O7 0.814807 0.967522 0.671441
O O8 0.697756 0.610029 0.717310
O O9 0.000000 0.500000 0.000000
O O10 0.335333 0.243737 0.539868
O O11 0.500000 0.000000 0.500000
O O12 0.187880 0.547559 0.581658
O O13 0.029296 0.234317 0.434206
O O14 0.280748 0.852498 0.751715
O O15 0.500000 0.500000 0.000000
O O16 0.500000 0.000000 0.000000
#
# Coordination Sequence:
#
# PCOD9023699 Si02
#       7
#     2   2   2   2   2   2   2
#     4   9  19  38  60  91 120 167 216 272 338 395
#     4   9  20  39  62  87 124 166 220 271 328 401
#     4   9  20  41  63  88 122 167 220 266 333 399
#     4  11  24  39  60  97 126 166 220 278 340 392
#     4   9  20  41  64  87 127 175 216 269 331 415
#     4   9  19  40  64  92 124 169 224 267 336 405
#     4  10  22  40  60  93 131 170 218 277 339 403
#
# _framework density 25.286182
#
# number of rings (size 3 to 8) (size 9 to 14) (size 15 to 20)
#    0.000    2.571    0.000    0.857    2.000    6.857 
#   15.429    2.143    0.000    0.000    0.000    0.000 
#    0.000    0.000    0.000    0.000    0.000    0.000 
#
# Total GULP energy -78044.827582 kJ/mol
# GULP energy per Si atom -5574.630542 kJ/mol
# Density = 2.522863 g / cm^3
# Si number density = 25.286182 Si / 1000 Ang^3
#
#
#
# Elastic Constant Matrix: (Units=GPa)
#
#
# Indices 1 2 3 4 5 6 
#
# 1 155.7393 39.3910 57.9575 12.0086 2.9135 -32.0185
# 2 39.3910 55.3271 18.4928 15.4311 10.1220 -14.7170
# 3 57.9575 18.4928 98.8495 -2.6432 -1.4148 -11.9325
# 4 12.0086 15.4311 -2.6432 50.0312 -2.2177 -3.2970
# 5 2.9135 10.1220 -1.4148 -2.2177 46.2347 13.3293
# 6 -32.0185 -14.7170 -11.9325 -3.2970 13.3293 44.4121
#
#
#
# Elastic Compliance Matrix: (Units=1/GPa)
#
#
# Indices 1 2 3 4 5 6 
#
# 1 0.010375 -0.003699 -0.004804 -0.001322 -0.001595 0.005344
# 2 -0.003699 0.027118 -0.002300 -0.007463 -0.008338 0.007650
# 3 -0.004804 -0.002300 0.013343 0.002577 0.001607 -0.000932
# 4 -0.001322 -0.007463 0.002577 0.022760 0.003491 -0.002092
# 5 -0.001595 -0.008338 0.001607 0.003491 0.027040 -0.011337
# 6 0.005344 0.007650 -0.000932 -0.002092 -0.011337 0.031901
#
#
# Mechanical properties :
#
#
# Convention : Reuss Voigt Hill
#
# Bulk Modulus (GPa) = 34.21135 60.17761 47.19448
# Shear Modulus (GPa) = 30.50912 41.07391 35.79152
#
# Velocity S-wave (km/s) = 3.47732 4.03471 3.76634
# Velocity P-wave (km/s) = 5.44806 6.74948 6.13338
#
# Compressibility (1/GPa) = 0.02923007
#
# Stress axis : x y z
#
# Youngs Moduli (GPa) = 96.38846 36.87533 74.94667
#
# Poissons Ratio (x) = 0.13640 0.36004
# Poissons Ratio (y) = 0.35653 0.17238
# Poissons Ratio (z) = 0.46305 0.08481
#
# Static dielectric constant tensor:
#      x y z
#    x 2.133750 -0.217190 0.067000 
#    y -0.217190 3.064240 -0.204760 
#    z 0.067000 -0.204760 2.154150 
# 
# From -- ./inp_files/410382.got.cif
#   From: 2010.05.17/outbox.cif.g08.bks.cpg/sg2_206_cif.got.tgz:410382.got - 2010.06.03 11:33:40.
