data_PCOD9023393
_publ_section_title
;
Structure prediction by ZEFSAII (Michael W. Deem and Ramdas Pophale) SiO2 
 PCOD9023393
Probable space group: P -1
;
_chemical_formula_sum "Si O2"
_cell_formula_units_Z 16
_cell_length_a 11.417301
_cell_length_b 7.603287
_cell_length_c 8.774568
_cell_angle_alpha 91.094198
_cell_angle_beta 63.841318
_cell_angle_gamma 96.981866
_cell_volume 678.115862
_symmetry_space_group_name_H-M "P -1"
_symmetry_group_IT_number 2
_symmetry_cell_setting 'triclinic'
loop_
_space_group_symop_operation_xyz
x,y,z
-x,-y,-z
loop_
_atom_site_type_symbol
_atom_site_label
_atom_site_fract_x
_atom_site_fract_y
_atom_site_fract_z
Si Si1 0.041437 0.632930 0.116031
Si Si2 0.392756 0.197546 0.337904
Si Si3 0.851226 0.844917 0.731414
Si Si4 0.092013 0.746088 0.394661
Si Si5 0.337644 0.785767 0.454407
Si Si6 0.684338 0.315512 0.185088
Si Si7 0.621988 0.697813 0.312480
Si Si8 0.129849 0.140537 0.927844
O O1 0.056581 0.597915 0.283951
O O2 0.917529 0.741978 0.180246
O O3 0.186741 0.719245 0.981248
O O4 0.000000 0.500000 0.000000
O O5 0.286173 0.225840 0.271953
O O6 0.543871 0.231711 0.198562
O O7 0.382379 0.310273 0.501068
O O8 0.361422 0.994932 0.409049
O O9 0.970391 0.779205 0.569656
O O10 0.869703 0.061091 0.707855
O O11 0.860148 0.794535 0.902316
O O12 0.215818 0.706763 0.421073
O O13 0.304861 0.750647 0.649356
O O14 0.474861 0.712255 0.343551
O O15 0.674539 0.525943 0.208100
O O16 0.720489 0.870163 0.205322
O O17 0.000000 0.000000 0.000000
#
# Coordination Sequence:
#
# PCOD9023393 Si02
#       8
#     2   2   2   2   2   2   2   2
#     4  12  25  44  62  96 133 168 212 259 324 381
#     4  10  22  39  68  97 124 165 215 267 312 376
#     4  10  22  40  67  98 125 161 219 264 320 367
#     4  10  22  42  66  96 129 164 209 274 311 380
#     4  10  22  40  68  97 121 167 218 262 318 371
#     4  11  23  42  63  90 136 170 206 259 320 387
#     4  11  23  42  62  94 132 169 211 256 323 384
#     4  12  25  41  69  95 127 172 214 265 314 379
#
# _framework density 23.594785999999999
#
# number of rings (size 3 to 8) (size 9 to 14) (size 15 to 20)
#    0.000    1.250    2.500    4.500    7.000    1.000 
#    4.500    5.000    0.000    0.000    0.000    0.000 
#    0.000    0.000    0.000    0.000    0.000    0.000 
#
# Total GULP energy -89417.422480 kJ/mol
# GULP energy per Si atom -5588.588905 kJ/mol
# Density = 2.354108 g / cm^3
# Si number density = 23.594786 Si / 1000 Ang^3
#
#
#
# Elastic Constant Matrix: (Units=GPa)
#
#
# Indices 1 2 3 4 5 6 
#
# 1 229.6126 27.5840 87.7907 7.3197 10.1123 23.0708
# 2 27.5840 51.5496 11.4551 -1.3916 6.8293 4.0035
# 3 87.7907 11.4551 111.6710 2.8393 -15.0662 12.3303
# 4 7.3197 -1.3916 2.8393 20.2919 8.7889 -1.5361
# 5 10.1123 6.8293 -15.0662 8.7889 33.0407 2.0329
# 6 23.0708 4.0035 12.3303 -1.5361 2.0329 28.2089
#
#
#
# Elastic Compliance Matrix: (Units=1/GPa)
#
#
# Indices 1 2 3 4 5 6 
#
# 1 0.007264 -0.001835 -0.005764 -0.000336 -0.004206 -0.002876
# 2 -0.001835 0.021703 -0.001709 0.004988 -0.006023 -0.000127
# 3 -0.005764 -0.001709 0.015560 -0.005088 0.010744 -0.002896
# 4 -0.000336 0.004988 -0.005088 0.059359 -0.019433 0.006424
# 5 -0.004206 -0.006023 0.010744 -0.019433 0.043148 -0.004569
# 6 -0.002876 -0.000127 -0.002896 0.006424 -0.004569 0.039765
#
#
# Mechanical properties :
#
#
# Convention : Reuss Voigt Hill
#
# Bulk Modulus (GPa) = 38.59302 71.83253 55.21278
# Shear Modulus (GPa) = 23.35866 34.04185 28.70025
#
# Velocity S-wave (km/s) = 3.14983 3.80250 3.49145
# Velocity P-wave (km/s) = 5.44249 7.05613 6.30118
#
# Compressibility (1/GPa) = 0.02591142
#
# Stress axis : x y z
#
# Youngs Moduli (GPa) = 137.65797 46.07708 64.26565
#
# Poissons Ratio (x) = 0.08454 0.37043
# Poissons Ratio (y) = 0.25256 0.10985
# Poissons Ratio (z) = 0.79347 0.07876
#
# Static dielectric constant tensor:
#      x y z
#    x 1.839470 0.013010 -0.022500 
#    y 0.013010 2.102400 -0.039990 
#    z -0.022500 -0.039990 1.910110 
# 
# From -- ./inp_files/239562.got.cif
#   From: 2010.05.17/outbox.cif.g08.bks.cpg/sg2_120_cif.got.tgz:239562.got - 2010.06.03 11:33:40.
