data_PCOD9023523
_publ_section_title
;
Structure prediction by ZEFSAII (Michael W. Deem and Ramdas Pophale) SiO2 
 PCOD9023523
Probable space group: P -1
;
_chemical_formula_sum "Si O2"
_cell_formula_units_Z 14
_cell_length_a 5.372399
_cell_length_b 18.432893
_cell_length_c 10.836232
_cell_angle_alpha 145.041076
_cell_angle_beta 64.983688
_cell_angle_gamma 123.902594
_cell_volume 509.011618
_symmetry_space_group_name_H-M "P -1"
_symmetry_group_IT_number 2
_symmetry_cell_setting 'triclinic'
loop_
_space_group_symop_operation_xyz
x,y,z
-x,-y,-z
loop_
_atom_site_type_symbol
_atom_site_label
_atom_site_fract_x
_atom_site_fract_y
_atom_site_fract_z
Si Si1 0.032029 0.894187 0.500224
Si Si2 0.861731 0.274569 0.389598
Si Si3 0.377173 0.311784 0.017567
Si Si4 0.802927 0.347878 0.774217
Si Si5 0.381883 0.866236 0.180299
Si Si6 0.767549 0.074167 0.935522
Si Si7 0.534184 0.417282 0.500972
O O1 0.049441 0.756909 0.360157
O O2 0.100665 0.885914 0.328055
O O3 0.334611 0.024662 0.657205
O O4 0.794373 0.937627 0.683017
O O5 0.757367 0.327091 0.608563
O O6 0.777100 0.356706 0.408694
O O7 0.199224 0.299764 0.396958
O O8 0.738955 0.118998 0.142276
O O9 0.417067 0.466609 0.244207
O O10 0.477860 0.297168 0.837370
O O11 0.640015 0.286096 0.001692
O O12 0.074216 0.205508 0.999861
O O13 0.000000 0.500000 0.000000
O O14 0.465025 0.902386 0.073211
O O15 0.500000 0.500000 0.500000
#
# Coordination Sequence:
#
# PCOD9023523 Si02
#       7
#     2   2   2   2   2   2   2
#     4   9  21  40  67  96 140 174 243 283 362 408
#     4  12  28  44  71 108 148 186 240 289 367 423
#     4  10  22  39  70  97 140 178 240 286 352 411
#     4  11  24  48  66 102 145 193 228 294 357 440
#     4   9  19  40  66 104 129 178 237 302 340 418
#     4  11  22  40  72 102 132 183 240 300 347 416
#     4  12  24  45  70 108 141 190 237 299 347 424
#
# _framework density 27.504280999999999
#
# number of rings (size 3 to 8) (size 9 to 14) (size 15 to 20)
#    0.000    1.429    2.857    2.571    4.000    1.143 
#    7.714    0.714    0.000    0.000    0.000    0.000 
#    0.000    0.000    0.000    0.000    0.000    0.000 
#
# Total GULP energy -78026.028517 kJ/mol
# GULP energy per Si atom -5573.287751 kJ/mol
# Density = 2.744168 g / cm^3
# Si number density = 27.504281 Si / 1000 Ang^3
#
#
#
# Elastic Constant Matrix: (Units=GPa)
#
#
# Indices 1 2 3 4 5 6 
#
# 1 78.1890 20.2415 35.1914 -1.5623 -11.0593 -4.4538
# 2 20.2415 78.4364 37.2031 -35.7676 -10.7897 -24.7452
# 3 35.1914 37.2031 180.7969 -5.4262 -34.9992 -17.3846
# 4 -1.5623 -35.7676 -5.4262 61.4626 -3.6216 4.2074
# 5 -11.0593 -10.7897 -34.9992 -3.6216 42.1126 1.3728
# 6 -4.4538 -24.7452 -17.3846 4.2074 1.3728 29.8720
#
#
#
# Elastic Compliance Matrix: (Units=1/GPa)
#
#
# Indices 1 2 3 4 5 6 
#
# 1 0.014837 -0.004492 -0.002092 -0.002200 0.000898 -0.002458
# 2 -0.004492 0.028677 -0.001598 0.015408 0.005521 0.019732
# 3 -0.002092 -0.001598 0.007507 -0.000188 0.005182 0.002521
# 4 -0.002200 0.015408 -0.000188 0.024875 0.005073 0.008589
# 5 0.000898 0.005521 0.005182 0.005073 0.029955 0.005632
# 6 -0.002458 0.019732 0.002521 0.008589 0.005632 0.049454
#
#
# Mechanical properties :
#
#
# Convention : Reuss Voigt Hill
#
# Bulk Modulus (GPa) = 28.85451 58.07715 43.46583
# Shear Modulus (GPa) = 27.28944 43.00853 35.14899
#
# Velocity S-wave (km/s) = 3.15332 3.95866 3.57872
# Velocity P-wave (km/s) = 4.87561 6.48507 5.73706
#
# Compressibility (1/GPa) = 0.03465663
#
# Stress axis : x y z
#
# Youngs Moduli (GPa) = 67.39885 34.87149 133.20758
#
# Poissons Ratio (x) = 0.15664 0.27871
# Poissons Ratio (y) = 0.30274 0.21287
# Poissons Ratio (z) = 0.14102 0.05573
#
# Static dielectric constant tensor:
#      x y z
#    x 2.248060 0.053030 -0.012100 
#    y 0.053030 2.379520 -0.014610 
#    z -0.012100 -0.014610 2.129760 
# 
# From -- ./inp_files/370506.got.cif
#   From: 2010.05.17/outbox.cif.g08.bks.cpg/sg2_186_cif.got.tgz:370506.got - 2010.06.03 11:33:40.
