data_PCOD9023465
_publ_section_title
;
Structure prediction by ZEFSAII (Michael W. Deem and Ramdas Pophale) SiO2 
 PCOD9023465
Probable space group: P -1
;
_chemical_formula_sum "Si O2"
_cell_formula_units_Z 14
_cell_length_a 10.707625
_cell_length_b 12.102645
_cell_length_c 11.256647
_cell_angle_alpha 124.712464
_cell_angle_beta 121.065768
_cell_angle_gamma 23.338814
_cell_volume 474.950158
_symmetry_space_group_name_H-M "P -1"
_symmetry_group_IT_number 2
_symmetry_cell_setting 'triclinic'
loop_
_space_group_symop_operation_xyz
x,y,z
-x,-y,-z
loop_
_atom_site_type_symbol
_atom_site_label
_atom_site_fract_x
_atom_site_fract_y
_atom_site_fract_z
Si Si1 0.800761 0.039417 0.872413
Si Si2 0.457050 0.655372 0.664511
Si Si3 0.856108 0.831036 0.243835
Si Si4 0.597328 0.399877 0.802959
Si Si5 0.718455 0.559679 0.395731
Si Si6 0.142975 0.345625 0.667031
Si Si7 0.106725 0.206936 0.021708
O O1 0.560248 0.327499 0.854058
O O2 0.690055 0.040298 0.930648
O O3 0.022455 0.756271 0.731557
O O4 0.000000 0.000000 0.000000
O O5 0.500000 0.500000 0.500000
O O6 0.385429 0.661147 0.766093
O O7 0.775727 0.480007 0.734043
O O8 0.205157 0.961696 0.675061
O O9 0.686335 0.898160 0.311066
O O10 0.777344 0.841221 0.080710
O O11 0.601951 0.263746 0.634297
O O12 0.843497 0.309853 0.914756
O O13 0.667901 0.726100 0.383950
O O14 0.887033 0.474478 0.543373
O O15 0.013513 0.565798 0.826909
#
# Coordination Sequence:
#
# PCOD9023465 Si02
#       7
#     2   2   2   2   2   2   2
#     4   9  20  37  62  95 133 169 222 288 340 401
#     4  11  25  42  72 104 138 184 235 294 351 411
#     4  11  24  46  68 100 144 185 235 283 351 423
#     4  10  22  39  69  96 130 171 238 287 342 402
#     4  10  22  41  67  99 132 179 232 285 350 410
#     4  10  22  44  66  96 143 182 228 281 351 421
#     4   9  21  43  65 101 134 180 232 283 347 413
#
# _framework density 29.476776000000001
#
# number of rings (size 3 to 8) (size 9 to 14) (size 15 to 20)
#    0.000    2.000    0.000    1.714    8.000    5.143 
#   10.286    7.143    0.000    0.000    0.000    0.000 
#    0.000    0.000    0.000    0.000    0.000    0.000 
#
# Total GULP energy -78176.773395 kJ/mol
# GULP energy per Si atom -5584.055242 kJ/mol
# Density = 2.940969 g / cm^3
# Si number density = 29.476776 Si / 1000 Ang^3
#
#
#
# Elastic Constant Matrix: (Units=GPa)
#
#
# Indices 1 2 3 4 5 6 
#
# 1 132.8591 65.6684 82.6791 -38.2374 -7.4022 47.9788
# 2 65.6684 127.5430 66.9921 -7.9624 -19.3942 47.7091
# 3 82.6791 66.9921 229.7733 -2.5541 8.5098 10.6297
# 4 -38.2374 -7.9624 -2.5541 50.4825 8.3601 -4.9556
# 5 -7.4022 -19.3942 8.5098 8.3601 85.4602 -30.6597
# 6 47.9788 47.7091 10.6297 -4.9556 -30.6597 67.8352
#
#
#
# Elastic Compliance Matrix: (Units=1/GPa)
#
#
# Indices 1 2 3 4 5 6 
#
# 1 0.021358 -0.002663 -0.005973 0.014881 -0.004341 -0.013172
# 2 -0.002663 0.013131 -0.002595 -0.000849 0.000689 -0.006696
# 3 -0.005973 -0.002595 0.006978 -0.004164 0.000329 0.004801
# 4 0.014881 -0.000849 -0.004164 0.030625 -0.004786 -0.009202
# 5 -0.004341 0.000689 0.000329 -0.004786 0.015159 0.009036
# 6 -0.013172 -0.006696 0.004801 -0.009202 0.009036 0.031427
#
#
# Mechanical properties :
#
#
# Convention : Reuss Voigt Hill
#
# Bulk Modulus (GPa) = 52.62225 102.31720 77.46973
# Shear Modulus (GPa) = 33.90387 59.07797 46.49092
#
# Velocity S-wave (km/s) = 3.39512 4.48171 3.97571
# Velocity P-wave (km/s) = 5.76715 7.84649 6.88576
#
# Compressibility (1/GPa) = 0.01900337
#
# Stress axis : x y z
#
# Youngs Moduli (GPa) = 46.82101 76.15388 143.31541
#
# Poissons Ratio (x) = 0.20280 0.85605
# Poissons Ratio (y) = 0.12469 0.37197
# Poissons Ratio (z) = 0.27967 0.19765
#
# Static dielectric constant tensor:
#      x y z
#    x 2.472810 -0.177050 -0.049710 
#    y -0.177050 2.377320 -0.010240 
#    z -0.049710 -0.010240 2.343070 
# 
# From -- ./inp_files/428769.got.cif
#   From: 2010.05.17/outbox.cif.g08.bks.cpg/sg2_215_cif.got.tgz:428769.got - 2010.06.03 11:33:40.
