data_PCOD9023417
_publ_section_title
;
Structure prediction by ZEFSAII (Michael W. Deem and Ramdas Pophale) SiO2 
 PCOD9023417
Probable space group: P -1
;
_chemical_formula_sum "Si O2"
_cell_formula_units_Z 16
_cell_length_a 5.483166
_cell_length_b 24.533464
_cell_length_c 20.904918
_cell_angle_alpha 158.982520
_cell_angle_beta 49.025200
_cell_angle_gamma 132.105106
_cell_volume 743.565584
_symmetry_space_group_name_H-M "P -1"
_symmetry_group_IT_number 2
_symmetry_cell_setting 'triclinic'
loop_
_space_group_symop_operation_xyz
x,y,z
-x,-y,-z
loop_
_atom_site_type_symbol
_atom_site_label
_atom_site_fract_x
_atom_site_fract_y
_atom_site_fract_z
Si Si1 0.715358 0.370932 0.558975
Si Si2 0.774118 0.041816 0.140532
Si Si3 0.756330 0.290993 0.846660
Si Si4 0.826262 0.778067 0.403175
Si Si5 0.571766 0.027854 0.404718
Si Si6 0.034777 0.020664 0.210886
Si Si7 0.868800 0.602087 0.374984
Si Si8 0.231820 0.438855 0.033898
O O1 0.813578 0.228016 0.348188
O O2 0.441806 0.296699 0.579316
O O3 0.511032 0.460516 0.646848
O O4 0.017821 0.460516 0.646848
O O5 0.388578 0.983411 0.124609
O O6 0.888842 0.983411 0.124609
O O7 0.000000 0.000000 0.000000
O O8 0.664809 0.104014 0.658893
O O9 0.421910 0.343644 0.943922
O O10 0.027218 0.338444 0.795245
O O11 0.920345 0.343645 0.943922
O O12 0.642461 0.874627 0.492483
O O13 0.142888 0.874628 0.492483
O O14 0.768523 0.949943 0.232522
O O15 0.083477 0.210369 0.419052
O O16 0.099810 0.563124 0.235826
O O17 0.500000 0.500000 0.000000
#
# Coordination Sequence:
#
# PCOD9023417 Si02
#       8
#     2   2   2   2   2   2   2   2
#     4  10  17  31  52  76 100 138 175 198 266 318
#     4  10  18  30  50  81 115 133 162 207 261 333
#     4  12  26  36  53  81 102 143 191 225 267 293
#     4  12  19  36  53  73 106 143 179 219 258 312
#     4  12  21  37  55  75 109 138 186 218 258 327
#     4  10  19  34  54  79 104 146 166 208 270 317
#     4  10  18  33  52  70  99 139 179 203 257 313
#     4  12  24  39  52  72 107 139 183 239 264 294
#
# _framework density 21.517938999999998
#
# number of rings (size 3 to 8) (size 9 to 14) (size 15 to 20)
#    0.000    1.000    5.000    5.250    0.000    0.000 
#    0.000    0.000    0.000    0.000    0.000    0.000 
#    0.000   80.000    0.000    0.000    0.000    0.000 
#
# Total GULP energy -89419.510157 kJ/mol
# GULP energy per Si atom -5588.719385 kJ/mol
# Density = 2.146896 g / cm^3
# Si number density = 21.517939 Si / 1000 Ang^3
#
#
#
# Elastic Constant Matrix: (Units=GPa)
#
#
# Indices 1 2 3 4 5 6 
#
# 1 251.6556 28.9213 54.1528 -12.5482 8.7286 -0.8855
# 2 28.9213 30.4215 26.4376 -25.4526 -0.0298 1.2899
# 3 54.1528 26.4376 86.6388 -39.1533 1.7425 1.6072
# 4 -12.5482 -25.4526 -39.1533 41.1023 1.5790 -1.6893
# 5 8.7286 -0.0298 1.7425 1.5790 33.2309 -5.3263
# 6 -0.8855 1.2899 1.6072 -1.6893 -5.3263 17.9220
#
#
#
# Elastic Compliance Matrix: (Units=1/GPa)
#
#
# Indices 1 2 3 4 5 6 
#
# 1 0.005397 -0.007102 -0.004245 -0.006751 -0.000837 0.000274
# 2 -0.007102 0.078146 0.002656 0.048709 -0.000817 -0.001865
# 3 -0.004245 0.002656 0.023868 0.023106 -0.001355 -0.000766
# 4 -0.006751 0.048709 0.023106 0.074564 -0.002897 0.000256
# 5 -0.000837 -0.000817 -0.001355 -0.002897 0.032024 0.009383
# 6 0.000274 -0.001865 -0.000766 0.000256 0.009383 0.058827
#
#
# Mechanical properties :
#
#
# Convention : Reuss Voigt Hill
#
# Bulk Modulus (GPa) = 11.10745 65.30437 38.20591
# Shear Modulus (GPa) = 15.61441 35.73132 25.67286
#
# Velocity S-wave (km/s) = 2.69670 4.07939 3.45786
# Velocity P-wave (km/s) = 3.85609 7.25281 5.80830
#
# Compressibility (1/GPa) = 0.09002963
#
# Stress axis : x y z
#
# Youngs Moduli (GPa) = 185.29839 12.79651 41.89671
#
# Poissons Ratio (x) = 0.09088 0.17785
# Poissons Ratio (y) = 1.31597 -0.11128
# Poissons Ratio (z) = 0.78658 -0.03399
#
# Static dielectric constant tensor:
#      x y z
#    x 1.876300 -0.002280 0.005120 
#    y -0.002280 1.769550 0.013070 
#    z 0.005120 0.013070 1.803860 
# 
# From -- ./inp_files/482144.got.cif
#   From: 2010.05.17/outbox.cif.g08.bks.cpg/sg2_242_cif.got.tgz:482144.got - 2010.06.03 11:33:40.
