data_PCOD9023715
_publ_section_title
;
Structure prediction by ZEFSAII (Michael W. Deem and Ramdas Pophale) SiO2 
 PCOD9023715
Probable space group: P -1
;
_chemical_formula_sum "Si O2"
_cell_formula_units_Z 15
_cell_length_a 10.773179
_cell_length_b 11.624904
_cell_length_c 13.595847
_cell_angle_alpha 148.363987
_cell_angle_beta 103.642086
_cell_angle_gamma 97.265038
_cell_volume 665.395285
_symmetry_space_group_name_H-M "P -1"
_symmetry_group_IT_number 2
_symmetry_cell_setting 'triclinic'
loop_
_space_group_symop_operation_xyz
x,y,z
-x,-y,-z
loop_
_atom_site_type_symbol
_atom_site_label
_atom_site_fract_x
_atom_site_fract_y
_atom_site_fract_z
Si Si1 0.062863 0.113033 0.460466
Si Si2 0.791182 0.529832 0.883672
Si Si3 0.336275 0.569870 0.706288
Si Si4 0.608986 0.733472 0.024451
Si Si5 0.814368 0.273723 0.339221
Si Si6 0.164711 0.294479 0.202194
Si Si7 0.788387 0.034453 0.469408
Si Si8 0.500000 0.500000 0.500000
O O1 0.157795 0.297247 0.515976
O O2 0.961669 0.193625 0.555893
O O3 0.196266 0.146122 0.581759
O O4 0.925982 0.776723 0.164120
O O5 0.852323 0.656901 0.878333
O O6 0.773826 0.250143 0.677548
O O7 0.622984 0.486155 0.839302
O O8 0.308678 0.782119 0.811317
O O9 0.400138 0.484967 0.569199
O O10 0.458137 0.684414 0.905440
O O11 0.764940 0.994681 0.178219
O O12 0.643878 0.844076 0.222902
O O13 0.797966 0.438077 0.539824
O O14 0.000000 0.500000 0.500000
O O15 0.326479 0.326651 0.276969
O O16 0.000000 0.000000 0.000000
#
# Coordination Sequence:
#
# PCOD9023715 Si02
#       8
#     2   2   2   2   2   2   2   1
#     4  10  23  43  67  95 125 164 224 273 324 390
#     4  11  20  40  65  88 127 167 215 270 324 382
#     4  11  23  40  64  93 134 173 210 269 332 391
#     4  11  22  40  62  91 131 168 208 266 326 396
#     4  11  22  38  60  93 129 165 216 261 321 394
#     4  11  21  37  63  92 130 174 214 264 331 394
#     4  10  22  43  68  94 123 168 219 275 324 384
#     4  10  22  40  60  96 136 170 214 264 326 394
#
# _framework density 22.542991000000001
#
# number of rings (size 3 to 8) (size 9 to 14) (size 15 to 20)
#    0.000    1.333    2.667    4.800    0.000    0.533 
#    0.000    4.667    0.000    0.000    0.000    0.000 
#    0.000    0.000    0.000    0.000    0.000    0.000 
#
# Total GULP energy -83589.163923 kJ/mol
# GULP energy per Si atom -5572.610928 kJ/mol
# Density = 2.249168 g / cm^3
# Si number density = 22.542991 Si / 1000 Ang^3
#
#
#
# Elastic Constant Matrix: (Units=GPa)
#
#
# Indices 1 2 3 4 5 6 
#
# 1 84.7731 12.6924 20.7992 7.3102 -10.5365 -9.2896
# 2 12.6924 81.8864 14.0384 -19.6584 4.4794 -16.6089
# 3 20.7992 14.0384 53.5642 -12.3631 -15.0020 -17.3193
# 4 7.3102 -19.6584 -12.3631 40.1102 -4.5647 11.1040
# 5 -10.5365 4.4794 -15.0020 -4.5647 41.9204 -1.3282
# 6 -9.2896 -16.6089 -17.3193 11.1040 -1.3282 40.0597
#
#
#
# Elastic Compliance Matrix: (Units=1/GPa)
#
#
# Indices 1 2 3 4 5 6 
#
# 1 0.014313 -0.002424 -0.005329 -0.005738 0.001377 0.001646
# 2 -0.002424 0.015076 -0.000898 0.006396 -0.001735 0.003470
# 3 -0.005329 -0.000898 0.028515 0.008027 0.010115 0.008830
# 4 -0.005738 0.006396 0.008027 0.033254 0.004232 -0.004286
# 5 0.001377 -0.001735 0.010115 0.004232 0.028586 0.003748
# 6 0.001646 0.003470 0.008830 -0.004286 0.003748 0.031913
#
#
# Mechanical properties :
#
#
# Convention : Reuss Voigt Hill
#
# Bulk Modulus (GPa) = 24.62927 35.03151 29.83039
# Shear Modulus (GPa) = 27.39860 35.93097 31.66478
#
# Velocity S-wave (km/s) = 3.49003 3.99668 3.75192
# Velocity P-wave (km/s) = 5.21437 6.07220 5.65956
#
# Compressibility (1/GPa) = 0.04060210
#
# Stress axis : x y z
#
# Youngs Moduli (GPa) = 69.86689 66.33147 35.06985
#
# Poissons Ratio (x) = 0.16078 0.18689
# Poissons Ratio (y) = 0.16935 0.03148
# Poissons Ratio (z) = 0.37232 0.05955
#
# Static dielectric constant tensor:
#      x y z
#    x 1.856810 -0.024530 0.021890 
#    y -0.024530 1.842970 -0.014990 
#    z 0.021890 -0.014990 1.853880 
# 
# From -- ./inp_files/261041.got.cif
#   From: 2010.05.17/outbox.cif.g08.bks.cpg/sg2_131_cif.got.tgz:261041.got - 2010.06.03 11:33:40.
