data_PCOD9023763
_publ_section_title
;
Structure prediction by ZEFSAII (Michael W. Deem and Ramdas Pophale) SiO2 
 PCOD9023763
Probable space group: P -1
;
_chemical_formula_sum "Si O2"
_cell_formula_units_Z 14
_cell_length_a 5.230818
_cell_length_b 14.410991
_cell_length_c 10.717006
_cell_angle_alpha 54.903270
_cell_angle_beta 88.424517
_cell_angle_gamma 77.702743
_cell_volume 641.239732
_symmetry_space_group_name_H-M "P -1"
_symmetry_group_IT_number 2
_symmetry_cell_setting 'triclinic'
loop_
_space_group_symop_operation_xyz
x,y,z
-x,-y,-z
loop_
_atom_site_type_symbol
_atom_site_label
_atom_site_fract_x
_atom_site_fract_y
_atom_site_fract_z
Si Si1 0.855451 0.784341 0.492010
Si Si2 0.740123 0.024458 0.398918
Si Si3 0.528009 0.613040 0.238024
Si Si4 0.578894 0.598447 0.692135
Si Si5 0.797505 0.273030 0.213167
Si Si6 0.000444 0.363590 0.634752
Si Si7 0.058018 0.421756 0.936872
O O1 0.789471 0.923634 0.371798
O O2 0.607463 0.725371 0.553811
O O3 0.010440 0.755676 0.644548
O O4 0.999532 0.714569 0.426691
O O5 0.500000 0.000000 0.500000
O O6 0.692320 0.160701 0.263783
O O7 0.000000 0.000000 0.500000
O O8 0.557022 0.471314 0.350496
O O9 0.232422 0.656578 0.257263
O O10 0.649978 0.617625 0.093768
O O11 0.718368 0.669881 0.273636
O O12 0.430182 0.622454 0.807567
O O13 0.865680 0.510103 0.775895
O O14 0.949063 0.312057 0.065494
O O15 0.000000 0.500000 0.500000
O O16 0.000000 0.500000 0.000000
#
# Coordination Sequence:
#
# PCOD9023763 Si02
#       7
#     2   2   2   2   2   2   2
#     4  11  23  39  63  93 123 162 202 254 307 364
#     4  10  22  40  61  90 123 157 203 252 307 360
#     4  12  25  40  55  92 124 164 201 243 305 363
#     4  12  20  36  61  93 126 157 200 242 315 362
#     4  11  23  38  62  94 126 159 200 256 310 366
#     4  12  24  38  62  85 128 163 203 247 302 367
#     4  12  23  37  60  92 128 163 199 249 309 370
#
# _framework density 21.832706000000002
#
# number of rings (size 3 to 8) (size 9 to 14) (size 15 to 20)
#    0.000    0.571    7.143    1.714    2.000    0.000 
#    0.000    0.000    0.000    1.714    0.000    0.000 
#    0.000    0.000    0.000    0.000    0.000    0.000 
#
# Total GULP energy -78083.758707 kJ/mol
# GULP energy per Si atom -5577.411336 kJ/mol
# Density = 2.178301 g / cm^3
# Si number density = 21.832706 Si / 1000 Ang^3
#
#
#
# Elastic Constant Matrix: (Units=GPa)
#
#
# Indices 1 2 3 4 5 6 
#
# 1 126.8112 33.3994 29.5298 3.3308 -34.3442 1.8471
# 2 33.3994 153.8213 39.1368 -9.0973 -18.7266 12.1448
# 3 29.5298 39.1368 59.8040 -3.0462 -32.8623 1.2468
# 4 3.3308 -9.0973 -3.0462 35.6200 2.7034 -13.2386
# 5 -34.3442 -18.7266 -32.8623 2.7034 44.0089 2.4861
# 6 1.8471 12.1448 1.2468 -13.2386 2.4861 30.5214
#
#
#
# Elastic Compliance Matrix: (Units=1/GPa)
#
#
# Indices 1 2 3 4 5 6 
#
# 1 0.010461 -0.001296 -0.000139 -0.002608 0.007775 -0.001877
# 2 -0.001296 0.008244 -0.005495 0.000968 -0.001528 -0.002433
# 3 -0.000139 -0.005495 0.032378 -0.000735 0.021845 -0.001226
# 4 -0.002608 0.000968 -0.000735 0.034545 -0.005154 0.015206
# 5 0.007775 -0.001528 0.021845 -0.005154 0.045145 -0.006667
# 6 -0.001877 -0.002433 -0.001226 0.015206 -0.006667 0.041034
#
#
# Mechanical properties :
#
#
# Convention : Reuss Voigt Hill
#
# Bulk Modulus (GPa) = 26.86497 60.50762 43.68630
# Shear Modulus (GPa) = 25.24317 37.92142 31.58229
#
# Velocity S-wave (km/s) = 3.40400 4.17215 3.80749
# Velocity P-wave (km/s) = 5.27079 7.14027 6.27553
#
# Compressibility (1/GPa) = 0.03722319
#
# Stress axis : x y z
#
# Youngs Moduli (GPa) = 95.59498 121.30437 30.88541
#
# Poissons Ratio (x) = 0.15716 0.00429
# Poissons Ratio (y) = 0.12385 0.16971
# Poissons Ratio (z) = 0.01329 0.66656
#
# Static dielectric constant tensor:
#      x y z
#    x 1.932510 0.007160 0.045030 
#    y 0.007160 1.828260 0.038410 
#    z 0.045030 0.038410 1.901220 
# 
# From -- ./inp_files/363827.got.cif
#   From: 2010.05.17/outbox.cif.g08.bks.cpg/sg2_182_cif.got.tgz:363827.got - 2010.06.03 11:33:40.
