data_PCOD9023379
_publ_section_title
;
Structure prediction by ZEFSAII (Michael W. Deem and Ramdas Pophale) SiO2 
 PCOD9023379
Probable space group: P -1
;
_chemical_formula_sum "Si O2"
_cell_formula_units_Z 16
_cell_length_a 16.535033
_cell_length_b 9.335917
_cell_length_c 9.588630
_cell_angle_alpha 127.308049
_cell_angle_beta 34.312869
_cell_angle_gamma 128.668142
_cell_volume 637.709194
_symmetry_space_group_name_H-M "P -1"
_symmetry_group_IT_number 2
_symmetry_cell_setting 'triclinic'
loop_
_space_group_symop_operation_xyz
x,y,z
-x,-y,-z
loop_
_atom_site_type_symbol
_atom_site_label
_atom_site_fract_x
_atom_site_fract_y
_atom_site_fract_z
Si Si1 0.576661 0.359268 0.487497
Si Si2 0.102087 0.103032 0.611866
Si Si3 0.706971 0.493615 0.074908
Si Si4 0.588654 0.960344 0.167005
Si Si5 0.711083 0.356899 0.593724
Si Si6 0.830620 0.776000 0.731151
Si Si7 0.001881 0.789735 0.910157
Si Si8 0.326710 0.915505 0.176547
O O1 0.662203 0.438383 0.268974
O O2 0.431498 0.436051 0.741974
O O3 0.675127 0.407252 0.515049
O O4 0.537564 0.132104 0.403959
O O5 0.139548 0.192304 0.459490
O O6 0.035563 0.227316 0.881545
O O7 0.245271 0.054299 0.446626
O O8 0.986627 0.896409 0.641527
O O9 0.865371 0.647384 0.941275
O O10 0.719341 0.305362 0.869291
O O11 0.445908 0.790921 0.228057
O O12 0.705539 0.870413 0.022907
O O13 0.689622 0.053540 0.946471
O O14 0.767705 0.554930 0.707705
O O15 0.841665 0.255431 0.358169
O O16 0.000000 0.000000 0.000000
O O17 0.500000 0.000000 0.000000
#
# Coordination Sequence:
#
# PCOD9023379 Si02
#       8
#     2   2   2   2   2   2   2   2
#     4  10  22  39  68  94 132 171 217 273 316 391
#     4  10  23  43  66  92 129 168 222 265 331 384
#     4  10  23  42  64  99 130 169 229 260 325 391
#     4  10  22  40  61  95 131 165 215 265 323 385
#     4  12  24  40  66  98 132 173 219 263 334 390
#     4  10  22  42  68  96 126 168 217 279 322 385
#     4  12  27  44  65  95 138 178 212 275 328 391
#     4  10  23  40  69  89 125 173 213 270 320 379
#
# _framework density 25.089805999999999
#
# number of rings (size 3 to 8) (size 9 to 14) (size 15 to 20)
#    0.000    1.500    0.000    3.750   10.500    5.000 
#    2.250    1.250    0.000    0.000    0.000    0.000 
#    0.000    0.000    0.000    0.000    0.000    0.000 
#
# Total GULP energy -89566.902301 kJ/mol
# GULP energy per Si atom -5597.931394 kJ/mol
# Density = 2.503270 g / cm^3
# Si number density = 25.089806 Si / 1000 Ang^3
#
#
#
# Elastic Constant Matrix: (Units=GPa)
#
#
# Indices 1 2 3 4 5 6 
#
# 1 63.6939 17.3809 1.7915 -3.8742 -8.2966 -9.9397
# 2 17.3809 145.6522 7.5275 -10.4688 -11.9148 6.3218
# 3 1.7915 7.5275 94.6564 -3.2547 -18.2651 -15.0565
# 4 -3.8742 -10.4688 -3.2547 34.9411 1.7544 -0.1909
# 5 -8.2966 -11.9148 -18.2651 1.7544 48.4089 -5.3204
# 6 -9.9397 6.3218 -15.0565 -0.1909 -5.3204 46.8899
#
#
#
# Elastic Compliance Matrix: (Units=1/GPa)
#
#
# Indices 1 2 3 4 5 6 
#
# 1 0.017486 -0.001983 0.001306 0.001318 0.003481 0.004794
# 2 -0.001983 0.007415 -0.000514 0.001893 0.001063 -0.001457
# 3 0.001306 -0.000514 0.012419 0.000909 0.005293 0.004938
# 4 0.001318 0.001893 0.000909 0.029419 0.000017 0.000438
# 5 0.003481 0.001063 0.005293 0.000017 0.024064 0.005025
# 6 0.004794 -0.001457 0.004938 0.000438 0.005025 0.024697
#
#
# Mechanical properties :
#
#
# Convention : Reuss Voigt Hill
#
# Bulk Modulus (GPa) = 28.62110 39.71138 34.16624
# Shear Modulus (GPa) = 38.60215 44.53483 41.56849
#
# Velocity S-wave (km/s) = 3.92670 4.21767 4.07478
# Velocity P-wave (km/s) = 5.65605 6.29129 5.98211
#
# Compressibility (1/GPa) = 0.03493926
#
# Stress axis : x y z
#
# Youngs Moduli (GPa) = 57.18849 134.86145 80.52366
#
# Poissons Ratio (x) = 0.26740 -0.10518
# Poissons Ratio (y) = 0.11339 0.04137
# Poissons Ratio (z) = -0.07470 0.06928
#
# Static dielectric constant tensor:
#      x y z
#    x 2.115130 -0.108320 0.079740 
#    y -0.108320 1.993030 -0.033570 
#    z 0.079740 -0.033570 1.974490 
# 
# From -- ./inp_files/462410.got.cif
#   From: 2010.05.17/outbox.cif.g08.bks.cpg/sg2_232_cif.got.tgz:462410.got - 2010.06.03 11:33:40.
