data_PCOD9023112
_publ_section_title
;
Structure prediction by ZEFSAII (Michael W. Deem and Ramdas Pophale) SiO2 
 PCOD9023112
Probable space group: P -1
;
_chemical_formula_sum "Si O2"
_cell_formula_units_Z 14
_cell_length_a 12.407339
_cell_length_b 6.775664
_cell_length_c 8.605460
_cell_angle_alpha 83.229782
_cell_angle_beta 85.576530
_cell_angle_gamma 102.763792
_cell_volume 696.659600
_symmetry_space_group_name_H-M "P -1"
_symmetry_group_IT_number 2
_symmetry_cell_setting 'triclinic'
loop_
_space_group_symop_operation_xyz
x,y,z
-x,-y,-z
loop_
_atom_site_type_symbol
_atom_site_label
_atom_site_fract_x
_atom_site_fract_y
_atom_site_fract_z
Si Si1 0.264060 0.127468 0.755065
Si Si2 0.171291 0.429418 0.522606
Si Si3 0.590947 0.290920 0.618094
Si Si4 0.979387 0.524526 0.747205
Si Si5 0.071131 0.833365 0.982421
Si Si6 0.442909 0.485794 0.842627
Si Si7 0.452140 0.902658 0.685359
O O1 0.202746 0.234368 0.620464
O O2 0.333478 0.310127 0.837685
O O3 0.185253 0.961281 0.886087
O O4 0.352305 0.016692 0.678756
O O5 0.285587 0.592025 0.451665
O O6 0.099954 0.399756 0.374735
O O7 0.092223 0.509764 0.646490
O O8 0.530177 0.435427 0.709672
O O9 0.532813 0.207010 0.469014
O O10 0.560665 0.066054 0.722908
O O11 0.010760 0.679834 0.870461
O O12 0.925218 0.303794 0.851739
O O13 0.000000 0.000000 0.000000
O O14 0.415168 0.704851 0.812238
O O15 0.500000 0.500000 0.000000
#
# Coordination Sequence:
#
# PCOD9023112 Si02
#       7
#     2   2   2   2   2   2   2
#     4  11  24  40  71  93 131 171 217 260 326 379
#     4  11  22  44  66  99 126 170 219 272 313 375
#     4  10  22  39  66  92 126 164 212 258 318 376
#     4  10  25  44  66  93 134 165 221 272 315 375
#     4  11  23  44  65  93 127 176 210 263 326 382
#     4  11  25  42  64  97 134 165 212 260 316 396
#     4  10  22  40  65  93 126 169 210 262 314 379
#
# _framework density 20.095897999999998
#
# number of rings (size 3 to 8) (size 9 to 14) (size 15 to 20)
#    0.000    1.429    2.857    1.286    4.000    6.286 
#    2.571    0.000    0.000    0.000    0.000    0.000 
#    0.000    0.000    0.000    0.000    0.000    0.000 
#
# Total GULP energy -78030.830923 kJ/mol
# GULP energy per Si atom -5573.630780 kJ/mol
# Density = 2.005016 g / cm^3
# Si number density = 20.095898 Si / 1000 Ang^3
#
#
#
# Elastic Constant Matrix: (Units=GPa)
#
#
# Indices 1 2 3 4 5 6 
#
# 1 98.9559 53.3934 49.1384 -17.0600 -13.8235 1.4309
# 2 53.3934 121.5145 42.0743 -15.4493 0.5783 -3.6112
# 3 49.1384 42.0743 75.4233 -3.3980 1.3262 -8.6837
# 4 -17.0600 -15.4493 -3.3980 19.3892 4.1140 -10.3991
# 5 -13.8235 0.5783 1.3262 4.1140 39.2351 -15.1216
# 6 1.4309 -3.6112 -8.6837 -10.3991 -15.1216 30.6174
#
#
#
# Elastic Compliance Matrix: (Units=1/GPa)
#
#
# Indices 1 2 3 4 5 6 
#
# 1 0.020756 -0.003575 -0.010524 0.014232 0.007911 0.004365
# 2 -0.003575 0.012142 -0.003803 0.007437 -0.001131 0.002488
# 3 -0.010524 -0.003803 0.022345 -0.006222 -0.002606 0.002980
# 4 0.014232 0.007437 -0.006222 0.083802 0.008274 0.030997
# 5 0.007911 -0.001131 -0.002606 0.008274 0.034726 0.018719
# 6 0.004365 0.002488 0.002980 0.030997 0.018719 0.053369
#
#
# Mechanical properties :
#
#
# Convention : Reuss Voigt Hill
#
# Bulk Modulus (GPa) = 51.44102 65.01179 58.22640
# Shear Modulus (GPa) = 18.55826 27.93419 23.24623
#
# Velocity S-wave (km/s) = 3.04219 3.73237 3.40481
# Velocity P-wave (km/s) = 6.16386 7.14109 6.67040
#
# Compressibility (1/GPa) = 0.01943974
#
# Stress axis : x y z
#
# Youngs Moduli (GPa) = 48.17969 82.35996 44.75332
#
# Poissons Ratio (x) = 0.29441 0.47097
# Poissons Ratio (y) = 0.17223 0.17019
# Poissons Ratio (z) = 0.50702 0.31321
#
# Static dielectric constant tensor:
#      x y z
#    x 1.727000 0.004320 -0.002040 
#    y 0.004320 1.603390 0.180130 
#    z -0.002040 0.180130 1.323610 
# 
# From -- ./inp_files/94208.got.cif
#   From: 2010.05.17/outbox.cif.g08.bks.cpg/sg2_48_cif.got.tgz:94208.got - 2010.06.03 11:33:40.
