data_PCOD9023571
_publ_section_title
;
Structure prediction by ZEFSAII (Michael W. Deem and Ramdas Pophale) SiO2 
 PCOD9023571
Probable space group: P -1
;
_chemical_formula_sum "Si O2"
_cell_formula_units_Z 16
_cell_length_a 8.176528
_cell_length_b 18.052959
_cell_length_c 9.103285
_cell_angle_alpha 46.599239
_cell_angle_beta 66.680983
_cell_angle_gamma 49.714511
_cell_volume 741.916946
_symmetry_space_group_name_H-M "P -1"
_symmetry_group_IT_number 2
_symmetry_cell_setting 'triclinic'
loop_
_space_group_symop_operation_xyz
x,y,z
-x,-y,-z
loop_
_atom_site_type_symbol
_atom_site_label
_atom_site_fract_x
_atom_site_fract_y
_atom_site_fract_z
Si Si1 0.996838 0.931851 0.450346
Si Si2 0.082965 0.654102 0.436552
Si Si3 0.297937 0.937228 0.892324
Si Si4 0.784776 0.512372 0.622412
Si Si5 0.778527 0.823914 0.842893
Si Si6 0.750113 0.889498 0.092924
Si Si7 0.659629 0.249444 0.638858
Si Si8 0.970079 0.540334 0.122756
O O1 0.903434 0.852512 0.642501
O O2 0.226003 0.844721 0.408675
O O3 0.843246 0.027535 0.249539
O O4 0.000000 0.000000 0.500000
O O5 0.208414 0.597340 0.315327
O O6 0.189098 0.706169 0.426653
O O7 0.838524 0.763580 0.326217
O O8 0.110718 0.538917 0.668150
O O9 0.521355 0.919501 0.792072
O O10 0.177293 0.043808 0.914225
O O11 0.358424 0.816877 0.123024
O O12 0.572629 0.638338 0.479487
O O13 0.818073 0.499664 0.802062
O O14 0.000000 0.500000 0.500000
O O15 0.837433 0.843077 0.960946
O O16 0.830176 0.687710 0.989808
O O17 0.500000 0.000000 0.000000
O O18 0.000000 0.500000 0.000000
#
# Coordination Sequence:
#
# PCOD9023571 Si02
#       8
#     2   2   2   2   2   2   2   2
#     4  12  27  44  65 104 149 181 219 282 351 406
#     4  11  22  43  68 103 135 170 232 292 335 393
#     4  11  24  44  70 101 134 184 229 275 340 413
#     4  10  23  43  69  97 128 175 232 282 330 403
#     4  11  24  46  69  99 138 180 229 280 338 408
#     4  10  22  39  73 102 129 175 236 279 336 403
#     4  12  25  44  72 102 137 178 233 289 341 400
#     4  11  24  41  67  95 136 182 222 274 339 409
#
# _framework density 21.565757999999999
#
# number of rings (size 3 to 8) (size 9 to 14) (size 15 to 20)
#    0.000    1.000    2.500    4.125    7.000    1.000 
#    0.000    2.500    0.000    0.000    0.000    0.000 
#    0.000    0.000    0.000    0.000    0.000    0.000 
#
# Total GULP energy -89302.235184 kJ/mol
# GULP energy per Si atom -5581.389699 kJ/mol
# Density = 2.151667 g / cm^3
# Si number density = 21.565758 Si / 1000 Ang^3
#
#
#
# Elastic Constant Matrix: (Units=GPa)
#
#
# Indices 1 2 3 4 5 6 
#
# 1 76.8560 56.7077 34.3421 4.6349 30.8863 4.2715
# 2 56.7077 128.5138 64.8585 -2.0013 35.8053 13.0708
# 3 34.3421 64.8585 101.8628 3.9977 17.4705 -5.0998
# 4 4.6349 -2.0013 3.9977 37.1438 5.9884 11.8509
# 5 30.8863 35.8053 17.4705 5.9884 48.0016 3.6422
# 6 4.2715 13.0708 -5.0998 11.8509 3.6422 51.6860
#
#
#
# Elastic Compliance Matrix: (Units=1/GPa)
#
#
# Indices 1 2 3 4 5 6 
#
# 1 0.022165 -0.006671 -0.001659 -0.001799 -0.008510 0.000704
# 2 -0.006671 0.017022 -0.008083 0.005248 -0.005711 -0.005352
# 3 -0.001659 -0.008083 0.015625 -0.003570 0.001519 0.004435
# 4 -0.001799 0.005248 -0.003570 0.031243 -0.004721 -0.008362
# 5 -0.008510 -0.005711 0.001519 -0.004721 0.030511 0.001230
# 6 0.000704 -0.005352 0.004435 -0.008362 0.001230 0.022911
#
#
# Mechanical properties :
#
#
# Convention : Reuss Voigt Hill
#
# Bulk Modulus (GPa) = 45.48925 68.78325 57.13625
# Shear Modulus (GPa) = 27.83467 37.45455 32.64461
#
# Velocity S-wave (km/s) = 3.59651 4.17197 3.89488
# Velocity P-wave (km/s) = 6.19561 7.42772 6.83947
#
# Compressibility (1/GPa) = 0.02198321
#
# Stress axis : x y z
#
# Youngs Moduli (GPa) = 45.11668 58.74849 64.00019
#
# Poissons Ratio (x) = 0.39194 0.10619
# Poissons Ratio (y) = 0.30100 0.51734
# Poissons Ratio (z) = 0.07486 0.47488
#
# Static dielectric constant tensor:
#      x y z
#    x 1.829770 0.036660 -0.022870 
#    y 0.036660 1.834660 0.007670 
#    z -0.022870 0.007670 1.838050 
# 
# From -- ./inp_files/214373.got.cif
#   From: 2010.05.17/outbox.cif.g08.bks.cpg/sg2_108_cif.got.tgz:214373.got - 2010.06.03 11:33:40.
