data_PCOD9023018
_publ_section_title
;
Structure prediction by ZEFSAII (Michael W. Deem and Ramdas Pophale) SiO2 
 PCOD9023018
Probable space group: P -1
;
_chemical_formula_sum "Si O2"
_cell_formula_units_Z 16
_cell_length_a 18.354841
_cell_length_b 8.210308
_cell_length_c 12.108816
_cell_angle_alpha 48.395531
_cell_angle_beta 51.930330
_cell_angle_gamma 32.714481
_cell_volume 729.811518
_symmetry_space_group_name_H-M "P -1"
_symmetry_group_IT_number 2
_symmetry_cell_setting 'triclinic'
loop_
_space_group_symop_operation_xyz
x,y,z
-x,-y,-z
loop_
_atom_site_type_symbol
_atom_site_label
_atom_site_fract_x
_atom_site_fract_y
_atom_site_fract_z
Si Si1 0.956764 0.707244 0.186338
Si Si2 0.732802 0.985795 0.412338
Si Si3 0.779571 0.215586 0.960994
Si Si4 0.526168 0.859743 0.418612
Si Si5 0.488944 0.764646 0.938059
Si Si6 0.811184 0.729823 0.004676
Si Si7 0.194473 0.719055 0.672074
Si Si8 0.081940 0.631663 0.337176
O O1 0.823941 0.791026 0.304647
O O2 0.029283 0.645940 0.260055
O O3 0.071040 0.423199 0.124091
O O4 0.883049 0.036416 0.046545
O O5 0.823094 0.711089 0.543910
O O6 0.582988 0.146713 0.485512
O O7 0.740371 0.228798 0.321780
O O8 0.623918 0.544516 0.985577
O O9 0.829481 0.306054 0.786746
O O10 0.796024 0.950883 0.007562
O O11 0.683616 0.518932 0.419829
O O12 0.500000 0.000000 0.500000
O O13 0.506514 0.069084 0.242537
O O14 0.340452 0.039536 0.007828
O O15 0.500000 0.500000 0.000000
O O16 0.842519 0.448387 0.163446
O O17 0.054972 0.068896 0.603923
#
# Coordination Sequence:
#
# PCOD9023018 Si02
#       8
#     2   2   2   2   2   2   2   2
#     4  11  23  39  66  94 123 169 220 250 316 390
#     4  11  25  44  64  92 134 171 205 265 322 375
#     4  11  21  40  67  90 129 166 209 269 317 366
#     4  11  24  43  67  96 125 168 219 254 321 387
#     4   9  21  42  61  88 131 158 199 267 317 359
#     4  10  22  39  65  97 124 165 216 266 311 371
#     4  10  22  42  66  89 132 168 208 265 312 374
#     4  11  23  44  62  94 131 168 212 265 317 375
#
# _framework density 21.923469000000001
#
# number of rings (size 3 to 8) (size 9 to 14) (size 15 to 20)
#    0.000    1.500    2.500    2.625    7.000    0.000 
#    9.000    4.375    0.000    0.000    0.000    0.000 
#    0.000    0.000    0.000    0.000    0.000    0.000 
#
# Total GULP energy -89303.771057 kJ/mol
# GULP energy per Si atom -5581.485691 kJ/mol
# Density = 2.187357 g / cm^3
# Si number density = 21.923469 Si / 1000 Ang^3
#
#
#
# Elastic Constant Matrix: (Units=GPa)
#
#
# Indices 1 2 3 4 5 6 
#
# 1 44.0298 3.8567 12.8302 0.8019 -13.1231 -2.1210
# 2 3.8567 75.9095 5.5432 23.5922 11.3880 -16.9212
# 3 12.8302 5.5432 67.1515 10.3975 -15.3907 7.9968
# 4 0.8019 23.5922 10.3975 42.1992 0.3817 -9.8587
# 5 -13.1231 11.3880 -15.3907 0.3817 42.1508 -4.6438
# 6 -2.1210 -16.9212 7.9968 -9.8587 -4.6438 32.0956
#
#
#
# Elastic Compliance Matrix: (Units=1/GPa)
#
#
# Indices 1 2 3 4 5 6 
#
# 1 0.026475 -0.002221 -0.003872 0.002420 0.007783 0.003413
# 2 -0.002221 0.018249 -0.001884 -0.008090 -0.005503 0.006663
# 3 -0.003872 -0.001884 0.018603 -0.005061 0.005408 -0.006656
# 4 0.002420 -0.008090 -0.005061 0.031021 0.001572 0.006912
# 5 0.007783 -0.005503 0.005408 0.001572 0.029710 0.001047
# 6 0.003413 0.006663 -0.006656 0.006912 0.001047 0.038828
#
#
# Mechanical properties :
#
#
# Convention : Reuss Voigt Hill
#
# Bulk Modulus (GPa) = 21.10969 25.72788 23.41879
# Shear Modulus (GPa) = 25.68954 34.27984 29.98469
#
# Velocity S-wave (km/s) = 3.42684 3.95855 3.70225
# Velocity P-wave (km/s) = 5.03065 5.71439 5.38338
#
# Compressibility (1/GPa) = 0.04737160
#
# Stress axis : x y z
#
# Youngs Moduli (GPa) = 37.77165 54.79777 53.75513
#
# Poissons Ratio (x) = 0.12172 0.20815
# Poissons Ratio (y) = 0.08390 0.10127
# Poissons Ratio (z) = 0.14626 0.10324
#
# Static dielectric constant tensor:
#      x y z
#    x 1.846160 -0.012090 -0.022810 
#    y -0.012090 1.832890 0.013670 
#    z -0.022810 0.013670 1.828980 
# 
# From -- ./inp_files/469227.got.cif
#   From: 2010.05.17/outbox.cif.g08.bks.cpg/sg2_235_cif.got.tgz:469227.got - 2010.06.03 11:33:40.
