data_PCOD9023381
_publ_section_title
;
Structure prediction by ZEFSAII (Michael W. Deem and Ramdas Pophale) SiO2 
 PCOD9023381
Probable space group: P -1
;
_chemical_formula_sum "Si O2"
_cell_formula_units_Z 16
_cell_length_a 12.984182
_cell_length_b 7.861611
_cell_length_c 11.727652
_cell_angle_alpha 104.521997
_cell_angle_beta 68.948510
_cell_angle_gamma 49.116261
_cell_volume 612.500085
_symmetry_space_group_name_H-M "P -1"
_symmetry_group_IT_number 2
_symmetry_cell_setting 'triclinic'
loop_
_space_group_symop_operation_xyz
x,y,z
-x,-y,-z
loop_
_atom_site_type_symbol
_atom_site_label
_atom_site_fract_x
_atom_site_fract_y
_atom_site_fract_z
Si Si1 0.989401 0.380116 0.587978
Si Si2 0.641428 0.263926 0.758872
Si Si3 0.755820 0.284386 0.108793
Si Si4 0.077512 0.633595 0.083075
Si Si5 0.708775 0.547288 0.391543
Si Si6 0.709683 0.876079 0.266937
Si Si7 0.110972 0.147775 0.189437
Si Si8 0.340571 0.359234 0.148512
O O1 0.000000 0.500000 0.500000
O O2 0.942938 0.577089 0.741597
O O3 0.797309 0.519226 0.673389
O O4 0.186353 0.010669 0.444765
O O5 0.449002 0.412561 0.825520
O O6 0.593842 0.531736 0.830521
O O7 0.727528 0.097027 0.819459
O O8 0.909907 0.222877 0.988416
O O9 0.704682 0.394822 0.276799
O O10 0.822861 0.009845 0.985779
O O11 0.214027 0.311009 0.911568
O O12 0.186513 0.565147 0.139411
O O13 0.862437 0.834457 0.219266
O O14 0.712150 0.721077 0.339466
O O15 0.918292 0.290129 0.324139
O O16 0.519137 0.778944 0.583891
O O17 0.500000 0.000000 0.000000
#
# Coordination Sequence:
#
# PCOD9023381 Si02
#       8
#     2   2   2   2   2   2   2   2
#     4  10  25  42  68  98 139 180 231 287 347 409
#     4  11  25  43  69 102 144 181 233 290 343 417
#     4  11  23  41  68 100 142 187 230 287 350 410
#     4  10  22  39  68  94 144 178 233 283 352 404
#     4  10  22  39  72  96 135 181 245 282 351 409
#     4   9  21  42  63 102 130 184 230 295 340 420
#     4  11  22  42  68 104 135 185 231 287 347 413
#     4  12  25  42  70 102 137 185 230 284 349 421
#
# _framework density 26.122447000000001
#
# number of rings (size 3 to 8) (size 9 to 14) (size 15 to 20)
#    0.000    1.500    1.250    2.625   10.500    1.000 
#    0.000    1.875    0.000    0.000    0.000    0.000 
#    0.000    0.000    0.000    0.000    0.000    0.000 
#
# Total GULP energy -89564.366061 kJ/mol
# GULP energy per Si atom -5597.772879 kJ/mol
# Density = 2.606299 g / cm^3
# Si number density = 26.122447 Si / 1000 Ang^3
#
#
#
# Elastic Constant Matrix: (Units=GPa)
#
#
# Indices 1 2 3 4 5 6 
#
# 1 131.9517 20.4537 60.9692 10.0921 -7.8113 2.1268
# 2 20.4537 57.4659 18.9002 5.8324 1.9531 10.7593
# 3 60.9692 18.9002 172.8984 23.1182 -27.0035 18.4000
# 4 10.0921 5.8324 23.1182 38.4302 5.8598 0.8270
# 5 -7.8113 1.9531 -27.0035 5.8598 52.3617 8.1439
# 6 2.1268 10.7593 18.4000 0.8270 8.1439 42.4830
#
#
#
# Elastic Compliance Matrix: (Units=1/GPa)
#
#
# Indices 1 2 3 4 5 6 
#
# 1 0.009450 -0.002575 -0.003289 -0.000081 -0.000445 0.001691
# 2 -0.002575 0.019541 -0.000610 -0.001744 -0.000545 -0.004417
# 3 -0.003289 -0.000610 0.009052 -0.005229 0.005493 -0.004553
# 4 -0.000081 -0.001744 -0.005229 0.030381 -0.006569 0.003378
# 5 -0.000445 -0.000545 0.005493 -0.006569 0.023650 -0.006625
# 6 0.001691 -0.004417 -0.004553 0.003378 -0.006625 0.027749
#
#
# Mechanical properties :
#
#
# Convention : Reuss Voigt Hill
#
# Bulk Modulus (GPa) = 39.84892 62.55136 51.20014
# Shear Modulus (GPa) = 35.42630 44.12119 39.77374
#
# Velocity S-wave (km/s) = 3.68661 4.11422 3.90627
# Velocity P-wave (km/s) = 5.78007 6.82397 6.32360
#
# Compressibility (1/GPa) = 0.02509478
#
# Stress axis : x y z
#
# Youngs Moduli (GPa) = 105.81774 51.17351 110.47301
#
# Poissons Ratio (x) = 0.13177 0.36340
# Poissons Ratio (y) = 0.27247 0.06739
# Poissons Ratio (z) = 0.34809 0.03121
#
# Static dielectric constant tensor:
#      x y z
#    x 2.042230 0.001540 0.007100 
#    y 0.001540 2.165920 -0.002000 
#    z 0.007100 -0.002000 2.091890 
# 
# From -- ./inp_files/516096.got.cif
#   From: 2010.05.17/outbox.cif.g08.bks.cpg/sg2_259_cif.got.tgz:516096.got - 2010.06.03 11:33:40.
