data_PCOD9023202
_publ_section_title
;
Structure prediction by ZEFSAII (Michael W. Deem and Ramdas Pophale) SiO2 
 PCOD9023202
Probable space group: P -1
;
_chemical_formula_sum "Si O2"
_cell_formula_units_Z 14
_cell_length_a 12.364329
_cell_length_b 6.922289
_cell_length_c 18.575744
_cell_angle_alpha 56.098237
_cell_angle_beta 145.362148
_cell_angle_gamma 136.164983
_cell_volume 623.287572
_symmetry_space_group_name_H-M "P -1"
_symmetry_group_IT_number 2
_symmetry_cell_setting 'triclinic'
loop_
_space_group_symop_operation_xyz
x,y,z
-x,-y,-z
loop_
_atom_site_type_symbol
_atom_site_label
_atom_site_fract_x
_atom_site_fract_y
_atom_site_fract_z
Si Si1 0.681412 0.339333 0.930704
Si Si2 0.628977 0.111864 0.249860
Si Si3 0.342166 0.350313 0.014482
Si Si4 0.217976 0.226011 0.528043
Si Si5 0.734400 0.781239 0.595146
Si Si6 0.890429 0.406607 0.540049
Si Si7 0.064673 0.206471 0.145352
O O1 0.651468 0.432862 0.972161
O O2 0.772046 0.591890 0.870525
O O3 0.451024 0.067353 0.829909
O O4 0.876701 0.275663 0.047487
O O5 0.446109 0.193058 0.144610
O O6 0.877473 0.401754 0.325819
O O7 0.624223 0.896350 0.350340
O O8 0.500000 0.500000 0.000000
O O9 0.086687 0.113177 0.898522
O O10 0.124487 0.198107 0.402272
O O11 0.280732 0.506331 0.544775
O O12 0.000000 0.000000 0.500000
O O13 0.500000 0.500000 0.500000
O O14 0.803946 0.750240 0.718069
O O15 0.761826 0.077544 0.547857
O O16 0.000000 0.500000 0.500000
#
# Coordination Sequence:
#
# PCOD9023202 Si02
#       7
#     2   2   2   2   2   2   2
#     4  10  23  44  68  94 133 182 223 285 340 407
#     4  10  22  39  67 100 130 176 228 270 339 404
#     4  11  24  41  67 101 132 175 231 284 339 401
#     4  10  22  41  65  95 131 183 219 272 337 399
#     4  12  25  43  67 102 139 171 228 284 335 407
#     4  11  23  41  65  99 136 179 224 272 338 404
#     4  10  24  44  65  96 133 177 230 277 346 395
#
# _framework density 22.461541
#
# number of rings (size 3 to 8) (size 9 to 14) (size 15 to 20)
#    0.000    1.429    2.857    2.143    2.000    8.571 
#    0.000    2.857    0.000    0.000    0.000    0.000 
#    0.000    0.000    0.000    0.000    0.000    0.000 
#
# Total GULP energy -78123.477896 kJ/mol
# GULP energy per Si atom -5580.248421 kJ/mol
# Density = 2.241042 g / cm^3
# Si number density = 22.461541 Si / 1000 Ang^3
#
#
#
# Elastic Constant Matrix: (Units=GPa)
#
#
# Indices 1 2 3 4 5 6 
#
# 1 90.3794 29.9857 16.3025 7.5327 -23.8301 -16.5603
# 2 29.9857 161.2439 45.0312 28.0474 -11.6355 -9.1803
# 3 16.3025 45.0312 94.0542 18.0674 -14.9428 -1.1836
# 4 7.5327 28.0474 18.0674 42.2114 -0.8507 -4.2198
# 5 -23.8301 -11.6355 -14.9428 -0.8507 27.6832 4.0632
# 6 -16.5603 -9.1803 -1.1836 -4.2198 4.0632 40.8524
#
#
#
# Elastic Compliance Matrix: (Units=1/GPa)
#
#
# Indices 1 2 3 4 5 6 
#
# 1 0.015759 -0.001664 0.000293 -0.001116 0.012302 0.004684
# 2 -0.001664 0.007991 -0.002772 -0.003759 0.000222 0.000631
# 3 0.000293 -0.002772 0.013714 -0.004066 0.006537 -0.001177
# 4 -0.001116 -0.003759 -0.004066 0.028235 -0.004148 0.001914
# 5 0.012302 0.000222 0.006537 -0.004148 0.050236 -0.000199
# 6 0.004684 0.000631 -0.001177 0.001914 -0.000199 0.026702
#
#
# Mechanical properties :
#
#
# Convention : Reuss Voigt Hill
#
# Bulk Modulus (GPa) = 34.27391 58.70180 46.48786
# Shear Modulus (GPa) = 31.12379 39.10661 35.11520
#
# Velocity S-wave (km/s) = 3.72647 4.17711 3.95821
# Velocity P-wave (km/s) = 5.81442 7.03246 6.45225
#
# Compressibility (1/GPa) = 0.02917671
#
# Stress axis : x y z
#
# Youngs Moduli (GPa) = 63.45749 125.13807 72.92082
#
# Poissons Ratio (x) = 0.20821 -0.02136
# Poissons Ratio (y) = 0.10558 0.20216
# Poissons Ratio (z) = -0.01859 0.34693
#
# Static dielectric constant tensor:
#      x y z
#    x 1.850510 -0.014320 0.040730 
#    y -0.014320 1.886150 -0.034210 
#    z 0.040730 -0.034210 1.898830 
# 
# From -- ./inp_files/564416.got.cif
#   From: 2010.05.17/outbox.cif.g08.bks.cpg/sg2_283_cif.got.tgz:564416.got - 2010.06.03 11:33:40.
