data_PCOD9023361
_publ_section_title
;
Structure prediction by ZEFSAII (Michael W. Deem and Ramdas Pophale) SiO2 
 PCOD9023361
Probable space group: P -1
;
_chemical_formula_sum "Si O2"
_cell_formula_units_Z 15
_cell_length_a 8.950639
_cell_length_b 9.075861
_cell_length_c 12.946150
_cell_angle_alpha 44.725509
_cell_angle_beta 122.394993
_cell_angle_gamma 112.117354
_cell_volume 624.887162
_symmetry_space_group_name_H-M "P -1"
_symmetry_group_IT_number 2
_symmetry_cell_setting 'triclinic'
loop_
_space_group_symop_operation_xyz
x,y,z
-x,-y,-z
loop_
_atom_site_type_symbol
_atom_site_label
_atom_site_fract_x
_atom_site_fract_y
_atom_site_fract_z
Si Si1 0.304876 0.223962 0.044766
Si Si2 0.000000 0.000000 0.500000
Si Si3 0.038529 0.161775 0.667595
Si Si4 0.813328 0.609301 0.889665
Si Si5 0.301797 0.677346 0.838037
Si Si6 0.348254 0.450858 0.339821
Si Si7 0.242043 0.550686 0.473954
Si Si8 0.312439 0.920786 0.013042
O O1 0.188960 0.217400 0.108423
O O2 0.510203 0.214162 0.160066
O O3 0.267413 0.052334 0.033294
O O4 0.279913 0.461299 0.872902
O O5 0.853186 0.162883 0.318240
O O6 0.974246 0.104855 0.557405
O O7 0.179341 0.353393 0.615723
O O8 0.884675 0.258325 0.635651
O O9 0.154856 0.973095 0.850760
O O10 0.739861 0.684892 0.715331
O O11 0.696516 0.430373 0.993535
O O12 0.000000 0.500000 0.000000
O O13 0.238260 0.461391 0.399455
O O14 0.551791 0.392755 0.462783
O O15 0.335090 0.683554 0.174220
O O16 0.500000 0.000000 0.000000
#
# Coordination Sequence:
#
# PCOD9023361 Si02
#       8
#     2   1   2   2   2   2   2   2
#     4   9  22  41  66  92 124 164 221 257 317 381
#     4  12  24  38  66  98 130 154 222 270 312 384
#     4  11  26  41  70  95 132 172 217 262 331 383
#     4  10  22  39  68  91 123 172 209 256 319 383
#     4   9  22  39  65  95 123 166 210 266 315 378
#     4  11  24  45  67  95 136 167 221 266 326 383
#     4  10  26  45  65  97 133 177 204 273 333 381
#     4  12  23  42  70  98 126 171 223 270 313 389
#
# _framework density 24.004334
#
# number of rings (size 3 to 8) (size 9 to 14) (size 15 to 20)
#    0.800    0.800    1.333    2.400    9.333    0.533 
#    2.400    0.000    0.000    4.000    0.000    0.000 
#    0.000    0.000    0.000    0.000    0.000    0.000 
#
# Total GULP energy -83629.435081 kJ/mol
# GULP energy per Si atom -5575.295672 kJ/mol
# Density = 2.394970 g / cm^3
# Si number density = 24.004334 Si / 1000 Ang^3
#
#
#
# Elastic Constant Matrix: (Units=GPa)
#
#
# Indices 1 2 3 4 5 6 
#
# 1 129.8262 29.0938 36.1463 9.8247 4.4468 -26.8111
# 2 29.0938 75.5358 16.3331 16.0031 -6.0166 -30.6379
# 3 36.1463 16.3331 87.7850 6.2868 13.1638 -17.3482
# 4 9.8247 16.0031 6.2868 53.1309 -12.7473 -15.8735
# 5 4.4468 -6.0166 13.1638 -12.7473 20.1976 -3.8489
# 6 -26.8111 -30.6379 -17.3482 -15.8735 -3.8489 44.9977
#
#
#
# Elastic Compliance Matrix: (Units=1/GPa)
#
#
# Indices 1 2 3 4 5 6 
#
# 1 0.009615 -0.001659 -0.002981 0.000145 0.000092 0.003509
# 2 -0.001659 0.020461 -0.002222 0.001096 0.011159 0.013427
# 3 -0.002981 -0.002222 0.015122 -0.003314 -0.011886 0.000355
# 4 0.000145 0.001096 -0.003314 0.027421 0.021876 0.011099
# 5 0.000092 0.011159 -0.011886 0.021876 0.077690 0.017433
# 6 0.003509 0.013427 0.000355 0.011099 0.017433 0.039000
#
#
# Mechanical properties :
#
#
# Convention : Reuss Voigt Hill
#
# Bulk Modulus (GPa) = 31.77207 50.69928 41.23568
# Shear Modulus (GPa) = 23.41651 37.77017 30.59334
#
# Velocity S-wave (km/s) = 3.12671 3.97101 3.57388
# Velocity P-wave (km/s) = 5.12833 6.49553 5.85200
#
# Compressibility (1/GPa) = 0.03147418
#
# Stress axis : x y z
#
# Youngs Moduli (GPa) = 104.00520 48.87323 66.12763
#
# Poissons Ratio (x) = 0.08107 0.19713
# Poissons Ratio (y) = 0.17252 0.14695
# Poissons Ratio (z) = 0.31005 0.10860
#
# Static dielectric constant tensor:
#      x y z
#    x 1.944440 0.026450 -0.056980 
#    y 0.026450 2.045900 0.028010 
#    z -0.056980 0.028010 1.863780 
# 
# From -- ./inp_files/378069.got.cif
#   From: 2010.05.17/outbox.cif.g08.bks.cpg/sg2_190_cif.got.tgz:378069.got - 2010.06.03 11:33:40.
