data_PCOD9023786
_publ_section_title
;
Structure prediction by ZEFSAII (Michael W. Deem and Ramdas Pophale) SiO2 
 PCOD9023786
Probable space group: P -1
;
_chemical_formula_sum "Si O2"
_cell_formula_units_Z 14
_cell_length_a 8.737034
_cell_length_b 10.157853
_cell_length_c 10.665849
_cell_angle_alpha 138.486824
_cell_angle_beta 82.962030
_cell_angle_gamma 83.121137
_cell_volume 589.595013
_symmetry_space_group_name_H-M "P -1"
_symmetry_group_IT_number 2
_symmetry_cell_setting 'triclinic'
loop_
_space_group_symop_operation_xyz
x,y,z
-x,-y,-z
loop_
_atom_site_type_symbol
_atom_site_label
_atom_site_fract_x
_atom_site_fract_y
_atom_site_fract_z
Si Si1 0.867348 0.181128 0.318555
Si Si2 0.839138 0.181742 0.601372
Si Si3 0.489648 0.270808 0.645809
Si Si4 0.183302 0.489831 0.948779
Si Si5 0.131834 0.756609 0.907051
Si Si6 0.484247 0.868415 0.717710
Si Si7 0.491094 0.723726 0.874934
O O1 0.882736 0.252509 0.509437
O O2 0.898008 0.293748 0.269303
O O3 0.685621 0.172315 0.318806
O O4 0.986837 0.945094 0.114625
O O5 0.671932 0.127201 0.561280
O O6 0.793771 0.351466 0.836606
O O7 0.000000 0.000000 0.500000
O O8 0.354560 0.303312 0.790502
O O9 0.429995 0.193965 0.468263
O O10 0.515390 0.497724 0.772210
O O11 0.168218 0.567031 0.862319
O O12 0.000000 0.500000 0.000000
O O13 0.295734 0.821411 0.943702
O O14 0.563037 0.724167 0.727679
O O15 0.458118 0.107363 0.929254
#
# Coordination Sequence:
#
# PCOD9023786 Si02
#       7
#     2   2   2   2   2   2   2
#     4   9  18  35  62  90 120 164 211 257 314 385
#     4  11  22  42  65  91 127 172 216 262 329 388
#     4  10  22  40  61  92 132 169 217 265 325 382
#     4  11  24  42  62  92 131 167 214 270 327 386
#     4   9  18  36  61  88 124 164 205 260 320 380
#     4   9  18  34  61  96 129 163 211 260 327 392
#     4   9  18  34  61  95 129 166 206 265 325 390
#
# _framework density 23.74511
#
# number of rings (size 3 to 8) (size 9 to 14) (size 15 to 20)
#    0.000    2.286    1.429    0.857    0.000    3.429 
#    0.000    1.429    0.000    0.000    0.000    0.000 
#    0.000    0.000    0.000    0.000    0.000    0.143 
#
# Total GULP energy -78086.530903 kJ/mol
# GULP energy per Si atom -5577.609350 kJ/mol
# Density = 2.369106 g / cm^3
# Si number density = 23.745110 Si / 1000 Ang^3
#
#
#
# Elastic Constant Matrix: (Units=GPa)
#
#
# Indices 1 2 3 4 5 6 
#
# 1 57.4238 33.2823 43.2650 -18.7166 -16.5317 -8.5732
# 2 33.2823 84.8339 34.7283 -11.1972 6.7605 -10.4546
# 3 43.2650 34.7283 136.2978 -22.1664 -11.6516 -7.5470
# 4 -18.7166 -11.1972 -22.1664 34.5748 10.3531 5.1074
# 5 -16.5317 6.7605 -11.6516 10.3531 40.0631 -4.4698
# 6 -8.5732 -10.4546 -7.5470 5.1074 -4.4698 27.2149
#
#
#
# Elastic Compliance Matrix: (Units=1/GPa)
#
#
# Indices 1 2 3 4 5 6 
#
# 1 0.035086 -0.010816 -0.005769 0.006808 0.013563 0.006248
# 2 -0.010816 0.017589 -0.001477 0.001073 -0.007978 0.001428
# 3 -0.005769 -0.001477 0.009998 0.002819 0.000033 -0.000136
# 4 0.006808 0.001073 0.002819 0.037504 -0.006781 -0.004814
# 5 0.013563 -0.007978 0.000033 -0.006781 0.034577 0.008168
# 6 0.006248 0.001428 -0.000136 -0.004814 0.008168 0.041469
#
#
# Mechanical properties :
#
#
# Convention : Reuss Voigt Hill
#
# Bulk Modulus (GPa) = 37.66481 55.67852 46.67166
# Shear Modulus (GPa) = 22.60434 31.52255 27.06344
#
# Velocity S-wave (km/s) = 3.08873 3.64749 3.37968
# Velocity P-wave (km/s) = 5.34948 6.42170 5.90996
#
# Compressibility (1/GPa) = 0.02654998
#
# Stress axis : x y z
#
# Youngs Moduli (GPa) = 28.50142 56.85371 100.01831
#
# Poissons Ratio (x) = 0.61491 0.57700
# Poissons Ratio (y) = 0.30826 0.14772
# Poissons Ratio (z) = 0.16442 0.08397
#
# Static dielectric constant tensor:
#      x y z
#    x 2.058910 -0.015770 -0.087780 
#    y -0.015770 2.005070 -0.007290 
#    z -0.087780 -0.007290 1.854360 
# 
# From -- ./inp_files/388526.got.cif
#   From: 2010.05.17/outbox.cif.g08.bks.cpg/sg2_195_cif.got.tgz:388526.got - 2010.06.03 11:33:40.
