data_PCOD9023620
_publ_section_title
;
Structure prediction by ZEFSAII (Michael W. Deem and Ramdas Pophale) SiO2 
 PCOD9023620
Probable space group: P -1
;
_chemical_formula_sum "Si O2"
_cell_formula_units_Z 14
_cell_length_a 12.459747
_cell_length_b 8.479361
_cell_length_c 8.294200
_cell_angle_alpha 56.886281
_cell_angle_beta 77.299677
_cell_angle_gamma 50.401326
_cell_volume 554.243789
_symmetry_space_group_name_H-M "P -1"
_symmetry_group_IT_number 2
_symmetry_cell_setting 'triclinic'
loop_
_space_group_symop_operation_xyz
x,y,z
-x,-y,-z
loop_
_atom_site_type_symbol
_atom_site_label
_atom_site_fract_x
_atom_site_fract_y
_atom_site_fract_z
Si Si1 0.565381 0.325367 0.423880
Si Si2 0.649402 0.491898 0.042988
Si Si3 0.891482 0.299473 0.339093
Si Si4 0.172832 0.094854 0.254446
Si Si5 0.630710 0.864822 0.679011
Si Si6 0.148816 0.957352 0.990050
Si Si7 0.836503 0.658126 0.415464
O O1 0.500000 0.500000 0.500000
O O2 0.550178 0.461182 0.193722
O O3 0.734338 0.122442 0.523076
O O4 0.522316 0.153638 0.522725
O O5 0.773676 0.405975 0.180732
O O6 0.736262 0.305513 0.974574
O O7 0.565479 0.752964 0.843177
O O8 0.823985 0.479577 0.414059
O O9 0.013751 0.312614 0.234150
O O10 0.000000 0.000000 0.500000
O O11 0.269776 0.173104 0.182600
O O12 0.169977 0.983098 0.154647
O O13 0.737219 0.747030 0.557034
O O14 0.177397 0.126328 0.794266
O O15 0.000000 0.000000 0.000000
O O16 0.000000 0.500000 0.500000
#
# Coordination Sequence:
#
# PCOD9023620 Si02
#       7
#     2   2   2   2   2   2   2
#     4  10  23  47  68  87 124 165 218 276 311 363
#     4  12  23  39  65  96 128 166 209 258 322 391
#     4  12  22  37  61  95 134 167 206 253 322 387
#     4  10  22  40  58  95 129 166 211 251 318 375
#     4  10  23  41  61  95 124 168 215 258 321 375
#     4  12  23  35  62  94 134 174 201 251 319 386
#     4  12  22  36  57  91 138 169 204 257 308 385
#
# _framework density 25.259641999999999
#
# number of rings (size 3 to 8) (size 9 to 14) (size 15 to 20)
#    0.857    0.000    5.714    2.571    2.000    1.714 
#    0.000    0.714    0.000    1.714    0.000    0.000 
#    0.000    0.000    0.000    0.000    0.000    0.000 
#
# Total GULP energy -78182.067035 kJ/mol
# GULP energy per Si atom -5584.433360 kJ/mol
# Density = 2.520215 g / cm^3
# Si number density = 25.259642 Si / 1000 Ang^3
#
#
#
# Elastic Constant Matrix: (Units=GPa)
#
#
# Indices 1 2 3 4 5 6 
#
# 1 128.5496 15.4849 25.5124 6.4958 17.4494 3.0076
# 2 15.4849 133.7081 42.2068 20.6977 -13.3781 22.8195
# 3 25.5124 42.2068 178.3713 -22.3335 -33.7572 19.1032
# 4 6.4958 20.6977 -22.3335 42.8171 11.0681 6.3302
# 5 17.4494 -13.3781 -33.7572 11.0681 39.3193 6.5666
# 6 3.0076 22.8195 19.1032 6.3302 6.5666 33.9749
#
#
#
# Elastic Compliance Matrix: (Units=1/GPa)
#
#
# Indices 1 2 3 4 5 6 
#
# 1 0.009508 -0.001365 -0.002921 -0.000858 -0.007506 0.003329
# 2 -0.001365 0.010688 -0.001322 -0.006248 0.005917 -0.006294
# 3 -0.002921 -0.001322 0.009248 0.004663 0.008572 -0.006579
# 4 -0.000858 -0.006248 0.004663 0.030913 -0.005950 -0.002959
# 5 -0.007506 0.005917 0.008572 -0.005950 0.042351 -0.015207
# 6 0.003329 -0.006294 -0.006579 -0.002959 -0.015207 0.040556
#
#
# Mechanical properties :
#
#
# Convention : Reuss Voigt Hill
#
# Bulk Modulus (GPa) = 54.86758 67.44856 61.15807
# Shear Modulus (GPa) = 31.14175 47.05058 39.09616
#
# Velocity S-wave (km/s) = 3.51503 4.32056 3.93844
# Velocity P-wave (km/s) = 6.18405 7.18677 6.70418
#
# Compressibility (1/GPa) = 0.01822570
#
# Stress axis : x y z
#
# Youngs Moduli (GPa) = 105.17739 93.56456 108.13550
#
# Poissons Ratio (x) = 0.12774 0.31590
# Poissons Ratio (y) = 0.14360 0.14297
# Poissons Ratio (z) = 0.30726 0.12370
#
# Static dielectric constant tensor:
#      x y z
#    x 2.155830 0.104720 -0.136840 
#    y 0.104720 1.980590 -0.088980 
#    z -0.136840 -0.088980 2.144170 
# 
# From -- ./inp_files/327034.got.cif
#   From: 2010.05.17/outbox.cif.g08.bks.cpg/sg2_164_cif.got.tgz:327034.got - 2010.06.03 11:33:40.
