data_PCOD9023928
_publ_section_title
;
Structure prediction by ZEFSAII (Michael W. Deem and Ramdas Pophale) SiO2 
 PCOD9023928
Probable space group: P -1
;
_chemical_formula_sum "Si O2"
_cell_formula_units_Z 16
_cell_length_a 5.552206
_cell_length_b 11.749546
_cell_length_c 11.368365
_cell_angle_alpha 82.158840
_cell_angle_beta 92.851128
_cell_angle_gamma 65.826370
_cell_volume 665.673565
_symmetry_space_group_name_H-M "P -1"
_symmetry_group_IT_number 2
_symmetry_cell_setting 'triclinic'
loop_
_space_group_symop_operation_xyz
x,y,z
-x,-y,-z
loop_
_atom_site_type_symbol
_atom_site_label
_atom_site_fract_x
_atom_site_fract_y
_atom_site_fract_z
Si Si1 0.814572 0.823191 0.986893
Si Si2 0.693884 0.318741 0.417614
Si Si3 0.265201 0.431537 0.593604
Si Si4 0.915737 0.998334 0.795597
Si Si5 0.561058 0.767025 0.186386
Si Si6 0.356454 0.643818 0.003813
Si Si7 0.563080 0.197614 0.213701
Si Si8 0.812031 0.933146 0.552049
O O1 0.652809 0.858559 0.099316
O O2 0.065310 0.694186 0.042922
O O3 0.898996 0.930471 0.926030
O O4 0.678450 0.791574 0.875136
O O5 0.518649 0.357057 0.526108
O O6 0.693396 0.452516 0.358660
O O7 0.553234 0.255265 0.334158
O O8 0.999633 0.213821 0.453301
O O9 0.255709 0.326811 0.697786
O O10 0.000000 0.500000 0.500000
O O11 0.803105 0.947238 0.690793
O O12 0.221359 0.947547 0.771381
O O13 0.728264 0.145138 0.781020
O O14 0.524428 0.682564 0.094399
O O15 0.500000 0.500000 0.000000
O O16 0.317266 0.721177 0.871196
O O17 0.500000 0.000000 0.500000
O O18 0.000000 0.000000 0.500000
#
# Coordination Sequence:
#
# PCOD9023928 Si02
#       8
#     2   2   2   2   2   2   2   2
#     4  10  23  41  67  99 130 183 224 292 356 430
#     4  10  24  44  67  98 141 183 239 301 365 431
#     4  11  26  44  68  99 140 192 239 301 365 436
#     4  10  23  41  66 101 140 179 229 293 365 423
#     4  11  24  42  65  98 138 176 236 290 356 440
#     4  10  22  40  62  91 128 169 228 279 347 418
#     4   9  21  40  65  94 129 174 225 285 352 423
#     4  11  26  45  75 109 144 197 247 303 363 441
#
# _framework density 24.035803999999999
#
# number of rings (size 3 to 8) (size 9 to 14) (size 15 to 20)
#    0.000    1.750    0.000    1.875    7.000   13.500 
#    0.000    0.000    0.000    0.000    0.000    0.000 
#    0.000    0.000    0.000    0.000    0.000    0.000 
#
# Total GULP energy -89330.966257 kJ/mol
# GULP energy per Si atom -5583.185391 kJ/mol
# Density = 2.398110 g / cm^3
# Si number density = 24.035804 Si / 1000 Ang^3
#
#
#
# Elastic Constant Matrix: (Units=GPa)
#
#
# Indices 1 2 3 4 5 6 
#
# 1 84.5022 24.2889 36.7432 2.2861 11.7783 -10.7475
# 2 24.2889 143.6479 49.2765 12.5987 4.4977 -14.4290
# 3 36.7432 49.2765 112.8503 -8.6839 2.2062 -1.6909
# 4 2.2861 12.5987 -8.6839 35.9894 2.7118 7.3140
# 5 11.7783 4.4977 2.2062 2.7118 39.2824 0.8235
# 6 -10.7475 -14.4290 -1.6909 7.3140 0.8235 29.6171
#
#
#
# Elastic Compliance Matrix: (Units=1/GPa)
#
#
# Indices 1 2 3 4 5 6 
#
# 1 0.015547 0.000236 -0.005240 -0.003310 -0.004300 0.006394
# 2 0.000236 0.009612 -0.004607 -0.005645 -0.000647 0.005917
# 3 -0.005240 -0.004607 0.012945 0.005988 0.001061 -0.004915
# 4 -0.003310 -0.005645 0.005988 0.033907 -0.000787 -0.011961
# 5 -0.004300 -0.000647 0.001061 -0.000787 0.026864 -0.002367
# 6 0.006394 0.005917 -0.004915 -0.011961 -0.002367 0.041707
#
#
# Mechanical properties :
#
#
# Convention : Reuss Voigt Hill
#
# Bulk Modulus (GPa) = 52.95967 62.40195 57.68081
# Shear Modulus (GPa) = 30.10281 36.35722 33.23002
#
# Velocity S-wave (km/s) = 3.54279 3.89347 3.72226
# Velocity P-wave (km/s) = 6.23030 6.79931 6.52101
#
# Compressibility (1/GPa) = 0.01888229
#
# Stress axis : x y z
#
# Youngs Moduli (GPa) = 64.32234 104.04066 77.24806
#
# Poissons Ratio (x) = -0.02455 0.40476
# Poissons Ratio (y) = -0.01518 0.35587
# Poissons Ratio (z) = 0.33703 0.47930
#
# Static dielectric constant tensor:
#      x y z
#    x 2.062320 0.007590 -0.057920 
#    y 0.007590 1.909170 -0.016090 
#    z -0.057920 -0.016090 1.964480 
# 
# From -- ./inp_files/364292.got.cif
#   From: 2010.05.17/outbox.cif.g08.bks.cpg/sg2_183_cif.got.tgz:364292.got - 2010.06.03 11:33:40.
