data_PCOD9023389
_publ_section_title
;
Structure prediction by ZEFSAII (Michael W. Deem and Ramdas Pophale) SiO2 
 PCOD9023389
Probable space group: P -1
;
_chemical_formula_sum "Si O2"
_cell_formula_units_Z 16
_cell_length_a 9.283023
_cell_length_b 15.568565
_cell_length_c 8.305735
_cell_angle_alpha 89.004261
_cell_angle_beta 118.161119
_cell_angle_gamma 47.820393
_cell_volume 673.804070
_symmetry_space_group_name_H-M "P -1"
_symmetry_group_IT_number 2
_symmetry_cell_setting 'triclinic'
loop_
_space_group_symop_operation_xyz
x,y,z
-x,-y,-z
loop_
_atom_site_type_symbol
_atom_site_label
_atom_site_fract_x
_atom_site_fract_y
_atom_site_fract_z
Si Si1 0.197442 0.672063 0.190034
Si Si2 0.893225 0.117803 0.052683
Si Si3 0.672009 0.459279 0.244272
Si Si4 0.653343 0.654214 0.115469
Si Si5 0.641353 0.017875 0.470733
Si Si6 0.100075 0.527517 0.181972
Si Si7 0.447206 0.754744 0.643781
Si Si8 0.002633 0.184225 0.582564
O O1 0.499937 0.536177 0.313656
O O2 0.098773 0.618649 0.091210
O O3 0.060728 0.745237 0.284902
O O4 0.122224 0.783808 0.042876
O O5 0.091463 0.058224 0.303074
O O6 0.596680 0.213371 0.926549
O O7 0.000000 0.000000 0.000000
O O8 0.750042 0.523874 0.237179
O O9 0.878719 0.301519 0.386321
O O10 0.500000 0.500000 0.000000
O O11 0.905710 0.608729 0.225884
O O12 0.531918 0.696705 0.871154
O O13 0.719639 0.950100 0.337936
O O14 0.500000 0.000000 0.500000
O O15 0.501954 0.166485 0.370701
O O16 0.382529 0.376772 0.374868
O O17 0.000000 0.500000 0.000000
O O18 0.155057 0.841175 0.480176
#
# Coordination Sequence:
#
# PCOD9023389 Si02
#       8
#     2   2   2   2   2   2   2   2
#     4  11  24  41  70 106 131 181 233 286 349 409
#     4  11  25  47  70  98 144 185 238 281 346 425
#     4  11  19  39  66  99 132 171 229 272 340 410
#     4  10  22  39  68  96 128 183 222 276 342 406
#     4  12  29  44  69 103 137 188 235 291 347 416
#     4  10  22  40  67 100 133 174 226 285 341 407
#     4  11  22  42  69  97 139 176 231 275 355 407
#     4  12  23  43  71  98 141 178 232 286 349 423
#
# _framework density 23.745774000000001
#
# number of rings (size 3 to 8) (size 9 to 14) (size 15 to 20)
#    0.000    1.000    3.750    3.000    7.000    1.000 
#    0.000    1.875    0.000    0.000    0.000    0.000 
#    0.000    0.000    0.000    0.000    0.000    0.000 
#
# Total GULP energy -89310.230635 kJ/mol
# GULP energy per Si atom -5581.889415 kJ/mol
# Density = 2.369173 g / cm^3
# Si number density = 23.745774 Si / 1000 Ang^3
#
#
#
# Elastic Constant Matrix: (Units=GPa)
#
#
# Indices 1 2 3 4 5 6 
#
# 1 157.7831 64.7459 -4.9476 -16.9888 -8.9049 -0.3555
# 2 64.7459 150.4652 15.2527 -8.0695 -6.4785 -0.7922
# 3 -4.9476 15.2527 16.3872 -3.3288 -8.8116 -5.6251
# 4 -16.9888 -8.0695 -3.3288 31.4952 -0.0192 -4.9463
# 5 -8.9049 -6.4785 -8.8116 -0.0192 14.1729 -3.1781
# 6 -0.3555 -0.7922 -5.6251 -4.9463 -3.1781 44.8148
#
#
#
# Elastic Compliance Matrix: (Units=1/GPa)
#
#
# Indices 1 2 3 4 5 6 
#
# 1 0.011556 -0.006016 0.023398 0.008000 0.020244 0.005241
# 2 -0.006016 0.010556 -0.020163 -0.003248 -0.012307 -0.003623
# 3 0.023398 -0.020163 0.166695 0.030224 0.116417 0.032344
# 4 0.008000 -0.003248 0.030224 0.040008 0.024621 0.009962
# 5 0.020244 -0.012307 0.116417 0.024621 0.156423 0.028366
# 6 0.005241 -0.003623 0.032344 0.009962 0.028366 0.029462
#
#
# Mechanical properties :
#
#
# Convention : Reuss Voigt Hill
#
# Bulk Modulus (GPa) = 5.45716 52.74862 29.10289
# Shear Modulus (GPa) = 10.38759 34.73556 22.56157
#
# Velocity S-wave (km/s) = 2.09380 3.82882 3.08576
# Velocity P-wave (km/s) = 2.85455 6.46596 4.99785
#
# Compressibility (1/GPa) = 0.18324540
#
# Stress axis : x y z
#
# Youngs Moduli (GPa) = 86.53518 94.73683 5.99898
#
# Poissons Ratio (x) = 0.56996 -0.14037
# Poissons Ratio (y) = 0.52061 0.12096
# Poissons Ratio (z) = -2.02477 1.91015
#
# Static dielectric constant tensor:
#      x y z
#    x 1.953130 -0.084660 0.056460 
#    y -0.084660 1.917510 -0.013070 
#    z 0.056460 -0.013070 2.002300 
# 
# From -- ./inp_files/207019.got.cif
#   From: 2010.05.17/outbox.cif.g08.bks.cpg/sg2_104_cif.got.tgz:207019.got - 2010.06.03 11:33:40.
