data_PCOD9023983
_publ_section_title
;
Structure prediction by ZEFSAII (Michael W. Deem and Ramdas Pophale) SiO2 
 PCOD9023983
Probable space group: P -1
;
_chemical_formula_sum "Si O2"
_cell_formula_units_Z 15
_cell_length_a 9.660746
_cell_length_b 10.329110
_cell_length_c 11.789936
_cell_angle_alpha 142.910888
_cell_angle_beta 104.794626
_cell_angle_gamma 100.354792
_cell_volume 516.764975
_symmetry_space_group_name_H-M "P -1"
_symmetry_group_IT_number 2
_symmetry_cell_setting 'triclinic'
loop_
_space_group_symop_operation_xyz
x,y,z
-x,-y,-z
loop_
_atom_site_type_symbol
_atom_site_label
_atom_site_fract_x
_atom_site_fract_y
_atom_site_fract_z
Si Si1 0.056283 0.397780 0.769856
Si Si2 0.455912 0.932116 0.192303
Si Si3 0.078215 0.318628 0.955737
Si Si4 0.634732 0.783309 0.471338
Si Si5 0.303766 0.241364 0.121313
Si Si6 0.248689 0.508902 0.483009
Si Si7 0.053064 0.725713 0.561564
Si Si8 0.500000 0.500000 0.000000
O O1 0.955090 0.170295 0.490131
O O2 0.152613 0.373921 0.880595
O O3 0.233791 0.683957 0.946028
O O4 0.921798 0.435330 0.830217
O O5 0.530988 0.769648 0.123630
O O6 0.457004 0.085757 0.410756
O O7 0.554994 0.175246 0.285731
O O8 0.858850 0.030356 0.710234
O O9 0.202873 0.305364 0.056697
O O10 0.526905 0.495565 0.323950
O O11 0.591433 0.692385 0.269040
O O12 0.249415 0.279773 0.259588
O O13 0.212302 0.939377 0.838882
O O14 0.141280 0.413106 0.512428
O O15 0.103060 0.530946 0.402311
#
# Coordination Sequence:
#
# PCOD9023983 Si02
#       8
#     2   2   2   2   2   2   2   1
#     4  10  22  40  62  94 128 167 207 264 325 382
#     4  10  23  41  62  90 131 165 209 262 323 379
#     4  10  22  40  63  94 134 163 205 268 327 380
#     4  10  24  38  61  94 130 169 205 254 324 383
#     4  11  22  42  67  93 128 170 211 270 316 384
#     4  10  23  43  64  90 126 171 214 267 317 372
#     4  11  23  40  67  92 121 170 223 261 316 379
#     4  12  22  36  64  96 124 164 210 258 308 392
#
# _framework density 29.026734999999999
#
# number of rings (size 3 to 8) (size 9 to 14) (size 15 to 20)
#    0.000    1.600    1.333    2.400    5.600    3.200 
#    0.000    0.000    0.000    3.200    0.000    0.000 
#    0.000    0.000    0.000    0.000    0.000    0.000 
#
# Total GULP energy -83787.772504 kJ/mol
# GULP energy per Si atom -5585.851500 kJ/mol
# Density = 2.896067 g / cm^3
# Si number density = 29.026735 Si / 1000 Ang^3
#
#
#
# Elastic Constant Matrix: (Units=GPa)
#
#
# Indices 1 2 3 4 5 6 
#
# 1 85.5859 -2.7659 49.4374 10.8534 -9.0881 27.0037
# 2 -2.7659 91.2087 39.3266 -5.3278 -22.7703 33.9408
# 3 49.4374 39.3266 158.9344 -8.1005 -9.0506 27.6437
# 4 10.8534 -5.3278 -8.1005 62.8576 9.7092 -9.1760
# 5 -9.0881 -22.7703 -9.0506 9.7092 57.9944 8.9964
# 6 27.0037 33.9408 27.6437 -9.1760 8.9964 52.7048
#
#
#
# Elastic Compliance Matrix: (Units=1/GPa)
#
#
# Indices 1 2 3 4 5 6 
#
# 1 0.028098 0.017248 -0.008180 -0.010621 0.015669 -0.025736
# 2 0.017248 0.029557 -0.006987 -0.008558 0.019143 -0.028964
# 3 -0.008180 -0.006987 0.009674 0.003368 -0.003833 0.004857
# 4 -0.010621 -0.008558 0.003368 0.021181 -0.010315 0.014635
# 5 0.015669 0.019143 -0.003833 -0.010315 0.032324 -0.025659
# 6 -0.025736 -0.028964 0.004857 0.014635 -0.025659 0.055192
#
#
# Mechanical properties :
#
#
# Convention : Reuss Voigt Hill
#
# Bulk Modulus (GPa) = 13.98808 56.41389 35.20099
# Shear Modulus (GPa) = 25.54997 51.36008 38.45502
#
# Velocity S-wave (km/s) = 2.97007 4.21099 3.64375
# Velocity P-wave (km/s) = 4.07324 6.56663 5.46406
#
# Compressibility (1/GPa) = 0.07148943
#
# Stress axis : x y z
#
# Youngs Moduli (GPa) = 35.58991 33.83317 103.37176
#
# Poissons Ratio (x) = -0.58354 0.84562
# Poissons Ratio (y) = -0.61384 0.72224
# Poissons Ratio (z) = 0.29114 0.23639
#
# Static dielectric constant tensor:
#      x y z
#    x 2.447670 -0.021910 -0.007530 
#    y -0.021910 2.377360 0.087940 
#    z -0.007530 0.087940 2.338530 
# 
# From -- ./inp_files/429086.got.cif
#   From: 2010.05.17/outbox.cif.g08.bks.cpg/sg2_215_cif.got.tgz:429086.got - 2010.06.03 11:33:40.
