data_PCOD9023255
_publ_section_title
;
Structure prediction by ZEFSAII (Michael W. Deem and Ramdas Pophale) SiO2 
 PCOD9023255
Probable space group: P -1
;
_chemical_formula_sum "Si O2"
_cell_formula_units_Z 16
_cell_length_a 9.205913
_cell_length_b 14.206446
_cell_length_c 11.890883
_cell_angle_alpha 126.954228
_cell_angle_beta 115.448630
_cell_angle_gamma 107.519328
_cell_volume 708.904222
_symmetry_space_group_name_H-M "P -1"
_symmetry_group_IT_number 2
_symmetry_cell_setting 'triclinic'
loop_
_space_group_symop_operation_xyz
x,y,z
-x,-y,-z
loop_
_atom_site_type_symbol
_atom_site_label
_atom_site_fract_x
_atom_site_fract_y
_atom_site_fract_z
Si Si1 0.976558 0.823397 0.958560
Si Si2 0.147544 0.714951 0.393582
Si Si3 0.531951 0.549031 0.783721
Si Si4 0.919599 0.846983 0.706000
Si Si5 0.599578 0.988164 0.131777
Si Si6 0.987250 0.870173 0.333076
Si Si7 0.598813 0.950887 0.574470
Si Si8 0.170884 0.561457 0.709239
O O1 0.042498 0.997557 0.131638
O O2 0.204662 0.891173 0.150957
O O3 0.709660 0.645849 0.802526
O O4 0.955233 0.794904 0.797766
O O5 0.334836 0.752440 0.397313
O O6 0.030055 0.768688 0.339095
O O7 0.963635 0.536475 0.285391
O O8 0.339524 0.878180 0.664069
O O9 0.355962 0.333140 0.569384
O O10 0.315121 0.525017 0.694362
O O11 0.724806 0.695644 0.052930
O O12 0.144306 0.936626 0.761793
O O13 0.388283 0.780290 0.954193
O O14 0.500000 0.000000 0.000000
O O15 0.000000 0.000000 0.500000
O O16 0.216784 0.014948 0.423552
O O17 0.500000 0.000000 0.500000
O O18 0.000000 0.500000 0.500000
#
# Coordination Sequence:
#
# PCOD9023255 Si02
#       8
#     2   2   2   2   2   2   2   2
#     4  10  22  39  67  93 141 170 226 288 342 408
#     4  11  23  43  68  98 141 179 227 288 344 411
#     4  11  22  42  64  99 136 170 238 280 342 417
#     4  11  22  38  64 100 127 183 222 282 348 404
#     4  12  22  40  64  93 137 180 228 279 348 411
#     4  10  23  44  76 102 136 184 232 292 346 413
#     4   9  21  42  68  99 133 181 227 277 348 407
#     4  12  24  38  63 100 135 180 230 279 342 420
#
# _framework density 22.570043999999999
#
# number of rings (size 3 to 8) (size 9 to 14) (size 15 to 20)
#    0.000    1.250    3.750    1.875    1.750    0.500 
#    0.000    7.500    0.000   11.250    0.000    0.000 
#    0.000    0.000    0.000    0.000    0.000    0.000 
#
# Total GULP energy -89325.050465 kJ/mol
# GULP energy per Si atom -5582.815654 kJ/mol
# Density = 2.251867 g / cm^3
# Si number density = 22.570044 Si / 1000 Ang^3
#
#
#
# Elastic Constant Matrix: (Units=GPa)
#
#
# Indices 1 2 3 4 5 6 
#
# 1 110.7846 45.9972 53.3324 3.6173 16.6782 25.9836
# 2 45.9972 144.1975 56.8684 16.7771 24.1114 25.3159
# 3 53.3324 56.8684 98.1143 27.0398 22.3982 14.6474
# 4 3.6173 16.7771 27.0398 56.0097 -4.3609 13.0266
# 5 16.6782 24.1114 22.3982 -4.3609 31.5319 4.2566
# 6 25.9836 25.3159 14.6474 13.0266 4.2566 35.5298
#
#
#
# Elastic Compliance Matrix: (Units=1/GPa)
#
#
# Indices 1 2 3 4 5 6 
#
# 1 0.015078 -0.000718 -0.007864 0.005184 0.000117 -0.009188
# 2 -0.000718 0.010196 -0.003755 -0.000472 -0.004205 -0.004514
# 3 -0.007864 -0.003755 0.021105 -0.010446 -0.010048 0.004759
# 4 0.005184 -0.000472 -0.010446 0.025750 0.009920 -0.009778
# 5 0.000117 -0.004205 -0.010048 0.009920 0.043622 -0.001810
# 6 -0.009188 -0.004514 0.004759 -0.009778 -0.001810 0.039921
#
#
# Mechanical properties :
#
#
# Convention : Reuss Voigt Hill
#
# Bulk Modulus (GPa) = 46.07083 73.94359 60.00721
# Shear Modulus (GPa) = 26.65519 37.74084 32.19802
#
# Velocity S-wave (km/s) = 3.44029 4.09365 3.78111
# Velocity P-wave (km/s) = 6.01976 7.42811 6.76071
#
# Compressibility (1/GPa) = 0.02170571
#
# Stress axis : x y z
#
# Youngs Moduli (GPa) = 66.31994 98.08184 47.38154
#
# Poissons Ratio (x) = 0.07044 0.37259
# Poissons Ratio (y) = 0.04763 0.17792
# Poissons Ratio (z) = 0.52151 0.36831
#
# Static dielectric constant tensor:
#      x y z
#    x 1.879350 -0.061960 0.017970 
#    y -0.061960 1.951060 0.027360 
#    z 0.017970 0.027360 1.831570 
# 
# From -- ./inp_files/399644.got.cif
#   From: 2010.05.17/outbox.cif.g08.bks.cpg/sg2_200_cif.got.tgz:399644.got - 2010.06.03 11:33:40.
