data_PCOD9023828
_publ_section_title
;
Structure prediction by ZEFSAII (Michael W. Deem and Ramdas Pophale) SiO2 
 PCOD9023828
Probable space group: P -1
;
_chemical_formula_sum "Si O2"
_cell_formula_units_Z 14
_cell_length_a 8.030655
_cell_length_b 8.193119
_cell_length_c 12.075362
_cell_angle_alpha 52.602399
_cell_angle_beta 120.530306
_cell_angle_gamma 101.956515
_cell_volume 537.686942
_symmetry_space_group_name_H-M "P -1"
_symmetry_group_IT_number 2
_symmetry_cell_setting 'triclinic'
loop_
_space_group_symop_operation_xyz
x,y,z
-x,-y,-z
loop_
_atom_site_type_symbol
_atom_site_label
_atom_site_fract_x
_atom_site_fract_y
_atom_site_fract_z
Si Si1 0.715323 0.476797 0.634807
Si Si2 0.075275 0.712196 0.405477
Si Si3 0.622930 0.943981 0.953946
Si Si4 0.401512 0.831552 0.607924
Si Si5 0.734658 0.602867 0.969249
Si Si6 0.757866 0.904044 0.371818
Si Si7 0.847169 0.273638 0.981305
O O1 0.500000 0.500000 0.500000
O O2 0.864145 0.297571 0.697777
O O3 0.789210 0.689471 0.538144
O O4 0.731903 0.436285 0.786735
O O5 0.282591 0.710626 0.534639
O O6 0.000000 0.500000 0.500000
O O7 0.911302 0.887039 0.329757
O O8 0.467571 0.055981 0.765128
O O9 0.803124 0.061144 0.998789
O O10 0.680694 0.705425 0.030227
O O11 0.500000 0.000000 0.000000
O O12 0.560420 0.700962 0.791593
O O13 0.500000 0.000000 0.500000
O O14 0.237540 0.928111 0.601097
O O15 0.775715 0.360298 0.044514
O O16 0.927328 0.699979 0.960750
#
# Coordination Sequence:
#
# PCOD9023828 Si02
#       7
#     2   2   2   2   2   2   2
#     4  11  20  39  68  98 124 173 224 272 336 392
#     4  10  23  37  62  96 132 169 213 274 337 395
#     4  11  25  42  66  95 137 178 216 273 335 404
#     4  11  22  40  68  96 133 174 226 280 325 403
#     4  10  25  43  65  99 127 178 225 271 338 389
#     4  10  22  40  61  99 132 168 220 274 340 390
#     4  11  23  44  69  95 138 168 228 280 324 406
#
# _framework density 26.037452999999999
#
# number of rings (size 3 to 8) (size 9 to 14) (size 15 to 20)
#    0.000    1.429    1.429    3.429    6.000    1.714 
#    0.000   11.429    0.000    0.000    0.000    0.000 
#    0.000    0.000    0.000    0.000    0.000    0.000 
#
# Total GULP energy -78228.015961 kJ/mol
# GULP energy per Si atom -5587.715426 kJ/mol
# Density = 2.597819 g / cm^3
# Si number density = 26.037453 Si / 1000 Ang^3
#
#
#
# Elastic Constant Matrix: (Units=GPa)
#
#
# Indices 1 2 3 4 5 6 
#
# 1 123.8972 56.6448 6.7818 9.7162 10.4534 -30.2341
# 2 56.6448 144.8801 36.1295 33.8349 2.9299 -33.0050
# 3 6.7818 36.1295 58.0122 3.7379 10.1946 -2.4053
# 4 9.7162 33.8349 3.7379 25.6678 -5.6762 3.1846
# 5 10.4534 2.9299 10.1946 -5.6762 45.3955 16.9542
# 6 -30.2341 -33.0050 -2.4053 3.1846 16.9542 72.4489
#
#
#
# Elastic Compliance Matrix: (Units=1/GPa)
#
#
# Indices 1 2 3 4 5 6 
#
# 1 0.011053 -0.003357 0.001875 -0.001568 -0.004544 0.004278
# 2 -0.003357 0.017458 -0.007880 -0.022632 -0.004531 0.008346
# 3 0.001875 -0.007880 0.022122 0.005843 -0.003606 -0.001486
# 4 -0.001568 -0.022632 0.005843 0.074406 0.016500 -0.017903
# 5 -0.004544 -0.004531 -0.003606 0.016500 0.030720 -0.011994
# 6 0.004278 0.008346 -0.001486 -0.017903 -0.011994 0.022935
#
#
# Mechanical properties :
#
#
# Convention : Reuss Voigt Hill
#
# Bulk Modulus (GPa) = 31.33730 58.43351 44.88541
# Shear Modulus (GPa) = 24.03235 43.85134 33.94185
#
# Velocity S-wave (km/s) = 3.04137 4.10831 3.61443
# Velocity P-wave (km/s) = 4.93912 6.70784 5.89024
#
# Compressibility (1/GPa) = 0.03191085
#
# Stress axis : x y z
#
# Youngs Moduli (GPa) = 90.46928 57.28004 45.20484
#
# Poissons Ratio (x) = 0.19226 -0.08476
# Poissons Ratio (y) = 0.30366 0.35620
# Poissons Ratio (z) = -0.16964 0.45135
#
# Static dielectric constant tensor:
#      x y z
#    x 2.151320 -0.056480 -0.074960 
#    y -0.056480 2.069920 -0.029570 
#    z -0.074960 -0.029570 2.054040 
# 
# From -- ./inp_files/381448.got.cif
#   From: 2010.05.17/outbox.cif.g08.bks.cpg/sg2_191_cif.got.tgz:381448.got - 2010.06.03 11:33:40.
