data_PCOD9023727
_publ_section_title
;
Structure prediction by ZEFSAII (Michael W. Deem and Ramdas Pophale) SiO2 
 PCOD9023727
Probable space group: P -1
;
_chemical_formula_sum "Si O2"
_cell_formula_units_Z 14
_cell_length_a 10.138996
_cell_length_b 9.727656
_cell_length_c 8.040705
_cell_angle_alpha 133.932790
_cell_angle_beta 70.248397
_cell_angle_gamma 91.946039
_cell_volume 513.454019
_symmetry_space_group_name_H-M "P -1"
_symmetry_group_IT_number 2
_symmetry_cell_setting 'triclinic'
loop_
_space_group_symop_operation_xyz
x,y,z
-x,-y,-z
loop_
_atom_site_type_symbol
_atom_site_label
_atom_site_fract_x
_atom_site_fract_y
_atom_site_fract_z
Si Si1 0.712072 0.471581 0.332919
Si Si2 0.236185 0.916505 0.184212
Si Si3 0.432961 0.259395 0.081283
Si Si4 0.130116 0.254331 0.096440
Si Si5 0.567965 0.703345 0.271965
Si Si6 0.026453 0.339401 0.557328
Si Si7 0.268330 0.954972 0.555061
O O1 0.606572 0.578829 0.618345
O O2 0.639585 0.543617 0.245277
O O3 0.850116 0.553443 0.362622
O O4 0.771312 0.234457 0.085174
O O5 0.105705 0.121768 0.411937
O O6 0.226563 0.849769 0.324374
O O7 0.410497 0.904727 0.090890
O O8 0.288680 0.185645 0.063253
O O9 0.439844 0.341181 0.959141
O O10 0.015928 0.295372 0.328796
O O11 0.114654 0.467864 0.190950
O O12 0.131400 0.080286 0.824121
O O13 0.654709 0.872760 0.385402
O O14 0.397359 0.803692 0.474346
#
# Coordination Sequence:
#
# PCOD9023727 Si02
#       7
#     2   2   2   2   2   2   2
#     4  11  22  38  63  87 123 155 191 247 295 343
#     4  11  22  38  60  92 116 149 202 241 291 352
#     4   9  21  38  60  91 116 153 200 239 292 348
#     4   9  20  39  62  84 117 161 193 240 301 340
#     4   9  18  36  59  89 119 150 196 244 291 347
#     4  10  22  40  61  85 118 158 198 238 292 357
#     4   9  18  35  59  87 115 153 196 241 293 346
#
# _framework density 27.266317999999998
#
# number of rings (size 3 to 8) (size 9 to 14) (size 15 to 20)
#    0.000    2.286    1.429    1.286    2.000    4.000 
#    2.571    7.143    0.000    0.000    0.000    0.000 
#    0.000    0.000    0.000    0.000    0.000    0.000 
#
# Total GULP energy -78186.474332 kJ/mol
# GULP energy per Si atom -5584.748167 kJ/mol
# Density = 2.720426 g / cm^3
# Si number density = 27.266318 Si / 1000 Ang^3
#
#
#
# Elastic Constant Matrix: (Units=GPa)
#
#
# Indices 1 2 3 4 5 6 
#
# 1 91.5129 30.4564 42.5794 12.9546 -4.9171 -23.5120
# 2 30.4564 78.6969 20.2151 9.7422 3.2133 -31.7743
# 3 42.5794 20.2151 193.4465 -14.1209 14.2853 -28.6660
# 4 12.9546 9.7422 -14.1209 37.8680 -17.2190 0.8678
# 5 -4.9171 3.2133 14.2853 -17.2190 45.5616 7.7032
# 6 -23.5120 -31.7743 -28.6660 0.8678 7.7032 36.1932
#
#
#
# Elastic Compliance Matrix: (Units=1/GPa)
#
#
# Indices 1 2 3 4 5 6 
#
# 1 0.015270 -0.001703 -0.002576 -0.006337 -0.000959 0.006741
# 2 -0.001703 0.024303 0.001352 -0.010372 -0.010254 0.023732
# 3 -0.002576 0.001352 0.006718 0.001659 -0.002763 0.005382
# 4 -0.006337 -0.010372 0.001659 0.040216 0.017533 -0.016604
# 5 -0.000959 -0.010254 -0.002763 0.017533 0.033328 -0.019327
# 6 0.006741 0.023732 0.005382 -0.016604 -0.019327 0.061617
#
#
# Mechanical properties :
#
#
# Convention : Reuss Voigt Hill
#
# Bulk Modulus (GPa) = 24.72969 61.12867 42.92918
# Shear Modulus (GPa) = 24.90230 41.95157 33.42693
#
# Velocity S-wave (km/s) = 3.02536 3.92674 3.50514
# Velocity P-wave (km/s) = 4.61445 6.55948 5.67098
#
# Compressibility (1/GPa) = 0.04043723
#
# Stress axis : x y z
#
# Youngs Moduli (GPa) = 65.48754 41.14691 148.85795
#
# Poissons Ratio (x) = 0.07006 0.38347
# Poissons Ratio (y) = 0.11151 -0.20124
# Poissons Ratio (z) = 0.16870 -0.05563
#
# Static dielectric constant tensor:
#      x y z
#    x 2.199220 0.078030 -0.042320 
#    y 0.078030 2.255410 0.003100 
#    z -0.042320 0.003100 2.116840 
# 
# From -- ./inp_files/186603.got.cif
#   From: 2010.05.17/outbox.cif.g08.bks.cpg/sg2_94_cif.got.tgz:186603.got - 2010.06.03 11:33:40.
