data_PCOD9023662
_publ_section_title
;
Structure prediction by ZEFSAII (Michael W. Deem and Ramdas Pophale) SiO2 
 PCOD9023662
Probable space group: P -1
;
_chemical_formula_sum "Si O2"
_cell_formula_units_Z 16
_cell_length_a 12.516419
_cell_length_b 13.415062
_cell_length_c 6.220265
_cell_angle_alpha 123.729667
_cell_angle_beta 58.352793
_cell_angle_gamma 95.279980
_cell_volume 709.544116
_symmetry_space_group_name_H-M "P -1"
_symmetry_group_IT_number 2
_symmetry_cell_setting 'triclinic'
loop_
_space_group_symop_operation_xyz
x,y,z
-x,-y,-z
loop_
_atom_site_type_symbol
_atom_site_label
_atom_site_fract_x
_atom_site_fract_y
_atom_site_fract_z
Si Si1 0.439506 0.245440 0.342148
Si Si2 0.025993 0.189192 0.696952
Si Si3 0.435509 0.128868 0.605839
Si Si4 0.211961 0.273891 0.268721
Si Si5 0.893986 0.035519 0.345660
Si Si6 0.364992 0.766979 0.239404
Si Si7 0.110798 0.538607 0.788834
Si Si8 0.363865 0.514358 0.791325
O O1 0.444218 0.128105 0.341775
O O2 0.331337 0.263649 0.294898
O O3 0.389236 0.374157 0.684350
O O4 0.575098 0.230755 0.060371
O O5 0.111701 0.223730 0.455299
O O6 0.928245 0.128122 0.598164
O O7 0.102195 0.087398 0.666401
O O8 0.953366 0.319715 0.046919
O O9 0.526633 0.214755 0.689864
O O10 0.500000 0.000000 0.500000
O O11 0.284916 0.185944 0.897513
O O12 0.156061 0.419751 0.440239
O O13 0.760645 0.115504 0.473587
O O14 0.000000 0.000000 0.000000
O O15 0.342488 0.630440 0.114476
O O16 0.237093 0.540256 0.801624
O O17 0.000000 0.500000 0.000000
O O18 0.500000 0.500000 0.500000
#
# Coordination Sequence:
#
# PCOD9023662 Si02
#       8
#     2   2   2   2   2   2   2   2
#     4   9  21  39  62  89 117 156 191 245 309 353
#     4  10  22  40  64  82 119 165 193 245 305 349
#     4  11  25  37  59  94 120 156 199 241 300 368
#     4   9  21  39  63  88 119 151 199 249 293 361
#     4  11  25  39  57  91 120 156 207 243 291 357
#     4  10  22  40  60  85 123 156 197 248 296 355
#     4   9  17  38  63  89 116 159 204 243 304 361
#     4   9  17  37  63  86 119 152 197 252 299 356
#
# _framework density 22.549692
#
# number of rings (size 3 to 8) (size 9 to 14) (size 15 to 20)
#    0.000    2.250    1.250    0.750    5.250    2.500 
#    2.250    0.000    0.000    6.000    0.000    0.000 
#    0.000    0.000    0.000    0.000    0.000    0.000 
#
# Total GULP energy -89270.383630 kJ/mol
# GULP energy per Si atom -5579.398977 kJ/mol
# Density = 2.249837 g / cm^3
# Si number density = 22.549692 Si / 1000 Ang^3
#
#
#
# Elastic Constant Matrix: (Units=GPa)
#
#
# Indices 1 2 3 4 5 6 
#
# 1 69.1568 16.3758 4.6521 10.2790 -17.5483 10.2934
# 2 16.3758 98.6700 36.3876 25.5445 -2.1768 -3.4454
# 3 4.6521 36.3876 79.2963 21.2465 -17.0856 -7.0634
# 4 10.2790 25.5445 21.2465 28.0663 -1.2253 -0.1737
# 5 -17.5483 -2.1768 -17.0856 -1.2253 30.9334 4.6051
# 6 10.2934 -3.4454 -7.0634 -0.1737 4.6051 24.7502
#
#
#
# Elastic Compliance Matrix: (Units=1/GPa)
#
#
# Indices 1 2 3 4 5 6 
#
# 1 0.021944 -0.003421 0.004938 -0.008019 0.016297 -0.011282
# 2 -0.003421 0.014761 -0.004968 -0.008596 -0.004406 0.002819
# 3 0.004938 -0.004968 0.020901 -0.012520 0.013405 0.000638
# 4 -0.008019 -0.008596 -0.012520 0.055437 -0.009995 0.000814
# 5 0.016297 -0.004406 0.013405 -0.009995 0.050203 -0.012977
# 6 -0.011282 0.002819 0.000638 0.000814 -0.012977 0.048091
#
#
# Mechanical properties :
#
#
# Convention : Reuss Voigt Hill
#
# Bulk Modulus (GPa) = 19.72257 40.21713 29.96985
# Shear Modulus (GPa) = 21.26384 29.39713 25.33049
#
# Velocity S-wave (km/s) = 3.07412 3.61454 3.35523
# Velocity P-wave (km/s) = 4.62229 5.94083 5.32255
#
# Compressibility (1/GPa) = 0.05070333
#
# Stress axis : x y z
#
# Youngs Moduli (GPa) = 45.56954 67.74430 47.84566
#
# Poissons Ratio (x) = 0.23177 -0.23625
# Poissons Ratio (y) = 0.15591 0.23770
# Poissons Ratio (z) = -0.22501 0.33656
#
# Static dielectric constant tensor:
#      x y z
#    x 1.796270 0.048790 0.022350 
#    y 0.048790 1.853490 0.044450 
#    z 0.022350 0.044450 1.906890 
# 
# From -- ./inp_files/77010.got.cif
#   From: 2010.05.17/outbox.cif.g08.bks.cpg/sg2_39_cif.got.tgz:77010.got - 2010.06.03 11:33:40.
