data_PCOD9023395
_publ_section_title
;
Structure prediction by ZEFSAII (Michael W. Deem and Ramdas Pophale) SiO2 
 PCOD9023395
Probable space group: P -1
;
_chemical_formula_sum "Si O2"
_cell_formula_units_Z 13
_cell_length_a 14.553070
_cell_length_b 11.446876
_cell_length_c 10.104849
_cell_angle_alpha 141.590131
_cell_angle_beta 137.014742
_cell_angle_gamma 34.303971
_cell_volume 572.099335
_symmetry_space_group_name_H-M "P -1"
_symmetry_group_IT_number 2
_symmetry_cell_setting 'triclinic'
loop_
_space_group_symop_operation_xyz
x,y,z
-x,-y,-z
loop_
_atom_site_type_symbol
_atom_site_label
_atom_site_fract_x
_atom_site_fract_y
_atom_site_fract_z
Si Si1 0.380554 0.231800 0.492909
Si Si2 0.236995 0.719626 0.100954
Si Si3 0.238971 0.711955 0.399083
Si Si4 0.386608 0.207355 0.167907
Si Si5 0.857838 0.902449 0.163971
Si Si6 0.126789 0.137162 0.158220
Si Si7 0.500000 0.500000 0.000000
O O1 0.430622 0.166660 0.333795
O O2 0.196882 0.290013 0.374611
O O3 0.500000 0.000000 0.500000
O O4 0.402228 0.426112 0.735286
O O5 0.243936 0.774291 0.308147
O O6 0.404976 0.486099 0.017762
O O7 0.219760 0.914338 0.157107
O O8 0.071569 0.729804 0.915762
O O9 0.368898 0.437427 0.313126
O O10 0.053513 0.775996 0.282131
O O11 0.246543 0.871249 0.652976
O O12 0.206512 0.251971 0.011463
O O13 0.500000 0.000000 0.000000
O O14 0.828609 0.966446 0.034975
#
# Coordination Sequence:
#
# PCOD9023395 Si02
#       7
#     2   2   2   2   2   2   1
#     4  11  25  44  65  93 132 173 221 273 322 384
#     4  10  22  39  68  97 128 170 213 267 325 395
#     4  10  22  42  66  95 130 167 216 266 329 386
#     4  11  26  40  64  97 131 172 214 266 329 394
#     4   9  21  42  68  92 127 170 213 273 318 391
#     4   9  20  44  66  94 130 168 221 263 329 389
#     4  12  26  40  70  96 128 174 220 272 330 382
#
# _framework density 22.723326
#
# number of rings (size 3 to 8) (size 9 to 14) (size 15 to 20)
#    0.000    1.846    1.538    0.462    6.462    1.231 
#    0.000    0.000    0.000    0.000    0.000    0.000 
#    0.000    0.000    0.000    0.000    0.000    0.000 
#
# Total GULP energy -72405.146272 kJ/mol
# GULP energy per Si atom -5569.626636 kJ/mol
# Density = 2.267161 g / cm^3
# Si number density = 22.723326 Si / 1000 Ang^3
#
#
#
# Elastic Constant Matrix: (Units=GPa)
#
#
# Indices 1 2 3 4 5 6 
#
# 1 98.8550 11.0258 49.2563 -15.6682 11.5745 -4.0265
# 2 11.0258 45.8301 20.3273 2.0204 3.6720 14.3710
# 3 49.2563 20.3273 151.5918 -2.2449 7.0139 8.5268
# 4 -15.6682 2.0204 -2.2449 21.2976 -5.3408 3.7158
# 5 11.5745 3.6720 7.0139 -5.3408 37.7740 -0.3070
# 6 -4.0265 14.3710 8.5268 3.7158 -0.3070 29.9471
#
#
#
# Elastic Compliance Matrix: (Units=1/GPa)
#
#
# Indices 1 2 3 4 5 6 
#
# 1 0.014407 -0.002883 -0.004252 0.009338 -0.001997 0.003352
# 2 -0.002883 0.027701 -0.002018 -0.003242 -0.001997 -0.012724
# 3 -0.004252 -0.002018 0.008335 -0.001833 -0.000322 -0.001753
# 4 0.009338 -0.003242 -0.001833 0.055982 0.005681 -0.003555
# 5 -0.001997 -0.001997 -0.000322 0.005681 0.028145 0.000365
# 6 0.003352 -0.012724 -0.001753 -0.003555 0.000365 0.040893
#
#
# Mechanical properties :
#
#
# Convention : Reuss Voigt Hill
#
# Bulk Modulus (GPa) = 31.11636 50.83288 40.97462
# Shear Modulus (GPa) = 24.45206 32.18157 28.31681
#
# Velocity S-wave (km/s) = 3.28392 3.76737 3.53392
# Velocity P-wave (km/s) = 5.30115 6.42986 5.89259
#
# Compressibility (1/GPa) = 0.03213744
#
# Stress axis : x y z
#
# Youngs Moduli (GPa) = 69.41258 36.09962 119.97179
#
# Poissons Ratio (x) = 0.10406 0.51017
# Poissons Ratio (y) = 0.20009 0.24208
# Poissons Ratio (z) = 0.29517 0.07284
#
# Static dielectric constant tensor:
#      x y z
#    x 1.839400 -0.072490 -0.012120 
#    y -0.072490 1.920810 0.007430 
#    z -0.012120 0.007430 1.786450 
# 
# From -- ./inp_files/304451.got.cif
#   From: 2010.05.17/outbox.cif.g08.bks.cpg/sg2_153_cif.got.tgz:304451.got - 2010.06.03 11:33:40.
