data_PCOD9023757
_publ_section_title
;
Structure prediction by ZEFSAII (Michael W. Deem and Ramdas Pophale) SiO2 
 PCOD9023757
Probable space group: P -1
;
_chemical_formula_sum "Si O2"
_cell_formula_units_Z 16
_cell_length_a 9.037752
_cell_length_b 6.708362
_cell_length_c 17.731370
_cell_angle_alpha 70.430236
_cell_angle_beta 132.782140
_cell_angle_gamma 97.725791
_cell_volume 736.665377
_symmetry_space_group_name_H-M "P -1"
_symmetry_group_IT_number 2
_symmetry_cell_setting 'triclinic'
loop_
_space_group_symop_operation_xyz
x,y,z
-x,-y,-z
loop_
_atom_site_type_symbol
_atom_site_label
_atom_site_fract_x
_atom_site_fract_y
_atom_site_fract_z
Si Si1 0.754888 0.814551 0.385776
Si Si2 0.028640 0.389778 0.301493
Si Si3 0.787618 0.784982 0.929483
Si Si4 0.855865 0.551552 0.835659
Si Si5 0.547331 0.484207 0.106703
Si Si6 0.311253 0.570495 0.479679
Si Si7 0.809619 0.063048 0.509560
Si Si8 0.582658 0.229102 0.841318
O O1 0.710249 0.605813 0.441797
O O2 0.619610 0.824320 0.263353
O O3 0.993978 0.816356 0.453324
O O4 0.703092 0.012489 0.400951
O O5 0.119535 0.387851 0.249430
O O6 0.114405 0.570947 0.358133
O O7 0.786593 0.430407 0.209085
O O8 0.104963 0.165322 0.396532
O O9 0.845331 0.746981 0.866425
O O10 0.573411 0.698658 0.879575
O O11 0.754322 0.025668 0.916767
O O12 0.950421 0.620216 0.051890
O O13 0.664704 0.426123 0.801757
O O14 0.462316 0.695074 0.098500
O O15 0.500000 0.500000 0.000000
O O16 0.500000 0.500000 0.500000
O O17 0.327298 0.792231 0.497688
#
# Coordination Sequence:
#
# PCOD9023757 Si02
#       8
#     2   2   2   2   2   2   2   2
#     4  10  22  41  65  92 123 163 211 259 307 373
#     4  11  23  41  64  94 128 165 210 257 317 369
#     4  10  22  42  63  88 123 171 213 252 315 371
#     4  10  22  40  61  89 129 164 207 265 305 370
#     4  11  23  42  63  92 129 162 208 266 309 363
#     4  11  24  41  64  96 130 163 206 261 315 374
#     4  10  23  42  65  91 124 167 209 257 317 373
#     4  11  23  39  65  92 121 167 215 250 318 381
#
# _framework density 21.719495999999999
#
# number of rings (size 3 to 8) (size 9 to 14) (size 15 to 20)
#    0.000    1.500    1.250    3.000    0.000    9.500 
#    2.250    0.000    0.000    0.000    0.000    0.000 
#    0.000    0.000    0.000    0.000    0.000    0.000 
#
# Total GULP energy -89487.675437 kJ/mol
# GULP energy per Si atom -5592.979715 kJ/mol
# Density = 2.167006 g / cm^3
# Si number density = 21.719496 Si / 1000 Ang^3
#
#
#
# Elastic Constant Matrix: (Units=GPa)
#
#
# Indices 1 2 3 4 5 6 
#
# 1 83.6873 39.9445 24.5630 7.8885 -12.3779 -20.2257
# 2 39.9445 117.0492 26.9111 11.6647 -6.5467 -36.6286
# 3 24.5630 26.9111 81.2950 26.5205 -4.8796 -11.4368
# 4 7.8885 11.6647 26.5205 28.2285 1.9373 -2.2484
# 5 -12.3779 -6.5467 -4.8796 1.9373 37.2657 9.3887
# 6 -20.2257 -36.6286 -11.4368 -2.2484 9.3887 39.7847
#
#
#
# Elastic Compliance Matrix: (Units=1/GPa)
#
#
# Indices 1 2 3 4 5 6 
#
# 1 0.015763 -0.003529 -0.002871 -0.000240 0.003470 0.003107
# 2 -0.003529 0.013465 -0.001179 -0.002536 -0.001466 0.010466
# 3 -0.002871 -0.001179 0.019436 -0.016967 0.001852 0.001646
# 4 -0.000240 -0.002536 -0.016967 0.052540 -0.004655 -0.003266
# 5 0.003470 -0.001466 0.001852 -0.004655 0.029814 -0.006353
# 6 0.003107 0.010466 0.001646 -0.003266 -0.006353 0.038139
#
#
# Mechanical properties :
#
#
# Convention : Reuss Voigt Hill
#
# Bulk Modulus (GPa) = 29.84565 51.65206 40.74885
# Shear Modulus (GPa) = 25.57761 33.76330 29.67045
#
# Velocity S-wave (km/s) = 3.43539 3.94701 3.70005
# Velocity P-wave (km/s) = 5.43204 6.67869 6.08737
#
# Compressibility (1/GPa) = 0.03350572
#
# Stress axis : x y z
#
# Youngs Moduli (GPa) = 63.43981 74.26765 51.44981
#
# Poissons Ratio (x) = 0.26209 0.14770
# Poissons Ratio (y) = 0.22388 0.06068
# Poissons Ratio (z) = 0.18212 0.08759
#
# Static dielectric constant tensor:
#      x y z
#    x 1.788410 -0.009470 0.022610 
#    y -0.009470 1.810350 0.010230 
#    z 0.022610 0.010230 1.799620 
# 
# From -- ./inp_files/106984.got.cif
#   From: 2010.05.17/outbox.cif.g08.bks.cpg/sg2_54_cif.got.tgz:106984.got - 2010.06.03 11:33:40.
