data_PCOD9023161
_publ_section_title
;
Structure prediction by ZEFSAII (Michael W. Deem and Ramdas Pophale) SiO2 
 PCOD9023161
Probable space group: P -1
;
_chemical_formula_sum "Si O2"
_cell_formula_units_Z 15
_cell_length_a 17.560555
_cell_length_b 11.678444
_cell_length_c 11.179974
_cell_angle_alpha 35.713962
_cell_angle_beta 148.108798
_cell_angle_gamma 133.173227
_cell_volume 706.982721
_symmetry_space_group_name_H-M "P -1"
_symmetry_group_IT_number 2
_symmetry_cell_setting 'triclinic'
loop_
_space_group_symop_operation_xyz
x,y,z
-x,-y,-z
loop_
_atom_site_type_symbol
_atom_site_label
_atom_site_fract_x
_atom_site_fract_y
_atom_site_fract_z
Si Si1 0.548377 0.410261 0.339132
Si Si2 0.500000 0.000000 0.500000
Si Si3 0.537618 0.179544 0.036913
Si Si4 0.758316 0.008127 0.647349
Si Si5 0.622304 0.193770 0.868983
Si Si6 0.877496 0.441963 0.719736
Si Si7 0.990379 0.681512 0.244784
Si Si8 0.058562 0.784291 0.776446
O O1 0.491361 0.233799 0.333050
O O2 0.565570 0.319621 0.573859
O O3 0.707330 0.462643 0.459171
O O4 0.465722 0.617341 0.067673
O O5 0.644084 0.041750 0.573085
O O6 0.670948 0.046959 0.375071
O O7 0.402496 0.036354 0.001133
O O8 0.545762 0.223607 0.869192
O O9 0.886216 0.163399 0.690933
O O10 0.837438 0.796682 0.941453
O O11 0.789860 0.240477 0.068492
O O12 0.968463 0.401156 0.759052
O O13 0.940738 0.631955 0.706513
O O14 0.902740 0.260328 0.996992
O O15 0.000000 0.500000 0.500000
O O16 0.000000 0.000000 0.500000
#
# Coordination Sequence:
#
# PCOD9023161 Si02
#       8
#     2   1   2   2   2   2   2   2
#     4  11  23  44  67  99 138 179 228 282 345 402
#     4  12  24  46  70 100 142 180 234 290 334 422
#     4  11  24  42  69  99 135 177 223 286 340 410
#     4  11  27  46  68 102 133 179 236 281 347 413
#     4  10  23  42  63 104 134 174 226 277 342 411
#     4  10  23  43  64  97 130 176 230 272 337 420
#     4  11  27  47  69  97 138 182 228 287 346 410
#     4  10  22  39  66  96 130 175 219 279 340 398
#
# _framework density 21.216926000000001
#
# number of rings (size 3 to 8) (size 9 to 14) (size 15 to 20)
#    0.000    1.333    2.667    1.200    5.600    2.667 
#    4.800    0.000    0.000    0.000    0.000    0.000 
#    0.000    0.000    0.000    0.000    0.000    0.000 
#
# Total GULP energy -83550.132251 kJ/mol
# GULP energy per Si atom -5570.008817 kJ/mol
# Density = 2.116864 g / cm^3
# Si number density = 21.216926 Si / 1000 Ang^3
#
#
#
# Elastic Constant Matrix: (Units=GPa)
#
#
# Indices 1 2 3 4 5 6 
#
# 1 98.2659 2.8843 41.0894 -12.7303 4.6602 10.4336
# 2 2.8843 60.9472 22.1768 -17.8350 1.2288 4.9524
# 3 41.0894 22.1768 98.0204 -30.6107 2.0798 1.0776
# 4 -12.7303 -17.8350 -30.6107 32.2468 -0.3722 2.8682
# 5 4.6602 1.2288 2.0798 -0.3722 7.9794 -3.8079
# 6 10.4336 4.9524 1.0776 2.8682 -3.8079 34.3994
#
#
#
# Elastic Compliance Matrix: (Units=1/GPa)
#
#
# Indices 1 2 3 4 5 6 
#
# 1 0.013673 0.002572 -0.005400 0.002080 -0.009539 -0.005578
# 2 0.002572 0.020814 -0.002220 0.010819 -0.006149 -0.005290
# 3 -0.005400 -0.002220 0.016925 0.012674 -0.000156 0.000353
# 4 0.002080 0.010819 0.012674 0.050438 -0.007467 -0.007618
# 5 -0.009539 -0.006149 -0.000156 -0.007467 0.141089 0.020024
# 6 -0.005578 -0.005290 0.000353 -0.007618 0.020024 0.034364
#
#
# Mechanical properties :
#
#
# Convention : Reuss Voigt Hill
#
# Bulk Modulus (GPa) = 24.20377 43.28161 33.74269
# Shear Modulus (GPa) = 16.60188 27.66399 22.13294
#
# Velocity S-wave (km/s) = 2.80032 3.61482 3.23332
# Velocity P-wave (km/s) = 4.67849 6.15357 5.46602
#
# Compressibility (1/GPa) = 0.04131587
#
# Stress axis : x y z
#
# Youngs Moduli (GPa) = 73.13595 48.04570 59.08354
#
# Poissons Ratio (x) = -0.12358 0.31907
# Poissons Ratio (y) = -0.18812 0.13116
# Poissons Ratio (z) = 0.39496 0.10666
#
# Static dielectric constant tensor:
#      x y z
#    x 1.750340 -0.011530 0.000430 
#    y -0.011530 1.783720 0.035090 
#    z 0.000430 0.035090 1.757100 
# 
# From -- ./inp_files/459144.got.cif
#   From: 2010.05.17/outbox.cif.g08.bks.cpg/sg2_230_cif.got.tgz:459144.got - 2010.06.03 11:33:40.
