data_PCOD9023283
_publ_section_title
;
Structure prediction by ZEFSAII (Michael W. Deem and Ramdas Pophale) SiO2 
 PCOD9023283
Probable space group: P -1
;
_chemical_formula_sum "Si O2"
_cell_formula_units_Z 16
_cell_length_a 8.340991
_cell_length_b 14.921390
_cell_length_c 6.370201
_cell_angle_alpha 104.948922
_cell_angle_beta 121.917440
_cell_angle_gamma 77.066244
_cell_volume 646.480386
_symmetry_space_group_name_H-M "P -1"
_symmetry_group_IT_number 2
_symmetry_cell_setting 'triclinic'
loop_
_space_group_symop_operation_xyz
x,y,z
-x,-y,-z
loop_
_atom_site_type_symbol
_atom_site_label
_atom_site_fract_x
_atom_site_fract_y
_atom_site_fract_z
Si Si1 0.710796 0.510752 0.242243
Si Si2 0.157123 0.797165 0.798717
Si Si3 0.119074 0.647613 0.023834
Si Si4 0.249396 0.333839 0.932258
Si Si5 0.352777 0.627968 0.560514
Si Si6 0.048777 0.012002 0.291864
Si Si7 0.438170 0.136753 0.966968
Si Si8 0.582154 0.049616 0.392856
O O1 0.704468 0.469961 0.446858
O O2 0.500000 0.500000 0.000000
O O3 0.857592 0.438266 0.172847
O O4 0.756892 0.611546 0.260119
O O5 0.217899 0.713527 0.625102
O O6 0.350084 0.850470 0.961750
O O7 0.986117 0.874422 0.669751
O O8 0.115152 0.742127 0.946241
O O9 0.308864 0.635604 0.290824
O O10 0.938747 0.644885 0.047890
O O11 0.434630 0.360407 0.206955
O O12 0.297368 0.224393 0.861163
O O13 0.220212 0.927485 0.370828
O O14 0.000000 0.000000 0.500000
O O15 0.000000 0.000000 0.000000
O O16 0.457304 0.127769 0.227496
O O17 0.376391 0.038986 0.788526
O O18 0.500000 0.000000 0.500000
#
# Coordination Sequence:
#
# PCOD9023283 Si02
#       8
#     2   2   2   2   2   2   2   2
#     4   9  20  43  63  96 135 171 217 285 341 419
#     4  10  23  43  62  94 134 175 225 285 348 420
#     4  11  23  40  68  95 131 176 227 278 344 417
#     4  10  22  39  67  96 131 169 230 283 338 422
#     4   9  22  42  65  92 134 175 218 280 350 412
#     4  12  27  44  72 102 139 188 237 297 362 429
#     4  10  23  45  63  93 136 177 225 293 353 420
#     4  11  25  42  68  95 134 180 237 290 360 421
#
# _framework density 24.749397999999999
#
# number of rings (size 3 to 8) (size 9 to 14) (size 15 to 20)
#    0.000    1.750    1.250    1.875    7.000    4.500 
#    0.000    7.500    0.000    0.000    0.000    0.000 
#    0.000    0.000    0.000    0.000    0.000    0.000 
#
# Total GULP energy -89153.433017 kJ/mol
# GULP energy per Si atom -5572.089564 kJ/mol
# Density = 2.469307 g / cm^3
# Si number density = 24.749398 Si / 1000 Ang^3
#
#
#
# Elastic Constant Matrix: (Units=GPa)
#
#
# Indices 1 2 3 4 5 6 
#
# 1 68.8027 6.4440 12.6481 -0.1574 -9.0938 7.8247
# 2 6.4440 144.4622 43.3890 -38.2807 -0.8516 4.0642
# 3 12.6481 43.3890 121.2561 -25.4726 -15.9156 10.3784
# 4 -0.1574 -38.2807 -25.4726 42.9999 7.0429 -11.6957
# 5 -9.0938 -0.8516 -15.9156 7.0429 29.7417 -8.9540
# 6 7.8247 4.0642 10.3784 -11.6957 -8.9540 28.8571
#
#
#
# Elastic Compliance Matrix: (Units=1/GPa)
#
#
# Indices 1 2 3 4 5 6 
#
# 1 0.015776 -0.001103 -0.001104 -0.003252 0.003809 -0.003862
# 2 -0.001103 0.009780 -0.002131 0.008490 -0.002499 0.002353
# 3 -0.001104 -0.002131 0.010448 0.003476 0.004239 -0.000434
# 4 -0.003252 0.008490 0.003476 0.036808 -0.003956 0.012126
# 5 0.003809 -0.002499 0.004239 -0.003956 0.040564 0.008778
# 6 -0.003862 0.002353 -0.000434 0.012126 0.008778 0.043164
#
#
# Mechanical properties :
#
#
# Convention : Reuss Voigt Hill
#
# Bulk Modulus (GPa) = 36.58973 51.05369 43.82171
# Shear Modulus (GPa) = 28.68235 38.45575 33.56905
#
# Velocity S-wave (km/s) = 3.40797 3.94611 3.68687
# Velocity P-wave (km/s) = 5.50471 6.43704 5.98904
#
# Compressibility (1/GPa) = 0.02733007
#
# Stress axis : x y z
#
# Youngs Moduli (GPa) = 63.38885 102.24793 95.70939
#
# Poissons Ratio (x) = 0.11277 0.10562
# Poissons Ratio (y) = 0.06991 0.20391
# Poissons Ratio (z) = 0.06996 0.21784
#
# Static dielectric constant tensor:
#      x y z
#    x 2.015720 -0.009740 0.127380 
#    y -0.009740 1.927610 0.079670 
#    z 0.127380 0.079670 2.010180 
# 
# From -- ./inp_files/38971.got.cif
#   From: 2010.05.17/outbox.cif.g08.bks.cpg/sg2_20_cif.got.tgz:38971.got - 2010.06.03 11:33:40.
