data_PCOD9023936
_publ_section_title
;
Structure prediction by ZEFSAII (Michael W. Deem and Ramdas Pophale) SiO2 
 PCOD9023936
Probable space group: P -1
;
_chemical_formula_sum "Si O2"
_cell_formula_units_Z 15
_cell_length_a 8.316507
_cell_length_b 16.949679
_cell_length_c 6.853621
_cell_angle_alpha 127.725049
_cell_angle_beta 96.995544
_cell_angle_gamma 81.920176
_cell_volume 755.767355
_symmetry_space_group_name_H-M "P -1"
_symmetry_group_IT_number 2
_symmetry_cell_setting 'triclinic'
loop_
_space_group_symop_operation_xyz
x,y,z
-x,-y,-z
loop_
_atom_site_type_symbol
_atom_site_label
_atom_site_fract_x
_atom_site_fract_y
_atom_site_fract_z
Si Si1 0.807150 0.009426 0.505084
Si Si2 0.605627 0.911410 0.993784
Si Si3 0.421428 0.801800 0.134189
Si Si4 0.212321 0.533601 0.280598
Si Si5 0.500000 0.500000 0.000000
Si Si6 0.248521 0.603563 0.820244
Si Si7 0.033832 0.346497 0.855061
Si Si8 0.277116 0.165692 0.502711
O O1 0.751751 0.942158 0.574589
O O2 0.725580 0.120782 0.695986
O O3 0.728712 0.962648 0.232008
O O4 0.000000 0.000000 0.500000
O O5 0.694928 0.843714 0.737383
O O6 0.496378 0.847702 0.020706
O O7 0.500000 0.000000 0.000000
O O8 0.562139 0.799018 0.315153
O O9 0.361408 0.693325 0.929899
O O10 0.208787 0.548814 0.533502
O O11 0.075824 0.609823 0.275014
O O12 0.389455 0.545379 0.238110
O O13 0.166789 0.423693 0.043025
O O14 0.344449 0.530773 0.878197
O O15 0.086812 0.651714 0.976485
O O16 0.125945 0.241294 0.655737
#
# Coordination Sequence:
#
# PCOD9023936 Si02
#       8
#     2   2   2   2   1   2   2   2
#     4  11  23  40  62  94 131 163 209 274 319 376
#     4  11  21  43  66  88 127 176 213 255 328 387
#     4  11  23  39  63  93 127 165 213 268 314 384
#     4  10  22  42  64  90 131 166 211 270 320 383
#     4  10  22  40  62  92 120 164 210 260 316 374
#     4  11  23  41  65  93 129 165 218 264 322 387
#     4  10  23  40  62  92 126 169 213 266 326 376
#     4  11  22  41  64  91 129 169 215 262 317 391
#
# _framework density 19.847376000000001
#
# number of rings (size 3 to 8) (size 9 to 14) (size 15 to 20)
#    0.000    1.333    2.667    3.200    0.000    6.933 
#    2.400    2.667    0.000    0.000    0.000    0.000 
#    0.000    0.000    0.000    0.000    0.000    0.000 
#
# Total GULP energy -83594.510001 kJ/mol
# GULP energy per Si atom -5572.967333 kJ/mol
# Density = 1.980220 g / cm^3
# Si number density = 19.847376 Si / 1000 Ang^3
#
#
#
# Elastic Constant Matrix: (Units=GPa)
#
#
# Indices 1 2 3 4 5 6 
#
# 1 67.9230 9.4616 41.5406 -6.3572 -11.0103 -17.1322
# 2 9.4616 22.0338 27.5239 -11.7791 -0.0609 3.5407
# 3 41.5406 27.5239 93.3291 -26.6873 -30.3978 -1.8944
# 4 -6.3572 -11.7791 -26.6873 31.6600 6.3772 -5.3582
# 5 -11.0103 -0.0609 -30.3978 6.3772 30.4208 13.1165
# 6 -17.1322 3.5407 -1.8944 -5.3582 13.1165 22.1984
#
#
#
# Elastic Compliance Matrix: (Units=1/GPa)
#
#
# Indices 1 2 3 4 5 6 
#
# 1 0.041456 0.023972 -0.039204 0.002985 -0.047988 0.053901
# 2 0.023972 0.119768 -0.066390 0.017402 -0.080754 0.045648
# 3 -0.039204 -0.066390 0.076391 0.002667 0.089694 -0.065502
# 4 0.002985 0.017402 0.002667 0.047214 -0.014661 0.019815
# 5 -0.047988 -0.080754 0.089694 -0.014661 0.156571 -0.112554
# 6 0.053901 0.045648 -0.065502 0.019815 -0.112554 0.145065
#
#
# Mechanical properties :
#
#
# Convention : Reuss Voigt Hill
#
# Bulk Modulus (GPa) = 13.44630 37.81534 25.63082
# Shear Modulus (GPa) = 6.45579 23.83983 15.14781
#
# Velocity S-wave (km/s) = 1.80549 3.46953 2.76563
# Velocity P-wave (km/s) = 3.33705 5.92829 4.81043
#
# Compressibility (1/GPa) = 0.07436988
#
# Stress axis : x y z
#
# Youngs Moduli (GPa) = 24.12222 8.34949 13.09058
#
# Poissons Ratio (x) = -0.20015 0.51320
# Poissons Ratio (y) = -0.57826 0.86909
# Poissons Ratio (z) = 0.94568 0.55433
#
# Static dielectric constant tensor:
#      x y z
#    x 1.709200 0.030700 -0.004200 
#    y 0.030700 1.707730 -0.004140 
#    z -0.004200 -0.004140 1.653380 
# 
# From -- ./inp_files/43045.got.cif
#   From: 2010.05.17/outbox.cif.g08.bks.cpg/sg2_22_cif.got.tgz:43045.got - 2010.06.03 11:33:40.
