data_PCOD9023423
_publ_section_title
;
Structure prediction by ZEFSAII (Michael W. Deem and Ramdas Pophale) SiO2 
 PCOD9023423
Probable space group: P -1
;
_chemical_formula_sum "Si O2"
_cell_formula_units_Z 12
_cell_length_a 6.090951
_cell_length_b 9.169503
_cell_length_c 11.727739
_cell_angle_alpha 88.052165
_cell_angle_beta 56.350661
_cell_angle_gamma 71.949730
_cell_volume 510.514775
_symmetry_space_group_name_H-M "P -1"
_symmetry_group_IT_number 2
_symmetry_cell_setting 'triclinic'
loop_
_space_group_symop_operation_xyz
x,y,z
-x,-y,-z
loop_
_atom_site_type_symbol
_atom_site_label
_atom_site_fract_x
_atom_site_fract_y
_atom_site_fract_z
Si Si1 0.298197 0.163224 0.185359
Si Si2 0.395098 0.461664 0.691737
Si Si3 0.169088 0.117933 0.963665
Si Si4 0.336803 0.613088 0.944368
Si Si5 0.779951 0.616233 0.473878
Si Si6 0.967993 0.177746 0.500998
O O1 0.479993 0.276309 0.136428
O O2 0.062133 0.208062 0.347318
O O3 0.510986 0.986484 0.154881
O O4 0.180754 0.164335 0.091609
O O5 0.323953 0.514261 0.839153
O O6 0.496796 0.594169 0.599887
O O7 0.171763 0.437751 0.668953
O O8 0.659048 0.298631 0.615929
O O9 0.982820 0.270501 0.944565
O O10 0.000000 0.000000 0.000000
O O11 0.500000 0.500000 0.000000
O O12 0.815424 0.780282 0.478511
O O13 0.000000 0.500000 0.500000
O O14 0.000000 0.000000 0.500000
#
# Coordination Sequence:
#
# PCOD9023423 Si02
#       6
#     2   2   2   2   2   2
#     4  10  22  44  66  94 136 179 224 277 342 400
#     4  10  22  39  69 100 128 170 223 277 344 390
#     4   9  22  41  68  93 129 181 224 273 338 403
#     4  11  24  42  69 100 132 177 230 281 335 403
#     4   9  20  40  65  95 127 168 217 276 333 394
#     4  11  24  40  66 100 135 174 219 276 338 413
#
# _framework density 23.505687000000002
#
# number of rings (size 3 to 8) (size 9 to 14) (size 15 to 20)
#    0.000    2.000    1.667    0.000    7.000    5.333 
#    0.000    5.000    0.000    0.000    0.000    0.000 
#    0.000    0.000    0.000    0.000    0.000    0.000 
#
# Total GULP energy -67099.439652 kJ/mol
# GULP energy per Si atom -5591.619971 kJ/mol
# Density = 2.345219 g / cm^3
# Si number density = 23.505687 Si / 1000 Ang^3
#
#
#
# Elastic Constant Matrix: (Units=GPa)
#
#
# Indices 1 2 3 4 5 6 
#
# 1 134.4834 67.3482 33.7955 12.1207 34.9144 3.7000
# 2 67.3482 166.0460 45.4945 16.2019 4.4013 -5.8568
# 3 33.7955 45.4945 71.9459 17.0023 21.3378 -12.3817
# 4 12.1207 16.2019 17.0023 32.0739 2.1871 -4.3948
# 5 34.9144 4.4013 21.3378 2.1871 42.5070 14.3423
# 6 3.7000 -5.8568 -12.3817 -4.3948 14.3423 63.8692
#
#
#
# Elastic Compliance Matrix: (Units=1/GPa)
#
#
# Indices 1 2 3 4 5 6 
#
# 1 0.012489 -0.004827 0.000998 -0.001914 -0.010591 0.001274
# 2 -0.004827 0.009362 -0.005649 -0.000537 0.006337 -0.001417
# 3 0.000998 -0.005649 0.024462 -0.008579 -0.014368 0.006803
# 4 -0.001914 -0.000537 -0.008579 0.036442 0.004061 -0.000006
# 5 -0.010591 0.006337 -0.014368 0.004061 0.042213 -0.010791
# 6 0.001274 -0.001417 0.006803 -0.000006 -0.010791 0.019195
#
#
# Mechanical properties :
#
#
# Convention : Reuss Voigt Hill
#
# Bulk Modulus (GPa) = 36.55200 73.97240 55.26220
# Shear Modulus (GPa) = 29.02928 42.74584 35.88756
#
# Velocity S-wave (km/s) = 3.51805 4.26905 3.91162
# Velocity P-wave (km/s) = 5.66448 7.47249 6.63040
#
# Compressibility (1/GPa) = 0.02735828
#
# Stress axis : x y z
#
# Youngs Moduli (GPa) = 80.06849 106.80986 40.87917
#
# Poissons Ratio (x) = 0.51554 -0.04080
# Poissons Ratio (y) = 0.38647 0.23094
# Poissons Ratio (z) = -0.07992 0.60340
#
# Static dielectric constant tensor:
#      x y z
#    x 1.930110 -0.005990 -0.033170 
#    y -0.005990 1.944380 -0.001060 
#    z -0.033170 -0.001060 1.885470 
# 
# From -- ./inp_files/36868.got.cif
#   From: 2010.05.17/outbox.cif.g08.bks.cpg/sg2_19_cif.got.tgz:36868.got - 2010.06.03 11:33:40.
