data_PCOD9023604
_publ_section_title
;
Structure prediction by ZEFSAII (Michael W. Deem and Ramdas Pophale) SiO2 
 PCOD9023604
Probable space group: P -1
;
_chemical_formula_sum "Si O2"
_cell_formula_units_Z 16
_cell_length_a 8.690502
_cell_length_b 14.225568
_cell_length_c 9.541057
_cell_angle_alpha 143.229577
_cell_angle_beta 96.791881
_cell_angle_gamma 74.220822
_cell_volume 669.248523
_symmetry_space_group_name_H-M "P -1"
_symmetry_group_IT_number 2
_symmetry_cell_setting 'triclinic'
loop_
_space_group_symop_operation_xyz
x,y,z
-x,-y,-z
loop_
_atom_site_type_symbol
_atom_site_label
_atom_site_fract_x
_atom_site_fract_y
_atom_site_fract_z
Si Si1 0.686902 0.484972 0.985243
Si Si2 0.502866 0.875866 0.724062
Si Si3 0.265380 0.087254 0.772729
Si Si4 0.443524 0.310008 0.227758
Si Si5 0.070902 0.690178 0.427417
Si Si6 0.227551 0.665244 0.678331
Si Si7 0.054043 0.623858 0.883048
Si Si8 0.266822 0.159693 0.556815
O O1 0.790088 0.404279 0.035455
O O2 0.710301 0.665221 0.186232
O O3 0.500000 0.500000 0.000000
O O4 0.777085 0.377543 0.737914
O O5 0.560129 0.712191 0.628388
O O6 0.626850 0.883972 0.624401
O O7 0.330371 0.927377 0.687206
O O8 0.500000 0.000000 0.000000
O O9 0.308590 0.049599 0.569338
O O10 0.361634 0.202403 0.995247
O O11 0.080773 0.202264 0.895252
O O12 0.338782 0.497150 0.418133
O O13 0.634243 0.265041 0.159884
O O14 0.117861 0.766809 0.664768
O O15 0.014175 0.529829 0.274903
O O16 0.919455 0.807980 0.468954
O O17 0.112442 0.624595 0.732179
#
# Coordination Sequence:
#
# PCOD9023604 Si02
#       8
#     2   2   2   2   2   2   2   2
#     4  11  23  36  62  96 134 154 190 259 321 374
#     4  10  24  40  65  86 121 168 218 249 292 359
#     4  11  21  41  63  84 124 161 216 249 287 374
#     4  10  22  40  57  92 123 161 207 252 312 361
#     4  11  21  38  60  96 127 155 201 255 310 377
#     4  11  23  34  63  90 128 156 197 262 319 361
#     4  11  21  36  58  92 121 166 202 248 309 362
#     4  11  21  40  65  90 120 162 209 252 308 360
#
# _framework density 23.907411
#
# number of rings (size 3 to 8) (size 9 to 14) (size 15 to 20)
#    0.000    1.250    3.750    3.000   10.500    0.000 
#    0.000    0.625    0.000    1.500    0.000    0.000 
#    0.000    0.000    0.000    0.000    0.000    0.000 
#
# Total GULP energy -89462.392370 kJ/mol
# GULP energy per Si atom -5591.399523 kJ/mol
# Density = 2.385300 g / cm^3
# Si number density = 23.907411 Si / 1000 Ang^3
#
#
#
# Elastic Constant Matrix: (Units=GPa)
#
#
# Indices 1 2 3 4 5 6 
#
# 1 119.9612 36.7315 21.4319 -15.4857 -9.2469 -22.2551
# 2 36.7315 126.8838 24.1862 -44.0419 1.2672 -27.8288
# 3 21.4319 24.1862 64.4641 -20.4470 -11.1677 7.8517
# 4 -15.4857 -44.0419 -20.4470 39.5554 3.6017 -2.5226
# 5 -9.2469 1.2672 -11.1677 3.6017 30.8921 -3.3381
# 6 -22.2551 -27.8288 7.8517 -2.5226 -3.3381 39.3957
#
#
#
# Elastic Compliance Matrix: (Units=1/GPa)
#
#
# Indices 1 2 3 4 5 6 
#
# 1 0.010769 -0.000026 -0.003104 0.002803 0.002541 0.007079
# 2 -0.000026 0.019020 -0.002778 0.020931 -0.002601 0.015094
# 3 -0.003104 -0.002778 0.021201 0.005704 0.005415 -0.007117
# 4 0.002803 0.020931 0.005704 0.054017 -0.002256 0.018500
# 5 0.002541 -0.002601 0.005415 -0.002256 0.035609 0.001391
# 6 0.007079 0.015094 -0.007117 0.018500 0.001391 0.042766
#
#
# Mechanical properties :
#
#
# Convention : Reuss Voigt Hill
#
# Bulk Modulus (GPa) = 25.52611 52.88980 39.20796
# Shear Modulus (GPa) = 24.00908 37.23262 30.62085
#
# Velocity S-wave (km/s) = 3.17243 3.95063 3.58272
# Velocity P-wave (km/s) = 4.91115 6.55597 5.79224
#
# Compressibility (1/GPa) = 0.03917558
#
# Stress axis : x y z
#
# Youngs Moduli (GPa) = 92.85573 52.57679 47.16801
#
# Poissons Ratio (x) = 0.00136 0.14639
# Poissons Ratio (y) = 0.00240 0.13102
# Poissons Ratio (z) = 0.28819 0.14604
#
# Static dielectric constant tensor:
#      x y z
#    x 1.953840 0.034380 0.028580 
#    y 0.034380 1.992040 0.050680 
#    z 0.028580 0.050680 1.912060 
# 
# From -- ./inp_files/175180.got.cif
#   From: 2010.05.17/outbox.cif.g08.bks.cpg/sg2_88_cif.got.tgz:175180.got - 2010.06.03 11:33:40.
