data_PCOD9023442
_publ_section_title
;
Structure prediction by ZEFSAII (Michael W. Deem and Ramdas Pophale) SiO2 
 PCOD9023442
Probable space group: P -1
;
_chemical_formula_sum "Si O2"
_cell_formula_units_Z 16
_cell_length_a 15.416359
_cell_length_b 7.894989
_cell_length_c 7.655131
_cell_angle_alpha 96.621365
_cell_angle_beta 135.003991
_cell_angle_gamma 73.640340
_cell_volume 627.258844
_symmetry_space_group_name_H-M "P -1"
_symmetry_group_IT_number 2
_symmetry_cell_setting 'triclinic'
loop_
_space_group_symop_operation_xyz
x,y,z
-x,-y,-z
loop_
_atom_site_type_symbol
_atom_site_label
_atom_site_fract_x
_atom_site_fract_y
_atom_site_fract_z
Si Si1 0.153023 0.754715 0.090141
Si Si2 0.011405 0.893999 0.266898
Si Si3 0.989148 0.519425 0.280256
Si Si4 0.513886 0.324117 0.894434
Si Si5 0.423937 0.759189 0.404986
Si Si6 0.326338 0.162545 0.163860
Si Si7 0.247648 0.001144 0.703666
Si Si8 0.242070 0.267003 0.439184
O O1 0.080812 0.818639 0.174655
O O2 0.304915 0.717071 0.323040
O O3 0.109180 0.589387 0.933732
O O4 0.099358 0.925497 0.907846
O O5 0.967072 0.728339 0.247098
O O6 0.121204 0.938775 0.544715
O O7 0.121147 0.420887 0.354257
O O8 0.000000 0.500000 0.500000
O O9 0.736524 0.855318 0.113836
O O10 0.626445 0.163408 0.115793
O O11 0.500000 0.500000 0.000000
O O12 0.544481 0.354629 0.739952
O O13 0.378670 0.282144 0.697269
O O14 0.553743 0.758240 0.687930
O O15 0.378002 0.959634 0.283750
O O16 0.253001 0.254611 0.244407
O O17 0.230645 0.089381 0.498059
#
# Coordination Sequence:
#
# PCOD9023442 Si02
#       8
#     2   2   2   2   2   2   2   2
#     4  11  25  49  78 105 152 196 246 311 370 445
#     4  11  26  49  75 113 144 200 250 301 381 440
#     4  12  29  48  72 109 152 195 253 308 367 447
#     4  10  22  39  69 102 146 190 236 311 367 436
#     4   9  20  40  72 104 140 190 243 296 372 440
#     4   9  21  41  73 108 141 188 244 305 364 441
#     4  11  22  44  77 107 140 195 248 302 369 450
#     4  11  23  46  69 108 145 191 248 301 373 440
#
# _framework density 25.507812000000001
#
# number of rings (size 3 to 8) (size 9 to 14) (size 15 to 20)
#    0.000    1.500    1.250    3.000    7.000    3.500 
#    2.250    0.000    0.000    6.750    0.000    0.000 
#    0.000    0.000    0.000    0.000    0.000    0.000 
#
# Total GULP energy -89727.959611 kJ/mol
# GULP energy per Si atom -5607.997476 kJ/mol
# Density = 2.544976 g / cm^3
# Si number density = 25.507812 Si / 1000 Ang^3
#
#
#
# Elastic Constant Matrix: (Units=GPa)
#
#
# Indices 1 2 3 4 5 6 
#
# 1 129.7496 60.0208 59.6845 8.3685 17.3706 0.4828
# 2 60.0208 160.2904 79.8851 5.3067 5.6368 8.5852
# 3 59.6845 79.8851 141.7076 18.3835 21.9179 7.8156
# 4 8.3685 5.3067 18.3835 38.6316 -1.4021 -4.8470
# 5 17.3706 5.6368 21.9179 -1.4021 43.9889 4.5489
# 6 0.4828 8.5852 7.8156 -4.8470 4.5489 47.6653
#
#
#
# Elastic Compliance Matrix: (Units=1/GPa)
#
#
# Indices 1 2 3 4 5 6 
#
# 1 0.010457 -0.002615 -0.002477 -0.000705 -0.002681 0.000955
# 2 -0.002615 0.009511 -0.004761 0.001487 0.002334 -0.000978
# 3 -0.002477 -0.004761 0.012186 -0.004921 -0.004518 -0.001185
# 4 -0.000705 0.001487 -0.004921 0.028686 0.003127 0.003165
# 5 -0.002681 0.002334 -0.004518 0.003127 0.026032 -0.001819
# 6 0.000955 -0.000978 -0.001185 0.003165 -0.001819 0.021836
#
#
# Mechanical properties :
#
#
# Convention : Reuss Voigt Hill
#
# Bulk Modulus (GPa) = 80.31975 92.32540 86.32257
# Shear Modulus (GPa) = 37.71797 41.53432 39.62614
#
# Velocity S-wave (km/s) = 3.84954 4.03960 3.94571
# Velocity P-wave (km/s) = 7.16346 7.61783 7.39414
#
# Compressibility (1/GPa) = 0.01245024
#
# Stress axis : x y z
#
# Youngs Moduli (GPa) = 95.63063 105.13665 82.05952
#
# Poissons Ratio (x) = 0.27491 0.20324
# Poissons Ratio (y) = 0.25005 0.39066
# Poissons Ratio (z) = 0.23685 0.50052
#
# Static dielectric constant tensor:
#      x y z
#    x 2.081070 -0.033620 0.065260 
#    y -0.033620 2.013710 -0.033450 
#    z 0.065260 -0.033450 2.066170 
# 
# From -- ./inp_files/292645.got.cif
#   From: 2010.05.17/outbox.cif.g08.bks.cpg/sg2_147_cif.got.tgz:292645.got - 2010.06.03 11:33:40.
