data_PCOD9023582
_publ_section_title
;
Structure prediction by ZEFSAII (Michael W. Deem and Ramdas Pophale) SiO2 
 PCOD9023582
Probable space group: P -1
;
_chemical_formula_sum "Si O2"
_cell_formula_units_Z 16
_cell_length_a 10.831666
_cell_length_b 9.241634
_cell_length_c 13.421355
_cell_angle_alpha 76.542149
_cell_angle_beta 132.984980
_cell_angle_gamma 128.602403
_cell_volume 723.140500
_symmetry_space_group_name_H-M "P -1"
_symmetry_group_IT_number 2
_symmetry_cell_setting 'triclinic'
loop_
_space_group_symop_operation_xyz
x,y,z
-x,-y,-z
loop_
_atom_site_type_symbol
_atom_site_label
_atom_site_fract_x
_atom_site_fract_y
_atom_site_fract_z
Si Si1 0.256286 0.136114 0.657393
Si Si2 0.140505 0.204806 0.778114
Si Si3 0.206548 0.245249 0.326017
Si Si4 0.314477 0.466771 0.532801
Si Si5 0.689860 0.411338 0.286869
Si Si6 0.522902 0.033694 0.131039
Si Si7 0.805788 0.779814 0.969917
Si Si8 0.978907 0.311206 0.020521
O O1 0.281617 0.199914 0.774971
O O2 0.372884 0.335844 0.629812
O O3 0.353450 0.029374 0.732325
O O4 0.000000 0.000000 0.500000
O O5 0.158666 0.383327 0.722471
O O6 0.233996 0.233797 0.933086
O O7 0.910558 0.981344 0.688164
O O8 0.152042 0.321544 0.377463
O O9 0.463955 0.354831 0.430830
O O10 0.119499 0.292116 0.178553
O O11 0.222305 0.523577 0.559182
O O12 0.644256 0.248060 0.212795
O O13 0.437334 0.323363 0.188497
O O14 0.500000 0.000000 0.000000
O O15 0.271941 0.881963 0.060840
O O16 0.913781 0.682412 0.024402
O O17 0.000000 0.000000 0.000000
O O18 0.000000 0.500000 0.000000
#
# Coordination Sequence:
#
# PCOD9023582 Si02
#       8
#     2   2   2   2   2   2   2   2
#     4  11  23  45  69  97 135 184 228 270 345 420
#     4  11  23  39  70  96 132 181 230 275 336 416
#     4  11  20  42  68 100 131 180 229 277 336 409
#     4  10  22  39  74  95 131 181 233 266 340 419
#     4  11  23  41  66 103 134 180 225 287 338 407
#     4  12  27  44  67 103 143 176 225 290 343 402
#     4  12  21  41  65  95 137 180 226 277 348 402
#     4  12  26  41  67 100 140 175 227 287 342 405
#
# _framework density 22.125713999999999
#
# number of rings (size 3 to 8) (size 9 to 14) (size 15 to 20)
#    0.000    0.750    5.000    2.625    3.500    0.000 
#    0.000    3.750    0.000    3.000    0.000    0.000 
#    0.000    0.000    0.000    0.000    0.000    0.000 
#
# Total GULP energy -89108.450245 kJ/mol
# GULP energy per Si atom -5569.278140 kJ/mol
# Density = 2.207535 g / cm^3
# Si number density = 22.125714 Si / 1000 Ang^3
#
#
#
# Elastic Constant Matrix: (Units=GPa)
#
#
# Indices 1 2 3 4 5 6 
#
# 1 54.3449 21.9347 16.9917 -3.5033 -18.1802 -14.1839
# 2 21.9347 130.6125 3.7064 21.3181 -4.9448 -12.0794
# 3 16.9917 3.7064 57.3400 4.6161 -15.1055 -6.5264
# 4 -3.5033 21.3181 4.6161 26.8280 -3.3058 -6.4948
# 5 -18.1802 -4.9448 -15.1055 -3.3058 41.5486 3.4466
# 6 -14.1839 -12.0794 -6.5264 -6.4948 3.4466 44.1119
#
#
#
# Elastic Compliance Matrix: (Units=1/GPa)
#
#
# Indices 1 2 3 4 5 6 
#
# 1 0.028610 -0.005533 -0.005531 0.012244 0.010171 0.007874
# 2 -0.005533 0.009965 0.001331 -0.009069 -0.001467 -0.000074
# 3 -0.005531 0.001331 0.020709 -0.004601 0.004852 0.000593
# 4 0.012244 -0.009069 -0.004601 0.049437 0.005909 0.007590
# 5 0.010171 -0.001467 0.004852 0.005909 0.030405 0.002081
# 6 0.007874 -0.000074 0.000593 0.007590 0.002081 0.026224
#
#
# Mechanical properties :
#
#
# Convention : Reuss Voigt Hill
#
# Bulk Modulus (GPa) = 25.11364 36.39589 30.75477
# Shear Modulus (GPa) = 25.24115 35.80868 30.52492
#
# Velocity S-wave (km/s) = 3.38125 4.02732 3.71834
# Velocity P-wave (km/s) = 5.15935 6.17342 5.68902
#
# Compressibility (1/GPa) = 0.03981900
#
# Stress axis : x y z
#
# Youngs Moduli (GPa) = 34.95266 100.34638 48.28850
#
# Poissons Ratio (x) = 0.55520 0.26706
# Poissons Ratio (y) = 0.19339 -0.06426
# Poissons Ratio (z) = 0.19331 -0.13353
#
# Static dielectric constant tensor:
#      x y z
#    x 1.938830 0.192700 0.050640 
#    y 0.192700 2.822330 0.463410 
#    z 0.050640 0.463410 2.137050 
# 
# From -- ./inp_files/515543.got.cif
#   From: 2010.05.17/outbox.cif.g08.bks.cpg/sg2_258_cif.got.tgz:515543.got - 2010.06.03 11:33:40.
