data_PCOD9023011
_publ_section_title
;
Structure prediction by ZEFSAII (Michael W. Deem and Ramdas Pophale) SiO2 
 PCOD9023011
Probable space group: P -1
;
_chemical_formula_sum "Si O2"
_cell_formula_units_Z 16
_cell_length_a 9.909870
_cell_length_b 18.828893
_cell_length_c 11.793634
_cell_angle_alpha 126.504732
_cell_angle_beta 94.977603
_cell_angle_gamma 40.011962
_cell_volume 796.564128
_symmetry_space_group_name_H-M "P -1"
_symmetry_group_IT_number 2
_symmetry_cell_setting 'triclinic'
loop_
_space_group_symop_operation_xyz
x,y,z
-x,-y,-z
loop_
_atom_site_type_symbol
_atom_site_label
_atom_site_fract_x
_atom_site_fract_y
_atom_site_fract_z
Si Si1 0.137149 0.832755 0.399122
Si Si2 0.873035 0.912733 0.659347
Si Si3 0.941855 0.778361 0.240074
Si Si4 0.542117 0.462841 0.332274
Si Si5 0.206843 0.538425 0.807066
Si Si6 0.717277 0.825004 0.501895
Si Si7 0.715808 0.161298 0.050364
Si Si8 0.055047 0.481484 0.352678
O O1 0.444136 0.678930 0.339207
O O2 0.869680 0.952273 0.571790
O O3 0.170767 0.727466 0.222188
O O4 0.000000 0.000000 0.500000
O O5 0.673937 0.941836 0.680029
O O6 0.208490 0.679428 0.473027
O O7 0.812666 0.032261 0.843697
O O8 0.899180 0.745845 0.323327
O O9 0.614210 0.008021 0.403005
O O10 0.050093 0.658724 0.026775
O O11 0.500000 0.500000 0.500000
O O12 0.768278 0.399420 0.228188
O O13 0.639331 0.307795 0.156944
O O14 0.044604 0.549029 0.749670
O O15 0.880544 0.660708 0.440514
O O16 0.404549 0.302917 0.206158
O O17 0.000000 0.000000 0.000000
O O18 0.000000 0.500000 0.500000
#
# Coordination Sequence:
#
# PCOD9023011 Si02
#       8
#     2   2   2   2   2   2   2   2
#     4  10  22  39  65  96 137 174 219 297 345 406
#     4  10  22  40  65  95 130 179 231 265 348 410
#     4  10  22  42  68  99 132 180 237 284 359 407
#     4  11  22  43  65  94 141 180 221 293 339 407
#     4  11  25  41  68 104 135 178 240 288 349 421
#     4  10  22  44  68  93 144 181 218 302 352 411
#     4  12  25  41  71  97 129 192 235 271 345 429
#     4  12  27  44  68 102 145 186 232 292 353 414
#
# _framework density 20.086268
#
# number of rings (size 3 to 8) (size 9 to 14) (size 15 to 20)
#    0.000    1.250    2.500    2.625    3.500    2.500 
#    0.000    1.875    0.000    0.000    0.000    0.000 
#    0.000    0.000    0.000    0.000    0.000    0.000 
#
# Total GULP energy -89129.395626 kJ/mol
# GULP energy per Si atom -5570.587227 kJ/mol
# Density = 2.004055 g / cm^3
# Si number density = 20.086268 Si / 1000 Ang^3
#
#
#
# Elastic Constant Matrix: (Units=GPa)
#
#
# Indices 1 2 3 4 5 6 
#
# 1 156.6586 66.6291 58.5429 0.3333 25.3136 -2.3335
# 2 66.6291 118.5972 55.0594 -4.4628 8.5494 2.7247
# 3 58.5429 55.0594 102.4883 -6.1105 26.5902 9.3427
# 4 0.3333 -4.4628 -6.1105 35.2436 -13.0441 2.5630
# 5 25.3136 8.5494 26.5902 -13.0441 32.5275 2.2630
# 6 -2.3335 2.7247 9.3427 2.5630 2.2630 40.0698
#
#
#
# Elastic Compliance Matrix: (Units=1/GPa)
#
#
# Indices 1 2 3 4 5 6 
#
# 1 0.010162 -0.004438 -0.002102 -0.003614 -0.006611 0.001988
# 2 -0.004438 0.013411 -0.006043 0.002963 0.006078 -0.000294
# 3 -0.002102 -0.006043 0.017343 -0.001758 -0.011450 -0.002996
# 4 -0.003614 0.002963 -0.001758 0.035329 0.017866 -0.003271
# 5 -0.006611 0.006078 -0.011450 0.017866 0.050965 -0.002150
# 6 0.001988 -0.000294 -0.002996 -0.003271 -0.002150 0.026121
#
#
# Mechanical properties :
#
#
# Convention : Reuss Voigt Hill
#
# Bulk Modulus (GPa) = 63.49125 82.02299 72.75712
# Shear Modulus (GPa) = 27.21125 34.73570 30.97347
#
# Velocity S-wave (km/s) = 3.68464 4.16303 3.93112
# Velocity P-wave (km/s) = 7.05550 8.00198 7.54360
#
# Compressibility (1/GPa) = 0.01575020
#
# Stress axis : x y z
#
# Youngs Moduli (GPa) = 98.40551 74.56552 57.65994
#
# Poissons Ratio (x) = 0.33096 0.12118
# Poissons Ratio (y) = 0.43677 0.34843
# Poissons Ratio (z) = 0.20682 0.45058
#
# Static dielectric constant tensor:
#      x y z
#    x 2.605900 0.214110 0.615980 
#    y 0.214110 1.819580 0.086440 
#    z 0.615980 0.086440 2.233040 
# 
# From -- ./inp_files/403259.got.cif
#   From: 2010.05.17/outbox.cif.g08.bks.cpg/sg2_202_cif.got.tgz:403259.got - 2010.06.03 11:33:40.
