data_PCOD9023177
_publ_section_title
;
Structure prediction by ZEFSAII (Michael W. Deem and Ramdas Pophale) SiO2 
 PCOD9023177
Probable space group: P -1
;
_chemical_formula_sum "Si O2"
_cell_formula_units_Z 15
_cell_length_a 5.304944
_cell_length_b 12.551072
_cell_length_c 16.916314
_cell_angle_alpha 142.200084
_cell_angle_beta 82.794350
_cell_angle_gamma 113.875128
_cell_volume 592.082424
_symmetry_space_group_name_H-M "P -1"
_symmetry_group_IT_number 2
_symmetry_cell_setting 'triclinic'
loop_
_space_group_symop_operation_xyz
x,y,z
-x,-y,-z
loop_
_atom_site_type_symbol
_atom_site_label
_atom_site_fract_x
_atom_site_fract_y
_atom_site_fract_z
Si Si1 0.389246 0.622369 0.625093
Si Si2 0.600918 0.139831 0.000770
Si Si3 0.427667 0.688065 0.272891
Si Si4 0.416593 0.513920 0.724414
Si Si5 0.823476 0.224888 0.405821
Si Si6 0.500000 0.500000 0.000000
Si Si7 0.106443 0.088766 0.869458
Si Si8 0.145731 0.884726 0.496927
O O1 0.500000 0.500000 0.500000
O O2 0.537632 0.650950 0.721697
O O3 0.387163 0.783089 0.660417
O O4 0.040064 0.460213 0.556168
O O5 0.311864 0.087396 0.930943
O O6 0.842356 0.112116 0.928344
O O7 0.723182 0.372363 0.156139
O O8 0.500000 0.000000 0.000000
O O9 0.386288 0.522720 0.242914
O O10 0.244835 0.793710 0.368436
O O11 0.760760 0.883935 0.381178
O O12 0.393016 0.594449 0.133624
O O13 0.186671 0.287242 0.572892
O O14 0.685637 0.119557 0.432110
O O15 0.981711 0.110118 0.295373
O O16 0.308961 0.277110 0.916267
#
# Coordination Sequence:
#
# PCOD9023177 Si02
#       8
#     2   2   2   2   2   1   2   2
#     4  10  22  39  66  97 132 179 234 304 360 431
#     4  12  28  49  75 108 151 199 251 307 375 450
#     4  11  22  43  67  98 137 187 239 303 370 439
#     4  11  23  41  66  97 136 182 242 297 367 437
#     4  10  22  41  65 100 138 183 240 299 368 434
#     4  12  24  48  72 106 152 198 252 312 374 448
#     4  12  27  49  74 110 149 197 250 307 374 449
#     4  10  22  42  67  99 138 181 239 300 370 442
#
# _framework density 25.334312000000001
#
# number of rings (size 3 to 8) (size 9 to 14) (size 15 to 20)
#    0.000    1.067    2.667    3.200    3.733    0.533 
#    2.400    0.000    0.000    0.000    0.000    0.000 
#    0.000    0.000    0.000    0.000    0.000    0.000 
#
# Total GULP energy -83568.819273 kJ/mol
# GULP energy per Si atom -5571.254618 kJ/mol
# Density = 2.527665 g / cm^3
# Si number density = 25.334312 Si / 1000 Ang^3
#
#
#
# Elastic Constant Matrix: (Units=GPa)
#
#
# Indices 1 2 3 4 5 6 
#
# 1 92.0303 29.6442 23.2479 -7.7083 -18.0379 -16.1454
# 2 29.6442 132.5195 26.7585 -17.4473 3.5323 -22.1974
# 3 23.2479 26.7585 136.8761 -1.6107 -28.1967 -8.4797
# 4 -7.7083 -17.4473 -1.6107 53.7127 11.1035 -5.9498
# 5 -18.0379 3.5323 -28.1967 11.1035 43.9997 7.7131
# 6 -16.1454 -22.1974 -8.4797 -5.9498 7.7131 19.5620
#
#
#
# Elastic Compliance Matrix: (Units=1/GPa)
#
#
# Indices 1 2 3 4 5 6 
#
# 1 0.013840 -0.001258 -0.000876 0.001886 0.003171 0.008939
# 2 -0.001258 0.012507 -0.002756 0.007433 -0.008223 0.017462
# 3 -0.000876 -0.002756 0.009194 -0.002569 0.007000 -0.003406
# 4 0.001886 0.007433 -0.002569 0.026042 -0.011802 0.021452
# 5 0.003171 -0.008223 0.007000 -0.011802 0.035908 -0.021427
# 6 0.008939 0.017462 -0.003406 0.021452 -0.021427 0.091808
#
#
# Mechanical properties :
#
#
# Convention : Reuss Voigt Hill
#
# Bulk Modulus (GPa) = 38.81740 57.85856 48.33798
# Shear Modulus (GPa) = 24.07730 42.23992 33.15861
#
# Velocity S-wave (km/s) = 3.08617 4.08769 3.62172
# Velocity P-wave (km/s) = 5.29666 6.72061 6.05067
#
# Compressibility (1/GPa) = 0.02576164
#
# Stress axis : x y z
#
# Youngs Moduli (GPa) = 72.25392 79.95740 108.76572
#
# Poissons Ratio (x) = 0.10059 0.09523
# Poissons Ratio (y) = 0.09090 0.29975
# Poissons Ratio (z) = 0.06326 0.22036
#
# Static dielectric constant tensor:
#      x y z
#    x 2.100260 0.014550 0.113470 
#    y 0.014550 2.029590 0.015360 
#    z 0.113470 0.015360 2.030980 
# 
# From -- ./inp_files/134276.got.cif
#   From: 2010.05.17/outbox.cif.g08.bks.cpg/sg2_68_cif.got.tgz:134276.got - 2010.06.03 11:33:40.
