data_PCOD9023162
_publ_section_title
;
Structure prediction by ZEFSAII (Michael W. Deem and Ramdas Pophale) SiO2 
 PCOD9023162
Probable space group: P -1
;
_chemical_formula_sum "Si O2"
_cell_formula_units_Z 14
_cell_length_a 8.615310
_cell_length_b 5.031068
_cell_length_c 18.632014
_cell_angle_alpha 60.795660
_cell_angle_beta 117.573931
_cell_angle_gamma 85.008149
_cell_volume 571.498563
_symmetry_space_group_name_H-M "P -1"
_symmetry_group_IT_number 2
_symmetry_cell_setting 'triclinic'
loop_
_space_group_symop_operation_xyz
x,y,z
-x,-y,-z
loop_
_atom_site_type_symbol
_atom_site_label
_atom_site_fract_x
_atom_site_fract_y
_atom_site_fract_z
Si Si1 0.976535 0.241777 0.749775
Si Si2 0.303246 0.709541 0.829924
Si Si3 0.366773 0.202135 0.035361
Si Si4 0.761646 0.298221 0.485263
Si Si5 0.170997 0.690151 0.661694
Si Si6 0.619392 0.700872 0.532698
Si Si7 0.133655 0.856787 0.979879
O O1 0.090039 0.444192 0.714062
O O2 0.034886 0.112136 0.859808
O O3 0.756541 0.464644 0.655868
O O4 0.073949 0.902566 0.769985
O O5 0.433927 0.875516 0.873103
O O6 0.320756 0.711152 0.748723
O O7 0.356908 0.387206 0.933619
O O8 0.320817 0.893493 0.045578
O O9 0.204691 0.483019 0.013386
O O10 0.735570 0.416674 0.382023
O O11 0.750569 0.589349 0.500038
O O12 0.619622 0.082177 0.494227
O O13 0.978900 0.027430 0.571713
O O14 0.500000 0.500000 0.500000
O O15 0.000000 0.000000 0.000000
#
# Coordination Sequence:
#
# PCOD9023162 Si02
#       7
#     2   2   2   2   2   2   2
#     4  11  23  39  68  91 133 180 223 279 352 405
#     4  10  22  39  66  96 131 171 231 280 345 403
#     4  10  23  41  69  97 135 176 228 289 341 407
#     4  10  24  39  64  93 135 173 227 285 339 400
#     4  11  21  41  65  98 130 174 233 284 336 411
#     4  11  22  42  61  94 133 181 218 280 342 415
#     4  11  24  44  67 100 139 180 225 285 350 420
#
# _framework density 24.497001999999998
#
# number of rings (size 3 to 8) (size 9 to 14) (size 15 to 20)
#    0.000    1.429    4.286    0.429    2.000    4.571 
#    0.000    0.000    0.000    0.000    0.000    0.000 
#    0.000    0.000    0.000    0.000    0.000    0.000 
#
# Total GULP energy -78042.484748 kJ/mol
# GULP energy per Si atom -5574.463196 kJ/mol
# Density = 2.444125 g / cm^3
# Si number density = 24.497002 Si / 1000 Ang^3
#
#
#
# Elastic Constant Matrix: (Units=GPa)
#
#
# Indices 1 2 3 4 5 6 
#
# 1 62.6520 33.6690 18.4947 4.6048 -1.3841 -16.4802
# 2 33.6690 164.6148 42.0244 12.0639 -6.9957 -31.2032
# 3 18.4947 42.0244 155.8472 17.5444 3.8247 -10.8789
# 4 4.6048 12.0639 17.5444 40.5770 -16.3744 4.1099
# 5 -1.3841 -6.9957 3.8247 -16.3744 47.4954 10.2050
# 6 -16.4802 -31.2032 -10.8789 4.1099 10.2050 37.5214
#
#
#
# Elastic Compliance Matrix: (Units=1/GPa)
#
#
# Indices 1 2 3 4 5 6 
#
# 1 0.019523 -0.002275 -0.000812 -0.002851 -0.002269 0.007377
# 2 -0.002275 0.008126 -0.001184 -0.002640 -0.000967 0.005967
# 3 -0.000812 -0.001184 0.007492 -0.004057 -0.002628 0.001991
# 4 -0.002851 -0.002640 -0.004057 0.034578 0.014426 -0.012335
# 5 -0.002269 -0.000967 -0.002628 0.014426 0.028592 -0.011919
# 6 0.007377 0.005967 0.001991 -0.012335 -0.011919 0.040024
#
#
# Mechanical properties :
#
#
# Convention : Reuss Voigt Hill
#
# Bulk Modulus (GPa) = 37.59356 63.49890 50.54623
# Shear Modulus (GPa) = 32.10398 44.38047 38.24223
#
# Velocity S-wave (km/s) = 3.62405 4.26099 3.95536
# Velocity P-wave (km/s) = 5.73508 7.08417 6.44502
#
# Compressibility (1/GPa) = 0.02660030
#
# Stress axis : x y z
#
# Youngs Moduli (GPa) = 51.22079 123.06485 133.47088
#
# Poissons Ratio (x) = 0.27998 0.10836
# Poissons Ratio (y) = 0.11653 0.15798
# Poissons Ratio (z) = 0.04158 0.14567
#
# Static dielectric constant tensor:
#      x y z
#    x 2.845410 -0.101100 0.126910 
#    y -0.101100 2.029320 -0.084650 
#    z 0.126910 -0.084650 1.892910 
# 
# From -- ./inp_files/552477.got.cif
#   From: 2010.05.17/outbox.cif.g08.bks.cpg/sg2_277_cif.got.tgz:552477.got - 2010.06.03 11:33:40.
