data_PCOD9023746
_publ_section_title
;
Structure prediction by ZEFSAII (Michael W. Deem and Ramdas Pophale) SiO2 
 PCOD9023746
Probable space group: P -1
;
_chemical_formula_sum "Si O2"
_cell_formula_units_Z 16
_cell_length_a 25.337184
_cell_length_b 5.561639
_cell_length_c 5.174725
_cell_angle_alpha 83.316339
_cell_angle_beta 121.112941
_cell_angle_gamma 96.946854
_cell_volume 618.477043
_symmetry_space_group_name_H-M "P -1"
_symmetry_group_IT_number 2
_symmetry_cell_setting 'triclinic'
loop_
_space_group_symop_operation_xyz
x,y,z
-x,-y,-z
loop_
_atom_site_type_symbol
_atom_site_label
_atom_site_fract_x
_atom_site_fract_y
_atom_site_fract_z
Si Si1 0.461221 0.746506 0.387595
Si Si2 0.080163 0.134853 0.440859
Si Si3 0.675362 0.768470 0.143186
Si Si4 0.210376 0.703162 0.285574
Si Si5 0.706748 0.299666 0.996431
Si Si6 0.814855 0.811515 0.675675
Si Si7 0.018410 0.293375 0.768469
Si Si8 0.571761 0.443305 0.171613
O O1 0.500000 0.500000 0.500000
O O2 0.415861 0.688012 0.516802
O O3 0.500000 0.000000 0.500000
O O4 0.427676 0.749096 0.031054
O O5 0.150097 0.146393 0.513730
O O6 0.064569 0.169421 0.698187
O O7 0.049469 0.315697 0.129393
O O8 0.043623 0.878296 0.318095
O O9 0.679772 0.557847 0.965039
O O10 0.740400 0.780620 0.456204
O O11 0.617732 0.670202 0.186104
O O12 0.671529 0.036191 0.990185
O O13 0.237589 0.694409 0.647070
O O14 0.170700 0.454195 0.155913
O O15 0.175065 0.946641 0.160065
O O16 0.265681 0.712471 0.218230
O O17 0.000000 0.500000 0.500000
O O18 0.500000 0.500000 0.000000
#
# Coordination Sequence:
#
# PCOD9023746 Si02
#       8
#     2   2   2   2   2   2   2   2
#     4  10  22  40  62  90 122 159 211 262 318 384
#     4  10  23  40  65  98 131 174 228 277 334 408
#     4  10  23  42  66  93 133 169 219 272 330 397
#     4  10  22  40  63  90 131 166 215 262 326 392
#     4  10  22  40  61  88 124 170 210 266 325 389
#     4  10  23  43  65 100 130 175 220 275 335 395
#     4  10  22  43  66  95 134 176 224 277 338 396
#     4  10  23  42  65  95 128 173 217 271 331 394
#
# _framework density 25.870000000000001
#
# number of rings (size 3 to 8) (size 9 to 14) (size 15 to 20)
#    0.000    2.000    0.000    1.500    1.750   12.000 
#    2.250    1.250    0.000    0.000    0.000    0.000 
#    0.000    0.000    0.000    0.000    0.000    0.000 
#
# Total GULP energy -89367.176745 kJ/mol
# GULP energy per Si atom -5585.448547 kJ/mol
# Density = 2.581112 g / cm^3
# Si number density = 25.870000 Si / 1000 Ang^3
#
#
#
# Elastic Constant Matrix: (Units=GPa)
#
#
# Indices 1 2 3 4 5 6 
#
# 1 125.3418 57.6373 9.9929 -9.8401 -13.2051 27.6305
# 2 57.6373 214.1882 19.2037 -10.5931 -1.9667 -2.4611
# 3 9.9929 19.2037 98.5690 -5.9524 -16.2178 -1.3854
# 4 -9.8401 -10.5931 -5.9524 32.4878 2.0775 -2.9937
# 5 -13.2051 -1.9667 -16.2178 2.0775 50.2868 -2.9213
# 6 27.6305 -2.4611 -1.3854 -2.9937 -2.9213 54.4922
#
#
#
# Elastic Compliance Matrix: (Units=1/GPa)
#
#
# Indices 1 2 3 4 5 6 
#
# 1 0.010886 -0.002875 -0.000137 0.001686 0.002317 -0.005436
# 2 -0.002875 0.005579 -0.000834 0.001000 -0.000748 0.001703
# 3 -0.000137 -0.000834 0.010989 0.001533 0.003446 0.000580
# 4 0.001686 0.001000 0.001533 0.032007 -0.000290 0.000972
# 5 0.002317 -0.000748 0.003446 -0.000290 0.021589 0.000021
# 6 -0.005436 0.001703 0.000580 0.000972 0.000021 0.021254
#
#
# Mechanical properties :
#
#
# Convention : Reuss Voigt Hill
#
# Bulk Modulus (GPa) = 50.60162 67.97410 59.28786
# Shear Modulus (GPa) = 42.88744 50.87102 46.87923
#
# Velocity S-wave (km/s) = 4.07603 4.43923 4.26150
# Velocity P-wave (km/s) = 6.46177 7.25314 6.86886
#
# Compressibility (1/GPa) = 0.01976221
#
# Stress axis : x y z
#
# Youngs Moduli (GPa) = 91.86233 179.23086 90.99765
#
# Poissons Ratio (x) = 0.51527 0.01247
# Poissons Ratio (y) = 0.26409 0.07592
# Poissons Ratio (z) = 0.01258 0.14953
#
# Static dielectric constant tensor:
#      x y z
#    x 2.014240 0.014440 -0.062320 
#    y 0.014440 2.007660 0.059310 
#    z -0.062320 0.059310 1.995830 
# 
# From -- ./inp_files/125787.got.cif
#   From: 2010.05.17/outbox.cif.g08.bks.cpg/sg2_63_cif.got.tgz:125787.got - 2010.06.03 11:33:40.
