data_PCOD9023640
_publ_section_title
;
Structure prediction by ZEFSAII (Michael W. Deem and Ramdas Pophale) SiO2 
 PCOD9023640
Probable space group: P -1
;
_chemical_formula_sum "Si O2"
_cell_formula_units_Z 16
_cell_length_a 31.941074
_cell_length_b 12.414649
_cell_length_c 5.364386
_cell_angle_alpha 127.031990
_cell_angle_beta 61.693962
_cell_angle_gamma 154.380742
_cell_volume 719.487281
_symmetry_space_group_name_H-M "P -1"
_symmetry_group_IT_number 2
_symmetry_cell_setting 'triclinic'
loop_
_space_group_symop_operation_xyz
x,y,z
-x,-y,-z
loop_
_atom_site_type_symbol
_atom_site_label
_atom_site_fract_x
_atom_site_fract_y
_atom_site_fract_z
Si Si1 0.760682 0.460540 0.228249
Si Si2 0.380417 0.093452 0.867370
Si Si3 0.891960 0.767345 0.772874
Si Si4 0.716961 0.880226 0.604157
Si Si5 0.421794 0.365096 0.725905
Si Si6 0.895465 0.283542 0.379963
Si Si7 0.789302 0.827796 0.679417
Si Si8 0.007800 0.788545 0.574686
O O1 0.839017 0.641854 0.484590
O O2 0.729302 0.539370 0.447828
O O3 0.673594 0.149627 0.147670
O O4 0.815232 0.569515 0.956008
O O5 0.367008 0.095499 0.614658
O O6 0.334082 0.120126 0.125047
O O7 0.499137 0.371360 0.941456
O O8 0.962274 0.812070 0.627842
O O9 0.955959 0.061922 0.051554
O O10 0.651167 0.710769 0.301689
O O11 0.730797 0.787810 0.616089
O O12 0.828366 0.189686 0.641489
O O13 0.500000 0.500000 0.500000
O O14 0.000000 0.500000 0.500000
O O15 0.923842 0.466910 0.355834
O O16 0.827692 0.997088 0.057609
O O17 0.894369 0.039247 0.564160
#
# Coordination Sequence:
#
# PCOD9023640 Si02
#       8
#     2   2   2   2   2   2   2   2
#     4  11  25  42  68  95 133 176 221 276 339 393
#     4  10  22  42  71 101 126 167 219 277 334 410
#     4  10  24  42  62  92 133 177 229 279 327 385
#     4  11  23  40  65  96 133 172 216 284 329 393
#     4   9  21  42  70 100 128 159 216 278 340 400
#     4  12  23  37  61  90 132 181 227 266 325 386
#     4  11  25  40  58  94 135 176 222 277 327 394
#     4  10  22  40  59  89 128 180 229 278 320 384
#
# _framework density 22.238057000000001
#
# number of rings (size 3 to 8) (size 9 to 14) (size 15 to 20)
#    0.000    1.500    1.250    2.625    8.750    5.500 
#    0.000    0.625    0.000   10.500    0.000    0.000 
#    0.000    0.000    0.000    0.000    0.000    0.000 
#
# Total GULP energy -89095.837822 kJ/mol
# GULP energy per Si atom -5568.489864 kJ/mol
# Density = 2.218744 g / cm^3
# Si number density = 22.238057 Si / 1000 Ang^3
#
#
#
# Elastic Constant Matrix: (Units=GPa)
#
#
# Indices 1 2 3 4 5 6 
#
# 1 152.8328 55.1437 32.0931 10.5881 0.4012 -0.1582
# 2 55.1437 107.8697 23.6474 -2.4189 -15.0424 -8.2135
# 3 32.0931 23.6474 46.3241 -6.8380 -1.8354 -2.8606
# 4 10.5881 -2.4189 -6.8380 24.4984 -3.8318 -4.0795
# 5 0.4012 -15.0424 -1.8354 -3.8318 38.8852 4.9167
# 6 -0.1582 -8.2135 -2.8606 -4.0795 4.9167 41.0966
#
#
#
# Elastic Compliance Matrix: (Units=1/GPa)
#
#
# Indices 1 2 3 4 5 6 
#
# 1 0.009835 -0.004392 -0.005803 -0.006975 -0.002556 -0.001631
# 2 -0.004392 0.013071 -0.002770 0.003564 0.005050 0.002152
# 3 -0.005803 -0.002770 0.028813 0.010846 0.001117 0.002373
# 4 -0.006975 0.003564 0.010846 0.049096 0.006094 0.005585
# 5 -0.002556 0.005050 0.001117 0.006094 0.028569 -0.001736
# 6 -0.001631 0.002152 0.002373 0.005585 -0.001736 0.025684
#
#
# Mechanical properties :
#
#
# Convention : Reuss Voigt Hill
#
# Bulk Modulus (GPa) = 38.77780 58.75500 48.76640
# Shear Modulus (GPa) = 26.37187 33.97221 30.17204
#
# Velocity S-wave (km/s) = 3.44741 3.91277 3.68744
# Velocity P-wave (km/s) = 5.77249 6.84772 6.33297
#
# Compressibility (1/GPa) = 0.02578795
#
# Stress axis : x y z
#
# Youngs Moduli (GPa) = 101.68073 76.50369 34.70630
#
# Poissons Ratio (x) = 0.33604 0.20139
# Poissons Ratio (y) = 0.44663 0.09615
# Poissons Ratio (z) = 0.59003 0.21195
#
# Static dielectric constant tensor:
#      x y z
#    x 1.907710 -0.078460 0.137730 
#    y -0.078460 1.899940 0.009770 
#    z 0.137730 0.009770 2.035170 
# 
# From -- ./inp_files/128449.got.cif
#   From: 2010.05.17/outbox.cif.g08.bks.cpg/sg2_65_cif.got.tgz:128449.got - 2010.06.03 11:33:40.
