data_PCOD9023768
_publ_section_title
;
Structure prediction by ZEFSAII (Michael W. Deem and Ramdas Pophale) SiO2 
 PCOD9023768
Probable space group: P -1
;
_chemical_formula_sum "Si O2"
_cell_formula_units_Z 13
_cell_length_a 8.428751
_cell_length_b 11.900741
_cell_length_c 15.129633
_cell_angle_alpha 150.913597
_cell_angle_beta 45.076183
_cell_angle_gamma 134.308585
_cell_volume 507.547407
_symmetry_space_group_name_H-M "P -1"
_symmetry_group_IT_number 2
_symmetry_cell_setting 'triclinic'
loop_
_space_group_symop_operation_xyz
x,y,z
-x,-y,-z
loop_
_atom_site_type_symbol
_atom_site_label
_atom_site_fract_x
_atom_site_fract_y
_atom_site_fract_z
Si Si1 0.285310 0.426975 0.159367
Si Si2 0.229819 0.921252 0.529160
Si Si3 0.547537 0.673422 0.516089
Si Si4 0.808811 0.637757 0.055255
Si Si5 0.714587 0.326567 0.106749
Si Si6 0.340327 0.987381 0.915880
Si Si7 0.000000 0.000000 0.500000
O O1 0.168340 0.639833 0.377025
O O2 0.566644 0.514111 0.110992
O O3 0.237779 0.372325 0.037124
O O4 0.211100 0.190651 0.083348
O O5 0.202055 0.975194 0.474280
O O6 0.500000 0.000000 0.500000
O O7 0.117676 0.096324 0.751793
O O8 0.500000 0.500000 0.500000
O O9 0.547248 0.499595 0.313909
O O10 0.375998 0.843978 0.715606
O O11 0.806586 0.833021 0.526035
O O12 0.025473 0.520653 0.908925
O O13 0.747177 0.187994 0.089202
O O14 0.592368 0.130944 0.951117
#
# Coordination Sequence:
#
# PCOD9023768 Si02
#       7
#     2   2   2   2   2   2   1
#     4  10  23  40  61  92 134 167 218 283 330 399
#     4  10  24  43  64 103 136 170 228 288 330 411
#     4  10  24  41  64 101 137 173 229 287 334 406
#     4  10  22  40  61  90 130 167 218 276 327 404
#     4  10  22  41  62  94 128 173 227 267 338 410
#     4  10  23  40  63  92 132 174 216 280 337 397
#     4  12  24  42  80  96 130 192 228 266 356 408
#
# _framework density 25.61337
#
# number of rings (size 3 to 8) (size 9 to 14) (size 15 to 20)
#    0.000    1.846    0.000    1.846   12.923    1.231 
#    0.000    0.769    0.000    0.000    0.000    0.000 
#    0.000    0.000    0.000    0.000    0.000    0.000 
#
# Total GULP energy -72485.117791 kJ/mol
# GULP energy per Si atom -5575.778292 kJ/mol
# Density = 2.555507 g / cm^3
# Si number density = 25.613370 Si / 1000 Ang^3
#
#
#
# Elastic Constant Matrix: (Units=GPa)
#
#
# Indices 1 2 3 4 5 6 
#
# 1 91.3629 36.0358 18.6234 -4.0559 -3.1093 2.3745
# 2 36.0358 100.1287 12.3653 15.7747 5.1736 -2.6408
# 3 18.6234 12.3653 156.4484 5.7793 -3.7126 -14.9918
# 4 -4.0559 15.7747 5.7793 24.5613 -4.6906 -6.8743
# 5 -3.1093 5.1736 -3.7126 -4.6906 28.3919 3.5622
# 6 2.3745 -2.6408 -14.9918 -6.8743 3.5622 39.7028
#
#
#
# Elastic Compliance Matrix: (Units=1/GPa)
#
#
# Indices 1 2 3 4 5 6 
#
# 1 0.014193 -0.006283 -0.001456 0.007194 0.003812 -0.000913
# 2 -0.006283 0.014290 -0.000108 -0.011226 -0.005136 -0.000197
# 3 -0.001456 -0.000108 0.006855 -0.001042 0.000275 0.002463
# 4 0.007194 -0.011226 -0.001042 0.053267 0.010657 0.006696
# 5 0.003812 -0.005136 0.000275 0.010657 0.038633 -0.002087
# 6 -0.000913 -0.000197 0.002463 0.006696 -0.002087 0.027505
#
#
# Mechanical properties :
#
#
# Convention : Reuss Voigt Hill
#
# Bulk Modulus (GPa) = 50.90077 53.55432 52.22754
# Shear Modulus (GPa) = 28.25113 37.25892 32.75503
#
# Velocity S-wave (km/s) = 3.32472 3.81815 3.57995
# Velocity P-wave (km/s) = 5.88679 6.35545 6.12560
#
# Compressibility (1/GPa) = 0.01964607
#
# Stress axis : x y z
#
# Youngs Moduli (GPa) = 70.45785 69.97754 145.88445
#
# Poissons Ratio (x) = 0.43964 0.21236
# Poissons Ratio (y) = 0.44265 0.01571
# Poissons Ratio (z) = 0.10257 0.00754
#
# Static dielectric constant tensor:
#      x y z
#    x 1.959380 0.025240 0.013580 
#    y 0.025240 2.030930 0.052540 
#    z 0.013580 0.052540 2.171660 
# 
# From -- ./inp_files/497152.got.cif
#   From: 2010.05.17/outbox.cif.g08.bks.cpg/sg2_249_cif.got.tgz:497152.got - 2010.06.03 11:33:40.
