data_PCOD9023616
_publ_section_title
;
Structure prediction by ZEFSAII (Michael W. Deem and Ramdas Pophale) SiO2 
 PCOD9023616
Probable space group: P -1
;
_chemical_formula_sum "Si O2"
_cell_formula_units_Z 16
_cell_length_a 5.743572
_cell_length_b 18.529607
_cell_length_c 6.450366
_cell_angle_alpha 92.400832
_cell_angle_beta 76.877831
_cell_angle_gamma 92.371338
_cell_volume 667.616937
_symmetry_space_group_name_H-M "P -1"
_symmetry_group_IT_number 2
_symmetry_cell_setting 'triclinic'
loop_
_space_group_symop_operation_xyz
x,y,z
-x,-y,-z
loop_
_atom_site_type_symbol
_atom_site_label
_atom_site_fract_x
_atom_site_fract_y
_atom_site_fract_z
Si Si1 0.828938 0.064998 0.481805
Si Si2 0.656990 0.253411 0.083371
Si Si3 0.427749 0.391033 0.963845
Si Si4 0.634444 0.979557 0.174381
Si Si5 0.710818 0.828980 0.056236
Si Si6 0.283609 0.503813 0.363086
Si Si7 0.870632 0.707093 0.264335
Si Si8 0.949689 0.222168 0.383386
O O1 0.576372 0.051267 0.639610
O O2 0.914225 0.147243 0.506469
O O3 0.772749 0.047603 0.251731
O O4 0.000000 0.000000 0.500000
O O5 0.714724 0.246374 0.312614
O O6 0.491255 0.319060 0.066477
O O7 0.546353 0.179374 0.003063
O O8 0.890825 0.274493 0.908902
O O9 0.646913 0.425831 0.786863
O O10 0.241096 0.365485 0.819662
O O11 0.327897 0.442722 0.169706
O O12 0.790142 0.909605 0.105040
O O13 0.500000 0.000000 0.000000
O O14 0.706213 0.774331 0.243421
O O15 0.877700 0.799563 0.839196
O O16 0.500000 0.500000 0.500000
O O17 0.000000 0.500000 0.500000
O O18 0.937656 0.714791 0.490432
#
# Coordination Sequence:
#
# PCOD9023616 Si02
#       8
#     2   2   2   2   2   2   2   2
#     4  11  24  39  61  93 126 176 233 296 364 444
#     4  10  23  42  67  98 137 185 234 299 360 436
#     4  10  26  49  75 110 155 189 254 300 369 449
#     4  11  23  39  61  87 123 173 227 292 361 432
#     4  10  22  40  58  91 132 171 230 291 359 431
#     4  11  28  50  84 120 158 209 250 313 373 451
#     4  10  23  42  67  98 136 186 227 296 356 434
#     4  11  23  40  65  96 135 178 238 292 369 437
#
# _framework density 23.965837000000001
#
# number of rings (size 3 to 8) (size 9 to 14) (size 15 to 20)
#    0.000    1.500    0.000    3.000    3.500   14.000 
#    0.000    0.000    0.000    0.000    0.000    0.000 
#    0.000    0.000    0.000    0.000    0.000    0.000 
#
# Total GULP energy -89309.158280 kJ/mol
# GULP energy per Si atom -5581.822392 kJ/mol
# Density = 2.391129 g / cm^3
# Si number density = 23.965837 Si / 1000 Ang^3
#
#
#
# Elastic Constant Matrix: (Units=GPa)
#
#
# Indices 1 2 3 4 5 6 
#
# 1 85.7950 22.3206 45.9730 1.8017 -0.1821 14.6201
# 2 22.3206 79.9148 36.1365 6.9577 0.5620 8.3703
# 3 45.9730 36.1365 118.0752 14.7518 3.8350 11.1903
# 4 1.8017 6.9577 14.7518 43.0657 11.4034 7.2100
# 5 -0.1821 0.5620 3.8350 11.4034 55.9027 -7.9530
# 6 14.6201 8.3703 11.1903 7.2100 -7.9530 31.1680
#
#
#
# Elastic Compliance Matrix: (Units=1/GPa)
#
#
# Indices 1 2 3 4 5 6 
#
# 1 0.015958 -0.001588 -0.005470 0.002716 -0.000960 -0.005968
# 2 -0.001588 0.014867 -0.003668 -0.000789 0.000010 -0.001746
# 3 -0.005470 -0.003668 0.012145 -0.003282 -0.000158 -0.000091
# 4 0.002716 -0.000789 -0.003282 0.027387 -0.006464 -0.007869
# 5 -0.000960 0.000010 -0.000158 -0.006464 0.020233 0.007163
# 6 -0.005968 -0.001746 -0.000091 -0.007869 0.007163 0.039033
#
#
# Mechanical properties :
#
#
# Convention : Reuss Voigt Hill
#
# Bulk Modulus (GPa) = 46.47218 54.73834 50.60526
# Shear Modulus (GPa) = 31.59596 37.98427 34.79012
#
# Velocity S-wave (km/s) = 3.63488 3.98544 3.81419
# Velocity P-wave (km/s) = 6.08684 6.63838 6.36858
#
# Compressibility (1/GPa) = 0.02151825
#
# Stress axis : x y z
#
# Youngs Moduli (GPa) = 62.66537 67.26304 82.33807
#
# Poissons Ratio (x) = 0.10684 0.45036
# Poissons Ratio (y) = 0.09954 0.30200
# Poissons Ratio (z) = 0.34276 0.24671
#
# Static dielectric constant tensor:
#      x y z
#    x 2.074390 -0.029350 0.012220 
#    y -0.029350 1.948560 0.016840 
#    z 0.012220 0.016840 1.946420 
# 
# From -- ./inp_files/11301.got.cif
#   From: 2010.05.17/outbox.cif.g08.bks.cpg/sg2_6_cif.got.tgz:11301.got - 2010.06.03 11:33:40.
