data_PCOD9023424
_publ_section_title
;
Structure prediction by ZEFSAII (Michael W. Deem and Ramdas Pophale) SiO2 
 PCOD9023424
Probable space group: P -1
;
_chemical_formula_sum "Si O2"
_cell_formula_units_Z 14
_cell_length_a 17.304556
_cell_length_b 6.684995
_cell_length_c 9.038790
_cell_angle_alpha 95.610524
_cell_angle_beta 34.207969
_cell_angle_gamma 97.330640
_cell_volume 582.981917
_symmetry_space_group_name_H-M "P -1"
_symmetry_group_IT_number 2
_symmetry_cell_setting 'triclinic'
loop_
_space_group_symop_operation_xyz
x,y,z
-x,-y,-z
loop_
_atom_site_type_symbol
_atom_site_label
_atom_site_fract_x
_atom_site_fract_y
_atom_site_fract_z
Si Si1 0.554864 0.615348 0.571313
Si Si2 0.990716 0.250389 0.168076
Si Si3 0.141002 0.322785 0.246595
Si Si4 0.783274 0.536428 0.396199
Si Si5 0.267897 0.761790 0.090841
Si Si6 0.850667 0.898510 0.504597
Si Si7 0.656475 0.938982 0.238345
O O1 0.500000 0.500000 0.500000
O O2 0.644275 0.479329 0.521122
O O3 0.659491 0.811035 0.374876
O O4 0.423000 0.699542 0.861128
O O5 0.055276 0.293014 0.231195
O O6 0.851736 0.355405 0.355145
O O7 0.101310 0.359418 0.889610
O O8 0.950624 0.010755 0.233049
O O9 0.172902 0.557194 0.238609
O O10 0.074716 0.204535 0.483836
O O11 0.286749 0.224107 0.977447
O O12 0.759272 0.713290 0.563604
O O13 0.230203 0.927737 0.279693
O O14 0.262369 0.859354 0.940682
O O15 0.500000 0.000000 0.500000
#
# Coordination Sequence:
#
# PCOD9023424 Si02
#       7
#     2   2   2   2   2   2   2
#     4  11  20  44  71  98 133 172 226 281 332 401
#     4  11  24  46  67 100 131 184 227 271 334 395
#     4  11  21  43  71  96 136 175 226 274 327 399
#     4  11  25  44  67  98 140 173 221 282 339 395
#     4  10  22  39  69 100 129 173 224 275 335 394
#     4  11  25  43  64 100 140 177 222 276 336 401
#     4   9  19  35  62 102 124 162 219 271 322 383
#
# _framework density 24.014468999999998
#
# number of rings (size 3 to 8) (size 9 to 14) (size 15 to 20)
#    0.000    1.429    2.857    1.714    0.000    5.143 
#   12.857    2.857    0.000    0.000    0.000    0.000 
#    0.000    0.000    0.000    0.000    0.000    0.000 
#
# Total GULP energy -78128.895851 kJ/mol
# GULP energy per Si atom -5580.635418 kJ/mol
# Density = 2.395981 g / cm^3
# Si number density = 24.014469 Si / 1000 Ang^3
#
#
#
# Elastic Constant Matrix: (Units=GPa)
#
#
# Indices 1 2 3 4 5 6 
#
# 1 136.7085 44.6114 17.7629 5.8734 1.1875 -24.4790
# 2 44.6114 107.6782 20.9316 -11.9965 1.0349 -30.0274
# 3 17.7629 20.9316 80.2050 -2.6779 -1.3051 -15.8491
# 4 5.8734 -11.9965 -2.6779 47.7357 -10.5069 6.9979
# 5 1.1875 1.0349 -1.3051 -10.5069 26.8149 -1.3012
# 6 -24.4790 -30.0274 -15.8491 6.9979 -1.3012 34.8421
#
#
#
# Elastic Compliance Matrix: (Units=1/GPa)
#
#
# Indices 1 2 3 4 5 6 
#
# 1 0.009202 -0.002797 -0.000569 -0.002763 -0.001201 0.004305
# 2 -0.002797 0.013314 -0.001065 0.002596 0.000990 0.008540
# 3 -0.000569 -0.001065 0.013883 0.000068 0.001012 0.005022
# 4 -0.002763 0.002596 0.000068 0.024658 0.009480 -0.004271
# 5 -0.001201 0.000990 0.001012 0.009480 0.041076 0.000100
# 6 0.004305 0.008540 0.005022 -0.004271 0.000100 0.042232
#
#
# Mechanical properties :
#
#
# Convention : Reuss Voigt Hill
#
# Bulk Modulus (GPa) = 36.31499 54.57815 45.44657
# Shear Modulus (GPa) = 30.78724 37.96426 34.37575
#
# Velocity S-wave (km/s) = 3.58443 3.98036 3.78757
# Velocity P-wave (km/s) = 5.68206 6.62577 6.17198
#
# Compressibility (1/GPa) = 0.02753684
#
# Stress axis : x y z
#
# Youngs Moduli (GPa) = 108.67678 75.10820 72.03037
#
# Poissons Ratio (x) = 0.21010 0.04098
# Poissons Ratio (y) = 0.30401 0.07670
# Poissons Ratio (z) = 0.06182 0.07997
#
# Static dielectric constant tensor:
#      x y z
#    x 1.935840 0.002400 0.015320 
#    y 0.002400 1.940150 -0.013740 
#    z 0.015320 -0.013740 1.996670 
# 
# From -- ./inp_files/323642.got.cif
#   From: 2010.05.17/outbox.cif.g08.bks.cpg/sg2_162_cif.got.tgz:323642.got - 2010.06.03 11:33:40.
