data_PCOD9023035
_publ_section_title
;
Structure prediction by ZEFSAII (Michael W. Deem and Ramdas Pophale) SiO2 
 PCOD9023035
Probable space group: P -1
;
_chemical_formula_sum "Si O2"
_cell_formula_units_Z 14
_cell_length_a 7.659573
_cell_length_b 6.019829
_cell_length_c 17.849377
_cell_angle_alpha 107.875997
_cell_angle_beta 111.264503
_cell_angle_gamma 49.544865
_cell_volume 580.626456
_symmetry_space_group_name_H-M "P -1"
_symmetry_group_IT_number 2
_symmetry_cell_setting 'triclinic'
loop_
_space_group_symop_operation_xyz
x,y,z
-x,-y,-z
loop_
_atom_site_type_symbol
_atom_site_label
_atom_site_fract_x
_atom_site_fract_y
_atom_site_fract_z
Si Si1 0.051124 0.987974 0.742667
Si Si2 0.074382 0.401606 0.882061
Si Si3 0.814064 0.315941 0.965164
Si Si4 0.289090 0.969495 0.186386
Si Si5 0.940083 0.207593 0.584084
Si Si6 0.312161 0.338070 0.681559
Si Si7 0.287628 0.342381 0.514393
O O1 0.222475 0.638355 0.738702
O O2 0.844692 0.081026 0.777079
O O3 0.159779 0.145998 0.808679
O O4 0.945288 0.076852 0.651157
O O5 0.947197 0.357356 0.924748
O O6 0.882437 0.708372 0.842162
O O7 0.251776 0.442342 0.957677
O O8 0.638751 0.272310 0.891062
O O9 0.000000 0.000000 0.000000
O O10 0.491335 0.924145 0.263388
O O11 0.713484 0.509927 0.547166
O O12 0.124401 0.275625 0.634771
O O13 0.000000 0.000000 0.500000
O O14 0.363417 0.389938 0.610803
O O15 0.000000 0.500000 0.500000
O O16 0.500000 0.000000 0.500000
#
# Coordination Sequence:
#
# PCOD9023035 Si02
#       7
#     2   2   2   2   2   2   2
#     4  11  23  41  65  94 133 171 230 274 347 404
#     4   9  18  36  66  94 129 175 218 267 337 421
#     4   8  16  35  63  97 132 169 217 267 338 410
#     4  10  22  39  65  98 131 174 216 282 337 412
#     4  11  24  46  66  93 130 182 231 286 352 421
#     4  11  25  41  64  92 136 167 225 289 345 408
#     4  10  24  45  68  94 136 184 233 298 361 422
#
# _framework density 24.111889999999999
#
# number of rings (size 3 to 8) (size 9 to 14) (size 15 to 20)
#    0.000    2.000    1.429    0.857    6.000    2.286 
#    2.571    4.286    0.000   35.143    0.000    0.000 
#    0.000    0.000    0.000    0.000    0.000    0.000 
#
# Total GULP energy -77995.226950 kJ/mol
# GULP energy per Si atom -5571.087639 kJ/mol
# Density = 2.405701 g / cm^3
# Si number density = 24.111890 Si / 1000 Ang^3
#
#
#
# Elastic Constant Matrix: (Units=GPa)
#
#
# Indices 1 2 3 4 5 6 
#
# 1 5.7795 1.1200 15.5508 -0.4850 -38.2985 6.0746
# 2 1.1200 91.8892 55.7240 7.0468 -4.6572 12.9258
# 3 15.5508 55.7240 170.6649 4.7077 -10.8369 5.1539
# 4 -0.4850 7.0468 4.7077 66.3656 17.0572 -7.6581
# 5 -38.2985 -4.6572 -10.8369 17.0572 31.6386 -5.0944
# 6 6.0746 12.9258 5.1539 -7.6581 -5.0944 29.4573
#
#
#
# Elastic Compliance Matrix: (Units=1/GPa)
#
#
# Indices 1 2 3 4 5 6 
#
# 1 -0.020500 -0.002457 0.000561 0.007729 -0.028791 0.002238
# 2 -0.002457 0.014373 -0.004429 -0.001217 -0.002653 -0.005801
# 3 0.000561 -0.004429 0.007448 -0.000757 0.003127 0.000868
# 4 0.007729 -0.001217 -0.000757 0.015390 0.001147 0.003272
# 5 -0.028791 -0.002653 0.003127 0.001147 -0.002139 0.006483
# 6 0.002238 -0.005801 0.000868 0.003272 0.006483 0.037851
#
#
# Mechanical properties :
#
#
# Convention : Reuss Voigt Hill
#
# Bulk Modulus (GPa) = -88.27238 45.90257 -21.18491
# Shear Modulus (GPa) = 81.57026 38.55490 60.06258
#
# Velocity S-wave (km/s) = 5.82266 4.00309 4.99640
# Velocity P-wave (km/s) = 2.91813 6.35963 4.94775
#
# Compressibility (1/GPa) = -0.01132857
#
# Stress axis : x y z
#
# Youngs Moduli (GPa) = -48.78111 69.57377 134.27219
#
# Poissons Ratio (x) = 0.17096 -0.07536
# Poissons Ratio (y) = -0.11986 0.59467
# Poissons Ratio (z) = 0.02738 0.30813
#
# Static dielectric constant tensor:
#      x y z
#    x 2.146430 0.046520 -0.008000 
#    y 0.046520 1.304740 0.125010 
#    z -0.008000 0.125010 1.956950 
# 
# From -- ./inp_files/553757.got.cif
#   From: 2010.05.17/outbox.cif.g08.bks.cpg/sg2_277_cif.got.tgz:553757.got - 2010.06.03 11:33:40.
