data_PCOD9023319
_publ_section_title
;
Structure prediction by ZEFSAII (Michael W. Deem and Ramdas Pophale) SiO2 
 PCOD9023319
Probable space group: P -1
;
_chemical_formula_sum "Si O2"
_cell_formula_units_Z 16
_cell_length_a 13.941954
_cell_length_b 5.719483
_cell_length_c 14.316867
_cell_angle_alpha 128.019990
_cell_angle_beta 50.032566
_cell_angle_gamma 97.856345
_cell_volume 622.673443
_symmetry_space_group_name_H-M "P -1"
_symmetry_group_IT_number 2
_symmetry_cell_setting 'triclinic'
loop_
_space_group_symop_operation_xyz
x,y,z
-x,-y,-z
loop_
_atom_site_type_symbol
_atom_site_label
_atom_site_fract_x
_atom_site_fract_y
_atom_site_fract_z
Si Si1 0.572933 0.593938 0.561760
Si Si2 0.119438 0.615903 0.970593
Si Si3 0.343810 0.301931 0.891360
Si Si4 0.897563 0.480684 0.765896
Si Si5 0.980308 0.850015 0.669463
Si Si6 0.154337 0.505062 0.720941
Si Si7 0.716624 0.264480 0.558549
Si Si8 0.510198 0.638357 0.925017
O O1 0.500000 0.500000 0.500000
O O2 0.735474 0.445479 0.400344
O O3 0.582761 0.451798 0.623387
O O4 0.487537 0.982609 0.720675
O O5 0.255308 0.333744 0.861668
O O6 0.144884 0.699059 0.870184
O O7 0.000000 0.500000 0.000000
O O8 0.067918 0.892502 0.149745
O O9 0.379908 0.611559 0.950374
O O10 0.250431 0.311004 0.041621
O O11 0.918462 0.595898 0.677939
O O12 0.012789 0.543952 0.771069
O O13 0.929465 0.100184 0.674406
O O14 0.146798 0.672134 0.520891
O O15 0.230106 0.114635 0.594558
O O16 0.655713 0.377744 0.727227
O O17 0.500000 0.500000 0.000000
O O18 0.500000 0.000000 0.000000
#
# Coordination Sequence:
#
# PCOD9023319 Si02
#       8
#     2   2   2   2   2   2   2   2
#     4  12  26  36  65 110 159 203 238 295 366 473
#     4  11  21  39  67 107 149 199 229 283 362 471
#     4  11  25  45  70 108 149 193 259 309 370 451
#     4  10  22  40  67  97 139 192 234 289 349 436
#     4  10  22  39  67  99 145 194 238 273 363 437
#     4  11  22  41  64 102 155 198 234 279 372 456
#     4  11  23  45  69  99 145 193 251 307 381 439
#     4  12  29  51  79 103 140 198 265 335 389 422
#
# _framework density 25.695650000000001
#
# number of rings (size 3 to 8) (size 9 to 14) (size 15 to 20)
#    0.000    1.000    6.250    1.500    3.500    4.500 
#    0.000    0.000    0.000   19.500    0.000    0.000 
#    0.000    0.000    0.000    0.000    0.000    0.000 
#
# Total GULP energy -89485.392633 kJ/mol
# GULP energy per Si atom -5592.837040 kJ/mol
# Density = 2.563717 g / cm^3
# Si number density = 25.695650 Si / 1000 Ang^3
#
#
#
# Elastic Constant Matrix: (Units=GPa)
#
#
# Indices 1 2 3 4 5 6 
#
# 1 74.4686 36.6900 33.4718 -3.4390 4.1008 2.7514
# 2 36.6900 156.9630 42.5960 -7.9714 6.0021 -6.0674
# 3 33.4718 42.5960 117.9738 -18.0343 -6.6774 7.0743
# 4 -3.4390 -7.9714 -18.0343 54.8980 8.6454 -3.5079
# 5 4.1008 6.0021 -6.6774 8.6454 29.6003 -2.9399
# 6 2.7514 -6.0674 7.0743 -3.5079 -2.9399 41.0796
#
#
#
# Elastic Compliance Matrix: (Units=1/GPa)
#
#
# Indices 1 2 3 4 5 6 
#
# 1 0.016722 -0.002818 -0.003854 -0.000281 -0.002640 -0.001085
# 2 -0.002818 0.007758 -0.002098 0.000629 -0.001678 0.001630
# 3 -0.003854 -0.002098 0.010954 0.002555 0.002531 -0.001539
# 4 -0.000281 0.000629 0.002555 0.020021 -0.005260 0.001005
# 5 -0.002640 -0.001678 0.002531 -0.005260 0.036763 0.001675
# 6 -0.001085 0.001630 -0.001539 0.001005 0.001675 0.025127
#
#
# Mechanical properties :
#
#
# Convention : Reuss Voigt Hill
#
# Bulk Modulus (GPa) = 55.88840 63.88010 59.88425
# Shear Modulus (GPa) = 35.49870 40.89208 38.19539
#
# Velocity S-wave (km/s) = 3.72089 3.99356 3.85964
# Velocity P-wave (km/s) = 6.34487 6.79551 6.57406
#
# Compressibility (1/GPa) = 0.01789280
#
# Stress axis : x y z
#
# Youngs Moduli (GPa) = 59.80218 128.89685 91.29326
#
# Poissons Ratio (x) = 0.36324 0.35186
# Poissons Ratio (y) = 0.16853 0.19155
# Poissons Ratio (z) = 0.23049 0.27045
#
# Static dielectric constant tensor:
#      x y z
#    x 2.038280 -0.062940 0.034960 
#    y -0.062940 2.221680 -0.043150 
#    z 0.034960 -0.043150 2.071890 
# 
# From -- ./inp_files/526054.got.cif
#   From: 2010.05.17/outbox.cif.g08.bks.cpg/sg2_264_cif.got.tgz:526054.got - 2010.06.03 11:33:40.
