data_PCOD9023094
_publ_section_title
;
Structure prediction by ZEFSAII (Michael W. Deem and Ramdas Pophale) SiO2 
 PCOD9023094
Probable space group: P -1
;
_chemical_formula_sum "Si O2"
_cell_formula_units_Z 16
_cell_length_a 11.309353
_cell_length_b 7.369013
_cell_length_c 8.882917
_cell_angle_alpha 104.287668
_cell_angle_beta 107.428961
_cell_angle_gamma 91.541310
_cell_volume 680.375853
_symmetry_space_group_name_H-M "P -1"
_symmetry_group_IT_number 2
_symmetry_cell_setting 'triclinic'
loop_
_space_group_symop_operation_xyz
x,y,z
-x,-y,-z
loop_
_atom_site_type_symbol
_atom_site_label
_atom_site_fract_x
_atom_site_fract_y
_atom_site_fract_z
Si Si1 0.207195 0.340918 0.270493
Si Si2 0.763858 0.234098 0.017215
Si Si3 0.717225 0.220393 0.645110
Si Si4 0.959311 0.342580 0.329710
Si Si5 0.243741 0.194680 0.945269
Si Si6 0.144354 0.989283 0.587028
Si Si7 0.520724 0.220833 0.087975
Si Si8 0.520081 0.722186 0.576343
O O1 0.235978 0.566696 0.351060
O O2 0.330301 0.241212 0.342204
O O3 0.086877 0.268427 0.306689
O O4 0.181233 0.306420 0.075656
O O5 0.881170 0.370245 0.154201
O O6 0.638473 0.301827 0.053533
O O7 0.765948 0.017137 0.029873
O O8 0.755809 0.221157 0.832933
O O9 0.776385 0.065153 0.535937
O O10 0.566743 0.194982 0.564124
O O11 0.863131 0.195492 0.349934
O O12 0.000000 0.500000 0.500000
O O13 0.194526 0.162392 0.749914
O O14 0.386884 0.286745 0.013991
O O15 0.000000 0.000000 0.500000
O O16 0.539157 0.237704 0.276771
O O17 0.500000 0.000000 0.000000
O O18 0.500000 0.500000 0.500000
#
# Coordination Sequence:
#
# PCOD9023094 Si02
#       8
#     2   2   2   2   2   2   2   2
#     4  10  22  39  66  87 124 165 208 246 306 367
#     4  10  23  36  66  90 123 161 205 256 308 360
#     4  11  22  41  61  95 124 157 207 261 302 356
#     4  11  23  42  63  89 123 172 204 244 310 375
#     4   9  21  42  62  86 121 167 202 250 308 369
#     4  11  25  41  64  90 128 162 206 256 304 365
#     4   9  17  38  61  83 114 160 202 240 305 362
#     4   9  19  37  63  85 119 161 200 250 303 358
#
# _framework density 23.516413
#
# number of rings (size 3 to 8) (size 9 to 14) (size 15 to 20)
#    0.000    2.000    1.250    2.250    5.250    2.500 
#    2.250   11.875    0.000    0.000    0.000    0.000 
#    0.000    0.000    0.000    0.000    0.000    0.000 
#
# Total GULP energy -89324.004038 kJ/mol
# GULP energy per Si atom -5582.750252 kJ/mol
# Density = 2.346289 g / cm^3
# Si number density = 23.516413 Si / 1000 Ang^3
#
#
#
# Elastic Constant Matrix: (Units=GPa)
#
#
# Indices 1 2 3 4 5 6 
#
# 1 129.2175 3.7249 68.0404 -4.0257 -12.6038 -9.5784
# 2 3.7249 50.2552 18.1903 9.6396 -2.5330 -1.5982
# 3 68.0404 18.1903 201.8056 10.3635 3.8654 -18.8048
# 4 -4.0257 9.6396 10.3635 35.2453 -6.6548 0.7460
# 5 -12.6038 -2.5330 3.8654 -6.6548 43.9628 5.8285
# 6 -9.5784 -1.5982 -18.8048 0.7460 5.8285 23.2837
#
#
#
# Elastic Compliance Matrix: (Units=1/GPa)
#
#
# Indices 1 2 3 4 5 6 
#
# 1 0.010096 0.000206 -0.003614 0.002838 0.003620 0.000251
# 2 0.000206 0.021556 -0.001740 -0.005244 0.000638 0.000167
# 3 -0.003614 -0.001740 0.006965 -0.002612 -0.002780 0.004799
# 4 0.002838 -0.005244 -0.002612 0.032136 0.006118 -0.003863
# 5 0.003620 0.000638 -0.002780 0.006118 0.025974 -0.007410
# 6 0.000251 0.000167 0.004799 -0.003863 -0.007410 0.048918
#
#
# Mechanical properties :
#
#
# Convention : Reuss Voigt Hill
#
# Bulk Modulus (GPa) = 35.30892 62.35438 48.83165
# Shear Modulus (GPa) = 30.23306 39.91987 35.07647
#
# Velocity S-wave (km/s) = 3.58944 4.12458 3.86628
# Velocity P-wave (km/s) = 5.67679 7.01824 6.38285
#
# Compressibility (1/GPa) = 0.02832145
#
# Stress axis : x y z
#
# Youngs Moduli (GPa) = 99.04684 46.39044 143.57098
#
# Poissons Ratio (x) = -0.00956 0.51890
# Poissons Ratio (y) = -0.02040 0.24979
# Poissons Ratio (z) = 0.35798 0.08071
#
# Static dielectric constant tensor:
#      x y z
#    x 1.900740 -0.012260 0.017460 
#    y -0.012260 1.985680 -0.077040 
#    z 0.017460 -0.077040 1.976200 
# 
# From -- ./inp_files/240642.got.cif
#   From: 2010.05.17/outbox.cif.g08.bks.cpg/sg2_121_cif.got.tgz:240642.got - 2010.06.03 11:33:40.
