data_PCOD9023728
_publ_section_title
;
Structure prediction by ZEFSAII (Michael W. Deem and Ramdas Pophale) SiO2 
 PCOD9023728
Probable space group: P -1
;
_chemical_formula_sum "Si O2"
_cell_formula_units_Z 12
_cell_length_a 8.115075
_cell_length_b 8.738509
_cell_length_c 10.479717
_cell_angle_alpha 61.411164
_cell_angle_beta 133.682265
_cell_angle_gamma 95.540727
_cell_volume 438.717531
_symmetry_space_group_name_H-M "P -1"
_symmetry_group_IT_number 2
_symmetry_cell_setting 'triclinic'
loop_
_space_group_symop_operation_xyz
x,y,z
-x,-y,-z
loop_
_atom_site_type_symbol
_atom_site_label
_atom_site_fract_x
_atom_site_fract_y
_atom_site_fract_z
Si Si1 0.636493 0.204531 0.752373
Si Si2 0.978573 0.138947 0.593180
Si Si3 0.673232 0.228193 0.140095
Si Si4 0.790344 0.465116 0.553928
Si Si5 0.788112 0.563756 0.018388
Si Si6 0.171196 0.103967 0.203560
O O1 0.649202 0.340116 0.589560
O O2 0.404165 0.328049 0.661443
O O3 0.642472 0.020542 0.754993
O O4 0.898681 0.145808 0.984862
O O5 0.867170 0.200060 0.370745
O O6 0.940402 0.326456 0.577531
O O7 0.248534 0.977683 0.795443
O O8 0.823763 0.022464 0.621449
O O9 0.720788 0.386430 0.016972
O O10 0.413446 0.321266 0.030477
O O11 0.962412 0.487374 0.749406
O O12 0.789003 0.701003 0.848291
#
# Coordination Sequence:
#
# PCOD9023728 Si02
#       6
#     2   2   2   2   2   2
#     4   8  16  32  59  96 120 132 190 268 293 321
#     4  10  22  40  61  85 119 158 196 241 293 346
#     4  10  24  42  54  84 132 158 186 242 296 348
#     4   9  18  36  63  89 114 153 198 241 291 347
#     4  10  22  40  61  85 119 158 196 241 293 346
#     4   9  18  36  64  90 112 151 198 242 292 345
#
# _framework density 27.352453000000001
#
# number of rings (size 3 to 8) (size 9 to 14) (size 15 to 20)
#    0.000    2.667    0.000    1.000    0.000    8.000 
#    0.000    3.333    0.000    0.000    0.000    0.000 
#    0.000    1.333    0.000    0.000    0.000    0.000 
#
# Total GULP energy -67179.789512 kJ/mol
# GULP energy per Si atom -5598.315793 kJ/mol
# Density = 2.729020 g / cm^3
# Si number density = 27.352453 Si / 1000 Ang^3
#
#
#
# Elastic Constant Matrix: (Units=GPa)
#
#
# Indices 1 2 3 4 5 6 
#
# 1 93.4230 48.9065 18.8959 -20.8974 -13.1189 7.4494
# 2 48.9065 134.9385 52.2475 -38.9212 7.0714 -18.0149
# 3 18.8959 52.2475 89.5093 -25.4980 24.1384 -0.7823
# 4 -20.8974 -38.9212 -25.4980 39.8624 -1.7683 3.0870
# 5 -13.1189 7.0714 24.1384 -1.7683 46.5647 -23.9268
# 6 7.4494 -18.0149 -0.7823 3.0870 -23.9268 56.8442
#
#
#
# Elastic Compliance Matrix: (Units=1/GPa)
#
#
# Indices 1 2 3 4 5 6 
#
# 1 0.014726 -0.004618 -0.000777 0.003043 0.004510 -0.001671
# 2 -0.004618 0.014083 -0.005915 0.007224 0.002886 0.005809
# 3 -0.000777 -0.005915 0.020276 0.006773 -0.013437 -0.007517
# 4 0.003043 0.007224 0.006773 0.038039 -0.002996 -0.001343
# 5 0.004510 0.002886 -0.013437 -0.002996 0.037404 0.016046
# 6 -0.001671 0.005809 -0.007517 -0.001343 0.016046 0.026375
#
#
# Mechanical properties :
#
#
# Convention : Reuss Voigt Hill
#
# Bulk Modulus (GPa) = 37.78618 61.99673 49.89146
# Shear Modulus (GPa) = 27.42060 41.84231 34.63146
#
# Velocity S-wave (km/s) = 3.16965 3.91544 3.56212
# Velocity P-wave (km/s) = 5.21921 6.56932 5.93279
#
# Compressibility (1/GPa) = 0.02646470
#
# Stress axis : x y z
#
# Youngs Moduli (GPa) = 67.90748 71.00896 49.31938
#
# Poissons Ratio (x) = 0.32791 0.03832
# Poissons Ratio (y) = 0.31359 0.29173
# Poissons Ratio (z) = 0.05277 0.42002
#
# Static dielectric constant tensor:
#      x y z
#    x 2.180520 -0.068130 0.010010 
#    y -0.068130 2.098250 -0.097070 
#    z 0.010010 -0.097070 2.114900 
# 
# From -- ./inp_files/230480.got.cif
#   From: 2010.05.17/outbox.cif.g08.bks.cpg/sg2_116_cif.got.tgz:230480.got - 2010.06.03 11:33:40.
