data_PCOD9023484
_publ_section_title
;
Structure prediction by ZEFSAII (Michael W. Deem and Ramdas Pophale) SiO2 
 PCOD9023484
Probable space group: P -1
;
_chemical_formula_sum "Si O2"
_cell_formula_units_Z 16
_cell_length_a 8.893169
_cell_length_b 15.843235
_cell_length_c 10.105219
_cell_angle_alpha 63.177749
_cell_angle_beta 94.963446
_cell_angle_gamma 50.476305
_cell_volume 823.118065
_symmetry_space_group_name_H-M "P -1"
_symmetry_group_IT_number 2
_symmetry_cell_setting 'triclinic'
loop_
_space_group_symop_operation_xyz
x,y,z
-x,-y,-z
loop_
_atom_site_type_symbol
_atom_site_label
_atom_site_fract_x
_atom_site_fract_y
_atom_site_fract_z
Si Si1 0.815161 0.118003 0.291326
Si Si2 0.017146 0.388698 0.519863
Si Si3 0.488655 0.450363 0.670112
Si Si4 0.338076 0.614932 0.793280
Si Si5 0.315453 0.277960 0.076820
Si Si6 0.984200 0.616718 0.761206
Si Si7 0.056068 0.883597 0.992363
Si Si8 0.746481 0.849635 0.067718
O O1 0.707783 0.258374 0.257914
O O2 0.590748 0.161130 0.205559
O O3 0.931973 0.090492 0.178908
O O4 0.000000 0.000000 0.500000
O O5 0.141648 0.332241 0.426554
O O6 0.118785 0.266431 0.719308
O O7 0.000000 0.500000 0.500000
O O8 0.755729 0.485422 0.395286
O O9 0.500000 0.500000 0.500000
O O10 0.473772 0.534955 0.724431
O O11 0.693767 0.279557 0.834383
O O12 0.109020 0.659141 0.744227
O O13 0.500000 0.500000 0.000000
O O14 0.188272 0.310294 0.180567
O O15 0.277580 0.216521 0.004546
O O16 0.182094 0.439639 0.912258
O O17 0.880975 0.879392 0.007129
O O18 0.000000 0.000000 0.000000
O O19 0.500000 0.000000 0.000000
#
# Coordination Sequence:
#
# PCOD9023484 Si02
#       8
#     2   2   2   2   2   2   2   2
#     4  12  27  45  69  98 136 183 225 279 340 406
#     4  11  23  42  68 102 132 175 223 276 331 403
#     4  11  24  41  70 102 132 174 233 278 325 406
#     4  11  21  41  68  95 133 173 225 274 331 393
#     4  11  23  43  66 101 132 171 222 282 338 390
#     4  10  22  39  70 100 131 167 224 282 327 393
#     4  12  27  47  68 100 142 181 225 282 343 402
#     4  12  27  44  69  97 141 181 217 279 348 402
#
# _framework density 19.438279999999999
#
# number of rings (size 3 to 8) (size 9 to 14) (size 15 to 20)
#    0.000    0.750    5.000    2.250    3.500    4.000 
#    0.000    1.875    0.000    0.000    0.000    0.000 
#    0.000    0.000    0.000    0.000    0.000    0.000 
#
# Total GULP energy -89334.408097 kJ/mol
# GULP energy per Si atom -5583.400506 kJ/mol
# Density = 1.939404 g / cm^3
# Si number density = 19.438280 Si / 1000 Ang^3
#
#
#
# Elastic Constant Matrix: (Units=GPa)
#
#
# Indices 1 2 3 4 5 6 
#
# 1 73.7786 33.7198 46.3913 7.8631 10.4860 -5.7270
# 2 33.7198 135.7379 72.0113 19.6352 5.6454 2.4188
# 3 46.3913 72.0113 163.9610 20.7367 -4.5363 -13.5036
# 4 7.8631 19.6352 20.7367 46.5257 -6.1515 0.0528
# 5 10.4860 5.6454 -4.5363 -6.1515 29.1371 9.3261
# 6 -5.7270 2.4188 -13.5036 0.0528 9.3261 37.6339
#
#
#
# Elastic Compliance Matrix: (Units=1/GPa)
#
#
# Indices 1 2 3 4 5 6 
#
# 1 0.018722 -0.001898 -0.004200 -0.001621 -0.008510 0.003575
# 2 -0.001898 0.010398 -0.003912 -0.002570 -0.001877 -0.001892
# 3 -0.004200 -0.003912 0.009463 -0.001506 0.002673 0.002348
# 4 -0.001621 -0.002570 -0.001506 0.024418 0.006747 -0.002328
# 5 -0.008510 -0.001877 0.002673 0.006747 0.043076 -0.010899
# 6 0.003575 -0.001892 0.002348 -0.002328 -0.010899 0.030784
#
#
# Mechanical properties :
#
#
# Convention : Reuss Voigt Hill
#
# Bulk Modulus (GPa) = 53.87120 75.30248 64.58684
# Shear Modulus (GPa) = 30.66173 37.41634 34.03904
#
# Velocity S-wave (km/s) = 3.97594 4.39210 4.18920
# Velocity P-wave (km/s) = 6.98940 8.03394 7.52980
#
# Compressibility (1/GPa) = 0.01856280
#
# Stress axis : x y z
#
# Youngs Moduli (GPa) = 53.41273 96.17408 105.67109
#
# Poissons Ratio (x) = 0.18257 0.44377
# Poissons Ratio (y) = 0.10140 0.41342
# Poissons Ratio (z) = 0.22431 0.37627
#
# Static dielectric constant tensor:
#      x y z
#    x 1.886700 -0.016870 0.019060 
#    y -0.016870 1.669210 0.015620 
#    z 0.019060 0.015620 1.564930 
# 
# From -- ./inp_files/206398.got.cif
#   From: 2010.05.17/outbox.cif.g08.bks.cpg/sg2_104_cif.got.tgz:206398.got - 2010.06.03 11:33:40.
