data_PCOD9023533
_publ_section_title
;
Structure prediction by ZEFSAII (Michael W. Deem and Ramdas Pophale) SiO2 
 PCOD9023533
Probable space group: P -1
;
_chemical_formula_sum "Si O2"
_cell_formula_units_Z 16
_cell_length_a 9.623080
_cell_length_b 22.139475
_cell_length_c 6.888691
_cell_angle_alpha 50.034938
_cell_angle_beta 124.637853
_cell_angle_gamma 146.466679
_cell_volume 619.504002
_symmetry_space_group_name_H-M "P -1"
_symmetry_group_IT_number 2
_symmetry_cell_setting 'triclinic'
loop_
_space_group_symop_operation_xyz
x,y,z
-x,-y,-z
loop_
_atom_site_type_symbol
_atom_site_label
_atom_site_fract_x
_atom_site_fract_y
_atom_site_fract_z
Si Si1 0.820994 0.603599 0.297574
Si Si2 0.305458 0.108052 0.534927
Si Si3 0.489231 0.342855 0.626059
Si Si4 0.198300 0.496091 0.138071
Si Si5 0.758799 0.059054 0.002978
Si Si6 0.771141 0.747682 0.759855
Si Si7 0.154241 0.683201 0.077039
Si Si8 0.635562 0.120607 0.462111
O O1 0.172410 0.859849 0.284359
O O2 0.642095 0.467433 0.392575
O O3 0.849184 0.596034 0.566276
O O4 0.710181 0.642639 0.026362
O O5 0.384451 0.226701 0.361613
O O6 0.312132 0.057423 0.842023
O O7 0.000000 0.000000 0.500000
O O8 0.041032 0.858395 0.839460
O O9 0.537848 0.380173 0.814676
O O10 0.240610 0.255656 0.477134
O O11 0.644994 0.317041 0.773084
O O12 0.000000 0.500000 0.000000
O O13 0.112835 0.437814 0.980293
O O14 0.546966 0.886629 0.532306
O O15 0.909384 0.315111 0.758198
O O16 0.500000 0.000000 0.000000
O O17 0.245851 0.784922 0.804118
O O18 0.500000 0.000000 0.500000
#
# Coordination Sequence:
#
# PCOD9023533 Si02
#       8
#     2   2   2   2   2   2   2   2
#     4  10  22  39  70  99 136 195 238 286 354 420
#     4   9  22  44  70  98 136 186 225 298 366 422
#     4   9  22  40  66  97 142 188 227 295 349 426
#     4   8  19  39  63  97 139 177 240 288 347 412
#     4   9  21  42  70  94 127 182 234 293 347 425
#     4  11  21  40  69  99 137 181 237 279 368 423
#     4  11  22  41  68 104 137 185 239 304 351 413
#     4  11  25  42  71 107 134 179 248 299 350 436
#
# _framework density 25.827114000000002
#
# number of rings (size 3 to 8) (size 9 to 14) (size 15 to 20)
#    0.750    1.500    0.000    1.500    7.000    2.000 
#    2.250    6.875    0.000    0.000    0.000    0.000 
#    0.000    0.000    0.000    0.000    0.000    0.000 
#
# Total GULP energy -89126.620999 kJ/mol
# GULP energy per Si atom -5570.413812 kJ/mol
# Density = 2.576833 g / cm^3
# Si number density = 25.827114 Si / 1000 Ang^3
#
#
#
# Elastic Constant Matrix: (Units=GPa)
#
#
# Indices 1 2 3 4 5 6 
#
# 1 70.5719 4.5035 21.2453 -5.8488 -2.6940 -11.4363
# 2 4.5035 100.9240 53.9340 13.5400 7.0516 -6.5713
# 3 21.2453 53.9340 157.3624 -4.7806 35.5693 -9.7830
# 4 -5.8488 13.5400 -4.7806 73.5571 -13.9034 14.5570
# 5 -2.6940 7.0516 35.5693 -13.9034 29.2340 0.0169
# 6 -11.4363 -6.5713 -9.7830 14.5570 0.0169 18.8934
#
#
#
# Elastic Compliance Matrix: (Units=1/GPa)
#
#
# Indices 1 2 3 4 5 6 
#
# 1 0.016727 0.001201 -0.003352 0.000205 0.005423 0.008644
# 2 0.001201 0.013102 -0.004601 -0.003575 0.000845 0.005656
# 3 -0.003352 -0.004601 0.011933 -0.002303 -0.014815 0.004337
# 4 0.000205 -0.003575 -0.002303 0.020165 0.013284 -0.017860
# 5 0.005423 0.000845 -0.014815 0.013284 0.058855 -0.014382
# 6 0.008644 0.005656 0.004337 -0.017860 -0.014382 0.076147
#
#
# Mechanical properties :
#
#
# Convention : Reuss Voigt Hill
#
# Bulk Modulus (GPa) = 35.38702 54.24711 44.81706
# Shear Modulus (GPa) = 22.74261 40.94860 31.84560
#
# Velocity S-wave (km/s) = 2.97066 3.98614 3.51526
# Velocity P-wave (km/s) = 5.04952 6.49887 5.81949
#
# Compressibility (1/GPa) = 0.02825895
#
# Stress axis : x y z
#
# Youngs Moduli (GPa) = 59.78251 76.32224 83.80380
#
# Poissons Ratio (x) = -0.09169 0.28093
# Poissons Ratio (y) = -0.07182 0.38556
# Poissons Ratio (z) = 0.20041 0.35114
#
# Static dielectric constant tensor:
#      x y z
#    x 1.298540 0.099430 0.194160 
#    y 0.099430 2.142680 0.021220 
#    z 0.194160 0.021220 2.133790 
# 
# From -- ./inp_files/319766.got.cif
#   From: 2010.05.17/outbox.cif.g08.bks.cpg/sg2_160_cif.got.tgz:319766.got - 2010.06.03 11:33:40.
