data_PCOD9023541
_publ_section_title
;
Structure prediction by ZEFSAII (Michael W. Deem and Ramdas Pophale) SiO2 
 PCOD9023541
Probable space group: P -1
;
_chemical_formula_sum "Si O2"
_cell_formula_units_Z 15
_cell_length_a 7.653252
_cell_length_b 8.051578
_cell_length_c 15.059166
_cell_angle_alpha 99.206408
_cell_angle_beta 65.985270
_cell_angle_gamma 53.639612
_cell_volume 572.096184
_symmetry_space_group_name_H-M "P -1"
_symmetry_group_IT_number 2
_symmetry_cell_setting 'triclinic'
loop_
_space_group_symop_operation_xyz
x,y,z
-x,-y,-z
loop_
_atom_site_type_symbol
_atom_site_label
_atom_site_fract_x
_atom_site_fract_y
_atom_site_fract_z
Si Si1 0.792077 0.922145 0.152816
Si Si2 0.098602 0.637230 0.334843
Si Si3 0.501735 0.706236 0.916398
Si Si4 0.212841 0.501671 0.578034
Si Si5 0.000000 0.000000 0.500000
Si Si6 0.354457 0.704106 0.679505
Si Si7 0.659916 0.580254 0.059617
Si Si8 0.360499 0.957985 0.315130
O O1 0.558846 0.991375 0.271847
O O2 0.662910 0.072061 0.099574
O O3 0.877798 0.029230 0.203063
O O4 0.013796 0.640712 0.054189
O O5 0.191502 0.522636 0.208274
O O6 0.385924 0.452203 0.318283
O O7 0.887489 0.626008 0.406831
O O8 0.008262 0.883764 0.394796
O O9 0.382836 0.593866 0.936212
O O10 0.520672 0.753966 0.016792
O O11 0.232418 0.600127 0.671838
O O12 0.489092 0.341434 0.447436
O O13 0.959972 0.766933 0.603466
O O14 0.311915 0.878396 0.404282
O O15 0.502200 0.759644 0.190953
#
# Coordination Sequence:
#
# PCOD9023541 Si02
#       8
#     2   2   2   2   1   2   2   2
#     4  11  24  47  73 107 146 200 246 304 374 447
#     4  11  21  46  67 102 141 186 243 299 374 437
#     4  10  23  45  71 101 145 199 237 311 372 426
#     4  11  22  42  71 101 140 193 251 292 373 456
#     4  12  24  40  74  98 144 194 232 316 372 424
#     4  10  22  39  71 104 137 190 246 299 360 447
#     4  11  25  44  69 111 145 190 257 302 365 453
#     4  12  24  44  71 104 148 195 244 311 375 435
#
# _framework density 26.219365
#
# number of rings (size 3 to 8) (size 9 to 14) (size 15 to 20)
#    0.000    1.067    5.333    2.000    3.733    0.533 
#    2.400    0.667    0.000    0.000    0.000    0.000 
#    0.000    0.000    0.000    0.000    0.000    0.000 
#
# Total GULP energy -83550.217752 kJ/mol
# GULP energy per Si atom -5570.014517 kJ/mol
# Density = 2.615969 g / cm^3
# Si number density = 26.219365 Si / 1000 Ang^3
#
#
#
# Elastic Constant Matrix: (Units=GPa)
#
#
# Indices 1 2 3 4 5 6 
#
# 1 70.1025 42.4246 22.8635 -3.9813 -4.7946 16.1499
# 2 42.4246 54.8670 27.6684 -0.1319 -12.1882 2.8487
# 3 22.8635 27.6684 170.7898 -6.8290 -3.3793 -0.6906
# 4 -3.9813 -0.1319 -6.8290 68.9464 44.1811 1.5393
# 5 -4.7946 -12.1882 -3.3793 44.1811 77.9704 5.7360
# 6 16.1499 2.8487 -0.6906 1.5393 5.7360 33.0377
#
#
#
# Elastic Compliance Matrix: (Units=1/GPa)
#
#
# Indices 1 2 3 4 5 6 
#
# 1 0.032708 -0.025210 -0.000245 0.004280 -0.003377 -0.013433
# 2 -0.025210 0.040788 -0.003325 -0.007092 0.008137 0.007654
# 3 -0.000245 -0.003325 0.006459 0.001254 -0.001014 0.000659
# 4 0.004280 -0.007092 0.001254 0.024128 -0.014458 -0.000069
# 5 -0.003377 0.008137 -0.001014 -0.014458 0.022204 -0.002253
# 6 -0.013433 0.007654 0.000659 -0.000069 -0.002253 0.036583
#
#
# Mechanical properties :
#
#
# Convention : Reuss Voigt Hill
#
# Bulk Modulus (GPa) = 44.64741 53.51914 49.08327
# Shear Modulus (GPa) = 21.94000 49.51109 35.72555
#
# Velocity S-wave (km/s) = 2.89586 4.35022 3.69530
# Velocity P-wave (km/s) = 5.31477 6.75936 6.08012
#
# Compressibility (1/GPa) = 0.02239771
#
# Stress axis : x y z
#
# Youngs Moduli (GPa) = 30.57381 24.51676 154.81692
#
# Poissons Ratio (x) = 0.61806 0.03786
# Poissons Ratio (y) = 0.77076 0.51471
# Poissons Ratio (z) = 0.00748 0.08151
#
# Static dielectric constant tensor:
#      x y z
#    x 2.140650 -0.305910 0.080810 
#    y -0.305910 0.055950 0.745060 
#    z 0.080810 0.745060 1.808790 
# 
# From -- ./inp_files/495167.got.cif
#   From: 2010.05.17/outbox.cif.g08.bks.cpg/sg2_248_cif.got.tgz:495167.got - 2010.06.03 11:33:40.
