data_PCOD9023312
_publ_section_title
;
Structure prediction by ZEFSAII (Michael W. Deem and Ramdas Pophale) SiO2 
 PCOD9023312
Probable space group: P -1
;
_chemical_formula_sum "Si O2"
_cell_formula_units_Z 15
_cell_length_a 6.278695
_cell_length_b 16.756193
_cell_length_c 8.798974
_cell_angle_alpha 126.435565
_cell_angle_beta 108.433731
_cell_angle_gamma 99.558083
_cell_volume 626.027714
_symmetry_space_group_name_H-M "P -1"
_symmetry_group_IT_number 2
_symmetry_cell_setting 'triclinic'
loop_
_space_group_symop_operation_xyz
x,y,z
-x,-y,-z
loop_
_atom_site_type_symbol
_atom_site_label
_atom_site_fract_x
_atom_site_fract_y
_atom_site_fract_z
Si Si1 0.000000 0.500000 0.500000
Si Si2 0.919707 0.321590 0.428458
Si Si3 0.042632 0.357770 0.066711
Si Si4 0.313702 0.045449 0.942362
Si Si5 0.236183 0.085331 0.303826
Si Si6 0.749370 0.146995 0.953660
Si Si7 0.522887 0.511586 0.200027
Si Si8 0.678033 0.314774 0.673547
O O1 0.232077 0.627021 0.639499
O O2 0.067525 0.435174 0.301318
O O3 0.827756 0.292782 0.545111
O O4 0.186639 0.440567 0.622412
O O5 0.915651 0.220195 0.219173
O O6 0.318729 0.398833 0.103035
O O7 0.883662 0.229677 0.938911
O O8 0.875283 0.376653 0.920875
O O9 0.466872 0.118762 0.916552
O O10 0.260839 0.102619 0.143948
O O11 0.040216 0.945552 0.730999
O O12 0.500000 0.000000 0.000000
O O13 0.738732 0.027357 0.790057
O O14 0.456415 0.197275 0.546549
O O15 0.445845 0.609182 0.326549
O O16 0.500000 0.500000 0.000000
#
# Coordination Sequence:
#
# PCOD9023312 Si02
#       8
#     1   2   2   2   2   2   2   2
#     4  10  22  44  66  90 138 168 224 274 332 392
#     4  11  23  41  68 100 131 178 218 279 330 396
#     4  11  24  46  65  99 135 179 217 282 334 391
#     4   9  19  38  63  93 133 168 219 270 316 387
#     4  10  22  39  67  99 129 177 223 269 327 401
#     4  10  23  41  65  99 137 170 219 278 332 389
#     4  12  25  42  69  99 131 172 230 272 332 400
#     4  12  24  43  70  94 135 179 222 271 337 397
#
# _framework density 23.960598000000001
#
# number of rings (size 3 to 8) (size 9 to 14) (size 15 to 20)
#    0.000    1.333    4.000    1.200    5.600    2.667 
#    7.200    0.667    0.000    0.000    0.000    0.000 
#    0.000    0.000    0.000    0.000    0.000    0.000 
#
# Total GULP energy -83596.047859 kJ/mol
# GULP energy per Si atom -5573.069857 kJ/mol
# Density = 2.390606 g / cm^3
# Si number density = 23.960598 Si / 1000 Ang^3
#
#
#
# Elastic Constant Matrix: (Units=GPa)
#
#
# Indices 1 2 3 4 5 6 
#
# 1 77.1320 41.5672 17.4497 12.5098 12.1653 19.8051
# 2 41.5672 150.4883 23.8687 28.5582 7.8581 30.2519
# 3 17.4497 23.8687 69.1033 7.8756 14.3253 16.4754
# 4 12.5098 28.5582 7.8756 43.5757 9.2329 -2.2473
# 5 12.1653 7.8581 14.3253 9.2329 32.4571 16.3064
# 6 19.8051 30.2519 16.4754 -2.2473 16.3064 47.5847
#
#
#
# Elastic Compliance Matrix: (Units=1/GPa)
#
#
# Indices 1 2 3 4 5 6 
#
# 1 0.016647 -0.003061 -0.001518 -0.002205 -0.002307 -0.003771
# 2 -0.003061 0.010059 -0.001305 -0.006767 0.004493 -0.006529
# 3 -0.001518 -0.001305 0.017110 -0.000882 -0.005017 -0.002785
# 4 -0.002205 -0.006767 -0.000882 0.031179 -0.011513 0.010943
# 5 -0.002307 0.004493 -0.005017 -0.011513 0.044005 -0.015783
# 6 -0.003771 -0.006529 -0.002785 0.010943 -0.015783 0.033625
#
#
# Mechanical properties :
#
#
# Convention : Reuss Voigt Hill
#
# Bulk Modulus (GPa) = 31.20274 51.38830 41.29552
# Shear Modulus (GPa) = 28.55897 38.97935 33.76916
#
# Velocity S-wave (km/s) = 3.45616 4.03775 3.75822
# Velocity P-wave (km/s) = 5.38307 6.57506 6.00870
#
# Compressibility (1/GPa) = 0.03204847
#
# Stress axis : x y z
#
# Youngs Moduli (GPa) = 60.06995 99.40975 58.44645
#
# Poissons Ratio (x) = 0.30425 0.08872
# Poissons Ratio (y) = 0.18385 0.07629
# Poissons Ratio (z) = 0.09119 0.12976
#
# Static dielectric constant tensor:
#      x y z
#    x 1.457300 0.487830 -0.202210 
#    y 0.487830 1.572860 0.226200 
#    z -0.202210 0.226200 1.804690 
# 
# From -- ./inp_files/141898.got.cif
#   From: 2010.05.17/outbox.cif.g08.bks.cpg/sg2_71_cif.got.tgz:141898.got - 2010.06.03 11:33:40.
