data_PCOD9023790
_publ_section_title
;
Structure prediction by ZEFSAII (Michael W. Deem and Ramdas Pophale) SiO2 
 PCOD9023790
Probable space group: P -1
;
_chemical_formula_sum "Si O2"
_cell_formula_units_Z 16
_cell_length_a 10.650486
_cell_length_b 19.732747
_cell_length_c 16.356934
_cell_angle_alpha 20.508638
_cell_angle_beta 145.477026
_cell_angle_gamma 133.975815
_cell_volume 628.673156
_symmetry_space_group_name_H-M "P -1"
_symmetry_group_IT_number 2
_symmetry_cell_setting 'triclinic'
loop_
_space_group_symop_operation_xyz
x,y,z
-x,-y,-z
loop_
_atom_site_type_symbol
_atom_site_label
_atom_site_fract_x
_atom_site_fract_y
_atom_site_fract_z
Si Si1 0.702207 0.920260 0.598309
Si Si2 0.793883 0.333423 0.143114
Si Si3 0.882135 0.228273 0.135238
Si Si4 0.227007 0.157294 0.689237
Si Si5 0.561680 0.354213 0.278085
Si Si6 0.023411 0.837155 0.013581
Si Si7 0.656887 0.626760 0.349131
Si Si8 0.967505 0.707880 0.300299
O O1 0.486136 0.851464 0.538958
O O2 0.922867 0.779163 0.817780
O O3 0.681075 0.156159 0.300137
O O4 0.793646 0.860313 0.808019
O O5 0.808528 0.378221 0.005117
O O6 0.063541 0.241892 0.426705
O O7 0.626263 0.530739 0.881322
O O8 0.628044 0.276086 0.902329
O O9 0.000000 0.000000 0.500000
O O10 0.228551 0.341002 0.541496
O O11 0.500000 0.000000 0.000000
O O12 0.098226 0.023761 0.815975
O O13 0.817637 0.330388 0.477860
O O14 0.500000 0.500000 0.000000
O O15 0.229563 0.612821 0.350609
O O16 0.989247 0.849502 0.078249
O O17 0.729286 0.758026 0.169468
O O18 0.000000 0.500000 0.500000
#
# Coordination Sequence:
#
# PCOD9023790 Si02
#       8
#     2   2   2   2   2   2   2   2
#     4  10  23  41  63  93 125 161 206 252 304 368
#     4  10  22  41  62  88 126 164 200 258 311 351
#     4  10  22  42  65  92 124 160 205 254 308 367
#     4  11  23  38  62  93 124 163 210 253 302 369
#     4  12  24  41  65  92 125 164 209 251 301 371
#     4  10  22  40  61  93 126 159 208 252 303 368
#     4  11  22  42  66  87 124 165 199 256 312 355
#     4  10  22  41  65  93 124 162 207 253 303 366
#
# _framework density 25.450427999999999
#
# number of rings (size 3 to 8) (size 9 to 14) (size 15 to 20)
#    0.000    1.500    0.000    6.750    0.000    7.500 
#    0.000    6.250    0.000    0.000    0.000    0.000 
#    0.000    0.000    0.000    0.000    0.000    0.000 
#
# Total GULP energy -89701.690655 kJ/mol
# GULP energy per Si atom -5606.355666 kJ/mol
# Density = 2.539250 g / cm^3
# Si number density = 25.450428 Si / 1000 Ang^3
#
#
#
# Elastic Constant Matrix: (Units=GPa)
#
#
# Indices 1 2 3 4 5 6 
#
# 1 98.1227 31.8445 5.6200 3.7068 -2.2098 -21.7759
# 2 31.8445 161.4171 47.7087 17.9299 -7.7562 0.3991
# 3 5.6200 47.7087 79.7332 3.1909 5.8469 4.1074
# 4 3.7068 17.9299 3.1909 38.9253 -7.5153 3.0596
# 5 -2.2098 -7.7562 5.8469 -7.5153 44.1300 0.0078
# 6 -21.7759 0.3991 4.1074 3.0596 0.0078 43.0955
#
#
#
# Elastic Compliance Matrix: (Units=1/GPa)
#
#
# Indices 1 2 3 4 5 6 
#
# 1 0.012401 -0.002491 0.000310 -0.000545 0.000048 0.006299
# 2 -0.002491 0.008534 -0.004890 -0.002947 0.001521 -0.000663
# 3 0.000310 -0.004890 0.015703 0.000492 -0.002841 -0.001329
# 4 -0.000545 -0.002947 0.000492 0.028043 0.004166 -0.002287
# 5 0.000048 0.001521 -0.002841 0.004166 0.024016 -0.000019
# 6 0.006299 -0.000663 -0.001329 -0.002287 -0.000019 0.026682
#
#
# Mechanical properties :
#
#
# Convention : Reuss Voigt Hill
#
# Bulk Modulus (GPa) = 44.45140 56.62435 50.53788
# Shear Modulus (GPa) = 36.49078 42.17014 39.33046
#
# Velocity S-wave (km/s) = 3.79066 4.07498 3.93539
# Velocity P-wave (km/s) = 6.05497 6.66617 6.36791
#
# Compressibility (1/GPa) = 0.02249648
#
# Stress axis : x y z
#
# Youngs Moduli (GPa) = 80.63577 117.17794 63.68141
#
# Poissons Ratio (x) = 0.29189 -0.01975
# Poissons Ratio (y) = 0.20086 0.31142
# Poissons Ratio (z) = -0.02501 0.57303
#
# Static dielectric constant tensor:
#      x y z
#    x 2.011750 0.013860 -0.011510 
#    y 0.013860 2.015940 -0.036130 
#    z -0.011510 -0.036130 2.030370 
# 
# From -- ./inp_files/570716.got.cif
#   From: 2010.05.17/outbox.cif.g08.bks.cpg/sg2_286_cif.got.tgz:570716.got - 2010.06.03 11:33:40.
